data_image0
_cell_length_a       5.09282
_cell_length_b       10.3086
_cell_length_c       10.5544
_cell_angle_alpha    90
_cell_angle_beta     80
_cell_angle_gamma    90

_symmetry_space_group_name_H-M    "P 1"
_symmetry_int_tables_number       1

loop_
  _symmetry_equiv_pos_as_xyz
  'x, y, z'

loop_
  _atom_site_label
  _atom_site_occupancy
  _atom_site_fract_x
  _atom_site_fract_y
  _atom_site_fract_z
  _atom_site_thermal_displace_type
  _atom_site_B_iso_or_equiv
  _atom_site_type_symbol
  Hf1      1.0000 0.27164  0.02045  0.14655  Biso   1.000  Hf
  Hf2      1.0000 0.31034  0.23083  0.40294  Biso   1.000  Hf
  Hf3      1.0000 0.71281  0.27448  0.09420  Biso   1.000  Hf
  Hf4      1.0000 0.71336  0.48055  0.35030  Biso   1.000  Hf
  O1       1.0000 0.05959  0.16013  0.06978  Biso   1.000  O 
  O2       1.0000 0.09633  0.06263  0.34121  Biso   1.000  O 
  O3       1.0000 0.92237  0.42172  0.16784  Biso   1.000  O 
  O4       1.0000 0.97697  0.35520  0.43458  Biso   1.000  O 
  O5       1.0000 0.56594  0.12485  0.23710  Biso   1.000  O 
  O6       1.0000 0.54155  0.10332  0.50291  Biso   1.000  O 
  O7       1.0000 0.43767  0.38232  0.00524  Biso   1.000  O 
  O8       1.0000 0.42679  0.37650  0.25309  Biso   1.000  O 
  Hf5      1.0000 0.26907  0.01428  0.64918  Biso   1.000  Hf
  Hf6      1.0000 0.27376  0.22225  0.89330  Biso   1.000  Hf
  Hf7      1.0000 0.72799  0.26641  0.60537  Biso   1.000  Hf
  Hf8      1.0000 0.71523  0.47414  0.85359  Biso   1.000  Hf
  O9       1.0000 0.07101  0.16376  0.57807  Biso   1.000  O 
  O10      1.0000 0.05946  0.08005  0.82564  Biso   1.000  O 
  O11      1.0000 0.93066  0.40964  0.67741  Biso   1.000  O 
  O12      1.0000 0.92989  0.33064  0.92062  Biso   1.000  O 
  O13      1.0000 0.54808  0.12407  0.74267  Biso   1.000  O 
  O14      1.0000 0.54512  0.11628  0.98926  Biso   1.000  O 
  O15      1.0000 0.46045  0.37610  0.51418  Biso   1.000  O 
  O16      1.0000 0.44635  0.36612  0.75907  Biso   1.000  O 
  Hf9      1.0000 0.27270  0.52350  0.14496  Biso   1.000  Hf
  Hf10     1.0000 0.26826  0.72377  0.39774  Biso   1.000  Hf
  Hf11     1.0000 0.71409  0.77271  0.10524  Biso   1.000  Hf
  Hf12     1.0000 0.71279  0.96676  0.36139  Biso   1.000  Hf
  O17      1.0000 0.05769  0.66859  0.07671  Biso   1.000  O 
  O18      1.0000 0.05708  0.58736  0.32266  Biso   1.000  O 
  O19      1.0000 0.92473  0.91568  0.17640  Biso   1.000  O 
  O20      1.0000 0.91915  0.82488  0.42642  Biso   1.000  O 
  O21      1.0000 0.54579  0.62904  0.24130  Biso   1.000  O 
  O22      1.0000 0.53842  0.61624  0.49158  Biso   1.000  O 
  O23      1.0000 0.43793  0.88138  0.01320  Biso   1.000  O 
  O24      1.0000 0.44179  0.86784  0.26216  Biso   1.000  O 
  Hf13     1.0000 0.27108  0.51681  0.64750  Biso   1.000  Hf
  Hf14     1.0000 0.26622  0.72311  0.89783  Biso   1.000  Hf
  Hf15     1.0000 0.71250  0.76416  0.60675  Biso   1.000  Hf
  Hf16     1.0000 0.71192  0.97325  0.85496  Biso   1.000  Hf
  O25      1.0000 0.05607  0.65775  0.57785  Biso   1.000  O 
  O26      1.0000 0.05996  0.58107  0.82755  Biso   1.000  O 
  O27      1.0000 0.91814  0.90964  0.67375  Biso   1.000  O 
  O28      1.0000 0.92360  0.83099  0.92477  Biso   1.000  O 
  O29      1.0000 0.54348  0.62293  0.74162  Biso   1.000  O 
  O30      1.0000 0.54523  0.61751  0.99070  Biso   1.000  O 
  O31      1.0000 0.43577  0.86828  0.51360  Biso   1.000  O 
  O32      1.0000 0.43705  0.86594  0.76307  Biso   1.000  O 
  Ir1      1.0000 0.85344  0.22617  0.31671  Biso   1.000  Ir
