data_image0
_cell_length_a       10.0135
_cell_length_b       10.2155
_cell_length_c       10.0135
_cell_angle_alpha    90
_cell_angle_beta     90
_cell_angle_gamma    90

_symmetry_space_group_name_H-M    "P 1"
_symmetry_int_tables_number       1

loop_
  _symmetry_equiv_pos_as_xyz
  'x, y, z'

loop_
  _atom_site_label
  _atom_site_occupancy
  _atom_site_fract_x
  _atom_site_fract_y
  _atom_site_fract_z
  _atom_site_thermal_displace_type
  _atom_site_B_iso_or_equiv
  _atom_site_type_symbol
  Ir1      1.0000 0.12337  0.03081  0.12490  Biso   1.000  Ir
  Hf1      1.0000 0.11877  0.25087  0.37980  Biso   1.000  Hf
  Hf2      1.0000 0.37832  0.25085  0.12341  Biso   1.000  Hf
  Hf3      1.0000 0.36328  0.99645  0.36777  Biso   1.000  Hf
  O1       1.0000 0.00671  0.14957  0.00679  Biso   1.000  O 
  O2       1.0000 0.99184  0.09280  0.25483  Biso   1.000  O 
  O3       1.0000 0.00145  0.34597  0.24535  Biso   1.000  O 
  O4       1.0000 0.98451  0.39729  0.99660  Biso   1.000  O 
  O5       1.0000 0.24005  0.14957  0.24300  Biso   1.000  O 
  O6       1.0000 0.24267  0.09282  0.99490  Biso   1.000  O 
  O7       1.0000 0.24534  0.34598  0.00442  Biso   1.000  O 
  O8       1.0000 0.25005  0.39727  0.25310  Biso   1.000  O 
  Hf4      1.0000 0.11727  0.00685  0.62485  Biso   1.000  Hf
  Hf5      1.0000 0.11576  0.25087  0.86992  Biso   1.000  Hf
  Hf6      1.0000 0.37064  0.24953  0.62369  Biso   1.000  Hf
  Hf7      1.0000 0.36926  0.99353  0.86983  Biso   1.000  Hf
  O9       1.0000 0.98944  0.14941  0.50125  Biso   1.000  O 
  O10      1.0000 0.99567  0.10311  0.75531  Biso   1.000  O 
  O11      1.0000 0.99059  0.35312  0.74626  Biso   1.000  O 
  O12      1.0000 0.99651  0.39842  0.49533  Biso   1.000  O 
  O13      1.0000 0.24510  0.14940  0.74846  Biso   1.000  O 
  O14      1.0000 0.23887  0.10313  0.49441  Biso   1.000  O 
  O15      1.0000 0.24395  0.35313  0.50344  Biso   1.000  O 
  O16      1.0000 0.23804  0.39841  0.75435  Biso   1.000  O 
  Hf8      1.0000 0.12338  0.49197  0.12489  Biso   1.000  Hf
  Hf9      1.0000 0.11727  0.74684  0.37119  Biso   1.000  Hf
  Hf10     1.0000 0.36974  0.74683  0.12178  Biso   1.000  Hf
  Hf11     1.0000 0.37150  0.50220  0.37607  Biso   1.000  Hf
  O17      1.0000 0.98770  0.64850  0.99985  Biso   1.000  O 
  O18      1.0000 0.99812  0.59584  0.24863  Biso   1.000  O 
  O19      1.0000 0.96944  0.83979  0.27697  Biso   1.000  O 
  O20      1.0000 0.01712  0.90348  0.01739  Biso   1.000  O 
  O21      1.0000 0.24684  0.64848  0.24986  Biso   1.000  O 
  O22      1.0000 0.24864  0.59584  0.00115  Biso   1.000  O 
  O23      1.0000 0.26505  0.83982  0.97279  Biso   1.000  O 
  O24      1.0000 0.22958  0.90348  0.23245  Biso   1.000  O 
  Hf12     1.0000 0.11726  0.50075  0.62485  Biso   1.000  Hf
  Hf13     1.0000 0.11727  0.74685  0.87850  Biso   1.000  Hf
  Hf14     1.0000 0.36440  0.75204  0.62119  Biso   1.000  Hf
  Hf15     1.0000 0.36587  0.50232  0.87319  Biso   1.000  Hf
  O25      1.0000 0.99381  0.64843  0.50123  Biso   1.000  O 
  O26      1.0000 0.99042  0.60218  0.74931  Biso   1.000  O 
  O27      1.0000 0.98778  0.85214  0.76559  Biso   1.000  O 
  O28      1.0000 0.98885  0.89945  0.51628  Biso   1.000  O 
  O29      1.0000 0.24070  0.64842  0.74847  Biso   1.000  O 
  O30      1.0000 0.24409  0.60219  0.50039  Biso   1.000  O 
  O31      1.0000 0.24669  0.85215  0.48417  Biso   1.000  O 
  O32      1.0000 0.24562  0.89943  0.73349  Biso   1.000  O 
  Hf16     1.0000 0.62338  0.00685  0.12490  Biso   1.000  Hf
  Hf17     1.0000 0.61911  0.24953  0.37824  Biso   1.000  Hf
  Hf18     1.0000 0.86844  0.25085  0.12639  Biso   1.000  Hf
  Hf19     1.0000 0.86524  0.99352  0.37989  Biso   1.000  Hf
  O33      1.0000 0.48912  0.14941  0.99549  Biso   1.000  O 
  O34      1.0000 0.49145  0.10311  0.24490  Biso   1.000  O 
  O35      1.0000 0.50044  0.35311  0.25008  Biso   1.000  O 
  O36      1.0000 0.49537  0.39840  0.00255  Biso   1.000  O 
  O37      1.0000 0.74541  0.14940  0.25424  Biso   1.000  O 
  O38      1.0000 0.75530  0.10311  0.00491  Biso   1.000  O 
  O39      1.0000 0.73411  0.35313  0.99964  Biso   1.000  O 
  O40      1.0000 0.75141  0.39841  0.24723  Biso   1.000  O 
  Hf20     1.0000 0.61725  0.99617  0.62486  Biso   1.000  Hf
  Hf21     1.0000 0.61542  0.24954  0.87148  Biso   1.000  Hf
  Hf22     1.0000 0.86389  0.24953  0.62603  Biso   1.000  Hf
  Hf23     1.0000 0.87121  0.99646  0.88195  Biso   1.000  Hf
  O41      1.0000 0.48777  0.14766  0.49377  Biso   1.000  O 
  O42      1.0000 0.49505  0.10322  0.74560  Biso   1.000  O 
  O43      1.0000 0.48934  0.35404  0.75123  Biso   1.000  O 
  O44      1.0000 0.49493  0.39778  0.50101  Biso   1.000  O 
  O45      1.0000 0.74677  0.14766  0.75596  Biso   1.000  O 
  O46      1.0000 0.73948  0.10323  0.50413  Biso   1.000  O 
  O47      1.0000 0.74521  0.35405  0.49847  Biso   1.000  O 
  O48      1.0000 0.73961  0.39778  0.74870  Biso   1.000  O 
  Hf24     1.0000 0.62339  0.50074  0.12490  Biso   1.000  Hf
  Hf25     1.0000 0.61669  0.75204  0.37196  Biso   1.000  Hf
  Hf26     1.0000 0.87703  0.74683  0.12799  Biso   1.000  Hf
  Hf27     1.0000 0.86865  0.50233  0.37653  Biso   1.000  Hf
  O49      1.0000 0.48904  0.64843  0.99988  Biso   1.000  O 
  O50      1.0000 0.49738  0.60217  0.25020  Biso   1.000  O 
  O51      1.0000 0.48107  0.85213  0.25264  Biso   1.000  O 
  O52      1.0000 0.50410  0.89944  0.99514  Biso   1.000  O 
  O53      1.0000 0.74549  0.64842  0.24984  Biso   1.000  O 
  O54      1.0000 0.73716  0.60220  0.99952  Biso   1.000  O 
  O55      1.0000 0.75342  0.85216  0.99712  Biso   1.000  O 
  O56      1.0000 0.73038  0.89944  0.25462  Biso   1.000  O 
  Hf28     1.0000 0.61726  0.50461  0.62486  Biso   1.000  Hf
  Hf29     1.0000 0.61784  0.75206  0.87775  Biso   1.000  Hf
  Hf30     1.0000 0.87013  0.75204  0.62852  Biso   1.000  Hf
  Hf31     1.0000 0.86303  0.50221  0.87365  Biso   1.000  Hf
  O57      1.0000 0.49362  0.64877  0.49971  Biso   1.000  O 
  O58      1.0000 0.49082  0.60329  0.74975  Biso   1.000  O 
  O59      1.0000 0.49249  0.85077  0.74811  Biso   1.000  O 
  O60      1.0000 0.49200  0.89930  0.49809  Biso   1.000  O 
  O61      1.0000 0.74088  0.64877  0.75001  Biso   1.000  O 
  O62      1.0000 0.74369  0.60329  0.49996  Biso   1.000  O 
  O63      1.0000 0.74200  0.85077  0.50163  Biso   1.000  O 
  O64      1.0000 0.74248  0.89930  0.75165  Biso   1.000  O 
