data_image0
_cell_length_a       10.1011
_cell_length_b       10.4208
_cell_length_c       10.1222
_cell_angle_alpha    90
_cell_angle_beta     90
_cell_angle_gamma    90

_symmetry_space_group_name_H-M    "P 1"
_symmetry_int_tables_number       1

loop_
  _symmetry_equiv_pos_as_xyz
  'x, y, z'

loop_
  _atom_site_label
  _atom_site_occupancy
  _atom_site_fract_x
  _atom_site_fract_y
  _atom_site_fract_z
  _atom_site_thermal_displace_type
  _atom_site_B_iso_or_equiv
  _atom_site_type_symbol
  Hf1      1.0000 0.06869  0.97125  0.15265  Biso   1.000  Hf
  Hf2      1.0000 0.09334  0.23313  0.37816  Biso   1.000  Hf
  Hf3      1.0000 0.33583  0.26861  0.11221  Biso   1.000  Hf
  Hf4      1.0000 0.36240  0.01942  0.39726  Biso   1.000  Hf
  O1       1.0000 0.92583  0.19446  0.95752  Biso   1.000  O 
  O2       1.0000 0.01394  0.06613  0.27855  Biso   1.000  O 
  O3       1.0000 0.92359  0.31738  0.28443  Biso   1.000  O 
  O4       1.0000 0.92811  0.42859  0.03586  Biso   1.000  O 
  O5       1.0000 0.24509  0.13772  0.25593  Biso   1.000  O 
  O6       1.0000 0.21155  0.10807  0.00237  Biso   1.000  O 
  O7       1.0000 0.19879  0.36474  0.97929  Biso   1.000  O 
  O8       1.0000 0.19548  0.39208  0.23565  Biso   1.000  O 
  Hf5      1.0000 0.06326  0.97760  0.64742  Biso   1.000  Hf
  Hf6      1.0000 0.09630  0.23806  0.84110  Biso   1.000  Hf
  Hf7      1.0000 0.33131  0.26796  0.61071  Biso   1.000  Hf
  Hf8      1.0000 0.36102  0.02068  0.89799  Biso   1.000  Hf
  O9       1.0000 0.95858  0.16749  0.50593  Biso   1.000  O 
  O10      1.0000 0.01223  0.07031  0.76779  Biso   1.000  O 
  O11      1.0000 0.94685  0.33675  0.75502  Biso   1.000  O 
  O12      1.0000 0.93452  0.42457  0.52029  Biso   1.000  O 
  O13      1.0000 0.25112  0.13678  0.74925  Biso   1.000  O 
  O14      1.0000 0.21491  0.11227  0.50549  Biso   1.000  O 
  O15      1.0000 0.19636  0.36325  0.48864  Biso   1.000  O 
  O16      1.0000 0.20240  0.38889  0.73327  Biso   1.000  O 
  Hf9      1.0000 0.09416  0.52322  0.10689  Biso   1.000  Hf
  Hf10     1.0000 0.09878  0.72883  0.36352  Biso   1.000  Hf
  Hf11     1.0000 0.33030  0.76321  0.10665  Biso   1.000  Hf
  Hf12     1.0000 0.33220  0.48495  0.35666  Biso   1.000  Hf
  O17      1.0000 0.98689  0.67666  0.02095  Biso   1.000  O 
  O18      1.0000 0.99410  0.57003  0.27864  Biso   1.000  O 
  O19      1.0000 0.97055  0.81716  0.24227  Biso   1.000  O 
  O20      1.0000 0.91131  0.93576  0.02587  Biso   1.000  O 
  O21      1.0000 0.23066  0.63713  0.23481  Biso   1.000  O 
  O22      1.0000 0.23268  0.61574  0.98419  Biso   1.000  O 
  O23      1.0000 0.17678  0.85892  0.00406  Biso   1.000  O 
  O24      1.0000 0.21562  0.88173  0.25716  Biso   1.000  O 
  Hf13     1.0000 0.09006  0.51143  0.60985  Biso   1.000  Hf
  Hf14     1.0000 0.10225  0.73307  0.85800  Biso   1.000  Hf
  Hf15     1.0000 0.32998  0.76215  0.60600  Biso   1.000  Hf
  Hf16     1.0000 0.33426  0.48535  0.85780  Biso   1.000  Hf
  O25      1.0000 0.98700  0.66975  0.52453  Biso   1.000  O 
  O26      1.0000 0.99743  0.57246  0.78274  Biso   1.000  O 
  O27      1.0000 0.96743  0.82056  0.74398  Biso   1.000  O 
  O28      1.0000 0.91819  0.91947  0.51611  Biso   1.000  O 
  O29      1.0000 0.23473  0.63538  0.73535  Biso   1.000  O 
  O30      1.0000 0.22732  0.60931  0.48562  Biso   1.000  O 
  O31      1.0000 0.17899  0.85954  0.50302  Biso   1.000  O 
  O32      1.0000 0.21160  0.88502  0.75464  Biso   1.000  O 
  Hf17     1.0000 0.56139  0.97765  0.14728  Biso   1.000  Hf
  Hf18     1.0000 0.59610  0.23346  0.35641  Biso   1.000  Hf
  Hf19     1.0000 0.80161  0.26830  0.10586  Biso   1.000  Hf
  Hf20     1.0000 0.86268  0.01469  0.39819  Biso   1.000  Hf
  O33      1.0000 0.45577  0.18057  0.98626  Biso   1.000  O 
  O34      1.0000 0.50529  0.07551  0.26383  Biso   1.000  O 
  O35      1.0000 0.43652  0.32609  0.27681  Biso   1.000  O 
  O36      1.0000 0.43048  0.43040  0.03182  Biso   1.000  O 
  O37      1.0000 0.74447  0.13401  0.24798  Biso   1.000  O 
  O38      1.0000 0.70226  0.11191  0.00083  Biso   1.000  O 
  O39      1.0000 0.68429  0.37209  0.98010  Biso   1.000  O 
  O40      1.0000 0.68788  0.38776  0.23180  Biso   1.000  O 
  Hf21     1.0000 0.56129  0.98031  0.64486  Biso   1.000  Hf
  Hf22     1.0000 0.59762  0.23464  0.85189  Biso   1.000  Hf
  Hf23     1.0000 0.82387  0.26996  0.60641  Biso   1.000  Hf
  Hf24     1.0000 0.86040  0.02036  0.89419  Biso   1.000  Hf
  O41      1.0000 0.45895  0.17512  0.49304  Biso   1.000  O 
  O42      1.0000 0.50886  0.07496  0.76468  Biso   1.000  O 
  O43      1.0000 0.44282  0.32932  0.76932  Biso   1.000  O 
  O44      1.0000 0.43308  0.42764  0.52780  Biso   1.000  O 
  O45      1.0000 0.74749  0.13834  0.74638  Biso   1.000  O 
  O46      1.0000 0.71319  0.11311  0.49896  Biso   1.000  O 
  O47      1.0000 0.69129  0.36389  0.48337  Biso   1.000  O 
  O48      1.0000 0.70032  0.38731  0.73347  Biso   1.000  O 
  Hf25     1.0000 0.59177  0.52090  0.10424  Biso   1.000  Hf
  Hf26     1.0000 0.59987  0.72978  0.35935  Biso   1.000  Hf
  Hf27     1.0000 0.82754  0.76605  0.10575  Biso   1.000  Hf
  Hf28     1.0000 0.83218  0.48125  0.35273  Biso   1.000  Hf
  O49      1.0000 0.48725  0.67515  0.01848  Biso   1.000  O 
  O50      1.0000 0.49199  0.57340  0.27591  Biso   1.000  O 
  O51      1.0000 0.46962  0.82145  0.24237  Biso   1.000  O 
  O52      1.0000 0.41387  0.92508  0.01826  Biso   1.000  O 
  O53      1.0000 0.73219  0.63559  0.23287  Biso   1.000  O 
  O54      1.0000 0.73292  0.61728  0.98296  Biso   1.000  O 
  O55      1.0000 0.67671  0.86159  0.00003  Biso   1.000  O 
  O56      1.0000 0.71268  0.88366  0.25309  Biso   1.000  O 
  Hf29     1.0000 0.59296  0.51408  0.60692  Biso   1.000  Hf
  Hf30     1.0000 0.60152  0.73306  0.85642  Biso   1.000  Hf
  Hf31     1.0000 0.82919  0.76194  0.60615  Biso   1.000  Hf
  Hf32     1.0000 0.83497  0.48520  0.85869  Biso   1.000  Hf
  O57      1.0000 0.48651  0.67142  0.52017  Biso   1.000  O 
  O58      1.0000 0.49716  0.57244  0.77891  Biso   1.000  O 
  O59      1.0000 0.46838  0.82236  0.74101  Biso   1.000  O 
  O60      1.0000 0.41729  0.92289  0.51477  Biso   1.000  O 
  O61      1.0000 0.73527  0.63458  0.73510  Biso   1.000  O 
  O62      1.0000 0.72916  0.61046  0.48384  Biso   1.000  O 
  O63      1.0000 0.67852  0.85932  0.50105  Biso   1.000  O 
  O64      1.0000 0.71069  0.88602  0.75059  Biso   1.000  O 
  K1       1.0000 0.06426  0.23638  0.12072  Biso   1.000  K 
