data_image0
_cell_length_a       10.1993
_cell_length_b       10.3808
_cell_length_c       5.26743
_cell_angle_alpha    90
_cell_angle_beta     80
_cell_angle_gamma    90

_symmetry_space_group_name_H-M    "P 1"
_symmetry_int_tables_number       1

loop_
  _symmetry_equiv_pos_as_xyz
  'x, y, z'

loop_
  _atom_site_label
  _atom_site_occupancy
  _atom_site_fract_x
  _atom_site_fract_y
  _atom_site_fract_z
  _atom_site_thermal_displace_type
  _atom_site_B_iso_or_equiv
  _atom_site_type_symbol
  K1       1.0000 0.08948  0.99282  0.27452  Biso   1.000  K 
  Hf1      1.0000 0.14103  0.52242  0.28766  Biso   1.000  Hf
  Hf2      1.0000 0.63631  0.03124  0.29774  Biso   1.000  Hf
  Hf3      1.0000 0.62799  0.51600  0.28998  Biso   1.000  Hf
  Hf4      1.0000 0.13336  0.23310  0.79662  Biso   1.000  Hf
  Hf5      1.0000 0.14595  0.73338  0.77864  Biso   1.000  Hf
  Hf6      1.0000 0.63221  0.23783  0.79581  Biso   1.000  Hf
  Hf7      1.0000 0.62384  0.72589  0.78916  Biso   1.000  Hf
  Hf8      1.0000 0.35106  0.26512  0.20798  Biso   1.000  Hf
  Hf9      1.0000 0.36004  0.77626  0.20083  Biso   1.000  Hf
  Hf10     1.0000 0.86071  0.27860  0.20909  Biso   1.000  Hf
  Hf11     1.0000 0.86302  0.74239  0.15437  Biso   1.000  Hf
  Hf12     1.0000 0.35265  0.47789  0.70561  Biso   1.000  Hf
  Hf13     1.0000 0.34976  0.98418  0.69796  Biso   1.000  Hf
  Hf14     1.0000 0.85943  0.48204  0.69512  Biso   1.000  Hf
  Hf15     1.0000 0.84953  0.99554  0.76261  Biso   1.000  Hf
  O1       1.0000 0.03828  0.20411  0.17211  Biso   1.000  O 
  O2       1.0000 0.04386  0.67922  0.16337  Biso   1.000  O 
  O3       1.0000 0.53056  0.16850  0.15384  Biso   1.000  O 
  O4       1.0000 0.53104  0.66237  0.14431  Biso   1.000  O 
  O5       1.0000 0.02531  0.08417  0.72761  Biso   1.000  O 
  O6       1.0000 0.03018  0.58807  0.65857  Biso   1.000  O 
  O7       1.0000 0.53593  0.09084  0.65253  Biso   1.000  O 
  O8       1.0000 0.52414  0.58550  0.64875  Biso   1.000  O 
  O9       1.0000 0.45919  0.41265  0.34451  Biso   1.000  O 
  O10      1.0000 0.46763  0.91646  0.34271  Biso   1.000  O 
  O11      1.0000 0.95585  0.43766  0.32335  Biso   1.000  O 
  O12      1.0000 0.85363  0.88777  0.42462  Biso   1.000  O 
  O13      1.0000 0.46182  0.34065  0.84484  Biso   1.000  O 
  O14      1.0000 0.47480  0.84789  0.83915  Biso   1.000  O 
  O15      1.0000 0.95503  0.33758  0.82610  Biso   1.000  O 
  O16      1.0000 0.96782  0.84172  0.84637  Biso   1.000  O 
  O17      1.0000 0.28165  0.13631  0.49621  Biso   1.000  O 
  O18      1.0000 0.27506  0.62662  0.47048  Biso   1.000  O 
  O19      1.0000 0.78049  0.13499  0.49543  Biso   1.000  O 
  O20      1.0000 0.76212  0.63639  0.46845  Biso   1.000  O 
  O21      1.0000 0.28222  0.13394  0.96087  Biso   1.000  O 
  O22      1.0000 0.27302  0.62199  0.97380  Biso   1.000  O 
  O23      1.0000 0.77065  0.12907  0.00247  Biso   1.000  O 
  O24      1.0000 0.76643  0.62027  0.96299  Biso   1.000  O 
  O25      1.0000 0.22247  0.38106  0.01600  Biso   1.000  O 
  O26      1.0000 0.23659  0.87086  0.98446  Biso   1.000  O 
  O27      1.0000 0.71988  0.38117  0.01600  Biso   1.000  O 
  O28      1.0000 0.72509  0.87791  0.03764  Biso   1.000  O 
  O29      1.0000 0.21496  0.37493  0.51642  Biso   1.000  O 
  O30      1.0000 0.23282  0.86221  0.51066  Biso   1.000  O 
  O31      1.0000 0.71926  0.37640  0.51695  Biso   1.000  O 
  O32      1.0000 0.71271  0.88924  0.54414  Biso   1.000  O 
