data_image0
_cell_length_a       5.08128
_cell_length_b       10.4237
_cell_length_c       10.1699
_cell_angle_alpha    90
_cell_angle_beta     90
_cell_angle_gamma    90

_symmetry_space_group_name_H-M    "P 1"
_symmetry_int_tables_number       1

loop_
  _symmetry_equiv_pos_as_xyz
  'x, y, z'

loop_
  _atom_site_label
  _atom_site_occupancy
  _atom_site_fract_x
  _atom_site_fract_y
  _atom_site_fract_z
  _atom_site_thermal_displace_type
  _atom_site_B_iso_or_equiv
  _atom_site_type_symbol
  Hf1      1.0000 0.13247  0.97092  0.15149  Biso   1.000  Hf
  Hf2      1.0000 0.19223  0.23295  0.37667  Biso   1.000  Hf
  Hf3      1.0000 0.62184  0.27203  0.10813  Biso   1.000  Hf
  Hf4      1.0000 0.73210  0.01631  0.39838  Biso   1.000  Hf
  O1       1.0000 0.86094  0.20233  0.95243  Biso   1.000  O 
  O2       1.0000 0.03057  0.06775  0.27780  Biso   1.000  O 
  O3       1.0000 0.84844  0.31893  0.28706  Biso   1.000  O 
  O4       1.0000 0.85384  0.43201  0.03886  Biso   1.000  O 
  O5       1.0000 0.49118  0.13502  0.25005  Biso   1.000  O 
  O6       1.0000 0.41797  0.11726  0.99893  Biso   1.000  O 
  O7       1.0000 0.38346  0.37798  0.97814  Biso   1.000  O 
  O8       1.0000 0.38021  0.39188  0.23434  Biso   1.000  O 
  Hf5      1.0000 0.12551  0.97993  0.64523  Biso   1.000  Hf
  Hf6      1.0000 0.20587  0.24053  0.83903  Biso   1.000  Hf
  Hf7      1.0000 0.66502  0.27356  0.60752  Biso   1.000  Hf
  Hf8      1.0000 0.72734  0.02698  0.89485  Biso   1.000  Hf
  O9       1.0000 0.92586  0.16924  0.50493  Biso   1.000  O 
  O10      1.0000 0.03666  0.07395  0.76754  Biso   1.000  O 
  O11      1.0000 0.91942  0.34350  0.74936  Biso   1.000  O 
  O12      1.0000 0.87391  0.42783  0.51885  Biso   1.000  O 
  O13      1.0000 0.51108  0.14014  0.74322  Biso   1.000  O 
  O14      1.0000 0.43553  0.11356  0.50018  Biso   1.000  O 
  O15      1.0000 0.39072  0.36431  0.48880  Biso   1.000  O 
  O16      1.0000 0.42485  0.39231  0.73404  Biso   1.000  O 
  Hf9      1.0000 0.18511  0.52793  0.10606  Biso   1.000  Hf
  Hf10     1.0000 0.20027  0.72797  0.36401  Biso   1.000  Hf
  Hf11     1.0000 0.65675  0.76700  0.10675  Biso   1.000  Hf
  Hf12     1.0000 0.66495  0.48389  0.35345  Biso   1.000  Hf
  O17      1.0000 0.97220  0.67929  0.01953  Biso   1.000  O 
  O18      1.0000 0.98681  0.57232  0.27798  Biso   1.000  O 
  O19      1.0000 0.94400  0.81733  0.24225  Biso   1.000  O 
  O20      1.0000 0.81514  0.93669  0.02694  Biso   1.000  O 
  O21      1.0000 0.46394  0.63745  0.23447  Biso   1.000  O 
  O22      1.0000 0.47629  0.62493  0.98364  Biso   1.000  O 
  O23      1.0000 0.34899  0.86153  0.00273  Biso   1.000  O 
  O24      1.0000 0.43047  0.88182  0.25701  Biso   1.000  O 
  Hf13     1.0000 0.17953  0.51142  0.61302  Biso   1.000  Hf
  Hf14     1.0000 0.21151  0.73861  0.85679  Biso   1.000  Hf
  Hf15     1.0000 0.66222  0.76231  0.60658  Biso   1.000  Hf
  Hf16     1.0000 0.67632  0.49127  0.86150  Biso   1.000  Hf
  O25      1.0000 0.97607  0.67043  0.52512  Biso   1.000  O 
  O26      1.0000 0.00210  0.57717  0.78449  Biso   1.000  O 
  O27      1.0000 0.93980  0.82328  0.74197  Biso   1.000  O 
  O28      1.0000 0.83627  0.92080  0.51580  Biso   1.000  O 
  O29      1.0000 0.47557  0.63803  0.73717  Biso   1.000  O 
  O30      1.0000 0.45576  0.60888  0.48645  Biso   1.000  O 
  O31      1.0000 0.35974  0.85936  0.50299  Biso   1.000  O 
  O32      1.0000 0.42445  0.88916  0.75254  Biso   1.000  O 
  K1       1.0000 0.11569  0.23907  0.11969  Biso   1.000  K 
