data_image0
_cell_length_a       10.1425
_cell_length_b       5.24554
_cell_length_c       10.1296
_cell_angle_alpha    80
_cell_angle_beta     90
_cell_angle_gamma    90

_symmetry_space_group_name_H-M    "P 1"
_symmetry_int_tables_number       1

loop_
  _symmetry_equiv_pos_as_xyz
  'x, y, z'

loop_
  _atom_site_label
  _atom_site_occupancy
  _atom_site_fract_x
  _atom_site_fract_y
  _atom_site_fract_z
  _atom_site_thermal_displace_type
  _atom_site_B_iso_or_equiv
  _atom_site_type_symbol
  Hf1      1.0000 0.14832  0.07083  0.11705  Biso   1.000  Hf
  Hf2      1.0000 0.14057  0.39876  0.39213  Biso   1.000  Hf
  Hf3      1.0000 0.38540  0.52740  0.09524  Biso   1.000  Hf
  Hf4      1.0000 0.35409  0.89708  0.38538  Biso   1.000  Hf
  O1       1.0000 0.00865  0.27407  0.22639  Biso   1.000  O 
  O2       1.0000 0.04694  0.04306  0.45828  Biso   1.000  O 
  O3       1.0000 0.48001  0.76334  0.22500  Biso   1.000  O 
  O4       1.0000 0.45203  0.55306  0.46479  Biso   1.000  O 
  O5       1.0000 0.27226  0.24765  0.24712  Biso   1.000  O 
  O6       1.0000 0.27801  0.16052  0.50987  Biso   1.000  O 
  O7       1.0000 0.22204  0.65341  0.52149  Biso   1.000  O 
  O8       1.0000 0.20875  0.75132  0.27128  Biso   1.000  O 
  Hf5      1.0000 0.13675  0.91087  0.63837  Biso   1.000  Hf
  Hf6      1.0000 0.09702  0.32831  0.83992  Biso   1.000  Hf
  Hf7      1.0000 0.36572  0.42587  0.64653  Biso   1.000  Hf
  Hf8      1.0000 0.39655  0.85647  0.85948  Biso   1.000  Hf
  O9       1.0000 0.02155  0.22577  0.67660  Biso   1.000  O 
  O10      1.0000 0.03732  0.96091  0.94601  Biso   1.000  O 
  O11      1.0000 0.47238  0.73963  0.68785  Biso   1.000  O 
  O12      1.0000 0.48057  0.48502  0.93509  Biso   1.000  O 
  O13      1.0000 0.25405  0.10880  0.75714  Biso   1.000  O 
  O14      1.0000 0.25245  0.19950  0.99449  Biso   1.000  O 
  O15      1.0000 0.29848  0.87850  0.02303  Biso   1.000  O 
  O16      1.0000 0.24170  0.60624  0.77472  Biso   1.000  O 
  Hf9      1.0000 0.63827  0.98706  0.14030  Biso   1.000  Hf
  Hf10     1.0000 0.59270  0.41831  0.35667  Biso   1.000  Hf
  Hf11     1.0000 0.84463  0.48668  0.13979  Biso   1.000  Hf
  Hf12     1.0000 0.90326  0.92189  0.34737  Biso   1.000  Hf
  O17      1.0000 0.53479  0.30378  0.18099  Biso   1.000  O 
  O18      1.0000 0.52946  0.04952  0.44145  Biso   1.000  O 
  O19      1.0000 0.95044  0.82941  0.16681  Biso   1.000  O 
  O20      1.0000 0.96638  0.55136  0.44079  Biso   1.000  O 
  O21      1.0000 0.75454  0.17791  0.26956  Biso   1.000  O 
  O22      1.0000 0.70703  0.32329  0.52266  Biso   1.000  O 
  O23      1.0000 0.78655  0.82460  0.51711  Biso   1.000  O 
  O24      1.0000 0.73475  0.67742  0.26863  Biso   1.000  O 
  Hf13     1.0000 0.64010  0.95840  0.62045  Biso   1.000  Hf
  Hf14     1.0000 0.64651  0.30456  0.88559  Biso   1.000  Hf
  Hf15     1.0000 0.85563  0.46686  0.61763  Biso   1.000  Hf
  Hf16     1.0000 0.86344  0.80437  0.89359  Biso   1.000  Hf
  O25      1.0000 0.51590  0.19450  0.73301  Biso   1.000  O 
  O26      1.0000 0.53984  0.97074  0.97161  Biso   1.000  O 
  O27      1.0000 0.98498  0.68763  0.72887  Biso   1.000  O 
  O28      1.0000 0.94138  0.43749  0.95339  Biso   1.000  O 
  O29      1.0000 0.77166  0.11179  0.75919  Biso   1.000  O 
  O30      1.0000 0.77509  0.22885  0.01109  Biso   1.000  O 
  O31      1.0000 0.72150  0.73716  0.00787  Biso   1.000  O 
  O32      1.0000 0.72858  0.61926  0.75629  Biso   1.000  O 
  K1       1.0000 0.11626  0.60727  0.08466  Biso   1.000  K 
