data_image0
_cell_length_a       10.1685
_cell_length_b       10.3022
_cell_length_c       10.4716
_cell_angle_alpha    90
_cell_angle_beta     80
_cell_angle_gamma    90

_symmetry_space_group_name_H-M    "P 1"
_symmetry_int_tables_number       1

loop_
  _symmetry_equiv_pos_as_xyz
  'x, y, z'

loop_
  _atom_site_label
  _atom_site_occupancy
  _atom_site_fract_x
  _atom_site_fract_y
  _atom_site_fract_z
  _atom_site_thermal_displace_type
  _atom_site_B_iso_or_equiv
  _atom_site_type_symbol
  K1       1.0000 0.12864  0.00534  0.14275  Biso   1.000  K 
  Hf1      1.0000 0.13699  0.02275  0.64604  Biso   1.000  Hf
  Hf2      1.0000 0.13839  0.51997  0.14375  Biso   1.000  Hf
  Hf3      1.0000 0.13540  0.52299  0.64635  Biso   1.000  Hf
  Hf4      1.0000 0.64291  0.02198  0.14580  Biso   1.000  Hf
  Hf5      1.0000 0.63560  0.02321  0.64857  Biso   1.000  Hf
  Hf6      1.0000 0.63283  0.51799  0.14639  Biso   1.000  Hf
  Hf7      1.0000 0.63425  0.52171  0.64604  Biso   1.000  Hf
  Hf8      1.0000 0.13754  0.22736  0.39558  Biso   1.000  Hf
  Hf9      1.0000 0.13346  0.23085  0.89865  Biso   1.000  Hf
  Hf10     1.0000 0.13672  0.72771  0.39465  Biso   1.000  Hf
  Hf11     1.0000 0.13760  0.73165  0.89433  Biso   1.000  Hf
  Hf12     1.0000 0.63381  0.23142  0.39746  Biso   1.000  Hf
  Hf13     1.0000 0.63440  0.23094  0.89765  Biso   1.000  Hf
  Hf14     1.0000 0.63147  0.72653  0.39817  Biso   1.000  Hf
  Hf15     1.0000 0.63373  0.73081  0.89461  Biso   1.000  Hf
  Hf16     1.0000 0.35481  0.26334  0.10480  Biso   1.000  Hf
  Hf17     1.0000 0.35534  0.27171  0.60494  Biso   1.000  Hf
  Hf18     1.0000 0.36100  0.77056  0.10356  Biso   1.000  Hf
  Hf19     1.0000 0.35482  0.77445  0.60369  Biso   1.000  Hf
  Hf20     1.0000 0.85736  0.27356  0.10328  Biso   1.000  Hf
  Hf21     1.0000 0.85750  0.27318  0.60492  Biso   1.000  Hf
  Hf22     1.0000 0.85634  0.76154  0.09790  Biso   1.000  Hf
  Hf23     1.0000 0.85704  0.77268  0.60349  Biso   1.000  Hf
  Hf24     1.0000 0.35456  0.47722  0.35244  Biso   1.000  Hf
  Hf25     1.0000 0.35603  0.47818  0.85511  Biso   1.000  Hf
  Hf26     1.0000 0.35420  0.98135  0.35169  Biso   1.000  Hf
  Hf27     1.0000 0.35276  0.98210  0.85560  Biso   1.000  Hf
  Hf28     1.0000 0.85752  0.48001  0.35429  Biso   1.000  Hf
  Hf29     1.0000 0.85565  0.48084  0.85257  Biso   1.000  Hf
  Hf30     1.0000 0.85241  0.98405  0.36310  Biso   1.000  Hf
  Hf31     1.0000 0.85383  0.98033  0.85560  Biso   1.000  Hf
  O1       1.0000 0.03412  0.19539  0.08036  Biso   1.000  O 
  O2       1.0000 0.03352  0.17607  0.58814  Biso   1.000  O 
  O3       1.0000 0.03668  0.67571  0.08226  Biso   1.000  O 
  O4       1.0000 0.03148  0.67097  0.58155  Biso   1.000  O 
  O5       1.0000 0.53557  0.16710  0.07942  Biso   1.000  O 
  O6       1.0000 0.52889  0.16814  0.58117  Biso   1.000  O 
  O7       1.0000 0.53355  0.66508  0.07697  Biso   1.000  O 
  O8       1.0000 0.52843  0.66709  0.57946  Biso   1.000  O 
  O9       1.0000 0.02214  0.08296  0.35775  Biso   1.000  O 
  O10      1.0000 0.03224  0.08067  0.83383  Biso   1.000  O 
  O11      1.0000 0.03167  0.58177  0.32947  Biso   1.000  O 
  O12      1.0000 0.03057  0.58125  0.83110  Biso   1.000  O 
  O13      1.0000 0.53578  0.08216  0.33028  Biso   1.000  O 
  O14      1.0000 0.53358  0.08427  0.82969  Biso   1.000  O 
  O15      1.0000 0.52810  0.58250  0.32887  Biso   1.000  O 
  O16      1.0000 0.52846  0.58535  0.82806  Biso   1.000  O 
  O17      1.0000 0.46144  0.41359  0.17156  Biso   1.000  O 
  O18      1.0000 0.46127  0.41768  0.67116  Biso   1.000  O 
  O19      1.0000 0.46726  0.91738  0.16982  Biso   1.000  O 
  O20      1.0000 0.45996  0.91726  0.67311  Biso   1.000  O 
  O21      1.0000 0.95663  0.42836  0.16609  Biso   1.000  O 
  O22      1.0000 0.95948  0.42372  0.66730  Biso   1.000  O 
  O23      1.0000 0.90602  0.92753  0.17231  Biso   1.000  O 
  O24      1.0000 0.95799  0.92141  0.66954  Biso   1.000  O 
  O25      1.0000 0.46021  0.33296  0.42169  Biso   1.000  O 
  O26      1.0000 0.46329  0.33681  0.92191  Biso   1.000  O 
  O27      1.0000 0.46321  0.83579  0.42327  Biso   1.000  O 
  O28      1.0000 0.47022  0.84162  0.92222  Biso   1.000  O 
  O29      1.0000 0.96105  0.33371  0.41995  Biso   1.000  O 
  O30      1.0000 0.95542  0.33251  0.91306  Biso   1.000  O 
  O31      1.0000 0.96041  0.83069  0.41669  Biso   1.000  O 
  O32      1.0000 0.95980  0.83167  0.91897  Biso   1.000  O 
  O33      1.0000 0.28523  0.13617  0.25239  Biso   1.000  O 
  O34      1.0000 0.27179  0.12936  0.73910  Biso   1.000  O 
  O35      1.0000 0.27377  0.62178  0.23761  Biso   1.000  O 
  O36      1.0000 0.27200  0.63133  0.73999  Biso   1.000  O 
  O37      1.0000 0.77246  0.13527  0.24502  Biso   1.000  O 
  O38      1.0000 0.77420  0.13066  0.74241  Biso   1.000  O 
  O39      1.0000 0.76980  0.63031  0.24085  Biso   1.000  O 
  O40      1.0000 0.77082  0.63083  0.73882  Biso   1.000  O 
  O41      1.0000 0.27216  0.12135  0.49431  Biso   1.000  O 
  O42      1.0000 0.28324  0.13221  0.97830  Biso   1.000  O 
  O43      1.0000 0.27216  0.62197  0.48978  Biso   1.000  O 
  O44      1.0000 0.27032  0.61769  0.99034  Biso   1.000  O 
  O45      1.0000 0.76818  0.12513  0.49571  Biso   1.000  O 
  O46      1.0000 0.77251  0.12307  0.99188  Biso   1.000  O 
  O47      1.0000 0.77118  0.62211  0.49039  Biso   1.000  O 
  O48      1.0000 0.76849  0.62066  0.98920  Biso   1.000  O 
  O49      1.0000 0.22325  0.37876  0.00831  Biso   1.000  O 
  O50      1.0000 0.21940  0.38045  0.50942  Biso   1.000  O 
  O51      1.0000 0.23572  0.86361  0.99255  Biso   1.000  O 
  O52      1.0000 0.21907  0.88034  0.50985  Biso   1.000  O 
  O53      1.0000 0.72059  0.38000  0.00828  Biso   1.000  O 
  O54      1.0000 0.71974  0.38078  0.51008  Biso   1.000  O 
  O55      1.0000 0.72172  0.87683  0.00763  Biso   1.000  O 
  O56      1.0000 0.71910  0.88018  0.51236  Biso   1.000  O 
  O57      1.0000 0.21612  0.37135  0.25772  Biso   1.000  O 
  O58      1.0000 0.21933  0.37306  0.75954  Biso   1.000  O 
  O59      1.0000 0.23784  0.85567  0.26527  Biso   1.000  O 
  O60      1.0000 0.21624  0.87372  0.75545  Biso   1.000  O 
  O61      1.0000 0.71906  0.37453  0.26136  Biso   1.000  O 
  O62      1.0000 0.71932  0.37261  0.75864  Biso   1.000  O 
  O63      1.0000 0.70613  0.87342  0.26585  Biso   1.000  O 
  O64      1.0000 0.71999  0.87248  0.75899  Biso   1.000  O 
