data_image0
_cell_length_a       10.0918
_cell_length_b       5.21046
_cell_length_c       10.0943
_cell_angle_alpha    90
_cell_angle_beta     90
_cell_angle_gamma    90

_symmetry_space_group_name_H-M    "P 1"
_symmetry_int_tables_number       1

loop_
  _symmetry_equiv_pos_as_xyz
  'x, y, z'

loop_
  _atom_site_label
  _atom_site_occupancy
  _atom_site_fract_x
  _atom_site_fract_y
  _atom_site_fract_z
  _atom_site_thermal_displace_type
  _atom_site_B_iso_or_equiv
  _atom_site_type_symbol
  K1       1.0000 0.09949  0.97967  0.14057  Biso   1.000  K 
  Hf1      1.0000 0.14286  0.03182  0.62426  Biso   1.000  Hf
  Hf2      1.0000 0.63095  0.03477  0.11470  Biso   1.000  Hf
  Hf3      1.0000 0.63480  0.02743  0.62458  Biso   1.000  Hf
  Hf4      1.0000 0.14313  0.47245  0.37596  Biso   1.000  Hf
  Hf5      1.0000 0.14943  0.45926  0.87771  Biso   1.000  Hf
  Hf6      1.0000 0.63452  0.45492  0.37434  Biso   1.000  Hf
  Hf7      1.0000 0.63521  0.46693  0.86725  Biso   1.000  Hf
  Hf8      1.0000 0.36561  0.51621  0.12508  Biso   1.000  Hf
  Hf9      1.0000 0.37127  0.53418  0.62424  Biso   1.000  Hf
  Hf10     1.0000 0.88905  0.47430  0.08221  Biso   1.000  Hf
  Hf11     1.0000 0.87756  0.53637  0.62425  Biso   1.000  Hf
  Hf12     1.0000 0.37159  0.96466  0.37026  Biso   1.000  Hf
  Hf13     1.0000 0.36772  0.95532  0.88010  Biso   1.000  Hf
  Hf14     1.0000 0.86839  0.98904  0.39241  Biso   1.000  Hf
  Hf15     1.0000 0.86803  0.96836  0.86802  Biso   1.000  Hf
  O1       1.0000 0.03962  0.44061  0.20505  Biso   1.000  O 
  O2       1.0000 0.04312  0.36638  0.69481  Biso   1.000  O 
  O3       1.0000 0.54133  0.35663  0.19708  Biso   1.000  O 
  O4       1.0000 0.53890  0.36135  0.69189  Biso   1.000  O 
  O5       1.0000 0.04178  0.13756  0.44313  Biso   1.000  O 
  O6       1.0000 0.00485  0.21169  0.95245  Biso   1.000  O 
  O7       1.0000 0.54348  0.12761  0.44501  Biso   1.000  O 
  O8       1.0000 0.53653  0.13317  0.94125  Biso   1.000  O 
  O9       1.0000 0.47450  0.85490  0.19629  Biso   1.000  O 
  O10      1.0000 0.47206  0.85955  0.69959  Biso   1.000  O 
  O11      1.0000 0.85110  0.73832  0.23331  Biso   1.000  O 
  O12      1.0000 0.97063  0.87343  0.69397  Biso   1.000  O 
  O13      1.0000 0.47769  0.63119  0.45184  Biso   1.000  O 
  O14      1.0000 0.48246  0.63851  0.94986  Biso   1.000  O 
  O15      1.0000 0.98036  0.65341  0.45542  Biso   1.000  O 
  O16      1.0000 0.99245  0.69009  0.94512  Biso   1.000  O 
  O17      1.0000 0.28662  0.23856  0.25611  Biso   1.000  O 
  O18      1.0000 0.27601  0.23111  0.74967  Biso   1.000  O 
  O19      1.0000 0.78160  0.21811  0.24020  Biso   1.000  O 
  O20      1.0000 0.77465  0.23284  0.74089  Biso   1.000  O 
  O21      1.0000 0.27670  0.26483  0.50223  Biso   1.000  O 
  O22      1.0000 0.27987  0.24634  0.99419  Biso   1.000  O 
  O23      1.0000 0.77429  0.27606  0.49728  Biso   1.000  O 
  O24      1.0000 0.76142  0.24786  0.98660  Biso   1.000  O 
  O25      1.0000 0.24102  0.77095  0.50132  Biso   1.000  O 
  O26      1.0000 0.25086  0.72407  0.99529  Biso   1.000  O 
  O27      1.0000 0.73892  0.76829  0.49781  Biso   1.000  O 
  O28      1.0000 0.74820  0.74645  0.99494  Biso   1.000  O 
  O29      1.0000 0.25619  0.70828  0.26186  Biso   1.000  O 
  O30      1.0000 0.23439  0.73595  0.74788  Biso   1.000  O 
  O31      1.0000 0.70803  0.74800  0.24140  Biso   1.000  O 
  O32      1.0000 0.73679  0.73210  0.74498  Biso   1.000  O 
