data_image0
_cell_length_a       5.10808
_cell_length_b       10.3211
_cell_length_c       10.5996
_cell_angle_alpha    90
_cell_angle_beta     80
_cell_angle_gamma    90

_symmetry_space_group_name_H-M    "P 1"
_symmetry_int_tables_number       1

loop_
  _symmetry_equiv_pos_as_xyz
  'x, y, z'

loop_
  _atom_site_label
  _atom_site_occupancy
  _atom_site_fract_x
  _atom_site_fract_y
  _atom_site_fract_z
  _atom_site_thermal_displace_type
  _atom_site_B_iso_or_equiv
  _atom_site_type_symbol
  K1       1.0000 0.18433  0.98765  0.13137  Biso   1.000  K 
  Hf1      1.0000 0.27022  0.03465  0.65266  Biso   1.000  Hf
  Hf2      1.0000 0.26252  0.51409  0.14547  Biso   1.000  Hf
  Hf3      1.0000 0.26873  0.53348  0.64452  Biso   1.000  Hf
  Hf4      1.0000 0.26563  0.23743  0.39834  Biso   1.000  Hf
  Hf5      1.0000 0.26960  0.24254  0.90088  Biso   1.000  Hf
  Hf6      1.0000 0.25697  0.73055  0.39657  Biso   1.000  Hf
  Hf7      1.0000 0.27464  0.74399  0.88627  Biso   1.000  Hf
  Hf8      1.0000 0.70196  0.26357  0.10648  Biso   1.000  Hf
  Hf9      1.0000 0.71095  0.28410  0.60676  Biso   1.000  Hf
  Hf10     1.0000 0.72555  0.74150  0.07480  Biso   1.000  Hf
  Hf11     1.0000 0.71096  0.78581  0.60206  Biso   1.000  Hf
  Hf12     1.0000 0.70582  0.48497  0.35244  Biso   1.000  Hf
  Hf13     1.0000 0.71483  0.48604  0.84993  Biso   1.000  Hf
  Hf14     1.0000 0.69348  0.00404  0.37505  Biso   1.000  Hf
  Hf15     1.0000 0.69911  0.99503  0.85750  Biso   1.000  Hf
  O1       1.0000 0.06290  0.19183  0.07635  Biso   1.000  O 
  O2       1.0000 0.05446  0.17989  0.58493  Biso   1.000  O 
  O3       1.0000 0.08445  0.66895  0.07202  Biso   1.000  O 
  O4       1.0000 0.05314  0.67419  0.57386  Biso   1.000  O 
  O5       1.0000 0.05455  0.09337  0.34824  Biso   1.000  O 
  O6       1.0000 0.06716  0.09649  0.83167  Biso   1.000  O 
  O7       1.0000 0.04902  0.59124  0.32491  Biso   1.000  O 
  O8       1.0000 0.04921  0.60080  0.82306  Biso   1.000  O 
  O9       1.0000 0.90453  0.42498  0.17035  Biso   1.000  O 
  O10      1.0000 0.92428  0.42874  0.67023  Biso   1.000  O 
  O11      1.0000 0.71710  0.89010  0.20413  Biso   1.000  O 
  O12      1.0000 0.91588  0.92526  0.67670  Biso   1.000  O 
  O13      1.0000 0.91778  0.34517  0.42395  Biso   1.000  O 
  O14      1.0000 0.92322  0.35026  0.91620  Biso   1.000  O 
  O15      1.0000 0.92919  0.84793  0.42148  Biso   1.000  O 
  O16      1.0000 0.95050  0.86001  0.92842  Biso   1.000  O 
  O17      1.0000 0.57364  0.14624  0.26060  Biso   1.000  O 
  O18      1.0000 0.54771  0.14122  0.74255  Biso   1.000  O 
  O19      1.0000 0.52758  0.63566  0.23475  Biso   1.000  O 
  O20      1.0000 0.54022  0.64267  0.73405  Biso   1.000  O 
  O21      1.0000 0.53106  0.13738  0.50399  Biso   1.000  O 
  O22      1.0000 0.55953  0.14078  0.98369  Biso   1.000  O 
  O23      1.0000 0.53774  0.63237  0.48578  Biso   1.000  O 
  O24      1.0000 0.53226  0.62261  0.98233  Biso   1.000  O 
  O25      1.0000 0.44432  0.37651  0.00963  Biso   1.000  O 
  O26      1.0000 0.43704  0.39142  0.51096  Biso   1.000  O 
  O27      1.0000 0.47157  0.87117  0.98848  Biso   1.000  O 
  O28      1.0000 0.43558  0.89193  0.51636  Biso   1.000  O 
  O29      1.0000 0.42353  0.38040  0.26215  Biso   1.000  O 
  O30      1.0000 0.43799  0.38468  0.75910  Biso   1.000  O 
  O31      1.0000 0.44936  0.88512  0.27559  Biso   1.000  O 
  O32      1.0000 0.43449  0.88602  0.75503  Biso   1.000  O 
