data_image0
_cell_length_a       10.2061
_cell_length_b       5.16956
_cell_length_c       10.5737
_cell_angle_alpha    90
_cell_angle_beta     80
_cell_angle_gamma    90

_symmetry_space_group_name_H-M    "P 1"
_symmetry_int_tables_number       1

loop_
  _symmetry_equiv_pos_as_xyz
  'x, y, z'

loop_
  _atom_site_label
  _atom_site_occupancy
  _atom_site_fract_x
  _atom_site_fract_y
  _atom_site_fract_z
  _atom_site_thermal_displace_type
  _atom_site_B_iso_or_equiv
  _atom_site_type_symbol
  K1       1.0000 0.09661  0.98277  0.13563  Biso   1.000  K 
  Hf1      1.0000 0.13824  0.05570  0.64532  Biso   1.000  Hf
  Hf2      1.0000 0.63292  0.04636  0.14260  Biso   1.000  Hf
  Hf3      1.0000 0.63326  0.05299  0.65101  Biso   1.000  Hf
  Hf4      1.0000 0.13775  0.45807  0.39497  Biso   1.000  Hf
  Hf5      1.0000 0.14053  0.47224  0.89331  Biso   1.000  Hf
  Hf6      1.0000 0.62812  0.45401  0.40050  Biso   1.000  Hf
  Hf7      1.0000 0.63047  0.47590  0.89513  Biso   1.000  Hf
  Hf8      1.0000 0.35498  0.52827  0.10196  Biso   1.000  Hf
  Hf9      1.0000 0.35457  0.55669  0.60155  Biso   1.000  Hf
  Hf10     1.0000 0.86451  0.49397  0.08024  Biso   1.000  Hf
  Hf11     1.0000 0.85935  0.55473  0.60814  Biso   1.000  Hf
  Hf12     1.0000 0.35051  0.96264  0.34767  Biso   1.000  Hf
  Hf13     1.0000 0.35291  0.96957  0.85408  Biso   1.000  Hf
  Hf14     1.0000 0.85561  0.98534  0.38065  Biso   1.000  Hf
  Hf15     1.0000 0.85484  0.96565  0.85052  Biso   1.000  Hf
  O1       1.0000 0.04595  0.41671  0.08058  Biso   1.000  O 
  O2       1.0000 0.03456  0.35988  0.58803  Biso   1.000  O 
  O3       1.0000 0.53497  0.33208  0.07399  Biso   1.000  O 
  O4       1.0000 0.52532  0.33134  0.57538  Biso   1.000  O 
  O5       1.0000 0.02308  0.17606  0.35162  Biso   1.000  O 
  O6       1.0000 0.03300  0.16636  0.83483  Biso   1.000  O 
  O7       1.0000 0.53168  0.17232  0.32448  Biso   1.000  O 
  O8       1.0000 0.53109  0.18291  0.82647  Biso   1.000  O 
  O9       1.0000 0.46681  0.82361  0.17138  Biso   1.000  O 
  O10      1.0000 0.46175  0.83460  0.67375  Biso   1.000  O 
  O11      1.0000 0.85203  0.80084  0.20624  Biso   1.000  O 
  O12      1.0000 0.95719  0.86210  0.66635  Biso   1.000  O 
  O13      1.0000 0.46720  0.68245  0.42226  Biso   1.000  O 
  O14      1.0000 0.47059  0.69719  0.92248  Biso   1.000  O 
  O15      1.0000 0.96159  0.67675  0.42383  Biso   1.000  O 
  O16      1.0000 0.95732  0.66877  0.90855  Biso   1.000  O 
  O17      1.0000 0.28218  0.25620  0.24500  Biso   1.000  O 
  O18      1.0000 0.27297  0.27082  0.73611  Biso   1.000  O 
  O19      1.0000 0.77035  0.28163  0.24192  Biso   1.000  O 
  O20      1.0000 0.77279  0.27094  0.74187  Biso   1.000  O 
  O21      1.0000 0.27230  0.25197  0.49002  Biso   1.000  O 
  O22      1.0000 0.28152  0.26082  0.97776  Biso   1.000  O 
  O23      1.0000 0.76625  0.26367  0.49976  Biso   1.000  O 
  O24      1.0000 0.76703  0.23667  0.98741  Biso   1.000  O 
  O25      1.0000 0.23640  0.74554  0.98995  Biso   1.000  O 
  O26      1.0000 0.22111  0.77124  0.50805  Biso   1.000  O 
  O27      1.0000 0.72468  0.74795  0.00985  Biso   1.000  O 
  O28      1.0000 0.71947  0.76965  0.51814  Biso   1.000  O 
  O29      1.0000 0.23235  0.71602  0.26161  Biso   1.000  O 
  O30      1.0000 0.21749  0.75612  0.75340  Biso   1.000  O 
  O31      1.0000 0.71326  0.78649  0.27220  Biso   1.000  O 
  O32      1.0000 0.71976  0.75387  0.76015  Biso   1.000  O 
