data_image0
_cell_length_a       10.1103
_cell_length_b       5.07317
_cell_length_c       10.1107
_cell_angle_alpha    90
_cell_angle_beta     90
_cell_angle_gamma    90

_symmetry_space_group_name_H-M    "P 1"
_symmetry_int_tables_number       1

loop_
  _symmetry_equiv_pos_as_xyz
  'x, y, z'

loop_
  _atom_site_label
  _atom_site_occupancy
  _atom_site_fract_x
  _atom_site_fract_y
  _atom_site_fract_z
  _atom_site_thermal_displace_type
  _atom_site_B_iso_or_equiv
  _atom_site_type_symbol
  K1       1.0000 0.12568  0.00291  0.12566  Biso   1.000  K 
  Hf1      1.0000 0.12571  0.00295  0.62565  Biso   1.000  Hf
  Hf2      1.0000 0.62569  0.00294  0.12565  Biso   1.000  Hf
  Hf3      1.0000 0.62571  0.00297  0.62565  Biso   1.000  Hf
  Hf4      1.0000 0.12572  0.50295  0.37824  Biso   1.000  Hf
  Hf5      1.0000 0.12574  0.50294  0.87308  Biso   1.000  Hf
  Hf6      1.0000 0.62571  0.50294  0.37528  Biso   1.000  Hf
  Hf7      1.0000 0.62574  0.50295  0.87603  Biso   1.000  Hf
  Hf8      1.0000 0.37826  0.50295  0.12567  Biso   1.000  Hf
  Hf9      1.0000 0.37533  0.50294  0.62567  Biso   1.000  Hf
  Hf10     1.0000 0.87312  0.50293  0.12566  Biso   1.000  Hf
  Hf11     1.0000 0.87610  0.50296  0.62566  Biso   1.000  Hf
  Hf12     1.0000 0.37689  0.00726  0.37685  Biso   1.000  Hf
  Hf13     1.0000 0.37693  0.99855  0.87444  Biso   1.000  Hf
  Hf14     1.0000 0.87452  0.99856  0.37684  Biso   1.000  Hf
  Hf15     1.0000 0.87455  0.00725  0.87445  Biso   1.000  Hf
  O1       1.0000 0.99154  0.29686  0.99146  Biso   1.000  O 
  O2       1.0000 0.00659  0.29297  0.51026  Biso   1.000  O 
  O3       1.0000 0.51028  0.29294  0.00656  Biso   1.000  O 
  O4       1.0000 0.50415  0.29628  0.50412  Biso   1.000  O 
  O5       1.0000 0.98525  0.24946  0.26611  Biso   1.000  O 
  O6       1.0000 0.99803  0.21187  0.75153  Biso   1.000  O 
  O7       1.0000 0.49985  0.21186  0.25338  Biso   1.000  O 
  O8       1.0000 0.49927  0.21104  0.75215  Biso   1.000  O 
  O9       1.0000 0.99151  0.70894  0.25986  Biso   1.000  O 
  O10      1.0000 0.00658  0.71300  0.74109  Biso   1.000  O 
  O11      1.0000 0.51029  0.71298  0.24478  Biso   1.000  O 
  O12      1.0000 0.50414  0.70960  0.74722  Biso   1.000  O 
  O13      1.0000 0.98532  0.75637  0.98523  Biso   1.000  O 
  O14      1.0000 0.99803  0.79409  0.49981  Biso   1.000  O 
  O15      1.0000 0.49992  0.79406  0.99794  Biso   1.000  O 
  O16      1.0000 0.49927  0.79485  0.49918  Biso   1.000  O 
  O17      1.0000 0.25990  0.29687  0.25985  Biso   1.000  O 
  O18      1.0000 0.24487  0.29289  0.74107  Biso   1.000  O 
  O19      1.0000 0.74111  0.29288  0.24478  Biso   1.000  O 
  O20      1.0000 0.74730  0.29629  0.74721  Biso   1.000  O 
  O21      1.0000 0.26618  0.24947  0.98522  Biso   1.000  O 
  O22      1.0000 0.25341  0.21183  0.49980  Biso   1.000  O 
  O23      1.0000 0.75160  0.21185  0.99794  Biso   1.000  O 
  O24      1.0000 0.75217  0.21105  0.49918  Biso   1.000  O 
  O25      1.0000 0.25996  0.70894  0.99145  Biso   1.000  O 
  O26      1.0000 0.24486  0.71296  0.51025  Biso   1.000  O 
  O27      1.0000 0.74111  0.71297  0.00653  Biso   1.000  O 
  O28      1.0000 0.74730  0.70960  0.50408  Biso   1.000  O 
  O29      1.0000 0.26615  0.75639  0.26610  Biso   1.000  O 
  O30      1.0000 0.25341  0.79403  0.75152  Biso   1.000  O 
  O31      1.0000 0.75156  0.79401  0.25336  Biso   1.000  O 
  O32      1.0000 0.75218  0.79486  0.75213  Biso   1.000  O 
