data_image0
_cell_length_a       9.99093
_cell_length_b       10.3922
_cell_length_c       10.0733
_cell_angle_alpha    90
_cell_angle_beta     90
_cell_angle_gamma    90

_symmetry_space_group_name_H-M    "P 1"
_symmetry_int_tables_number       1

loop_
  _symmetry_equiv_pos_as_xyz
  'x, y, z'

loop_
  _atom_site_label
  _atom_site_occupancy
  _atom_site_fract_x
  _atom_site_fract_y
  _atom_site_fract_z
  _atom_site_thermal_displace_type
  _atom_site_B_iso_or_equiv
  _atom_site_type_symbol
  K1       1.0000 0.09681  0.99256  0.13096  Biso   1.000  K 
  Hf1      1.0000 0.13694  0.01893  0.63013  Biso   1.000  Hf
  Hf2      1.0000 0.14003  0.51602  0.13132  Biso   1.000  Hf
  Hf3      1.0000 0.13845  0.51745  0.62553  Biso   1.000  Hf
  Hf4      1.0000 0.63646  0.01945  0.11813  Biso   1.000  Hf
  Hf5      1.0000 0.63120  0.01723  0.62584  Biso   1.000  Hf
  Hf6      1.0000 0.63037  0.51343  0.12618  Biso   1.000  Hf
  Hf7      1.0000 0.63637  0.51644  0.62506  Biso   1.000  Hf
  Hf8      1.0000 0.13730  0.23295  0.37514  Biso   1.000  Hf
  Hf9      1.0000 0.14045  0.23289  0.87544  Biso   1.000  Hf
  Hf10     1.0000 0.14142  0.73553  0.38141  Biso   1.000  Hf
  Hf11     1.0000 0.14773  0.73475  0.87639  Biso   1.000  Hf
  Hf12     1.0000 0.63432  0.23357  0.37253  Biso   1.000  Hf
  Hf13     1.0000 0.63745  0.23285  0.87467  Biso   1.000  Hf
  Hf14     1.0000 0.63326  0.72979  0.37507  Biso   1.000  Hf
  Hf15     1.0000 0.63421  0.73411  0.87226  Biso   1.000  Hf
  Hf16     1.0000 0.36231  0.26196  0.12732  Biso   1.000  Hf
  Hf17     1.0000 0.36838  0.26645  0.62558  Biso   1.000  Hf
  Hf18     1.0000 0.36785  0.76556  0.12616  Biso   1.000  Hf
  Hf19     1.0000 0.37013  0.76998  0.62605  Biso   1.000  Hf
  Hf20     1.0000 0.86676  0.26881  0.12710  Biso   1.000  Hf
  Hf21     1.0000 0.86950  0.27063  0.62331  Biso   1.000  Hf
  Hf22     1.0000 0.88823  0.72813  0.08853  Biso   1.000  Hf
  Hf23     1.0000 0.87098  0.76445  0.62366  Biso   1.000  Hf
  Hf24     1.0000 0.36832  0.48192  0.37679  Biso   1.000  Hf
  Hf25     1.0000 0.36958  0.48060  0.87667  Biso   1.000  Hf
  Hf26     1.0000 0.36645  0.98506  0.37270  Biso   1.000  Hf
  Hf27     1.0000 0.36507  0.98450  0.88085  Biso   1.000  Hf
  Hf28     1.0000 0.86835  0.48661  0.37481  Biso   1.000  Hf
  Hf29     1.0000 0.86700  0.47834  0.87394  Biso   1.000  Hf
  Hf30     1.0000 0.86476  0.99099  0.39459  Biso   1.000  Hf
  Hf31     1.0000 0.86521  0.98373  0.86739  Biso   1.000  Hf
  O1       1.0000 0.02629  0.19975  0.21000  Biso   1.000  O 
  O2       1.0000 0.04314  0.19218  0.68338  Biso   1.000  O 
  O3       1.0000 0.04874  0.69290  0.19949  Biso   1.000  O 
  O4       1.0000 0.03987  0.68425  0.69834  Biso   1.000  O 
  O5       1.0000 0.54163  0.18522  0.18885  Biso   1.000  O 
  O6       1.0000 0.53876  0.18542  0.69407  Biso   1.000  O 
  O7       1.0000 0.53813  0.68121  0.19818  Biso   1.000  O 
  O8       1.0000 0.53809  0.68328  0.69383  Biso   1.000  O 
  O9       1.0000 0.03855  0.06648  0.44503  Biso   1.000  O 
  O10      1.0000 0.03834  0.06997  0.89859  Biso   1.000  O 
  O11      1.0000 0.03781  0.56858  0.44787  Biso   1.000  O 
  O12      1.0000 0.01818  0.58692  0.96716  Biso   1.000  O 
  O13      1.0000 0.53862  0.06682  0.44511  Biso   1.000  O 
  O14      1.0000 0.54343  0.06508  0.94073  Biso   1.000  O 
  O15      1.0000 0.53917  0.56660  0.44418  Biso   1.000  O 
  O16      1.0000 0.53285  0.56786  0.94805  Biso   1.000  O 
  O17      1.0000 0.46470  0.43015  0.19709  Biso   1.000  O 
  O18      1.0000 0.46796  0.43435  0.69471  Biso   1.000  O 
  O19      1.0000 0.47752  0.93031  0.19899  Biso   1.000  O 
  O20      1.0000 0.46714  0.93394  0.69943  Biso   1.000  O 
  O21      1.0000 0.96258  0.44349  0.19400  Biso   1.000  O 
  O22      1.0000 0.96979  0.43565  0.69917  Biso   1.000  O 
  O23      1.0000 0.87293  0.88739  0.21447  Biso   1.000  O 
  O24      1.0000 0.96003  0.93673  0.68175  Biso   1.000  O 
  O25      1.0000 0.46760  0.31609  0.44547  Biso   1.000  O 
  O26      1.0000 0.46862  0.31595  0.94326  Biso   1.000  O 
  O27      1.0000 0.47136  0.81767  0.45119  Biso   1.000  O 
  O28      1.0000 0.47518  0.81985  0.94816  Biso   1.000  O 
  O29      1.0000 0.96788  0.32245  0.44804  Biso   1.000  O 
  O30      1.0000 0.97172  0.32171  0.94786  Biso   1.000  O 
  O31      1.0000 0.97078  0.82016  0.44718  Biso   1.000  O 
  O32      1.0000 0.97912  0.82769  0.93964  Biso   1.000  O 
  O33      1.0000 0.28480  0.12906  0.25894  Biso   1.000  O 
  O34      1.0000 0.27711  0.11985  0.74888  Biso   1.000  O 
  O35      1.0000 0.27514  0.61322  0.25199  Biso   1.000  O 
  O36      1.0000 0.27418  0.61834  0.75171  Biso   1.000  O 
  O37      1.0000 0.77287  0.11554  0.25140  Biso   1.000  O 
  O38      1.0000 0.77165  0.11908  0.74625  Biso   1.000  O 
  O39      1.0000 0.77261  0.61848  0.24308  Biso   1.000  O 
  O40      1.0000 0.77470  0.61604  0.74533  Biso   1.000  O 
  O41      1.0000 0.27213  0.13123  0.50358  Biso   1.000  O 
  O42      1.0000 0.27998  0.13616  0.99360  Biso   1.000  O 
  O43      1.0000 0.27575  0.63277  0.50250  Biso   1.000  O 
  O44      1.0000 0.26854  0.62600  0.00155  Biso   1.000  O 
  O45      1.0000 0.77018  0.13692  0.50132  Biso   1.000  O 
  O46      1.0000 0.78045  0.13121  0.99751  Biso   1.000  O 
  O47      1.0000 0.77238  0.63427  0.49549  Biso   1.000  O 
  O48      1.0000 0.76253  0.62000  0.98907  Biso   1.000  O 
  O49      1.0000 0.23360  0.38364  0.50043  Biso   1.000  O 
  O50      1.0000 0.22841  0.38352  0.00163  Biso   1.000  O 
  O51      1.0000 0.23327  0.88536  0.50387  Biso   1.000  O 
  O52      1.0000 0.24544  0.86831  0.99485  Biso   1.000  O 
  O53      1.0000 0.73228  0.38483  0.49867  Biso   1.000  O 
  O54      1.0000 0.73050  0.37962  0.99795  Biso   1.000  O 
  O55      1.0000 0.73089  0.88227  0.50006  Biso   1.000  O 
  O56      1.0000 0.73923  0.87220  0.99804  Biso   1.000  O 
  O57      1.0000 0.22871  0.37043  0.25132  Biso   1.000  O 
  O58      1.0000 0.23300  0.36901  0.74944  Biso   1.000  O 
  O59      1.0000 0.25085  0.85503  0.26200  Biso   1.000  O 
  O60      1.0000 0.23165  0.87087  0.74963  Biso   1.000  O 
  O61      1.0000 0.73136  0.36888  0.25005  Biso   1.000  O 
  O62      1.0000 0.73306  0.36815  0.74880  Biso   1.000  O 
  O63      1.0000 0.73102  0.87804  0.24542  Biso   1.000  O 
  O64      1.0000 0.73227  0.86607  0.74671  Biso   1.000  O 
