data_image0
_cell_length_a       10.1903
_cell_length_b       5.16861
_cell_length_c       10.6025
_cell_angle_alpha    90
_cell_angle_beta     80
_cell_angle_gamma    90

_symmetry_space_group_name_H-M    "P 1"
_symmetry_int_tables_number       1

loop_
  _symmetry_equiv_pos_as_xyz
  'x, y, z'

loop_
  _atom_site_label
  _atom_site_occupancy
  _atom_site_fract_x
  _atom_site_fract_y
  _atom_site_fract_z
  _atom_site_thermal_displace_type
  _atom_site_B_iso_or_equiv
  _atom_site_type_symbol
  Hf1      1.0000 0.13353  0.04372  0.14729  Biso   1.000  Hf
  Hf2      1.0000 0.13668  0.45439  0.39326  Biso   1.000  Hf
  Hf3      1.0000 0.34721  0.54950  0.08606  Biso   1.000  Hf
  Hf4      1.0000 0.36477  0.95801  0.35802  Biso   1.000  Hf
  O1       1.0000 0.03196  0.33123  0.07561  Biso   1.000  O 
  O2       1.0000 0.03125  0.16653  0.32809  Biso   1.000  O 
  O3       1.0000 0.46053  0.85958  0.16758  Biso   1.000  O 
  O4       1.0000 0.48387  0.70654  0.44518  Biso   1.000  O 
  O5       1.0000 0.26643  0.24924  0.23461  Biso   1.000  O 
  O6       1.0000 0.28798  0.25729  0.48267  Biso   1.000  O 
  O7       1.0000 0.21536  0.76939  0.00453  Biso   1.000  O 
  O8       1.0000 0.22581  0.73378  0.25646  Biso   1.000  O 
  Hf5      1.0000 0.14940  0.04785  0.64214  Biso   1.000  Hf
  Hf6      1.0000 0.14560  0.46016  0.88971  Biso   1.000  Hf
  Hf7      1.0000 0.37169  0.55414  0.60633  Biso   1.000  Hf
  Hf8      1.0000 0.37106  0.96791  0.84970  Biso   1.000  Hf
  O9       1.0000 0.04437  0.33563  0.57650  Biso   1.000  O 
  O10      1.0000 0.04444  0.17227  0.82356  Biso   1.000  O 
  O11      1.0000 0.47766  0.83276  0.67993  Biso   1.000  O 
  O12      1.0000 0.47785  0.67991  0.91894  Biso   1.000  O 
  O13      1.0000 0.28593  0.25792  0.73617  Biso   1.000  O 
  O14      1.0000 0.28663  0.25713  0.98283  Biso   1.000  O 
  O15      1.0000 0.23126  0.76173  0.50822  Biso   1.000  O 
  O16      1.0000 0.23390  0.74655  0.75698  Biso   1.000  O 
  Hf9      1.0000 0.63985  0.03837  0.14757  Biso   1.000  Hf
  Hf10     1.0000 0.65707  0.45247  0.40977  Biso   1.000  Hf
  Hf11     1.0000 0.85851  0.54013  0.10719  Biso   1.000  Hf
  Hf12     1.0000 0.85991  0.95292  0.35506  Biso   1.000  Hf
  O17      1.0000 0.53049  0.33506  0.07479  Biso   1.000  O 
  O18      1.0000 0.55558  0.13508  0.33946  Biso   1.000  O 
  O19      1.0000 0.96331  0.82614  0.17584  Biso   1.000  O 
  O20      1.0000 0.96905  0.66813  0.42361  Biso   1.000  O 
  O21      1.0000 0.78227  0.25425  0.24204  Biso   1.000  O 
  O22      1.0000 0.78998  0.23931  0.49696  Biso   1.000  O 
  O23      1.0000 0.72099  0.75493  0.01372  Biso   1.000  O 
  O24      1.0000 0.72142  0.73196  0.26169  Biso   1.000  O 
  Hf13     1.0000 0.64899  0.04667  0.64959  Biso   1.000  Hf
  Hf14     1.0000 0.65083  0.46017  0.89660  Biso   1.000  Hf
  Hf15     1.0000 0.87209  0.54782  0.60834  Biso   1.000  Hf
  Hf16     1.0000 0.87162  0.96054  0.85466  Biso   1.000  Hf
  O25      1.0000 0.54332  0.33331  0.58249  Biso   1.000  O 
  O26      1.0000 0.54403  0.17823  0.82731  Biso   1.000  O 
  O27      1.0000 0.97708  0.83516  0.67354  Biso   1.000  O 
  O28      1.0000 0.97642  0.67272  0.92165  Biso   1.000  O 
  O29      1.0000 0.78691  0.26198  0.74311  Biso   1.000  O 
  O30      1.0000 0.78884  0.24598  0.99024  Biso   1.000  O 
  O31      1.0000 0.73429  0.75649  0.51647  Biso   1.000  O 
  O32      1.0000 0.73562  0.74872  0.76304  Biso   1.000  O 
  K1       1.0000 0.44545  0.47151  0.28216  Biso   1.000  K 
