data_image0
_cell_length_a       5.09546
_cell_length_b       10.3591
_cell_length_c       10.6935
_cell_angle_alpha    90
_cell_angle_beta     80
_cell_angle_gamma    90

_symmetry_space_group_name_H-M    "P 1"
_symmetry_int_tables_number       1

loop_
  _symmetry_equiv_pos_as_xyz
  'x, y, z'

loop_
  _atom_site_label
  _atom_site_occupancy
  _atom_site_fract_x
  _atom_site_fract_y
  _atom_site_fract_z
  _atom_site_thermal_displace_type
  _atom_site_B_iso_or_equiv
  _atom_site_type_symbol
  Hf1      1.0000 0.29445  0.01309  0.15138  Biso   1.000  Hf
  Hf2      1.0000 0.33532  0.23123  0.41949  Biso   1.000  Hf
  Hf3      1.0000 0.66351  0.27014  0.08317  Biso   1.000  Hf
  Hf4      1.0000 0.70440  0.48827  0.35127  Biso   1.000  Hf
  O1       1.0000 0.02014  0.14995  0.05692  Biso   1.000  O 
  O2       1.0000 0.11394  0.06183  0.34581  Biso   1.000  O 
  O3       1.0000 0.88489  0.43954  0.15685  Biso   1.000  O 
  O4       1.0000 0.97867  0.35141  0.44573  Biso   1.000  O 
  O5       1.0000 0.58265  0.12808  0.24568  Biso   1.000  O 
  O6       1.0000 0.61079  0.11855  0.49540  Biso   1.000  O 
  O7       1.0000 0.38802  0.38280  0.00726  Biso   1.000  O 
  O8       1.0000 0.41620  0.37329  0.25698  Biso   1.000  O 
  Hf5      1.0000 0.31692  0.02005  0.64528  Biso   1.000  Hf
  Hf6      1.0000 0.29213  0.22639  0.88746  Biso   1.000  Hf
  Hf7      1.0000 0.76126  0.27782  0.61036  Biso   1.000  Hf
  Hf8      1.0000 0.73647  0.48416  0.85253  Biso   1.000  Hf
  O9       1.0000 0.11053  0.16969  0.58667  Biso   1.000  O 
  O10      1.0000 0.09684  0.08409  0.81687  Biso   1.000  O 
  O11      1.0000 0.95656  0.42013  0.68093  Biso   1.000  O 
  O12      1.0000 0.94286  0.33453  0.91114  Biso   1.000  O 
  O13      1.0000 0.58230  0.12988  0.74037  Biso   1.000  O 
  O14      1.0000 0.57104  0.12140  0.98235  Biso   1.000  O 
  O15      1.0000 0.48235  0.38282  0.51546  Biso   1.000  O 
  O16      1.0000 0.47108  0.37433  0.75744  Biso   1.000  O 
  Hf9      1.0000 0.25494  0.52949  0.14531  Biso   1.000  Hf
  Hf10     1.0000 0.26529  0.72780  0.39789  Biso   1.000  Hf
  Hf11     1.0000 0.69876  0.77342  0.10476  Biso   1.000  Hf
  Hf12     1.0000 0.70912  0.97173  0.35735  Biso   1.000  Hf
  O17      1.0000 0.04611  0.67470  0.07877  Biso   1.000  O 
  O18      1.0000 0.05234  0.58696  0.32471  Biso   1.000  O 
  O19      1.0000 0.91171  0.91426  0.17794  Biso   1.000  O 
  O20      1.0000 0.91795  0.82652  0.42389  Biso   1.000  O 
  O21      1.0000 0.53274  0.63268  0.24356  Biso   1.000  O 
  O22      1.0000 0.54381  0.62420  0.49109  Biso   1.000  O 
  O23      1.0000 0.42024  0.87701  0.01156  Biso   1.000  O 
  O24      1.0000 0.43131  0.86853  0.25909  Biso   1.000  O 
  Hf13     1.0000 0.29224  0.52561  0.64782  Biso   1.000  Hf
  Hf14     1.0000 0.29221  0.73226  0.89457  Biso   1.000  Hf
  Hf15     1.0000 0.72639  0.77179  0.60323  Biso   1.000  Hf
  Hf16     1.0000 0.72636  0.97846  0.85000  Biso   1.000  Hf
  O25      1.0000 0.06592  0.66372  0.57731  Biso   1.000  O 
  O26      1.0000 0.08393  0.58982  0.82691  Biso   1.000  O 
  O27      1.0000 0.93467  0.91425  0.67089  Biso   1.000  O 
  O28      1.0000 0.95268  0.84034  0.92050  Biso   1.000  O 
  O29      1.0000 0.56585  0.63098  0.73965  Biso   1.000  O 
  O30      1.0000 0.57829  0.62696  0.98796  Biso   1.000  O 
  O31      1.0000 0.44031  0.87710  0.50985  Biso   1.000  O 
  O32      1.0000 0.45275  0.87309  0.75816  Biso   1.000  O 
  La1      1.0000 0.99945  0.25069  0.25132  Biso   1.000  La
