data_image0
_cell_length_a       10.1398
_cell_length_b       10.3197
_cell_length_c       10.5775
_cell_angle_alpha    90
_cell_angle_beta     80
_cell_angle_gamma    90

_symmetry_space_group_name_H-M    "P 1"
_symmetry_int_tables_number       1

loop_
  _symmetry_equiv_pos_as_xyz
  'x, y, z'

loop_
  _atom_site_label
  _atom_site_occupancy
  _atom_site_fract_x
  _atom_site_fract_y
  _atom_site_fract_z
  _atom_site_thermal_displace_type
  _atom_site_B_iso_or_equiv
  _atom_site_type_symbol
  Hf1      1.0000 0.13672  0.02213  0.14673  Biso   1.000  Hf
  Hf2      1.0000 0.14163  0.22976  0.39215  Biso   1.000  Hf
  Hf3      1.0000 0.33972  0.27256  0.07600  Biso   1.000  Hf
  Hf4      1.0000 0.35319  0.49001  0.35442  Biso   1.000  Hf
  O1       1.0000 0.03230  0.16878  0.07754  Biso   1.000  O 
  O2       1.0000 0.03768  0.08155  0.32915  Biso   1.000  O 
  O3       1.0000 0.44893  0.43595  0.15560  Biso   1.000  O 
  O4       1.0000 0.48091  0.36202  0.44639  Biso   1.000  O 
  O5       1.0000 0.27833  0.12761  0.23372  Biso   1.000  O 
  O6       1.0000 0.29183  0.12870  0.47908  Biso   1.000  O 
  O7       1.0000 0.21474  0.38887  0.99786  Biso   1.000  O 
  O8       1.0000 0.21689  0.37144  0.25282  Biso   1.000  O 
  Hf5      1.0000 0.14516  0.02253  0.64363  Biso   1.000  Hf
  Hf6      1.0000 0.13647  0.22990  0.88889  Biso   1.000  Hf
  Hf7      1.0000 0.36510  0.27877  0.60519  Biso   1.000  Hf
  Hf8      1.0000 0.36174  0.48449  0.85163  Biso   1.000  Hf
  O9       1.0000 0.04580  0.16968  0.57809  Biso   1.000  O 
  O10      1.0000 0.03793  0.08333  0.82480  Biso   1.000  O 
  O11      1.0000 0.46919  0.41872  0.68002  Biso   1.000  O 
  O12      1.0000 0.46812  0.33525  0.91253  Biso   1.000  O 
  O13      1.0000 0.27977  0.12963  0.73501  Biso   1.000  O 
  O14      1.0000 0.27385  0.12081  0.97966  Biso   1.000  O 
  O15      1.0000 0.22414  0.38139  0.50718  Biso   1.000  O 
  O16      1.0000 0.22562  0.37289  0.75508  Biso   1.000  O 
  Hf9      1.0000 0.13454  0.52255  0.14674  Biso   1.000  Hf
  Hf10     1.0000 0.13329  0.73024  0.39650  Biso   1.000  Hf
  Hf11     1.0000 0.35420  0.77429  0.10432  Biso   1.000  Hf
  Hf12     1.0000 0.35996  0.97010  0.35625  Biso   1.000  Hf
  O17      1.0000 0.02824  0.66625  0.07882  Biso   1.000  O 
  O18      1.0000 0.03059  0.58341  0.32915  Biso   1.000  O 
  O19      1.0000 0.46138  0.91637  0.17550  Biso   1.000  O 
  O20      1.0000 0.45939  0.82302  0.42295  Biso   1.000  O 
  O21      1.0000 0.26905  0.63247  0.24185  Biso   1.000  O 
  O22      1.0000 0.27103  0.62539  0.49230  Biso   1.000  O 
  O23      1.0000 0.21604  0.87973  0.01104  Biso   1.000  O 
  O24      1.0000 0.21788  0.87072  0.26008  Biso   1.000  O 
  Hf13     1.0000 0.13924  0.52407  0.64568  Biso   1.000  Hf
  Hf14     1.0000 0.13942  0.72969  0.89652  Biso   1.000  Hf
  Hf15     1.0000 0.36068  0.77088  0.60451  Biso   1.000  Hf
  Hf16     1.0000 0.35931  0.97827  0.85079  Biso   1.000  Hf
  O25      1.0000 0.03144  0.66713  0.57841  Biso   1.000  O 
  O26      1.0000 0.03583  0.58475  0.82814  Biso   1.000  O 
  O27      1.0000 0.46413  0.91578  0.67035  Biso   1.000  O 
  O28      1.0000 0.46667  0.83747  0.92128  Biso   1.000  O 
  O29      1.0000 0.27707  0.62950  0.74035  Biso   1.000  O 
  O30      1.0000 0.27989  0.62655  0.99059  Biso   1.000  O 
  O31      1.0000 0.22134  0.88136  0.51058  Biso   1.000  O 
  O32      1.0000 0.22217  0.87141  0.75929  Biso   1.000  O 
  Hf17     1.0000 0.64514  0.01422  0.15074  Biso   1.000  Hf
  Hf18     1.0000 0.66150  0.22714  0.42163  Biso   1.000  Hf
  Hf19     1.0000 0.85522  0.27020  0.10818  Biso   1.000  Hf
  Hf20     1.0000 0.85955  0.47781  0.35431  Biso   1.000  Hf
  O33      1.0000 0.51967  0.15325  0.06160  Biso   1.000  O 
  O34      1.0000 0.55636  0.05589  0.34857  Biso   1.000  O 
  O35      1.0000 0.95865  0.41780  0.17300  Biso   1.000  O 
  O36      1.0000 0.96542  0.33115  0.42275  Biso   1.000  O 
  O37      1.0000 0.78601  0.12721  0.24739  Biso   1.000  O 
  O38      1.0000 0.79300  0.11307  0.50225  Biso   1.000  O 
  O39      1.0000 0.71359  0.37663  0.01587  Biso   1.000  O 
  O40      1.0000 0.71311  0.36827  0.26545  Biso   1.000  O 
  Hf21     1.0000 0.64494  0.01915  0.64827  Biso   1.000  Hf
  Hf22     1.0000 0.64267  0.22613  0.89503  Biso   1.000  Hf
  Hf23     1.0000 0.87096  0.27202  0.61030  Biso   1.000  Hf
  Hf24     1.0000 0.86182  0.47950  0.85651  Biso   1.000  Hf
  O41      1.0000 0.54059  0.16931  0.58528  Biso   1.000  O 
  O42      1.0000 0.53846  0.08363  0.82272  Biso   1.000  O 
  O43      1.0000 0.96936  0.41825  0.67503  Biso   1.000  O 
  O44      1.0000 0.96330  0.33218  0.92091  Biso   1.000  O 
  O45      1.0000 0.78192  0.12977  0.74514  Biso   1.000  O 
  O46      1.0000 0.78177  0.12187  0.99382  Biso   1.000  O 
  O47      1.0000 0.73404  0.38052  0.51886  Biso   1.000  O 
  O48      1.0000 0.72778  0.37259  0.76320  Biso   1.000  O 
  Hf25     1.0000 0.63141  0.52612  0.14476  Biso   1.000  Hf
  Hf26     1.0000 0.63677  0.72548  0.39724  Biso   1.000  Hf
  Hf27     1.0000 0.85610  0.76949  0.10506  Biso   1.000  Hf
  Hf28     1.0000 0.85542  0.97649  0.35515  Biso   1.000  Hf
  O49      1.0000 0.53066  0.67479  0.07900  Biso   1.000  O 
  O50      1.0000 0.52919  0.58667  0.32408  Biso   1.000  O 
  O51      1.0000 0.95969  0.91478  0.17358  Biso   1.000  O 
  O52      1.0000 0.96198  0.83325  0.42336  Biso   1.000  O 
  O53      1.0000 0.77280  0.62665  0.24120  Biso   1.000  O 
  O54      1.0000 0.77470  0.62050  0.49046  Biso   1.000  O 
  O55      1.0000 0.71867  0.87726  0.01059  Biso   1.000  O 
  O56      1.0000 0.72151  0.86569  0.25903  Biso   1.000  O 
  Hf29     1.0000 0.64060  0.52337  0.64907  Biso   1.000  Hf
  Hf30     1.0000 0.63925  0.73127  0.89642  Biso   1.000  Hf
  Hf31     1.0000 0.85968  0.77256  0.60451  Biso   1.000  Hf
  Hf32     1.0000 0.85966  0.97832  0.85510  Biso   1.000  Hf
  O57      1.0000 0.53284  0.66429  0.57914  Biso   1.000  O 
  O58      1.0000 0.53562  0.58761  0.82941  Biso   1.000  O 
  O59      1.0000 0.96408  0.91727  0.67268  Biso   1.000  O 
  O60      1.0000 0.96762  0.83500  0.92226  Biso   1.000  O 
  O61      1.0000 0.77745  0.63069  0.74108  Biso   1.000  O 
  O62      1.0000 0.77814  0.62190  0.98970  Biso   1.000  O 
  O63      1.0000 0.71943  0.87531  0.51051  Biso   1.000  O 
  O64      1.0000 0.72256  0.87312  0.76028  Biso   1.000  O 
  La1      1.0000 0.48181  0.24469  0.26374  Biso   1.000  La
