data_image0
_cell_length_a       10.0555
_cell_length_b       10.4226
_cell_length_c       5.03545
_cell_angle_alpha    90
_cell_angle_beta     90
_cell_angle_gamma    90

_symmetry_space_group_name_H-M    "P 1"
_symmetry_int_tables_number       1

loop_
  _symmetry_equiv_pos_as_xyz
  'x, y, z'

loop_
  _atom_site_label
  _atom_site_occupancy
  _atom_site_fract_x
  _atom_site_fract_y
  _atom_site_fract_z
  _atom_site_thermal_displace_type
  _atom_site_B_iso_or_equiv
  _atom_site_type_symbol
  La1      1.0000 0.12077  0.00581  0.24298  Biso   1.000  La
  Hf1      1.0000 0.13166  0.23652  0.74495  Biso   1.000  Hf
  Hf2      1.0000 0.36510  0.26528  0.25170  Biso   1.000  Hf
  Hf3      1.0000 0.36278  0.48035  0.75204  Biso   1.000  Hf
  O1       1.0000 0.03222  0.20428  0.38393  Biso   1.000  O 
  O2       1.0000 0.02932  0.06975  0.82074  Biso   1.000  O 
  O3       1.0000 0.46387  0.43149  0.39329  Biso   1.000  O 
  O4       1.0000 0.46276  0.31472  0.88942  Biso   1.000  O 
  O5       1.0000 0.28008  0.12640  0.50879  Biso   1.000  O 
  O6       1.0000 0.27193  0.13388  0.98804  Biso   1.000  O 
  O7       1.0000 0.22708  0.38161  0.99865  Biso   1.000  O 
  O8       1.0000 0.22756  0.36914  0.49576  Biso   1.000  O 
  Hf4      1.0000 0.13331  0.51595  0.25114  Biso   1.000  Hf
  Hf5      1.0000 0.13414  0.73007  0.75502  Biso   1.000  Hf
  Hf6      1.0000 0.36915  0.76237  0.24839  Biso   1.000  Hf
  Hf7      1.0000 0.36746  0.98173  0.74487  Biso   1.000  Hf
  O9       1.0000 0.03490  0.68588  0.39323  Biso   1.000  O 
  O10      1.0000 0.03106  0.56701  0.89284  Biso   1.000  O 
  O11      1.0000 0.46295  0.93432  0.38425  Biso   1.000  O 
  O12      1.0000 0.46965  0.81605  0.89643  Biso   1.000  O 
  O13      1.0000 0.26790  0.61215  0.49925  Biso   1.000  O 
  O14      1.0000 0.27091  0.62913  0.00077  Biso   1.000  O 
  O15      1.0000 0.24045  0.87034  0.98263  Biso   1.000  O 
  O16      1.0000 0.24124  0.85411  0.50680  Biso   1.000  O 
  Hf8      1.0000 0.63295  0.01576  0.25223  Biso   1.000  Hf
  Hf9      1.0000 0.63066  0.23183  0.74986  Biso   1.000  Hf
  Hf10     1.0000 0.86002  0.26980  0.25105  Biso   1.000  Hf
  Hf11     1.0000 0.86341  0.48210  0.75533  Biso   1.000  Hf
  O17      1.0000 0.53722  0.18412  0.38385  Biso   1.000  O 
  O18      1.0000 0.53677  0.06352  0.88510  Biso   1.000  O 
  O19      1.0000 0.96043  0.43977  0.39131  Biso   1.000  O 
  O20      1.0000 0.96118  0.31857  0.89378  Biso   1.000  O 
  O21      1.0000 0.76669  0.11764  0.50204  Biso   1.000  O 
  O22      1.0000 0.77085  0.13301  0.00271  Biso   1.000  O 
  O23      1.0000 0.72484  0.38105  0.99882  Biso   1.000  O 
  O24      1.0000 0.72741  0.36775  0.50182  Biso   1.000  O 
  Hf12     1.0000 0.63099  0.51389  0.25318  Biso   1.000  Hf
  Hf13     1.0000 0.63061  0.72913  0.75591  Biso   1.000  Hf
  Hf14     1.0000 0.86037  0.76107  0.25634  Biso   1.000  Hf
  Hf15     1.0000 0.85487  0.98002  0.75613  Biso   1.000  Hf
  O25      1.0000 0.53472  0.67946  0.39531  Biso   1.000  O 
  O26      1.0000 0.52993  0.56389  0.89652  Biso   1.000  O 
  O27      1.0000 0.93430  0.92645  0.40531  Biso   1.000  O 
  O28      1.0000 0.96993  0.82160  0.91467  Biso   1.000  O 
  O29      1.0000 0.76806  0.61517  0.49966  Biso   1.000  O 
  O30      1.0000 0.76562  0.62771  0.99798  Biso   1.000  O 
  O31      1.0000 0.73034  0.87827  0.00830  Biso   1.000  O 
  O32      1.0000 0.71571  0.86485  0.50739  Biso   1.000  O 
