data_image0
_cell_length_a       5.09421
_cell_length_b       10.3564
_cell_length_c       10.4886
_cell_angle_alpha    90
_cell_angle_beta     80
_cell_angle_gamma    90

_symmetry_space_group_name_H-M    "P 1"
_symmetry_int_tables_number       1

loop_
  _symmetry_equiv_pos_as_xyz
  'x, y, z'

loop_
  _atom_site_label
  _atom_site_occupancy
  _atom_site_fract_x
  _atom_site_fract_y
  _atom_site_fract_z
  _atom_site_thermal_displace_type
  _atom_site_B_iso_or_equiv
  _atom_site_type_symbol
  La1      1.0000 0.26322  0.01047  0.14062  Biso   1.000  La
  Hf1      1.0000 0.26132  0.22864  0.39872  Biso   1.000  Hf
  Hf2      1.0000 0.71157  0.27123  0.10317  Biso   1.000  Hf
  Hf3      1.0000 0.70339  0.47643  0.35411  Biso   1.000  Hf
  O1       1.0000 0.06833  0.18980  0.07607  Biso   1.000  O 
  O2       1.0000 0.04576  0.07866  0.34966  Biso   1.000  O 
  O3       1.0000 0.90977  0.42338  0.16846  Biso   1.000  O 
  O4       1.0000 0.91048  0.33044  0.42102  Biso   1.000  O 
  O5       1.0000 0.55158  0.13768  0.25140  Biso   1.000  O 
  O6       1.0000 0.52985  0.12089  0.49625  Biso   1.000  O 
  O7       1.0000 0.44468  0.38067  0.00710  Biso   1.000  O 
  O8       1.0000 0.42700  0.37190  0.25991  Biso   1.000  O 
  Hf4      1.0000 0.26370  0.02111  0.64866  Biso   1.000  Hf
  Hf5      1.0000 0.25256  0.23150  0.89594  Biso   1.000  Hf
  Hf6      1.0000 0.70354  0.27051  0.60539  Biso   1.000  Hf
  Hf7      1.0000 0.69690  0.47753  0.85414  Biso   1.000  Hf
  O9       1.0000 0.05386  0.17121  0.58689  Biso   1.000  O 
  O10      1.0000 0.05853  0.07834  0.83365  Biso   1.000  O 
  O11      1.0000 0.90714  0.41970  0.66895  Biso   1.000  O 
  O12      1.0000 0.90079  0.33222  0.91553  Biso   1.000  O 
  O13      1.0000 0.53600  0.12862  0.74051  Biso   1.000  O 
  O14      1.0000 0.54228  0.12542  0.98241  Biso   1.000  O 
  O15      1.0000 0.42863  0.37834  0.51039  Biso   1.000  O 
  O16      1.0000 0.42573  0.37139  0.75873  Biso   1.000  O 
  Hf8      1.0000 0.26629  0.51754  0.14545  Biso   1.000  Hf
  Hf9      1.0000 0.25387  0.72255  0.39896  Biso   1.000  Hf
  Hf10     1.0000 0.71463  0.76108  0.10334  Biso   1.000  Hf
  Hf11     1.0000 0.68834  0.97894  0.36219  Biso   1.000  Hf
  O17      1.0000 0.07525  0.67395  0.08217  Biso   1.000  O 
  O18      1.0000 0.05179  0.57872  0.33028  Biso   1.000  O 
  O19      1.0000 0.84515  0.92657  0.17143  Biso   1.000  O 
  O20      1.0000 0.90762  0.82907  0.42091  Biso   1.000  O 
  O21      1.0000 0.53684  0.62212  0.23994  Biso   1.000  O 
  O22      1.0000 0.53031  0.61906  0.49138  Biso   1.000  O 
  O23      1.0000 0.45086  0.86248  0.99674  Biso   1.000  O 
  O24      1.0000 0.43431  0.85520  0.26924  Biso   1.000  O 
  Hf12     1.0000 0.25611  0.51967  0.64678  Biso   1.000  Hf
  Hf13     1.0000 0.25706  0.72700  0.89437  Biso   1.000  Hf
  Hf14     1.0000 0.69857  0.77094  0.60466  Biso   1.000  Hf
  Hf15     1.0000 0.69936  0.97694  0.85448  Biso   1.000  Hf
  O25      1.0000 0.04650  0.66734  0.58343  Biso   1.000  O 
  O26      1.0000 0.04568  0.57936  0.83118  Biso   1.000  O 
  O27      1.0000 0.90574  0.91719  0.67185  Biso   1.000  O 
  O28      1.0000 0.92314  0.83480  0.92424  Biso   1.000  O 
  O29      1.0000 0.52862  0.62864  0.73999  Biso   1.000  O 
  O30      1.0000 0.52264  0.61484  0.99132  Biso   1.000  O 
  O31      1.0000 0.42365  0.87827  0.51376  Biso   1.000  O 
  O32      1.0000 0.42485  0.87027  0.75797  Biso   1.000  O 
