data_image0
_cell_length_a       10.0515
_cell_length_b       10.4223
_cell_length_c       10.1083
_cell_angle_alpha    90
_cell_angle_beta     90
_cell_angle_gamma    90

_symmetry_space_group_name_H-M    "P 1"
_symmetry_int_tables_number       1

loop_
  _symmetry_equiv_pos_as_xyz
  'x, y, z'

loop_
  _atom_site_label
  _atom_site_occupancy
  _atom_site_fract_x
  _atom_site_fract_y
  _atom_site_fract_z
  _atom_site_thermal_displace_type
  _atom_site_B_iso_or_equiv
  _atom_site_type_symbol
  Hf1      1.0000 0.13177  0.97826  0.10959  Biso   1.000  Hf
  Hf2      1.0000 0.12193  0.22990  0.39721  Biso   1.000  Hf
  Hf3      1.0000 0.37846  0.27622  0.11415  Biso   1.000  Hf
  Hf4      1.0000 0.36274  0.48652  0.37439  Biso   1.000  Hf
  O1       1.0000 0.95429  0.17740  0.27674  Biso   1.000  O 
  O2       1.0000 0.03261  0.06275  0.46608  Biso   1.000  O 
  O3       1.0000 0.46576  0.43945  0.19388  Biso   1.000  O 
  O4       1.0000 0.46348  0.32292  0.44776  Biso   1.000  O 
  O5       1.0000 0.22831  0.09902  0.25287  Biso   1.000  O 
  O6       1.0000 0.27335  0.13354  0.49935  Biso   1.000  O 
  O7       1.0000 0.23097  0.38720  0.50028  Biso   1.000  O 
  O8       1.0000 0.23712  0.36770  0.25510  Biso   1.000  O 
  Hf5      1.0000 0.13558  0.01064  0.62713  Biso   1.000  Hf
  Hf6      1.0000 0.13127  0.23600  0.84977  Biso   1.000  Hf
  Hf7      1.0000 0.36838  0.27006  0.62158  Biso   1.000  Hf
  Hf8      1.0000 0.36320  0.49127  0.86880  Biso   1.000  Hf
  O9       1.0000 0.02898  0.17919  0.68975  Biso   1.000  O 
  O10      1.0000 0.02978  0.07235  0.94782  Biso   1.000  O 
  O11      1.0000 0.46490  0.43704  0.69401  Biso   1.000  O 
  O12      1.0000 0.46232  0.32339  0.93767  Biso   1.000  O 
  O13      1.0000 0.26827  0.11775  0.74464  Biso   1.000  O 
  O14      1.0000 0.26705  0.13064  0.99477  Biso   1.000  O 
  O15      1.0000 0.22876  0.39666  0.99152  Biso   1.000  O 
  O16      1.0000 0.23233  0.37011  0.74231  Biso   1.000  O 
  Hf9      1.0000 0.13228  0.53041  0.12288  Biso   1.000  Hf
  Hf10     1.0000 0.12755  0.73650  0.37683  Biso   1.000  Hf
  Hf11     1.0000 0.37010  0.75970  0.12173  Biso   1.000  Hf
  Hf12     1.0000 0.35574  0.98860  0.36923  Biso   1.000  Hf
  O17      1.0000 0.03005  0.68554  0.19854  Biso   1.000  O 
  O18      1.0000 0.02988  0.57243  0.44354  Biso   1.000  O 
  O19      1.0000 0.45267  0.93271  0.19294  Biso   1.000  O 
  O20      1.0000 0.46160  0.82168  0.44334  Biso   1.000  O 
  O21      1.0000 0.27027  0.61727  0.24613  Biso   1.000  O 
  O22      1.0000 0.26487  0.63598  0.49607  Biso   1.000  O 
  O23      1.0000 0.22671  0.88570  0.49407  Biso   1.000  O 
  O24      1.0000 0.23003  0.85373  0.24321  Biso   1.000  O 
  Hf13     1.0000 0.12618  0.51600  0.62007  Biso   1.000  Hf
  Hf14     1.0000 0.12535  0.73471  0.86655  Biso   1.000  Hf
  Hf15     1.0000 0.36502  0.76774  0.61905  Biso   1.000  Hf
  Hf16     1.0000 0.36260  0.98652  0.87059  Biso   1.000  Hf
  O25      1.0000 0.02868  0.68468  0.69074  Biso   1.000  O 
  O26      1.0000 0.02586  0.57537  0.94701  Biso   1.000  O 
  O27      1.0000 0.46267  0.93475  0.69505  Biso   1.000  O 
  O28      1.0000 0.46929  0.82570  0.94941  Biso   1.000  O 
  O29      1.0000 0.26162  0.61689  0.74372  Biso   1.000  O 
  O30      1.0000 0.26216  0.63934  0.99353  Biso   1.000  O 
  O31      1.0000 0.23381  0.87638  0.98653  Biso   1.000  O 
  O32      1.0000 0.23024  0.86490  0.74356  Biso   1.000  O 
  Hf17     1.0000 0.62397  0.00732  0.11882  Biso   1.000  Hf
  Hf18     1.0000 0.62365  0.23140  0.37900  Biso   1.000  Hf
  Hf19     1.0000 0.82851  0.26165  0.13153  Biso   1.000  Hf
  Hf20     1.0000 0.86330  0.48376  0.37529  Biso   1.000  Hf
  O33      1.0000 0.51456  0.17478  0.20663  Biso   1.000  O 
  O34      1.0000 0.52766  0.06857  0.45114  Biso   1.000  O 
  O35      1.0000 0.96000  0.42966  0.19509  Biso   1.000  O 
  O36      1.0000 0.97044  0.33552  0.46998  Biso   1.000  O 
  O37      1.0000 0.73552  0.10896  0.24776  Biso   1.000  O 
  O38      1.0000 0.76657  0.14137  0.49799  Biso   1.000  O 
  O39      1.0000 0.72873  0.38687  0.50167  Biso   1.000  O 
  O40      1.0000 0.71593  0.37280  0.25679  Biso   1.000  O 
  Hf21     1.0000 0.63444  0.01743  0.62243  Biso   1.000  Hf
  Hf22     1.0000 0.63023  0.23652  0.87037  Biso   1.000  Hf
  Hf23     1.0000 0.86001  0.27263  0.62878  Biso   1.000  Hf
  Hf24     1.0000 0.86048  0.48455  0.87870  Biso   1.000  Hf
  O41      1.0000 0.53468  0.18598  0.69396  Biso   1.000  O 
  O42      1.0000 0.52934  0.07434  0.94333  Biso   1.000  O 
  O43      1.0000 0.96503  0.43520  0.70644  Biso   1.000  O 
  O44      1.0000 0.95145  0.31683  0.93630  Biso   1.000  O 
  O45      1.0000 0.76811  0.11877  0.74905  Biso   1.000  O 
  O46      1.0000 0.75993  0.13250  0.99797  Biso   1.000  O 
  O47      1.0000 0.72074  0.38500  0.00051  Biso   1.000  O 
  O48      1.0000 0.72578  0.37187  0.75027  Biso   1.000  O 
  Hf25     1.0000 0.63260  0.52220  0.12686  Biso   1.000  Hf
  Hf26     1.0000 0.63212  0.73930  0.37719  Biso   1.000  Hf
  Hf27     1.0000 0.86026  0.76661  0.12772  Biso   1.000  Hf
  Hf28     1.0000 0.87152  0.00170  0.36510  Biso   1.000  Hf
  O49      1.0000 0.53642  0.68683  0.19787  Biso   1.000  O 
  O50      1.0000 0.53163  0.57247  0.44629  Biso   1.000  O 
  O51      1.0000 0.95953  0.93460  0.19532  Biso   1.000  O 
  O52      1.0000 0.96154  0.82420  0.44455  Biso   1.000  O 
  O53      1.0000 0.76897  0.61913  0.25030  Biso   1.000  O 
  O54      1.0000 0.76668  0.63734  0.49853  Biso   1.000  O 
  O55      1.0000 0.72808  0.89072  0.49640  Biso   1.000  O 
  O56      1.0000 0.72517  0.86661  0.24621  Biso   1.000  O 
  Hf29     1.0000 0.63147  0.52073  0.62324  Biso   1.000  Hf
  Hf30     1.0000 0.63090  0.73668  0.87260  Biso   1.000  Hf
  Hf31     1.0000 0.86228  0.77238  0.62035  Biso   1.000  Hf
  Hf32     1.0000 0.86011  0.98728  0.87592  Biso   1.000  Hf
  O57      1.0000 0.52931  0.68574  0.69684  Biso   1.000  O 
  O58      1.0000 0.52637  0.57589  0.94881  Biso   1.000  O 
  O59      1.0000 0.96597  0.92922  0.70724  Biso   1.000  O 
  O60      1.0000 0.97087  0.82698  0.95892  Biso   1.000  O 
  O61      1.0000 0.76560  0.61933  0.74863  Biso   1.000  O 
  O62      1.0000 0.76376  0.63792  0.99934  Biso   1.000  O 
  O63      1.0000 0.72736  0.88506  0.99714  Biso   1.000  O 
  O64      1.0000 0.72722  0.86940  0.74695  Biso   1.000  O 
  La1      1.0000 0.10066  0.24901  0.11684  Biso   1.000  La
