data_image0
_cell_length_a       5.12067
_cell_length_b       10.3592
_cell_length_c       10.1572
_cell_angle_alpha    90
_cell_angle_beta     90
_cell_angle_gamma    90

_symmetry_space_group_name_H-M    "P 1"
_symmetry_int_tables_number       1

loop_
  _symmetry_equiv_pos_as_xyz
  'x, y, z'

loop_
  _atom_site_label
  _atom_site_occupancy
  _atom_site_fract_x
  _atom_site_fract_y
  _atom_site_fract_z
  _atom_site_thermal_displace_type
  _atom_site_B_iso_or_equiv
  _atom_site_type_symbol
  Hf1      1.0000 0.21126  0.96712  0.09172  Biso   1.000  Hf
  Hf2      1.0000 0.21409  0.23102  0.39729  Biso   1.000  Hf
  Hf3      1.0000 0.64667  0.26674  0.13026  Biso   1.000  Hf
  Hf4      1.0000 0.69524  0.48822  0.37058  Biso   1.000  Hf
  O1       1.0000 0.86311  0.18408  0.28279  Biso   1.000  O 
  O2       1.0000 0.05108  0.06298  0.46367  Biso   1.000  O 
  O3       1.0000 0.88528  0.43284  0.19511  Biso   1.000  O 
  O4       1.0000 0.92320  0.34510  0.47284  Biso   1.000  O 
  O5       1.0000 0.40747  0.10666  0.25193  Biso   1.000  O 
  O6       1.0000 0.52256  0.14064  0.50231  Biso   1.000  O 
  O7       1.0000 0.43907  0.38976  0.49898  Biso   1.000  O 
  O8       1.0000 0.40052  0.37495  0.25664  Biso   1.000  O 
  Hf5      1.0000 0.27342  0.01393  0.62450  Biso   1.000  Hf
  Hf6      1.0000 0.18113  0.26926  0.83097  Biso   1.000  Hf
  Hf7      1.0000 0.69877  0.27417  0.62126  Biso   1.000  Hf
  Hf8      1.0000 0.68354  0.49250  0.88019  Biso   1.000  Hf
  O9       1.0000 0.02893  0.17832  0.67811  Biso   1.000  O 
  O10      1.0000 0.07269  0.08698  0.92966  Biso   1.000  O 
  O11      1.0000 0.95365  0.42019  0.72847  Biso   1.000  O 
  O12      1.0000 0.84606  0.32160  0.94411  Biso   1.000  O 
  O13      1.0000 0.50690  0.13008  0.75448  Biso   1.000  O 
  O14      1.0000 0.56608  0.10560  0.01603  Biso   1.000  O 
  O15      1.0000 0.39350  0.39659  0.99210  Biso   1.000  O 
  O16      1.0000 0.45565  0.38253  0.73978  Biso   1.000  O 
  Hf9      1.0000 0.23113  0.52752  0.12653  Biso   1.000  Hf
  Hf10     1.0000 0.21721  0.74445  0.37702  Biso   1.000  Hf
  Hf11     1.0000 0.70460  0.76352  0.12622  Biso   1.000  Hf
  Hf12     1.0000 0.73100  0.00637  0.35615  Biso   1.000  Hf
  O17      1.0000 0.03097  0.68615  0.20258  Biso   1.000  O 
  O18      1.0000 0.01999  0.57955  0.44724  Biso   1.000  O 
  O19      1.0000 0.87610  0.93877  0.19571  Biso   1.000  O 
  O20      1.0000 0.87873  0.82460  0.44394  Biso   1.000  O 
  O21      1.0000 0.50591  0.62188  0.24827  Biso   1.000  O 
  O22      1.0000 0.48650  0.64023  0.49594  Biso   1.000  O 
  O23      1.0000 0.40711  0.89280  0.49101  Biso   1.000  O 
  O24      1.0000 0.42236  0.86125  0.23751  Biso   1.000  O 
  Hf13     1.0000 0.22581  0.52313  0.61598  Biso   1.000  Hf
  Hf14     1.0000 0.22293  0.73508  0.86607  Biso   1.000  Hf
  Hf15     1.0000 0.68757  0.77521  0.61533  Biso   1.000  Hf
  Hf16     1.0000 0.66685  0.00076  0.86805  Biso   1.000  Hf
  O25      1.0000 0.01171  0.68189  0.69486  Biso   1.000  O 
  O26      1.0000 0.00921  0.58334  0.95238  Biso   1.000  O 
  O27      1.0000 0.87855  0.93013  0.70532  Biso   1.000  O 
  O28      1.0000 0.94662  0.84149  0.97021  Biso   1.000  O 
  O29      1.0000 0.49067  0.62184  0.74487  Biso   1.000  O 
  O30      1.0000 0.48948  0.63877  0.99676  Biso   1.000  O 
  O31      1.0000 0.45373  0.87216  0.97976  Biso   1.000  O 
  O32      1.0000 0.40683  0.87202  0.73890  Biso   1.000  O 
  La1      1.0000 0.14547  0.23757  0.11024  Biso   1.000  La
