data_image0
_cell_length_a       10.0431
_cell_length_b       10.2769
_cell_length_c       10.5742
_cell_angle_alpha    90
_cell_angle_beta     90
_cell_angle_gamma    90

_symmetry_space_group_name_H-M    "P 1"
_symmetry_int_tables_number       1

loop_
  _symmetry_equiv_pos_as_xyz
  'x, y, z'

loop_
  _atom_site_label
  _atom_site_occupancy
  _atom_site_fract_x
  _atom_site_fract_y
  _atom_site_fract_z
  _atom_site_thermal_displace_type
  _atom_site_B_iso_or_equiv
  _atom_site_type_symbol
  Hf1      1.0000 0.13631  0.02100  0.17280  Biso   1.000  Hf
  Hf2      1.0000 0.12923  0.22732  0.42735  Biso   1.000  Hf
  Hf3      1.0000 0.33833  0.27593  0.19320  Biso   1.000  Hf
  Hf4      1.0000 0.35202  0.48029  0.42475  Biso   1.000  Hf
  Hf5      1.0000 0.64228  0.00747  0.08039  Biso   1.000  Hf
  Hf6      1.0000 0.63055  0.22201  0.33082  Biso   1.000  Hf
  Hf7      1.0000 0.86258  0.26992  0.07549  Biso   1.000  Hf
  Hf8      1.0000 0.85023  0.47775  0.32516  Biso   1.000  Hf
  O1       1.0000 0.03389  0.16226  0.08175  Biso   1.000  O 
  O2       1.0000 0.02568  0.08763  0.33189  Biso   1.000  O 
  O3       1.0000 0.44271  0.44743  0.10869  Biso   1.000  O 
  O4       1.0000 0.45785  0.33225  0.33930  Biso   1.000  O 
  O5       1.0000 0.26452  0.12439  0.30256  Biso   1.000  O 
  O6       1.0000 0.28400  0.13009  0.04736  Biso   1.000  O 
  O7       1.0000 0.20713  0.37931  0.30659  Biso   1.000  O 
  O8       1.0000 0.21055  0.37969  0.05303  Biso   1.000  O 
  O9       1.0000 0.51686  0.13256  0.19360  Biso   1.000  O 
  O10      1.0000 0.52344  0.08536  0.42680  Biso   1.000  O 
  O11      1.0000 0.95813  0.41480  0.16998  Biso   1.000  O 
  O12      1.0000 0.96039  0.33794  0.41857  Biso   1.000  O 
  O13      1.0000 0.76885  0.12314  0.45138  Biso   1.000  O 
  O14      1.0000 0.77421  0.12513  0.20351  Biso   1.000  O 
  O15      1.0000 0.71489  0.37446  0.45104  Biso   1.000  O 
  O16      1.0000 0.70596  0.37085  0.19648  Biso   1.000  O 
  Hf9      1.0000 0.12981  0.02163  0.67453  Biso   1.000  Hf
  Hf10     1.0000 0.12769  0.23112  0.92370  Biso   1.000  Hf
  Hf11     1.0000 0.35089  0.27364  0.67303  Biso   1.000  Hf
  Hf12     1.0000 0.33907  0.48646  0.92945  Biso   1.000  Hf
  Hf13     1.0000 0.63250  0.01564  0.57552  Biso   1.000  Hf
  Hf14     1.0000 0.63900  0.22720  0.79663  Biso   1.000  Hf
  Hf15     1.0000 0.85549  0.27371  0.57253  Biso   1.000  Hf
  Hf16     1.0000 0.84922  0.48050  0.82911  Biso   1.000  Hf
  O17      1.0000 0.02247  0.16233  0.58213  Biso   1.000  O 
  O18      1.0000 0.02223  0.08772  0.83251  Biso   1.000  O 
  O19      1.0000 0.45932  0.41391  0.57981  Biso   1.000  O 
  O20      1.0000 0.46406  0.34230  0.82109  Biso   1.000  O 
  O21      1.0000 0.26645  0.12561  0.79696  Biso   1.000  O 
  O22      1.0000 0.26686  0.12514  0.54866  Biso   1.000  O 
  O23      1.0000 0.21234  0.37450  0.80012  Biso   1.000  O 
  O24      1.0000 0.21471  0.37573  0.55095  Biso   1.000  O 
  O25      1.0000 0.52056  0.16034  0.65990  Biso   1.000  O 
  O26      1.0000 0.52306  0.07309  0.90624  Biso   1.000  O 
  O27      1.0000 0.95890  0.41239  0.67041  Biso   1.000  O 
  O28      1.0000 0.95478  0.33636  0.91826  Biso   1.000  O 
  O29      1.0000 0.75860  0.12727  0.94766  Biso   1.000  O 
  O30      1.0000 0.77516  0.11972  0.69326  Biso   1.000  O 
  O31      1.0000 0.71373  0.38320  0.95162  Biso   1.000  O 
  O32      1.0000 0.71852  0.37817  0.69626  Biso   1.000  O 
  Hf17     1.0000 0.13117  0.52409  0.17393  Biso   1.000  Hf
  Hf18     1.0000 0.12682  0.72832  0.42311  Biso   1.000  Hf
  Hf19     1.0000 0.35264  0.77386  0.17530  Biso   1.000  Hf
  Hf20     1.0000 0.34845  0.97780  0.42648  Biso   1.000  Hf
  Hf21     1.0000 0.63347  0.53581  0.08030  Biso   1.000  Hf
  Hf22     1.0000 0.62933  0.73116  0.33084  Biso   1.000  Hf
  Hf23     1.0000 0.85855  0.77022  0.07888  Biso   1.000  Hf
  Hf24     1.0000 0.85279  0.97942  0.32882  Biso   1.000  Hf
  O33      1.0000 0.02701  0.66357  0.08163  Biso   1.000  O 
  O34      1.0000 0.01993  0.58743  0.33309  Biso   1.000  O 
  O35      1.0000 0.46254  0.90815  0.07836  Biso   1.000  O 
  O36      1.0000 0.45848  0.83940  0.33445  Biso   1.000  O 
  O37      1.0000 0.26569  0.62663  0.29687  Biso   1.000  O 
  O38      1.0000 0.26887  0.63230  0.04508  Biso   1.000  O 
  O39      1.0000 0.21389  0.87502  0.29813  Biso   1.000  O 
  O40      1.0000 0.21696  0.87957  0.04755  Biso   1.000  O 
  O41      1.0000 0.52811  0.67602  0.17044  Biso   1.000  O 
  O42      1.0000 0.52157  0.58803  0.41740  Biso   1.000  O 
  O43      1.0000 0.96134  0.91399  0.16972  Biso   1.000  O 
  O44      1.0000 0.95735  0.83709  0.42080  Biso   1.000  O 
  O45      1.0000 0.76598  0.62432  0.45473  Biso   1.000  O 
  O46      1.0000 0.77069  0.62669  0.20656  Biso   1.000  O 
  O47      1.0000 0.71404  0.87384  0.45644  Biso   1.000  O 
  O48      1.0000 0.72061  0.87239  0.20767  Biso   1.000  O 
  Hf25     1.0000 0.12718  0.52092  0.67386  Biso   1.000  Hf
  Hf26     1.0000 0.11937  0.73218  0.92186  Biso   1.000  Hf
  Hf27     1.0000 0.34703  0.76956  0.67315  Biso   1.000  Hf
  Hf28     1.0000 0.34265  0.97612  0.92111  Biso   1.000  Hf
  Hf29     1.0000 0.62831  0.52328  0.57535  Biso   1.000  Hf
  Hf30     1.0000 0.62313  0.72862  0.82658  Biso   1.000  Hf
  Hf31     1.0000 0.85127  0.77044  0.58023  Biso   1.000  Hf
  Hf32     1.0000 0.84527  0.98033  0.82948  Biso   1.000  Hf
  O49      1.0000 0.02119  0.66292  0.58322  Biso   1.000  O 
  O50      1.0000 0.01788  0.58781  0.83292  Biso   1.000  O 
  O51      1.0000 0.45565  0.90915  0.58298  Biso   1.000  O 
  O52      1.0000 0.44977  0.83211  0.83205  Biso   1.000  O 
  O53      1.0000 0.25918  0.62612  0.79600  Biso   1.000  O 
  O54      1.0000 0.26425  0.62489  0.54591  Biso   1.000  O 
  O55      1.0000 0.20736  0.87443  0.79662  Biso   1.000  O 
  O56      1.0000 0.21071  0.87538  0.54811  Biso   1.000  O 
  O57      1.0000 0.51873  0.66190  0.66797  Biso   1.000  O 
  O58      1.0000 0.51341  0.58826  0.92012  Biso   1.000  O 
  O59      1.0000 0.95507  0.91208  0.67126  Biso   1.000  O 
  O60      1.0000 0.94973  0.83936  0.92053  Biso   1.000  O 
  O61      1.0000 0.76016  0.62922  0.95223  Biso   1.000  O 
  O62      1.0000 0.76328  0.62564  0.70398  Biso   1.000  O 
  O63      1.0000 0.70703  0.87394  0.95580  Biso   1.000  O 
  O64      1.0000 0.71064  0.87389  0.70672  Biso   1.000  O 
  La1      1.0000 0.54147  0.26446  0.02190  Biso   1.000  La
