data_image0
_cell_length_a       10.0888
_cell_length_b       10.348
_cell_length_c       5.18863
_cell_angle_alpha    90
_cell_angle_beta     90
_cell_angle_gamma    90

_symmetry_space_group_name_H-M    "P 1"
_symmetry_int_tables_number       1

loop_
  _symmetry_equiv_pos_as_xyz
  'x, y, z'

loop_
  _atom_site_label
  _atom_site_occupancy
  _atom_site_fract_x
  _atom_site_fract_y
  _atom_site_fract_z
  _atom_site_thermal_displace_type
  _atom_site_B_iso_or_equiv
  _atom_site_type_symbol
  Hf1      1.0000 0.09057  0.96696  0.22922  Biso   1.000  Hf
  Hf2      1.0000 0.11817  0.26809  0.80065  Biso   1.000  Hf
  Hf3      1.0000 0.39932  0.26481  0.23429  Biso   1.000  Hf
  Hf4      1.0000 0.37496  0.04629  0.77032  Biso   1.000  Hf
  O1       1.0000 0.97830  0.11462  0.04681  Biso   1.000  O 
  O2       1.0000 0.03569  0.07342  0.56929  Biso   1.000  O 
  O3       1.0000 0.94635  0.32757  0.58531  Biso   1.000  O 
  O4       1.0000 0.98268  0.38472  0.02430  Biso   1.000  O 
  O5       1.0000 0.28594  0.19666  0.58355  Biso   1.000  O 
  O6       1.0000 0.24446  0.10544  0.04843  Biso   1.000  O 
  O7       1.0000 0.24329  0.36876  0.01386  Biso   1.000  O 
  O8       1.0000 0.20082  0.43187  0.53549  Biso   1.000  O 
  Hf5      1.0000 0.12932  0.52929  0.20017  Biso   1.000  Hf
  Hf6      1.0000 0.13247  0.78163  0.73226  Biso   1.000  Hf
  Hf7      1.0000 0.37662  0.78995  0.27869  Biso   1.000  Hf
  Hf8      1.0000 0.35248  0.51303  0.73341  Biso   1.000  Hf
  O9       1.0000 0.99530  0.65597  0.91048  Biso   1.000  O 
  O10      1.0000 0.96550  0.57326  0.39859  Biso   1.000  O 
  O11      1.0000 0.00193  0.82106  0.43426  Biso   1.000  O 
  O12      1.0000 0.98305  0.89586  0.95124  Biso   1.000  O 
  O13      1.0000 0.22901  0.67152  0.43449  Biso   1.000  O 
  O14      1.0000 0.25305  0.65112  0.93121  Biso   1.000  O 
  O15      1.0000 0.23379  0.86201  0.00141  Biso   1.000  O 
  O16      1.0000 0.24269  0.92350  0.50199  Biso   1.000  O 
  Hf9      1.0000 0.62337  0.99452  0.28802  Biso   1.000  Hf
  Hf10     1.0000 0.62879  0.26431  0.68898  Biso   1.000  Hf
  Hf11     1.0000 0.83088  0.26661  0.20192  Biso   1.000  Hf
  Hf12     1.0000 0.87247  0.02841  0.77790  Biso   1.000  Hf
  O17      1.0000 0.48449  0.20893  0.92796  Biso   1.000  O 
  O18      1.0000 0.51275  0.12821  0.45588  Biso   1.000  O 
  O19      1.0000 0.48367  0.38746  0.51396  Biso   1.000  O 
  O20      1.0000 0.47674  0.43162  0.03351  Biso   1.000  O 
  O21      1.0000 0.76223  0.14370  0.48928  Biso   1.000  O 
  O22      1.0000 0.73215  0.14176  0.98777  Biso   1.000  O 
  O23      1.0000 0.73360  0.38585  0.91234  Biso   1.000  O 
  O24      1.0000 0.72907  0.40111  0.42072  Biso   1.000  O 
  Hf13     1.0000 0.59447  0.53524  0.27298  Biso   1.000  Hf
  Hf14     1.0000 0.63181  0.76561  0.75087  Biso   1.000  Hf
  Hf15     1.0000 0.87317  0.72237  0.19480  Biso   1.000  Hf
  Hf16     1.0000 0.86969  0.50420  0.71744  Biso   1.000  Hf
  O25      1.0000 0.50911  0.68929  0.06610  Biso   1.000  O 
  O26      1.0000 0.48603  0.63799  0.54968  Biso   1.000  O 
  O27      1.0000 0.49549  0.88246  0.54822  Biso   1.000  O 
  O28      1.0000 0.46823  0.93873  0.06385  Biso   1.000  O 
  O29      1.0000 0.73784  0.65379  0.49208  Biso   1.000  O 
  O30      1.0000 0.74409  0.62862  0.98786  Biso   1.000  O 
  O31      1.0000 0.72988  0.85626  0.04198  Biso   1.000  O 
  O32      1.0000 0.74485  0.90252  0.54891  Biso   1.000  O 
  La1      1.0000 0.11170  0.24916  0.30801  Biso   1.000  La
