data_image0
_cell_length_a       10.2082
_cell_length_b       10.3831
_cell_length_c       5.15353
_cell_angle_alpha    80
_cell_angle_beta     90
_cell_angle_gamma    90

_symmetry_space_group_name_H-M    "P 1"
_symmetry_int_tables_number       1

loop_
  _symmetry_equiv_pos_as_xyz
  'x, y, z'

loop_
  _atom_site_label
  _atom_site_occupancy
  _atom_site_fract_x
  _atom_site_fract_y
  _atom_site_fract_z
  _atom_site_thermal_displace_type
  _atom_site_B_iso_or_equiv
  _atom_site_type_symbol
  Hf1      1.0000 0.09206  0.96355  0.22078  Biso   1.000  Hf
  Hf2      1.0000 0.10242  0.20434  0.61421  Biso   1.000  Hf
  Hf3      1.0000 0.39882  0.24209  0.15232  Biso   1.000  Hf
  Hf4      1.0000 0.38536  0.45838  0.69695  Biso   1.000  Hf
  O1       1.0000 0.97750  0.10553  0.37312  Biso   1.000  O 
  O2       1.0000 0.04713  0.02988  0.87202  Biso   1.000  O 
  O3       1.0000 0.48390  0.36621  0.41204  Biso   1.000  O 
  O4       1.0000 0.51543  0.31731  0.90641  Biso   1.000  O 
  O5       1.0000 0.23706  0.09978  0.39121  Biso   1.000  O 
  O6       1.0000 0.28154  0.15619  0.84247  Biso   1.000  O 
  O7       1.0000 0.28515  0.42808  0.03460  Biso   1.000  O 
  O8       1.0000 0.22227  0.36979  0.53019  Biso   1.000  O 
  Hf5      1.0000 0.14147  0.52437  0.26513  Biso   1.000  Hf
  Hf6      1.0000 0.09734  0.70083  0.74522  Biso   1.000  Hf
  Hf7      1.0000 0.35316  0.76598  0.28062  Biso   1.000  Hf
  Hf8      1.0000 0.35207  0.99317  0.70019  Biso   1.000  Hf
  O9       1.0000 0.99066  0.61612  0.45415  Biso   1.000  O 
  O10      1.0000 0.02565  0.51537  0.93005  Biso   1.000  O 
  O11      1.0000 0.46956  0.87043  0.52952  Biso   1.000  O 
  O12      1.0000 0.51535  0.83924  0.04633  Biso   1.000  O 
  O13      1.0000 0.25030  0.60876  0.54222  Biso   1.000  O 
  O14      1.0000 0.22817  0.68467  0.04084  Biso   1.000  O 
  O15      1.0000 0.26177  0.92744  0.03654  Biso   1.000  O 
  O16      1.0000 0.22007  0.84826  0.53087  Biso   1.000  O 
  Hf9      1.0000 0.60317  0.98783  0.22478  Biso   1.000  Hf
  Hf10     1.0000 0.60613  0.20365  0.68442  Biso   1.000  Hf
  Hf11     1.0000 0.83031  0.25566  0.22037  Biso   1.000  Hf
  Hf12     1.0000 0.88243  0.44973  0.68975  Biso   1.000  Hf
  O17      1.0000 0.49377  0.11328  0.44152  Biso   1.000  O 
  O18      1.0000 0.49394  0.05641  0.95630  Biso   1.000  O 
  O19      1.0000 0.98370  0.37128  0.38826  Biso   1.000  O 
  O20      1.0000 0.93296  0.25774  0.84440  Biso   1.000  O 
  O21      1.0000 0.74030  0.08933  0.50322  Biso   1.000  O 
  O22      1.0000 0.71049  0.16506  0.00630  Biso   1.000  O 
  O23      1.0000 0.76352  0.43352  0.01258  Biso   1.000  O 
  O24      1.0000 0.73021  0.34623  0.49727  Biso   1.000  O 
  Hf13     1.0000 0.62743  0.51060  0.23543  Biso   1.000  Hf
  Hf14     1.0000 0.58913  0.71452  0.74988  Biso   1.000  Hf
  Hf15     1.0000 0.84067  0.75059  0.27384  Biso   1.000  Hf
  Hf16     1.0000 0.86103  0.96785  0.70413  Biso   1.000  Hf
  O25      1.0000 0.49364  0.62195  0.45846  Biso   1.000  O 
  O26      1.0000 0.49814  0.55415  0.95431  Biso   1.000  O 
  O27      1.0000 0.97143  0.85171  0.51042  Biso   1.000  O 
  O28      1.0000 0.99699  0.81715  0.01895  Biso   1.000  O 
  O29      1.0000 0.74217  0.58932  0.51426  Biso   1.000  O 
  O30      1.0000 0.72585  0.67969  0.01722  Biso   1.000  O 
  O31      1.0000 0.76929  0.93096  0.03977  Biso   1.000  O 
  O32      1.0000 0.72291  0.84110  0.52042  Biso   1.000  O 
  La1      1.0000 0.11801  0.26970  0.09649  Biso   1.000  La
