data_image0
_cell_length_a       10.1132
_cell_length_b       5.15542
_cell_length_c       10.4548
_cell_angle_alpha    90
_cell_angle_beta     90
_cell_angle_gamma    90

_symmetry_space_group_name_H-M    "P 1"
_symmetry_int_tables_number       1

loop_
  _symmetry_equiv_pos_as_xyz
  'x, y, z'

loop_
  _atom_site_label
  _atom_site_occupancy
  _atom_site_fract_x
  _atom_site_fract_y
  _atom_site_fract_z
  _atom_site_thermal_displace_type
  _atom_site_B_iso_or_equiv
  _atom_site_type_symbol
  La1      1.0000 0.12646  0.01718  0.15908  Biso   1.000  La
  Hf1      1.0000 0.13233  0.45074  0.42157  Biso   1.000  Hf
  Hf2      1.0000 0.36132  0.52864  0.16923  Biso   1.000  Hf
  Hf3      1.0000 0.35167  0.95370  0.42019  Biso   1.000  Hf
  Hf4      1.0000 0.64100  0.03763  0.08025  Biso   1.000  Hf
  Hf5      1.0000 0.63253  0.45595  0.33198  Biso   1.000  Hf
  Hf6      1.0000 0.85573  0.53533  0.07721  Biso   1.000  Hf
  Hf7      1.0000 0.84713  0.96218  0.33667  Biso   1.000  Hf
  O1       1.0000 0.03988  0.41070  0.09218  Biso   1.000  O 
  O2       1.0000 0.02069  0.15920  0.35150  Biso   1.000  O 
  O3       1.0000 0.46968  0.82652  0.08286  Biso   1.000  O 
  O4       1.0000 0.46593  0.67247  0.33252  Biso   1.000  O 
  O5       1.0000 0.27664  0.24502  0.29995  Biso   1.000  O 
  O6       1.0000 0.28341  0.25135  0.03503  Biso   1.000  O 
  O7       1.0000 0.22689  0.72195  0.29877  Biso   1.000  O 
  O8       1.0000 0.24331  0.72705  0.03104  Biso   1.000  O 
  O9       1.0000 0.53140  0.32199  0.16773  Biso   1.000  O 
  O10      1.0000 0.52718  0.16447  0.41760  Biso   1.000  O 
  O11      1.0000 0.91691  0.87323  0.15429  Biso   1.000  O 
  O12      1.0000 0.95689  0.65941  0.41059  Biso   1.000  O 
  O13      1.0000 0.76677  0.24818  0.46006  Biso   1.000  O 
  O14      1.0000 0.77121  0.26269  0.21003  Biso   1.000  O 
  O15      1.0000 0.71627  0.74689  0.45946  Biso   1.000  O 
  O16      1.0000 0.70604  0.75343  0.21132  Biso   1.000  O 
  Hf8      1.0000 0.13126  0.03974  0.67076  Biso   1.000  Hf
  Hf9      1.0000 0.12913  0.46321  0.91612  Biso   1.000  Hf
  Hf10     1.0000 0.35141  0.53811  0.66965  Biso   1.000  Hf
  Hf11     1.0000 0.35341  0.95647  0.91798  Biso   1.000  Hf
  Hf12     1.0000 0.63072  0.03847  0.58103  Biso   1.000  Hf
  Hf13     1.0000 0.62920  0.45689  0.82768  Biso   1.000  Hf
  Hf14     1.0000 0.85525  0.54179  0.58053  Biso   1.000  Hf
  Hf15     1.0000 0.84994  0.95720  0.82946  Biso   1.000  Hf
  O17      1.0000 0.02927  0.34823  0.59435  Biso   1.000  O 
  O18      1.0000 0.02882  0.14821  0.84443  Biso   1.000  O 
  O19      1.0000 0.45831  0.82534  0.58279  Biso   1.000  O 
  O20      1.0000 0.45876  0.66729  0.82961  Biso   1.000  O 
  O21      1.0000 0.26671  0.24752  0.79112  Biso   1.000  O 
  O22      1.0000 0.26768  0.24676  0.54479  Biso   1.000  O 
  O23      1.0000 0.21421  0.74677  0.78995  Biso   1.000  O 
  O24      1.0000 0.21465  0.75159  0.54446  Biso   1.000  O 
  O25      1.0000 0.52368  0.32610  0.66608  Biso   1.000  O 
  O26      1.0000 0.52641  0.16696  0.91601  Biso   1.000  O 
  O27      1.0000 0.95336  0.84742  0.66104  Biso   1.000  O 
  O28      1.0000 0.95127  0.65602  0.90654  Biso   1.000  O 
  O29      1.0000 0.76617  0.24301  0.95572  Biso   1.000  O 
  O30      1.0000 0.76750  0.25250  0.70680  Biso   1.000  O 
  O31      1.0000 0.71068  0.74500  0.95458  Biso   1.000  O 
  O32      1.0000 0.71527  0.74924  0.70579  Biso   1.000  O 
