data_image0
_cell_length_a       4.99073
_cell_length_b       10.4094
_cell_length_c       10.0215
_cell_angle_alpha    90
_cell_angle_beta     90
_cell_angle_gamma    90

_symmetry_space_group_name_H-M    "P 1"
_symmetry_int_tables_number       1

loop_
  _symmetry_equiv_pos_as_xyz
  'x, y, z'

loop_
  _atom_site_label
  _atom_site_occupancy
  _atom_site_fract_x
  _atom_site_fract_y
  _atom_site_fract_z
  _atom_site_thermal_displace_type
  _atom_site_B_iso_or_equiv
  _atom_site_type_symbol
  Hf1      1.0000 0.26221  0.01926  0.12059  Biso   1.000  Hf
  Hf2      1.0000 0.26048  0.23247  0.38134  Biso   1.000  Hf
  Hf3      1.0000 0.70054  0.26232  0.12573  Biso   1.000  Hf
  Hf4      1.0000 0.73413  0.48447  0.37286  Biso   1.000  Hf
  O1       1.0000 0.04035  0.18045  0.20547  Biso   1.000  O 
  O2       1.0000 0.06685  0.06700  0.44778  Biso   1.000  O 
  O3       1.0000 0.92181  0.43394  0.19038  Biso   1.000  O 
  O4       1.0000 0.92797  0.32054  0.44823  Biso   1.000  O 
  O5       1.0000 0.52160  0.11805  0.25069  Biso   1.000  O 
  O6       1.0000 0.54056  0.13445  0.49868  Biso   1.000  O 
  O7       1.0000 0.45919  0.38462  0.49864  Biso   1.000  O 
  O8       1.0000 0.43207  0.37048  0.24711  Biso   1.000  O 
  Hf5      1.0000 0.26545  0.01691  0.62537  Biso   1.000  Hf
  Hf6      1.0000 0.26542  0.23272  0.86936  Biso   1.000  Hf
  Hf7      1.0000 0.73027  0.26922  0.62554  Biso   1.000  Hf
  Hf8      1.0000 0.72964  0.48418  0.87972  Biso   1.000  Hf
  O9       1.0000 0.06976  0.18494  0.69099  Biso   1.000  O 
  O10      1.0000 0.07346  0.06716  0.93887  Biso   1.000  O 
  O11      1.0000 0.93406  0.43385  0.70223  Biso   1.000  O 
  O12      1.0000 0.93296  0.31737  0.95533  Biso   1.000  O 
  O13      1.0000 0.54052  0.11865  0.74573  Biso   1.000  O 
  O14      1.0000 0.55414  0.13138  0.99274  Biso   1.000  O 
  O15      1.0000 0.45080  0.38220  0.00080  Biso   1.000  O 
  O16      1.0000 0.46340  0.36984  0.74980  Biso   1.000  O 
  Hf9      1.0000 0.26973  0.53308  0.12706  Biso   1.000  Hf
  Hf10     1.0000 0.26827  0.73762  0.37907  Biso   1.000  Hf
  Hf11     1.0000 0.72945  0.77067  0.12638  Biso   1.000  Hf
  Hf12     1.0000 0.72953  0.98633  0.37356  Biso   1.000  Hf
  O17      1.0000 0.06876  0.68784  0.19900  Biso   1.000  O 
  O18      1.0000 0.06747  0.56834  0.44513  Biso   1.000  O 
  O19      1.0000 0.92429  0.93617  0.19321  Biso   1.000  O 
  O20      1.0000 0.92636  0.81892  0.44472  Biso   1.000  O 
  O21      1.0000 0.54461  0.62367  0.25200  Biso   1.000  O 
  O22      1.0000 0.53814  0.63400  0.50071  Biso   1.000  O 
  O23      1.0000 0.45987  0.88500  0.49933  Biso   1.000  O 
  O24      1.0000 0.45583  0.86974  0.24987  Biso   1.000  O 
  Hf13     1.0000 0.26848  0.51769  0.62659  Biso   1.000  Hf
  Hf14     1.0000 0.26298  0.73861  0.87385  Biso   1.000  Hf
  Hf15     1.0000 0.73257  0.76744  0.62523  Biso   1.000  Hf
  Hf16     1.0000 0.72882  0.98479  0.87436  Biso   1.000  Hf
  O25      1.0000 0.07264  0.68550  0.69289  Biso   1.000  O 
  O26      1.0000 0.06314  0.57425  0.94637  Biso   1.000  O 
  O27      1.0000 0.93041  0.93350  0.69494  Biso   1.000  O 
  O28      1.0000 0.92481  0.81987  0.94651  Biso   1.000  O 
  O29      1.0000 0.54047  0.61804  0.75152  Biso   1.000  O 
  O30      1.0000 0.54534  0.63246  0.00030  Biso   1.000  O 
  O31      1.0000 0.45104  0.88539  0.99933  Biso   1.000  O 
  O32      1.0000 0.46031  0.86872  0.74841  Biso   1.000  O 
  Li1      1.0000 0.18045  0.30716  0.11162  Biso   1.000  Li
