data_image0
_cell_length_a       10.027
_cell_length_b       10.2186
_cell_length_c       10.4958
_cell_angle_alpha    90
_cell_angle_beta     90
_cell_angle_gamma    90

_symmetry_space_group_name_H-M    "P 1"
_symmetry_int_tables_number       1

loop_
  _symmetry_equiv_pos_as_xyz
  'x, y, z'

loop_
  _atom_site_label
  _atom_site_occupancy
  _atom_site_fract_x
  _atom_site_fract_y
  _atom_site_fract_z
  _atom_site_thermal_displace_type
  _atom_site_B_iso_or_equiv
  _atom_site_type_symbol
  Hf1      1.0000 0.13724  0.02073  0.17316  Biso   1.000  Hf
  Hf2      1.0000 0.13525  0.22800  0.42546  Biso   1.000  Hf
  Hf3      1.0000 0.34928  0.27322  0.18166  Biso   1.000  Hf
  Hf4      1.0000 0.35632  0.47981  0.42603  Biso   1.000  Hf
  Hf5      1.0000 0.64172  0.01911  0.07843  Biso   1.000  Hf
  Hf6      1.0000 0.63528  0.23015  0.32767  Biso   1.000  Hf
  Hf7      1.0000 0.86023  0.27094  0.07870  Biso   1.000  Hf
  Hf8      1.0000 0.85771  0.47897  0.32852  Biso   1.000  Hf
  O1       1.0000 0.03292  0.16568  0.08523  Biso   1.000  O 
  O2       1.0000 0.03035  0.08515  0.33396  Biso   1.000  O 
  O3       1.0000 0.46465  0.41430  0.08568  Biso   1.000  O 
  O4       1.0000 0.46201  0.33499  0.33684  Biso   1.000  O 
  O5       1.0000 0.27350  0.12383  0.29908  Biso   1.000  O 
  O6       1.0000 0.27688  0.12709  0.04954  Biso   1.000  O 
  O7       1.0000 0.21622  0.37550  0.30214  Biso   1.000  O 
  O8       1.0000 0.21970  0.37755  0.05008  Biso   1.000  O 
  O9       1.0000 0.53077  0.17195  0.16174  Biso   1.000  O 
  O10      1.0000 0.52956  0.08431  0.41434  Biso   1.000  O 
  O11      1.0000 0.96449  0.41537  0.16790  Biso   1.000  O 
  O12      1.0000 0.96405  0.33548  0.41748  Biso   1.000  O 
  O13      1.0000 0.77324  0.12452  0.45183  Biso   1.000  O 
  O14      1.0000 0.77369  0.12586  0.20296  Biso   1.000  O 
  O15      1.0000 0.71888  0.37455  0.45410  Biso   1.000  O 
  O16      1.0000 0.71989  0.37685  0.20463  Biso   1.000  O 
  Hf9      1.0000 0.13513  0.02174  0.67391  Biso   1.000  Hf
  Hf10     1.0000 0.13126  0.22947  0.92458  Biso   1.000  Hf
  Hf11     1.0000 0.35675  0.27142  0.67570  Biso   1.000  Hf
  Hf12     1.0000 0.35131  0.48054  0.92367  Biso   1.000  Hf
  Hf13     1.0000 0.63618  0.01937  0.57478  Biso   1.000  Hf
  Hf14     1.0000 0.64274  0.22412  0.81555  Biso   1.000  Hf
  Hf15     1.0000 0.85838  0.27246  0.57611  Biso   1.000  Hf
  Hf16     1.0000 0.85427  0.47884  0.82916  Biso   1.000  Hf
  O17      1.0000 0.02909  0.16509  0.58450  Biso   1.000  O 
  O18      1.0000 0.02741  0.08566  0.83394  Biso   1.000  O 
  O19      1.0000 0.46308  0.41539  0.58706  Biso   1.000  O 
  O20      1.0000 0.46405  0.33162  0.83986  Biso   1.000  O 
  O21      1.0000 0.27168  0.12503  0.79840  Biso   1.000  O 
  O22      1.0000 0.27412  0.12629  0.54859  Biso   1.000  O 
  O23      1.0000 0.21821  0.37463  0.79891  Biso   1.000  O 
  O24      1.0000 0.21926  0.37609  0.54999  Biso   1.000  O 
  O25      1.0000 0.52865  0.16319  0.66471  Biso   1.000  O 
  O26      1.0000 0.52608  0.09460  0.92193  Biso   1.000  O 
  O27      1.0000 0.96188  0.41545  0.66849  Biso   1.000  O 
  O28      1.0000 0.95692  0.33451  0.91783  Biso   1.000  O 
  O29      1.0000 0.77261  0.12170  0.95137  Biso   1.000  O 
  O30      1.0000 0.77635  0.12360  0.69797  Biso   1.000  O 
  O31      1.0000 0.70637  0.36790  0.95561  Biso   1.000  O 
  O32      1.0000 0.71902  0.37613  0.70256  Biso   1.000  O 
  Hf17     1.0000 0.13589  0.52277  0.17388  Biso   1.000  Hf
  Hf18     1.0000 0.13389  0.72914  0.42343  Biso   1.000  Hf
  Hf19     1.0000 0.35841  0.77154  0.17397  Biso   1.000  Hf
  Hf20     1.0000 0.35554  0.97810  0.42383  Biso   1.000  Hf
  Hf21     1.0000 0.63881  0.52404  0.07907  Biso   1.000  Hf
  Hf22     1.0000 0.63475  0.72869  0.32899  Biso   1.000  Hf
  Hf23     1.0000 0.85992  0.77047  0.07922  Biso   1.000  Hf
  Hf24     1.0000 0.85679  0.97910  0.32859  Biso   1.000  Hf
  O33      1.0000 0.03193  0.66598  0.08450  Biso   1.000  O 
  O34      1.0000 0.02858  0.58594  0.33462  Biso   1.000  O 
  O35      1.0000 0.46626  0.91600  0.08545  Biso   1.000  O 
  O36      1.0000 0.46323  0.83500  0.33458  Biso   1.000  O 
  O37      1.0000 0.27301  0.62457  0.29809  Biso   1.000  O 
  O38      1.0000 0.27608  0.62616  0.04665  Biso   1.000  O 
  O39      1.0000 0.21916  0.87401  0.29728  Biso   1.000  O 
  O40      1.0000 0.22240  0.87689  0.04720  Biso   1.000  O 
  O41      1.0000 0.52948  0.66420  0.16838  Biso   1.000  O 
  O42      1.0000 0.52802  0.58553  0.41858  Biso   1.000  O 
  O43      1.0000 0.96316  0.91571  0.16666  Biso   1.000  O 
  O44      1.0000 0.96227  0.83545  0.41771  Biso   1.000  O 
  O45      1.0000 0.77208  0.62416  0.45470  Biso   1.000  O 
  O46      1.0000 0.77439  0.62684  0.20522  Biso   1.000  O 
  O47      1.0000 0.71887  0.87371  0.45462  Biso   1.000  O 
  O48      1.0000 0.72059  0.87506  0.20534  Biso   1.000  O 
  Hf25     1.0000 0.13313  0.52150  0.67378  Biso   1.000  Hf
  Hf26     1.0000 0.13067  0.72974  0.92310  Biso   1.000  Hf
  Hf27     1.0000 0.35466  0.77262  0.67409  Biso   1.000  Hf
  Hf28     1.0000 0.35250  0.98117  0.92470  Biso   1.000  Hf
  Hf29     1.0000 0.63394  0.52258  0.57850  Biso   1.000  Hf
  Hf30     1.0000 0.63079  0.72921  0.82822  Biso   1.000  Hf
  Hf31     1.0000 0.85636  0.77097  0.57898  Biso   1.000  Hf
  Hf32     1.0000 0.85490  0.97715  0.82834  Biso   1.000  Hf
  O49      1.0000 0.02748  0.66481  0.58451  Biso   1.000  O 
  O50      1.0000 0.02608  0.58420  0.83548  Biso   1.000  O 
  O51      1.0000 0.46211  0.91402  0.58295  Biso   1.000  O 
  O52      1.0000 0.46117  0.83969  0.83408  Biso   1.000  O 
  O53      1.0000 0.26945  0.62545  0.79732  Biso   1.000  O 
  O54      1.0000 0.27123  0.62671  0.54774  Biso   1.000  O 
  O55      1.0000 0.21642  0.87492  0.79800  Biso   1.000  O 
  O56      1.0000 0.21764  0.87649  0.54793  Biso   1.000  O 
  O57      1.0000 0.52584  0.66540  0.66833  Biso   1.000  O 
  O58      1.0000 0.52372  0.58625  0.91786  Biso   1.000  O 
  O59      1.0000 0.96210  0.91419  0.66767  Biso   1.000  O 
  O60      1.0000 0.95803  0.83413  0.91744  Biso   1.000  O 
  O61      1.0000 0.76831  0.62249  0.95437  Biso   1.000  O 
  O62      1.0000 0.77028  0.62632  0.70513  Biso   1.000  O 
  O63      1.0000 0.71399  0.87389  0.95571  Biso   1.000  O 
  O64      1.0000 0.71731  0.87572  0.70440  Biso   1.000  O 
  Li1      1.0000 0.53362  0.27068  0.01217  Biso   1.000  Li
