data_image0
_cell_length_a       10.1283
_cell_length_b       10.2729
_cell_length_c       10.4769
_cell_angle_alpha    90
_cell_angle_beta     80
_cell_angle_gamma    90

_symmetry_space_group_name_H-M    "P 1"
_symmetry_int_tables_number       1

loop_
  _symmetry_equiv_pos_as_xyz
  'x, y, z'

loop_
  _atom_site_label
  _atom_site_occupancy
  _atom_site_fract_x
  _atom_site_fract_y
  _atom_site_fract_z
  _atom_site_thermal_displace_type
  _atom_site_B_iso_or_equiv
  _atom_site_type_symbol
  Hf1      1.0000 0.13908  0.02290  0.14723  Biso   1.000  Hf
  Hf2      1.0000 0.13912  0.22924  0.39633  Biso   1.000  Hf
  Hf3      1.0000 0.34914  0.27644  0.09198  Biso   1.000  Hf
  Hf4      1.0000 0.35816  0.47966  0.35435  Biso   1.000  Hf
  O1       1.0000 0.03512  0.17069  0.08092  Biso   1.000  O 
  O2       1.0000 0.03911  0.08004  0.33063  Biso   1.000  O 
  O3       1.0000 0.46283  0.40977  0.17464  Biso   1.000  O 
  O4       1.0000 0.46587  0.32493  0.41546  Biso   1.000  O 
  O5       1.0000 0.28487  0.13488  0.24095  Biso   1.000  O 
  O6       1.0000 0.27916  0.11996  0.48968  Biso   1.000  O 
  O7       1.0000 0.21501  0.38347  0.00425  Biso   1.000  O 
  O8       1.0000 0.21948  0.37253  0.25691  Biso   1.000  O 
  Hf5      1.0000 0.14074  0.02081  0.64573  Biso   1.000  Hf
  Hf6      1.0000 0.13783  0.22744  0.89298  Biso   1.000  Hf
  Hf7      1.0000 0.36269  0.26961  0.60330  Biso   1.000  Hf
  Hf8      1.0000 0.36011  0.48045  0.85014  Biso   1.000  Hf
  O9       1.0000 0.03899  0.17072  0.58155  Biso   1.000  O 
  O10      1.0000 0.03668  0.07921  0.82991  Biso   1.000  O 
  O11      1.0000 0.46488  0.41944  0.66693  Biso   1.000  O 
  O12      1.0000 0.46497  0.33269  0.91714  Biso   1.000  O 
  O13      1.0000 0.27862  0.12793  0.73954  Biso   1.000  O 
  O14      1.0000 0.27756  0.12146  0.98808  Biso   1.000  O 
  O15      1.0000 0.22552  0.37926  0.50775  Biso   1.000  O 
  O16      1.0000 0.22379  0.36956  0.75644  Biso   1.000  O 
  Hf9      1.0000 0.13561  0.52411  0.14621  Biso   1.000  Hf
  Hf10     1.0000 0.13756  0.72811  0.39727  Biso   1.000  Hf
  Hf11     1.0000 0.35831  0.77201  0.10424  Biso   1.000  Hf
  Hf12     1.0000 0.35782  0.97414  0.35569  Biso   1.000  Hf
  O17      1.0000 0.03252  0.67146  0.08176  Biso   1.000  O 
  O18      1.0000 0.03428  0.58135  0.33079  Biso   1.000  O 
  O19      1.0000 0.46257  0.91809  0.17193  Biso   1.000  O 
  O20      1.0000 0.46413  0.83099  0.42138  Biso   1.000  O 
  O21      1.0000 0.27562  0.62879  0.24132  Biso   1.000  O 
  O22      1.0000 0.27604  0.62138  0.49111  Biso   1.000  O 
  O23      1.0000 0.21997  0.88051  0.01079  Biso   1.000  O 
  O24      1.0000 0.22052  0.87145  0.26020  Biso   1.000  O 
  Hf13     1.0000 0.13921  0.52147  0.64605  Biso   1.000  Hf
  Hf14     1.0000 0.13869  0.72877  0.89659  Biso   1.000  Hf
  Hf15     1.0000 0.36100  0.77142  0.60495  Biso   1.000  Hf
  Hf16     1.0000 0.36061  0.97719  0.85415  Biso   1.000  Hf
  O25      1.0000 0.03486  0.66874  0.58090  Biso   1.000  O 
  O26      1.0000 0.03687  0.57986  0.83108  Biso   1.000  O 
  O27      1.0000 0.46418  0.91866  0.67128  Biso   1.000  O 
  O28      1.0000 0.46527  0.83049  0.92091  Biso   1.000  O 
  O29      1.0000 0.27679  0.62904  0.74024  Biso   1.000  O 
  O30      1.0000 0.27767  0.62154  0.99006  Biso   1.000  O 
  O31      1.0000 0.22209  0.87773  0.51047  Biso   1.000  O 
  O32      1.0000 0.22242  0.87053  0.75980  Biso   1.000  O 
  Hf17     1.0000 0.63982  0.02141  0.14728  Biso   1.000  Hf
  Hf18     1.0000 0.65029  0.22752  0.40364  Biso   1.000  Hf
  Hf19     1.0000 0.85949  0.27190  0.10589  Biso   1.000  Hf
  Hf20     1.0000 0.86097  0.47864  0.35500  Biso   1.000  Hf
  O33      1.0000 0.52958  0.17195  0.08652  Biso   1.000  O 
  O34      1.0000 0.53657  0.08322  0.33173  Biso   1.000  O 
  O35      1.0000 0.96216  0.42062  0.17009  Biso   1.000  O 
  O36      1.0000 0.96355  0.32986  0.42058  Biso   1.000  O 
  O37      1.0000 0.77897  0.12864  0.24401  Biso   1.000  O 
  O38      1.0000 0.78319  0.11836  0.49485  Biso   1.000  O 
  O39      1.0000 0.71953  0.37889  0.01238  Biso   1.000  O 
  O40      1.0000 0.72251  0.36983  0.26283  Biso   1.000  O 
  Hf21     1.0000 0.64183  0.02030  0.64895  Biso   1.000  Hf
  Hf22     1.0000 0.64022  0.22853  0.89878  Biso   1.000  Hf
  Hf23     1.0000 0.86352  0.27131  0.60756  Biso   1.000  Hf
  Hf24     1.0000 0.86138  0.47832  0.85553  Biso   1.000  Hf
  O41      1.0000 0.53921  0.16876  0.58233  Biso   1.000  O 
  O42      1.0000 0.53726  0.08070  0.83288  Biso   1.000  O 
  O43      1.0000 0.96503  0.41981  0.67083  Biso   1.000  O 
  O44      1.0000 0.96324  0.32858  0.91922  Biso   1.000  O 
  O45      1.0000 0.77836  0.12916  0.74377  Biso   1.000  O 
  O46      1.0000 0.77704  0.11982  0.99282  Biso   1.000  O 
  O47      1.0000 0.72490  0.37836  0.51249  Biso   1.000  O 
  O48      1.0000 0.72352  0.37059  0.76178  Biso   1.000  O 
  Hf25     1.0000 0.63596  0.52034  0.14837  Biso   1.000  Hf
  Hf26     1.0000 0.63820  0.72760  0.39741  Biso   1.000  Hf
  Hf27     1.0000 0.85729  0.77212  0.10525  Biso   1.000  Hf
  Hf28     1.0000 0.86029  0.97680  0.35484  Biso   1.000  Hf
  O49      1.0000 0.53093  0.66546  0.08105  Biso   1.000  O 
  O50      1.0000 0.53304  0.57970  0.33189  Biso   1.000  O 
  O51      1.0000 0.96220  0.92038  0.16983  Biso   1.000  O 
  O52      1.0000 0.96352  0.83024  0.42073  Biso   1.000  O 
  O53      1.0000 0.77391  0.62846  0.24172  Biso   1.000  O 
  O54      1.0000 0.77618  0.62021  0.49142  Biso   1.000  O 
  O55      1.0000 0.71854  0.87867  0.01137  Biso   1.000  O 
  O56      1.0000 0.72069  0.87133  0.26075  Biso   1.000  O 
  Hf29     1.0000 0.63949  0.52171  0.64727  Biso   1.000  Hf
  Hf30     1.0000 0.63927  0.72678  0.89734  Biso   1.000  Hf
  Hf31     1.0000 0.86018  0.77115  0.60510  Biso   1.000  Hf
  Hf32     1.0000 0.85943  0.97723  0.85510  Biso   1.000  Hf
  O57      1.0000 0.53542  0.66885  0.58092  Biso   1.000  O 
  O58      1.0000 0.53511  0.58119  0.82925  Biso   1.000  O 
  O59      1.0000 0.96267  0.91920  0.67025  Biso   1.000  O 
  O60      1.0000 0.96375  0.83002  0.92023  Biso   1.000  O 
  O61      1.0000 0.77719  0.62872  0.74194  Biso   1.000  O 
  O62      1.0000 0.77739  0.61997  0.99206  Biso   1.000  O 
  O63      1.0000 0.72221  0.87818  0.51074  Biso   1.000  O 
  O64      1.0000 0.72208  0.87015  0.76097  Biso   1.000  O 
  Li1      1.0000 0.45905  0.22234  0.27175  Biso   1.000  Li
