data_image0
_cell_length_a       10.0322
_cell_length_b       5.12536
_cell_length_c       10.4971
_cell_angle_alpha    90
_cell_angle_beta     90
_cell_angle_gamma    90

_symmetry_space_group_name_H-M    "P 1"
_symmetry_int_tables_number       1

loop_
  _symmetry_equiv_pos_as_xyz
  'x, y, z'

loop_
  _atom_site_label
  _atom_site_occupancy
  _atom_site_fract_x
  _atom_site_fract_y
  _atom_site_fract_z
  _atom_site_thermal_displace_type
  _atom_site_B_iso_or_equiv
  _atom_site_type_symbol
  Hf1      1.0000 0.13576  0.04135  0.17347  Biso   1.000  Hf
  Hf2      1.0000 0.13160  0.45353  0.42471  Biso   1.000  Hf
  Hf3      1.0000 0.35018  0.54364  0.17854  Biso   1.000  Hf
  Hf4      1.0000 0.35342  0.95526  0.42548  Biso   1.000  Hf
  Hf5      1.0000 0.64541  0.06542  0.07492  Biso   1.000  Hf
  Hf6      1.0000 0.63310  0.45628  0.33258  Biso   1.000  Hf
  Hf7      1.0000 0.86163  0.53821  0.07798  Biso   1.000  Hf
  Hf8      1.0000 0.85367  0.95271  0.32655  Biso   1.000  Hf
  O1       1.0000 0.03290  0.32661  0.08394  Biso   1.000  O 
  O2       1.0000 0.02768  0.16589  0.33461  Biso   1.000  O 
  O3       1.0000 0.46481  0.83301  0.08681  Biso   1.000  O 
  O4       1.0000 0.46006  0.66758  0.33732  Biso   1.000  O 
  O5       1.0000 0.27078  0.24705  0.29841  Biso   1.000  O 
  O6       1.0000 0.27656  0.25146  0.04743  Biso   1.000  O 
  O7       1.0000 0.21554  0.74726  0.29958  Biso   1.000  O 
  O8       1.0000 0.22093  0.75207  0.04903  Biso   1.000  O 
  O9       1.0000 0.52573  0.33504  0.16957  Biso   1.000  O 
  O10      1.0000 0.52717  0.16767  0.41750  Biso   1.000  O 
  O11      1.0000 0.96130  0.83016  0.16747  Biso   1.000  O 
  O12      1.0000 0.96112  0.66782  0.41802  Biso   1.000  O 
  O13      1.0000 0.77070  0.24481  0.45468  Biso   1.000  O 
  O14      1.0000 0.77625  0.25417  0.20792  Biso   1.000  O 
  O15      1.0000 0.71665  0.74571  0.45405  Biso   1.000  O 
  O16      1.0000 0.71347  0.74634  0.19970  Biso   1.000  O 
  Hf9      1.0000 0.13355  0.04003  0.67379  Biso   1.000  Hf
  Hf10     1.0000 0.12919  0.45561  0.92303  Biso   1.000  Hf
  Hf11     1.0000 0.35463  0.54114  0.67500  Biso   1.000  Hf
  Hf12     1.0000 0.35045  0.95741  0.92469  Biso   1.000  Hf
  Hf13     1.0000 0.63401  0.03958  0.57796  Biso   1.000  Hf
  Hf14     1.0000 0.63427  0.45215  0.82313  Biso   1.000  Hf
  Hf15     1.0000 0.85586  0.53976  0.57797  Biso   1.000  Hf
  Hf16     1.0000 0.85294  0.95148  0.82815  Biso   1.000  Hf
  O17      1.0000 0.02649  0.32618  0.58459  Biso   1.000  O 
  O18      1.0000 0.02643  0.16821  0.83325  Biso   1.000  O 
  O19      1.0000 0.46020  0.82776  0.58509  Biso   1.000  O 
  O20      1.0000 0.46135  0.67063  0.83564  Biso   1.000  O 
  O21      1.0000 0.26986  0.24716  0.79760  Biso   1.000  O 
  O22      1.0000 0.27052  0.24954  0.54790  Biso   1.000  O 
  O23      1.0000 0.21606  0.74633  0.79842  Biso   1.000  O 
  O24      1.0000 0.21674  0.74851  0.54888  Biso   1.000  O 
  O25      1.0000 0.52568  0.32617  0.66619  Biso   1.000  O 
  O26      1.0000 0.52417  0.17501  0.91764  Biso   1.000  O 
  O27      1.0000 0.96060  0.82581  0.66764  Biso   1.000  O 
  O28      1.0000 0.95873  0.67193  0.91885  Biso   1.000  O 
  O29      1.0000 0.77754  0.24256  0.94809  Biso   1.000  O 
  O30      1.0000 0.77122  0.24784  0.70205  Biso   1.000  O 
  O31      1.0000 0.70781  0.74501  0.95641  Biso   1.000  O 
  O32      1.0000 0.71606  0.74970  0.70298  Biso   1.000  O 
  Li1      1.0000 0.58936  0.59057  0.06871  Biso   1.000  Li
