data_image0
_cell_length_a       10.1808
_cell_length_b       10.1174
_cell_length_c       5.09776
_cell_angle_alpha    90
_cell_angle_beta     90
_cell_angle_gamma    90

_symmetry_space_group_name_H-M    "P 1"
_symmetry_int_tables_number       1

loop_
  _symmetry_equiv_pos_as_xyz
  'x, y, z'

loop_
  _atom_site_label
  _atom_site_occupancy
  _atom_site_fract_x
  _atom_site_fract_y
  _atom_site_fract_z
  _atom_site_thermal_displace_type
  _atom_site_B_iso_or_equiv
  _atom_site_type_symbol
  Hf1      1.0000 0.11047  0.99889  0.25039  Biso   1.000  Hf
  Hf2      1.0000 0.07680  0.24017  0.75014  Biso   1.000  Hf
  Hf3      1.0000 0.36694  0.24256  0.24053  Biso   1.000  Hf
  Hf4      1.0000 0.32701  0.00611  0.74218  Biso   1.000  Hf
  O1       1.0000 0.00282  0.15593  0.02808  Biso   1.000  O 
  O2       1.0000 0.97093  0.09551  0.49879  Biso   1.000  O 
  O3       1.0000 0.91417  0.33326  0.59596  Biso   1.000  O 
  O4       1.0000 0.95528  0.40732  0.10468  Biso   1.000  O 
  O5       1.0000 0.20959  0.15588  0.48088  Biso   1.000  O 
  O6       1.0000 0.18936  0.09971  0.98080  Biso   1.000  O 
  O7       1.0000 0.20794  0.34776  0.07714  Biso   1.000  O 
  O8       1.0000 0.16276  0.40690  0.56868  Biso   1.000  O 
  Hf5      1.0000 0.11159  0.51984  0.24418  Biso   1.000  Hf
  Hf6      1.0000 0.07739  0.74307  0.74500  Biso   1.000  Hf
  Hf7      1.0000 0.36214  0.74333  0.24471  Biso   1.000  Hf
  Hf8      1.0000 0.32636  0.50426  0.73840  Biso   1.000  Hf
  O9       1.0000 0.93810  0.65102  0.98741  Biso   1.000  O 
  O10      1.0000 0.96568  0.59776  0.50464  Biso   1.000  O 
  O11      1.0000 0.02105  0.83542  0.40348  Biso   1.000  O 
  O12      1.0000 0.98771  0.91033  0.89965  Biso   1.000  O 
  O13      1.0000 0.22242  0.65223  0.48872  Biso   1.000  O 
  O14      1.0000 0.18485  0.60079  0.98902  Biso   1.000  O 
  O15      1.0000 0.23768  0.84060  0.90092  Biso   1.000  O 
  O16      1.0000 0.27298  0.91090  0.40513  Biso   1.000  O 
  Hf9      1.0000 0.60862  0.00338  0.24635  Biso   1.000  Hf
  Hf10     1.0000 0.57648  0.24194  0.74028  Biso   1.000  Hf
  Hf11     1.0000 0.84849  0.24254  0.25496  Biso   1.000  Hf
  Hf12     1.0000 0.82525  0.00473  0.74579  Biso   1.000  Hf
  O17      1.0000 0.50087  0.14985  0.00069  Biso   1.000  O 
  O18      1.0000 0.46947  0.09746  0.48500  Biso   1.000  O 
  O19      1.0000 0.41596  0.33739  0.58278  Biso   1.000  O 
  O20      1.0000 0.45202  0.41022  0.08456  Biso   1.000  O 
  O21      1.0000 0.71235  0.14762  0.50206  Biso   1.000  O 
  O22      1.0000 0.68983  0.09781  0.98916  Biso   1.000  O 
  O23      1.0000 0.69871  0.34068  0.08470  Biso   1.000  O 
  O24      1.0000 0.66837  0.40777  0.58191  Biso   1.000  O 
  Hf13     1.0000 0.61002  0.50798  0.24723  Biso   1.000  Hf
  Hf14     1.0000 0.57769  0.74038  0.74418  Biso   1.000  Hf
  Hf15     1.0000 0.85736  0.74120  0.25162  Biso   1.000  Hf
  Hf16     1.0000 0.82841  0.50322  0.74791  Biso   1.000  Hf
  O25      1.0000 0.43918  0.64889  0.98359  Biso   1.000  O 
  O26      1.0000 0.46499  0.59670  0.49884  Biso   1.000  O 
  O27      1.0000 0.52294  0.83663  0.40305  Biso   1.000  O 
  O28      1.0000 0.48729  0.90878  0.89779  Biso   1.000  O 
  O29      1.0000 0.72168  0.64850  0.49503  Biso   1.000  O 
  O30      1.0000 0.74953  0.59745  0.00703  Biso   1.000  O 
  O31      1.0000 0.73667  0.83813  0.90567  Biso   1.000  O 
  O32      1.0000 0.77123  0.90920  0.41053  Biso   1.000  O 
  Li1      1.0000 0.09723  0.26421  0.26859  Biso   1.000  Li
