data_image0
_cell_length_a       5.08596
_cell_length_b       10.2521
_cell_length_c       10.5176
_cell_angle_alpha    90
_cell_angle_beta     80
_cell_angle_gamma    90

_symmetry_space_group_name_H-M    "P 1"
_symmetry_int_tables_number       1

loop_
  _symmetry_equiv_pos_as_xyz
  'x, y, z'

loop_
  _atom_site_label
  _atom_site_occupancy
  _atom_site_fract_x
  _atom_site_fract_y
  _atom_site_fract_z
  _atom_site_thermal_displace_type
  _atom_site_B_iso_or_equiv
  _atom_site_type_symbol
  Hf1      1.0000 0.28265  0.02244  0.14864  Biso   1.000  Hf
  Hf2      1.0000 0.30782  0.22809  0.40371  Biso   1.000  Hf
  Hf3      1.0000 0.69389  0.27594  0.09511  Biso   1.000  Hf
  Hf4      1.0000 0.72044  0.47951  0.35503  Biso   1.000  Hf
  O1       1.0000 0.05611  0.17143  0.08529  Biso   1.000  O 
  O2       1.0000 0.08451  0.08412  0.33012  Biso   1.000  O 
  O3       1.0000 0.92497  0.40916  0.17658  Biso   1.000  O 
  O4       1.0000 0.93915  0.32556  0.41696  Biso   1.000  O 
  O5       1.0000 0.57992  0.13394  0.24495  Biso   1.000  O 
  O6       1.0000 0.57801  0.11821  0.49417  Biso   1.000  O 
  O7       1.0000 0.42090  0.38224  0.00749  Biso   1.000  O 
  O8       1.0000 0.43870  0.37274  0.26063  Biso   1.000  O 
  Hf5      1.0000 0.29743  0.01979  0.64821  Biso   1.000  Hf
  Hf6      1.0000 0.29128  0.22804  0.89517  Biso   1.000  Hf
  Hf7      1.0000 0.74049  0.26962  0.60576  Biso   1.000  Hf
  Hf8      1.0000 0.73388  0.48030  0.85094  Biso   1.000  Hf
  O9       1.0000 0.09161  0.16839  0.58178  Biso   1.000  O 
  O10      1.0000 0.08719  0.08114  0.83007  Biso   1.000  O 
  O11      1.0000 0.94380  0.41859  0.66864  Biso   1.000  O 
  O12      1.0000 0.94274  0.33226  0.91691  Biso   1.000  O 
  O13      1.0000 0.57110  0.12806  0.74206  Biso   1.000  O 
  O14      1.0000 0.57072  0.12093  0.98893  Biso   1.000  O 
  O15      1.0000 0.46318  0.37854  0.51083  Biso   1.000  O 
  O16      1.0000 0.46064  0.37007  0.75793  Biso   1.000  O 
  Hf9      1.0000 0.26681  0.52263  0.14888  Biso   1.000  Hf
  Hf10     1.0000 0.27840  0.72761  0.39825  Biso   1.000  Hf
  Hf11     1.0000 0.71012  0.77265  0.10561  Biso   1.000  Hf
  Hf12     1.0000 0.71896  0.97420  0.35557  Biso   1.000  Hf
  O17      1.0000 0.05303  0.66547  0.08125  Biso   1.000  O 
  O18      1.0000 0.06475  0.58261  0.33084  Biso   1.000  O 
  O19      1.0000 0.92406  0.91780  0.17268  Biso   1.000  O 
  O20      1.0000 0.93420  0.83281  0.42292  Biso   1.000  O 
  O21      1.0000 0.54763  0.62794  0.24224  Biso   1.000  O 
  O22      1.0000 0.55746  0.62152  0.49153  Biso   1.000  O 
  O23      1.0000 0.42998  0.87880  0.01259  Biso   1.000  O 
  O24      1.0000 0.43934  0.87243  0.26105  Biso   1.000  O 
  Hf13     1.0000 0.28914  0.52224  0.64667  Biso   1.000  Hf
  Hf14     1.0000 0.29102  0.72736  0.89682  Biso   1.000  Hf
  Hf15     1.0000 0.72901  0.77143  0.60460  Biso   1.000  Hf
  Hf16     1.0000 0.73032  0.97630  0.85407  Biso   1.000  Hf
  O25      1.0000 0.07516  0.66706  0.57969  Biso   1.000  O 
  O26      1.0000 0.08324  0.58203  0.82807  Biso   1.000  O 
  O27      1.0000 0.93634  0.91723  0.67215  Biso   1.000  O 
  O28      1.0000 0.94566  0.83194  0.92136  Biso   1.000  O 
  O29      1.0000 0.56552  0.62852  0.74089  Biso   1.000  O 
  O30      1.0000 0.57031  0.62145  0.99015  Biso   1.000  O 
  O31      1.0000 0.44964  0.87709  0.51101  Biso   1.000  O 
  O32      1.0000 0.45399  0.87048  0.76013  Biso   1.000  O 
  Li1      1.0000 0.94226  0.22822  0.26634  Biso   1.000  Li
