data_image0
_cell_length_a       5.08618
_cell_length_b       10.2336
_cell_length_c       10.4537
_cell_angle_alpha    90
_cell_angle_beta     80
_cell_angle_gamma    90

_symmetry_space_group_name_H-M    "P 1"
_symmetry_int_tables_number       1

loop_
  _symmetry_equiv_pos_as_xyz
  'x, y, z'

loop_
  _atom_site_label
  _atom_site_occupancy
  _atom_site_fract_x
  _atom_site_fract_y
  _atom_site_fract_z
  _atom_site_thermal_displace_type
  _atom_site_B_iso_or_equiv
  _atom_site_type_symbol
  Li1      1.0000 0.25970  0.01015  0.15155  Biso   1.000  Li
  Hf1      1.0000 0.28341  0.02115  0.64466  Biso   1.000  Hf
  Hf2      1.0000 0.27790  0.52101  0.14488  Biso   1.000  Hf
  Hf3      1.0000 0.28247  0.52336  0.64660  Biso   1.000  Hf
  Hf4      1.0000 0.28383  0.22881  0.39305  Biso   1.000  Hf
  Hf5      1.0000 0.28441  0.22703  0.90030  Biso   1.000  Hf
  Hf6      1.0000 0.28290  0.73058  0.39322  Biso   1.000  Hf
  Hf7      1.0000 0.28763  0.73373  0.89738  Biso   1.000  Hf
  Hf8      1.0000 0.71484  0.26366  0.10540  Biso   1.000  Hf
  Hf9      1.0000 0.72097  0.27264  0.60375  Biso   1.000  Hf
  Hf10     1.0000 0.71364  0.77727  0.10499  Biso   1.000  Hf
  Hf11     1.0000 0.72418  0.77316  0.60206  Biso   1.000  Hf
  Hf12     1.0000 0.72100  0.47958  0.35259  Biso   1.000  Hf
  Hf13     1.0000 0.72507  0.47998  0.85513  Biso   1.000  Hf
  Hf14     1.0000 0.71930  0.98131  0.34686  Biso   1.000  Hf
  Hf15     1.0000 0.71879  0.98159  0.85573  Biso   1.000  Hf
  O1       1.0000 0.06841  0.16756  0.07972  Biso   1.000  O 
  O2       1.0000 0.06726  0.16641  0.57836  Biso   1.000  O 
  O3       1.0000 0.06292  0.66601  0.07824  Biso   1.000  O 
  O4       1.0000 0.06940  0.66662  0.57802  Biso   1.000  O 
  O5       1.0000 0.05985  0.08871  0.33739  Biso   1.000  O 
  O6       1.0000 0.07309  0.08605  0.82656  Biso   1.000  O 
  O7       1.0000 0.06541  0.58596  0.32696  Biso   1.000  O 
  O8       1.0000 0.07043  0.58747  0.82792  Biso   1.000  O 
  O9       1.0000 0.93199  0.41377  0.17150  Biso   1.000  O 
  O10      1.0000 0.93794  0.41590  0.67226  Biso   1.000  O 
  O11      1.0000 0.93260  0.91621  0.17050  Biso   1.000  O 
  O12      1.0000 0.93518  0.91648  0.67158  Biso   1.000  O 
  O13      1.0000 0.93500  0.33749  0.42269  Biso   1.000  O 
  O14      1.0000 0.94401  0.33913  0.92201  Biso   1.000  O 
  O15      1.0000 0.93684  0.83601  0.42043  Biso   1.000  O 
  O16      1.0000 0.94605  0.84072  0.92152  Biso   1.000  O 
  O17      1.0000 0.56467  0.13426  0.24841  Biso   1.000  O 
  O18      1.0000 0.55491  0.12867  0.73835  Biso   1.000  O 
  O19      1.0000 0.55162  0.62672  0.23887  Biso   1.000  O 
  O20      1.0000 0.55711  0.63049  0.73983  Biso   1.000  O 
  O21      1.0000 0.55155  0.12310  0.49239  Biso   1.000  O 
  O22      1.0000 0.58224  0.13218  0.97999  Biso   1.000  O 
  O23      1.0000 0.55412  0.62285  0.48976  Biso   1.000  O 
  O24      1.0000 0.55636  0.62191  0.98982  Biso   1.000  O 
  O25      1.0000 0.44707  0.37862  0.00993  Biso   1.000  O 
  O26      1.0000 0.44966  0.38044  0.50984  Biso   1.000  O 
  O27      1.0000 0.45844  0.87450  0.00186  Biso   1.000  O 
  O28      1.0000 0.45044  0.87947  0.50812  Biso   1.000  O 
  O29      1.0000 0.44378  0.37405  0.25948  Biso   1.000  O 
  O30      1.0000 0.45323  0.37250  0.75992  Biso   1.000  O 
  O31      1.0000 0.45521  0.86688  0.26090  Biso   1.000  O 
  O32      1.0000 0.45095  0.87330  0.75570  Biso   1.000  O 
