data_image0
_cell_length_a       10.1585
_cell_length_b       5.13154
_cell_length_c       10.5097
_cell_angle_alpha    90
_cell_angle_beta     80
_cell_angle_gamma    90

_symmetry_space_group_name_H-M    "P 1"
_symmetry_int_tables_number       1

loop_
  _symmetry_equiv_pos_as_xyz
  'x, y, z'

loop_
  _atom_site_label
  _atom_site_occupancy
  _atom_site_fract_x
  _atom_site_fract_y
  _atom_site_fract_z
  _atom_site_thermal_displace_type
  _atom_site_B_iso_or_equiv
  _atom_site_type_symbol
  Hf1      1.0000 0.13840  0.05086  0.14761  Biso   1.000  Hf
  Hf2      1.0000 0.14217  0.45787  0.39727  Biso   1.000  Hf
  Hf3      1.0000 0.34786  0.55414  0.09311  Biso   1.000  Hf
  Hf4      1.0000 0.35820  0.95168  0.35491  Biso   1.000  Hf
  O1       1.0000 0.03277  0.34244  0.08106  Biso   1.000  O 
  O2       1.0000 0.04043  0.16407  0.33015  Biso   1.000  O 
  O3       1.0000 0.46363  0.81790  0.17643  Biso   1.000  O 
  O4       1.0000 0.46985  0.65106  0.41648  Biso   1.000  O 
  O5       1.0000 0.28642  0.26883  0.24174  Biso   1.000  O 
  O6       1.0000 0.28322  0.24175  0.49028  Biso   1.000  O 
  O7       1.0000 0.21245  0.76812  0.00545  Biso   1.000  O 
  O8       1.0000 0.21846  0.74730  0.25749  Biso   1.000  O 
  Hf5      1.0000 0.14673  0.04216  0.64520  Biso   1.000  Hf
  Hf6      1.0000 0.14478  0.45611  0.89288  Biso   1.000  Hf
  Hf7      1.0000 0.36808  0.53938  0.60312  Biso   1.000  Hf
  Hf8      1.0000 0.36637  0.95857  0.84964  Biso   1.000  Hf
  O9       1.0000 0.04256  0.33854  0.58096  Biso   1.000  O 
  O10      1.0000 0.04397  0.15904  0.82904  Biso   1.000  O 
  O11      1.0000 0.47109  0.83631  0.66841  Biso   1.000  O 
  O12      1.0000 0.47349  0.66683  0.91800  Biso   1.000  O 
  O13      1.0000 0.28491  0.25567  0.73875  Biso   1.000  O 
  O14      1.0000 0.28592  0.24520  0.98651  Biso   1.000  O 
  O15      1.0000 0.22905  0.75599  0.50877  Biso   1.000  O 
  O16      1.0000 0.22962  0.73935  0.75593  Biso   1.000  O 
  Hf9      1.0000 0.63963  0.04003  0.14983  Biso   1.000  Hf
  Hf10     1.0000 0.65298  0.45330  0.40456  Biso   1.000  Hf
  Hf11     1.0000 0.85788  0.54497  0.10698  Biso   1.000  Hf
  Hf12     1.0000 0.86376  0.95415  0.35522  Biso   1.000  Hf
  O17      1.0000 0.52709  0.33726  0.08721  Biso   1.000  O 
  O18      1.0000 0.53733  0.16488  0.33241  Biso   1.000  O 
  O19      1.0000 0.96295  0.84086  0.17099  Biso   1.000  O 
  O20      1.0000 0.96794  0.66203  0.42218  Biso   1.000  O 
  O21      1.0000 0.77970  0.25587  0.24498  Biso   1.000  O 
  O22      1.0000 0.78727  0.23649  0.49548  Biso   1.000  O 
  O23      1.0000 0.71635  0.75612  0.01392  Biso   1.000  O 
  O24      1.0000 0.72270  0.74102  0.26368  Biso   1.000  O 
  Hf13     1.0000 0.64807  0.04132  0.64961  Biso   1.000  Hf
  Hf14     1.0000 0.64726  0.45447  0.89945  Biso   1.000  Hf
  Hf15     1.0000 0.86818  0.54212  0.60748  Biso   1.000  Hf
  Hf16     1.0000 0.86670  0.95464  0.85557  Biso   1.000  Hf
  O25      1.0000 0.54345  0.33501  0.58186  Biso   1.000  O 
  O26      1.0000 0.54292  0.16405  0.83054  Biso   1.000  O 
  O27      1.0000 0.96977  0.83790  0.67138  Biso   1.000  O 
  O28      1.0000 0.97064  0.65825  0.91929  Biso   1.000  O 
  O29      1.0000 0.78477  0.25753  0.74442  Biso   1.000  O 
  O30      1.0000 0.78504  0.23840  0.99297  Biso   1.000  O 
  O31      1.0000 0.72877  0.75482  0.51332  Biso   1.000  O 
  O32      1.0000 0.72886  0.74053  0.76229  Biso   1.000  O 
  Li1      1.0000 0.46496  0.44930  0.26941  Biso   1.000  Li
