data_image0
_cell_length_a       10.1711
_cell_length_b       10.2508
_cell_length_c       5.26272
_cell_angle_alpha    90
_cell_angle_beta     80
_cell_angle_gamma    90

_symmetry_space_group_name_H-M    "P 1"
_symmetry_int_tables_number       1

loop_
  _symmetry_equiv_pos_as_xyz
  'x, y, z'

loop_
  _atom_site_label
  _atom_site_occupancy
  _atom_site_fract_x
  _atom_site_fract_y
  _atom_site_fract_z
  _atom_site_thermal_displace_type
  _atom_site_B_iso_or_equiv
  _atom_site_type_symbol
  Hf1      1.0000 0.13940  0.02254  0.29410  Biso   1.000  Hf
  Hf2      1.0000 0.14018  0.22885  0.78634  Biso   1.000  Hf
  Hf3      1.0000 0.34871  0.27527  0.18370  Biso   1.000  Hf
  Hf4      1.0000 0.35807  0.48228  0.70217  Biso   1.000  Hf
  O1       1.0000 0.03619  0.17085  0.16238  Biso   1.000  O 
  O2       1.0000 0.03885  0.08114  0.65752  Biso   1.000  O 
  O3       1.0000 0.46498  0.40797  0.34968  Biso   1.000  O 
  O4       1.0000 0.46903  0.32989  0.83005  Biso   1.000  O 
  O5       1.0000 0.28412  0.13355  0.47739  Biso   1.000  O 
  O6       1.0000 0.28214  0.12174  0.97406  Biso   1.000  O 
  O7       1.0000 0.21341  0.38317  0.00619  Biso   1.000  O 
  O8       1.0000 0.22026  0.37293  0.50869  Biso   1.000  O 
  Hf5      1.0000 0.13564  0.52439  0.29346  Biso   1.000  Hf
  Hf6      1.0000 0.13896  0.72956  0.79515  Biso   1.000  Hf
  Hf7      1.0000 0.35743  0.77288  0.21034  Biso   1.000  Hf
  Hf8      1.0000 0.35924  0.97567  0.70962  Biso   1.000  Hf
  O9       1.0000 0.02940  0.66929  0.16224  Biso   1.000  O 
  O10      1.0000 0.03530  0.58349  0.66041  Biso   1.000  O 
  O11      1.0000 0.46344  0.91643  0.34854  Biso   1.000  O 
  O12      1.0000 0.46807  0.83441  0.84673  Biso   1.000  O 
  O13      1.0000 0.27567  0.62944  0.48242  Biso   1.000  O 
  O14      1.0000 0.27889  0.62408  0.98059  Biso   1.000  O 
  O15      1.0000 0.21756  0.87908  0.02407  Biso   1.000  O 
  O16      1.0000 0.22088  0.87271  0.52088  Biso   1.000  O 
  Hf9      1.0000 0.64230  0.02004  0.30102  Biso   1.000  Hf
  Hf10     1.0000 0.65242  0.22763  0.81525  Biso   1.000  Hf
  Hf11     1.0000 0.86086  0.27219  0.21923  Biso   1.000  Hf
  Hf12     1.0000 0.86283  0.47889  0.71291  Biso   1.000  Hf
  O17      1.0000 0.53114  0.16997  0.17403  Biso   1.000  O 
  O18      1.0000 0.53727  0.08673  0.66291  Biso   1.000  O 
  O19      1.0000 0.96387  0.41967  0.34641  Biso   1.000  O 
  O20      1.0000 0.96504  0.33006  0.84254  Biso   1.000  O 
  O21      1.0000 0.78045  0.12849  0.49443  Biso   1.000  O 
  O22      1.0000 0.78667  0.11843  0.99480  Biso   1.000  O 
  O23      1.0000 0.71924  0.37835  0.03232  Biso   1.000  O 
  O24      1.0000 0.72347  0.37036  0.53167  Biso   1.000  O 
  Hf13     1.0000 0.63602  0.52107  0.30031  Biso   1.000  Hf
  Hf14     1.0000 0.63948  0.72672  0.79731  Biso   1.000  Hf
  Hf15     1.0000 0.85586  0.77182  0.21256  Biso   1.000  Hf
  Hf16     1.0000 0.85992  0.97671  0.71126  Biso   1.000  Hf
  O25      1.0000 0.52805  0.66341  0.16119  Biso   1.000  O 
  O26      1.0000 0.53223  0.58307  0.65946  Biso   1.000  O 
  O27      1.0000 0.96096  0.91866  0.34356  Biso   1.000  O 
  O28      1.0000 0.96598  0.83234  0.84443  Biso   1.000  O 
  O29      1.0000 0.77419  0.62818  0.48623  Biso   1.000  O 
  O30      1.0000 0.77872  0.62098  0.98478  Biso   1.000  O 
  O31      1.0000 0.71643  0.87708  0.02609  Biso   1.000  O 
  O32      1.0000 0.72019  0.87137  0.52428  Biso   1.000  O 
  Li1      1.0000 0.47484  0.23320  0.52754  Biso   1.000  Li
