data_image0
_cell_length_a       10.1935
_cell_length_b       5.1106
_cell_length_c       10.4502
_cell_angle_alpha    90
_cell_angle_beta     80
_cell_angle_gamma    90

_symmetry_space_group_name_H-M    "P 1"
_symmetry_int_tables_number       1

loop_
  _symmetry_equiv_pos_as_xyz
  'x, y, z'

loop_
  _atom_site_label
  _atom_site_occupancy
  _atom_site_fract_x
  _atom_site_fract_y
  _atom_site_fract_z
  _atom_site_thermal_displace_type
  _atom_site_B_iso_or_equiv
  _atom_site_type_symbol
  Li1      1.0000 0.12870  0.02026  0.14618  Biso   1.000  Li
  Hf1      1.0000 0.14321  0.04191  0.64596  Biso   1.000  Hf
  Hf2      1.0000 0.63860  0.04121  0.14572  Biso   1.000  Hf
  Hf3      1.0000 0.64129  0.04199  0.64530  Biso   1.000  Hf
  Hf4      1.0000 0.14500  0.45582  0.39133  Biso   1.000  Hf
  Hf5      1.0000 0.14566  0.45892  0.90094  Biso   1.000  Hf
  Hf6      1.0000 0.63929  0.45858  0.39522  Biso   1.000  Hf
  Hf7      1.0000 0.64223  0.45807  0.89658  Biso   1.000  Hf
  Hf8      1.0000 0.35310  0.54012  0.10518  Biso   1.000  Hf
  Hf9      1.0000 0.36209  0.54441  0.60361  Biso   1.000  Hf
  Hf10     1.0000 0.86334  0.54107  0.10384  Biso   1.000  Hf
  Hf11     1.0000 0.86222  0.54166  0.60229  Biso   1.000  Hf
  Hf12     1.0000 0.35748  0.95831  0.34945  Biso   1.000  Hf
  Hf13     1.0000 0.36101  0.95862  0.85718  Biso   1.000  Hf
  Hf14     1.0000 0.86506  0.95937  0.34990  Biso   1.000  Hf
  Hf15     1.0000 0.86342  0.95811  0.85341  Biso   1.000  Hf
  O1       1.0000 0.03318  0.33096  0.07758  Biso   1.000  O 
  O2       1.0000 0.03478  0.32872  0.57745  Biso   1.000  O 
  O3       1.0000 0.53390  0.33215  0.07852  Biso   1.000  O 
  O4       1.0000 0.53502  0.33198  0.57876  Biso   1.000  O 
  O5       1.0000 0.02697  0.18652  0.33439  Biso   1.000  O 
  O6       1.0000 0.03484  0.17393  0.82707  Biso   1.000  O 
  O7       1.0000 0.53440  0.16745  0.32812  Biso   1.000  O 
  O8       1.0000 0.53844  0.16817  0.82779  Biso   1.000  O 
  O9       1.0000 0.46926  0.82620  0.17087  Biso   1.000  O 
  O10      1.0000 0.46910  0.83065  0.67244  Biso   1.000  O 
  O11      1.0000 0.96696  0.81996  0.17519  Biso   1.000  O 
  O12      1.0000 0.96985  0.82964  0.67090  Biso   1.000  O 
  O13      1.0000 0.46783  0.67032  0.42224  Biso   1.000  O 
  O14      1.0000 0.47503  0.67761  0.92205  Biso   1.000  O 
  O15      1.0000 0.97076  0.67612  0.42276  Biso   1.000  O 
  O16      1.0000 0.97091  0.67320  0.92075  Biso   1.000  O 
  O17      1.0000 0.28374  0.26046  0.24592  Biso   1.000  O 
  O18      1.0000 0.27801  0.25719  0.73993  Biso   1.000  O 
  O19      1.0000 0.77561  0.25665  0.24004  Biso   1.000  O 
  O20      1.0000 0.77912  0.25658  0.73912  Biso   1.000  O 
  O21      1.0000 0.27749  0.24308  0.49220  Biso   1.000  O 
  O22      1.0000 0.29153  0.25790  0.98182  Biso   1.000  O 
  O23      1.0000 0.77606  0.24523  0.49025  Biso   1.000  O 
  O24      1.0000 0.77978  0.24203  0.98901  Biso   1.000  O 
  O25      1.0000 0.22848  0.75295  0.00400  Biso   1.000  O 
  O26      1.0000 0.22552  0.75782  0.50946  Biso   1.000  O 
  O27      1.0000 0.72496  0.75682  0.00856  Biso   1.000  O 
  O28      1.0000 0.72683  0.75749  0.50834  Biso   1.000  O 
  O29      1.0000 0.22910  0.73423  0.26079  Biso   1.000  O 
  O30      1.0000 0.22652  0.74465  0.75749  Biso   1.000  O 
  O31      1.0000 0.72226  0.74325  0.25937  Biso   1.000  O 
  O32      1.0000 0.72802  0.74268  0.75788  Biso   1.000  O 
