data_image0
_cell_length_a       10.0461
_cell_length_b       10.2049
_cell_length_c       5.26608
_cell_angle_alpha    90
_cell_angle_beta     90
_cell_angle_gamma    90

_symmetry_space_group_name_H-M    "P 1"
_symmetry_int_tables_number       1

loop_
  _symmetry_equiv_pos_as_xyz
  'x, y, z'

loop_
  _atom_site_label
  _atom_site_occupancy
  _atom_site_fract_x
  _atom_site_fract_y
  _atom_site_fract_z
  _atom_site_thermal_displace_type
  _atom_site_B_iso_or_equiv
  _atom_site_type_symbol
  Hf1      1.0000 0.13724  0.02134  0.35207  Biso   1.000  Hf
  Hf2      1.0000 0.13201  0.22791  0.85796  Biso   1.000  Hf
  Hf3      1.0000 0.34976  0.27441  0.37728  Biso   1.000  Hf
  Hf4      1.0000 0.35002  0.48222  0.85719  Biso   1.000  Hf
  Hf5      1.0000 0.64368  0.01814  0.15286  Biso   1.000  Hf
  Hf6      1.0000 0.64393  0.22595  0.63278  Biso   1.000  Hf
  Hf7      1.0000 0.86169  0.27244  0.15208  Biso   1.000  Hf
  Hf8      1.0000 0.85646  0.47901  0.65799  Biso   1.000  Hf
  O1       1.0000 0.03373  0.16459  0.17141  Biso   1.000  O 
  O2       1.0000 0.02853  0.08599  0.66856  Biso   1.000  O 
  O3       1.0000 0.46806  0.40926  0.16996  Biso   1.000  O 
  O4       1.0000 0.46416  0.33227  0.68503  Biso   1.000  O 
  O5       1.0000 0.27208  0.12420  0.60588  Biso   1.000  O 
  O6       1.0000 0.28072  0.12801  0.10735  Biso   1.000  O 
  O7       1.0000 0.21422  0.37656  0.61496  Biso   1.000  O 
  O8       1.0000 0.22035  0.37776  0.11064  Biso   1.000  O 
  O9       1.0000 0.52953  0.16808  0.32504  Biso   1.000  O 
  O10      1.0000 0.52563  0.09110  0.84009  Biso   1.000  O 
  O11      1.0000 0.96517  0.41436  0.34149  Biso   1.000  O 
  O12      1.0000 0.95997  0.33577  0.83864  Biso   1.000  O 
  O13      1.0000 0.77335  0.12261  0.89941  Biso   1.000  O 
  O14      1.0000 0.77948  0.12380  0.39508  Biso   1.000  O 
  O15      1.0000 0.71299  0.37236  0.90269  Biso   1.000  O 
  O16      1.0000 0.72161  0.37616  0.40416  Biso   1.000  O 
  Hf9      1.0000 0.13528  0.52263  0.35226  Biso   1.000  Hf
  Hf10     1.0000 0.12946  0.73042  0.85008  Biso   1.000  Hf
  Hf11     1.0000 0.35779  0.77240  0.35300  Biso   1.000  Hf
  Hf12     1.0000 0.35125  0.97851  0.85436  Biso   1.000  Hf
  Hf13     1.0000 0.63828  0.52184  0.15569  Biso   1.000  Hf
  Hf14     1.0000 0.63174  0.72796  0.65706  Biso   1.000  Hf
  Hf15     1.0000 0.86008  0.76993  0.15996  Biso   1.000  Hf
  Hf16     1.0000 0.85425  0.97772  0.65780  Biso   1.000  Hf
  O17      1.0000 0.03163  0.66472  0.17011  Biso   1.000  O 
  O18      1.0000 0.02581  0.58703  0.67154  Biso   1.000  O 
  O19      1.0000 0.46723  0.91342  0.17033  Biso   1.000  O 
  O20      1.0000 0.46253  0.83881  0.66950  Biso   1.000  O 
  O21      1.0000 0.26958  0.62662  0.60020  Biso   1.000  O 
  O22      1.0000 0.27559  0.62692  0.09806  Biso   1.000  O 
  O23      1.0000 0.21723  0.87453  0.60022  Biso   1.000  O 
  O24      1.0000 0.22224  0.87731  0.10121  Biso   1.000  O 
  O25      1.0000 0.52701  0.66153  0.34055  Biso   1.000  O 
  O26      1.0000 0.52231  0.58693  0.83971  Biso   1.000  O 
  O27      1.0000 0.96373  0.91332  0.33851  Biso   1.000  O 
  O28      1.0000 0.95790  0.83562  0.83994  Biso   1.000  O 
  O29      1.0000 0.76730  0.62304  0.90884  Biso   1.000  O 
  O30      1.0000 0.77230  0.62582  0.40983  Biso   1.000  O 
  O31      1.0000 0.71395  0.87344  0.91199  Biso   1.000  O 
  O32      1.0000 0.71996  0.87372  0.40985  Biso   1.000  O 
  Li1      1.0000 0.50173  0.25000  0.00510  Biso   1.000  Li
