data_image0
_cell_length_a       4.98123
_cell_length_b       10.1151
_cell_length_c       10.0238
_cell_angle_alpha    90
_cell_angle_beta     90
_cell_angle_gamma    90

_symmetry_space_group_name_H-M    "P 1"
_symmetry_int_tables_number       1

loop_
  _symmetry_equiv_pos_as_xyz
  'x, y, z'

loop_
  _atom_site_label
  _atom_site_occupancy
  _atom_site_fract_x
  _atom_site_fract_y
  _atom_site_fract_z
  _atom_site_thermal_displace_type
  _atom_site_B_iso_or_equiv
  _atom_site_type_symbol
  Li1      1.0000 0.25225  0.99995  0.12497  Biso   1.000  Li
  Hf1      1.0000 0.25230  0.99998  0.62496  Biso   1.000  Hf
  Hf2      1.0000 0.25232  0.49996  0.12496  Biso   1.000  Hf
  Hf3      1.0000 0.25235  0.49998  0.62496  Biso   1.000  Hf
  Hf4      1.0000 0.25231  0.24832  0.37278  Biso   1.000  Hf
  Hf5      1.0000 0.25245  0.24833  0.87713  Biso   1.000  Hf
  Hf6      1.0000 0.25239  0.75163  0.37278  Biso   1.000  Hf
  Hf7      1.0000 0.25230  0.75165  0.87712  Biso   1.000  Hf
  Hf8      1.0000 0.75236  0.24583  0.12495  Biso   1.000  Hf
  Hf9      1.0000 0.75238  0.24904  0.62495  Biso   1.000  Hf
  Hf10     1.0000 0.75233  0.75409  0.12495  Biso   1.000  Hf
  Hf11     1.0000 0.75235  0.75093  0.62495  Biso   1.000  Hf
  Hf12     1.0000 0.75230  0.99997  0.36839  Biso   1.000  Hf
  Hf13     1.0000 0.75232  0.99999  0.88152  Biso   1.000  Hf
  Hf14     1.0000 0.75234  0.49998  0.37493  Biso   1.000  Hf
  Hf15     1.0000 0.75236  0.50000  0.87499  Biso   1.000  Hf
  O1       1.0000 0.99763  0.13822  0.99590  Biso   1.000  O 
  O2       1.0000 0.01178  0.14201  0.50327  Biso   1.000  O 
  O3       1.0000 0.01220  0.63474  0.00230  Biso   1.000  O 
  O4       1.0000 0.00723  0.64178  0.50203  Biso   1.000  O 
  O5       1.0000 0.99353  0.12099  0.25398  Biso   1.000  O 
  O6       1.0000 0.99469  0.10774  0.74961  Biso   1.000  O 
  O7       1.0000 0.99430  0.61290  0.25079  Biso   1.000  O 
  O8       1.0000 0.99824  0.60802  0.75101  Biso   1.000  O 
  O9       1.0000 0.01221  0.36517  0.24761  Biso   1.000  O 
  O10      1.0000 0.00727  0.35817  0.74787  Biso   1.000  O 
  O11      1.0000 0.99757  0.86174  0.25400  Biso   1.000  O 
  O12      1.0000 0.01172  0.85794  0.74664  Biso   1.000  O 
  O13      1.0000 0.99434  0.38705  0.99911  Biso   1.000  O 
  O14      1.0000 0.99824  0.39193  0.49890  Biso   1.000  O 
  O15      1.0000 0.99350  0.87897  0.99592  Biso   1.000  O 
  O16      1.0000 0.99463  0.89221  0.50030  Biso   1.000  O 
  O17      1.0000 0.50713  0.13819  0.25401  Biso   1.000  O 
  O18      1.0000 0.49298  0.14202  0.74665  Biso   1.000  O 
  O19      1.0000 0.49246  0.63475  0.24761  Biso   1.000  O 
  O20      1.0000 0.49747  0.64179  0.74788  Biso   1.000  O 
  O21      1.0000 0.51124  0.12102  0.99593  Biso   1.000  O 
  O22      1.0000 0.51008  0.10774  0.50030  Biso   1.000  O 
  O23      1.0000 0.51042  0.61293  0.99911  Biso   1.000  O 
  O24      1.0000 0.50647  0.60802  0.49890  Biso   1.000  O 
  O25      1.0000 0.49247  0.36516  0.00230  Biso   1.000  O 
  O26      1.0000 0.49747  0.35816  0.50203  Biso   1.000  O 
  O27      1.0000 0.50709  0.86177  0.99591  Biso   1.000  O 
  O28      1.0000 0.49292  0.85793  0.50327  Biso   1.000  O 
  O29      1.0000 0.51039  0.38703  0.25079  Biso   1.000  O 
  O30      1.0000 0.50652  0.39194  0.75100  Biso   1.000  O 
  O31      1.0000 0.51117  0.87894  0.25398  Biso   1.000  O 
  O32      1.0000 0.51002  0.89222  0.74961  Biso   1.000  O 
