data_image0
_cell_length_a       9.97529
_cell_length_b       5.20379
_cell_length_c       10.0242
_cell_angle_alpha    90
_cell_angle_beta     90
_cell_angle_gamma    90

_symmetry_space_group_name_H-M    "P 1"
_symmetry_int_tables_number       1

loop_
  _symmetry_equiv_pos_as_xyz
  'x, y, z'

loop_
  _atom_site_label
  _atom_site_occupancy
  _atom_site_fract_x
  _atom_site_fract_y
  _atom_site_fract_z
  _atom_site_thermal_displace_type
  _atom_site_B_iso_or_equiv
  _atom_site_type_symbol
  Hf1      1.0000 0.13580  0.07387  0.11997  Biso   1.000  Hf
  Hf2      1.0000 0.13312  0.47045  0.38318  Biso   1.000  Hf
  Hf3      1.0000 0.36556  0.53450  0.12449  Biso   1.000  Hf
  Hf4      1.0000 0.36245  0.96826  0.37386  Biso   1.000  Hf
  O1       1.0000 0.02092  0.36800  0.20807  Biso   1.000  O 
  O2       1.0000 0.03449  0.13470  0.44767  Biso   1.000  O 
  O3       1.0000 0.45873  0.87160  0.19305  Biso   1.000  O 
  O4       1.0000 0.46158  0.63466  0.44364  Biso   1.000  O 
  O5       1.0000 0.27019  0.24878  0.25169  Biso   1.000  O 
  O6       1.0000 0.26964  0.26524  0.50038  Biso   1.000  O 
  O7       1.0000 0.22854  0.76707  0.49990  Biso   1.000  O 
  O8       1.0000 0.22162  0.73819  0.24778  Biso   1.000  O 
  Hf5      1.0000 0.13209  0.03344  0.62675  Biso   1.000  Hf
  Hf6      1.0000 0.13378  0.46986  0.87027  Biso   1.000  Hf
  Hf7      1.0000 0.36668  0.53505  0.62502  Biso   1.000  Hf
  Hf8      1.0000 0.36329  0.96701  0.87510  Biso   1.000  Hf
  O9       1.0000 0.03449  0.36877  0.69147  Biso   1.000  O 
  O10      1.0000 0.03405  0.14271  0.94166  Biso   1.000  O 
  O11      1.0000 0.46478  0.86835  0.69431  Biso   1.000  O 
  O12      1.0000 0.46277  0.63748  0.94472  Biso   1.000  O 
  O13      1.0000 0.26960  0.23631  0.74713  Biso   1.000  O 
  O14      1.0000 0.27915  0.26609  0.99246  Biso   1.000  O 
  O15      1.0000 0.22658  0.76278  0.00109  Biso   1.000  O 
  O16      1.0000 0.23071  0.73836  0.74817  Biso   1.000  O 
  Hf9      1.0000 0.62993  0.03194  0.12432  Biso   1.000  Hf
  Hf10     1.0000 0.63032  0.46481  0.37754  Biso   1.000  Hf
  Hf11     1.0000 0.84995  0.52936  0.12863  Biso   1.000  Hf
  Hf12     1.0000 0.86763  0.96947  0.37249  Biso   1.000  Hf
  O17      1.0000 0.53477  0.36760  0.19401  Biso   1.000  O 
  O18      1.0000 0.53233  0.13218  0.44495  Biso   1.000  O 
  O19      1.0000 0.96305  0.86844  0.19036  Biso   1.000  O 
  O20      1.0000 0.96384  0.63988  0.44842  Biso   1.000  O 
  O21      1.0000 0.76345  0.23239  0.25099  Biso   1.000  O 
  O22      1.0000 0.76915  0.26721  0.49925  Biso   1.000  O 
  O23      1.0000 0.72939  0.76780  0.49932  Biso   1.000  O 
  O24      1.0000 0.72366  0.73791  0.25150  Biso   1.000  O 
  Hf13     1.0000 0.63442  0.03259  0.62538  Biso   1.000  Hf
  Hf14     1.0000 0.63017  0.46779  0.87363  Biso   1.000  Hf
  Hf15     1.0000 0.86371  0.53467  0.62585  Biso   1.000  Hf
  Hf16     1.0000 0.86469  0.96506  0.87883  Biso   1.000  Hf
  O25      1.0000 0.53651  0.37012  0.69201  Biso   1.000  O 
  O26      1.0000 0.53511  0.13405  0.94119  Biso   1.000  O 
  O27      1.0000 0.96570  0.86339  0.70198  Biso   1.000  O 
  O28      1.0000 0.96549  0.63361  0.95667  Biso   1.000  O 
  O29      1.0000 0.77055  0.23391  0.75024  Biso   1.000  O 
  O30      1.0000 0.76670  0.26654  0.99983  Biso   1.000  O 
  O31      1.0000 0.72840  0.75793  0.00020  Biso   1.000  O 
  O32      1.0000 0.72968  0.73587  0.75060  Biso   1.000  O 
  Li1      1.0000 0.09616  0.62244  0.11616  Biso   1.000  Li
