data_image0
_cell_length_a       10.1565
_cell_length_b       10.2495
_cell_length_c       10.4479
_cell_angle_alpha    90
_cell_angle_beta     80
_cell_angle_gamma    90

_symmetry_space_group_name_H-M    "P 1"
_symmetry_int_tables_number       1

loop_
  _symmetry_equiv_pos_as_xyz
  'x, y, z'

loop_
  _atom_site_label
  _atom_site_occupancy
  _atom_site_fract_x
  _atom_site_fract_y
  _atom_site_fract_z
  _atom_site_thermal_displace_type
  _atom_site_B_iso_or_equiv
  _atom_site_type_symbol
  Li1      1.0000 0.12575  0.00899  0.14618  Biso   1.000  Li
  Hf1      1.0000 0.13931  0.02084  0.64539  Biso   1.000  Hf
  Hf2      1.0000 0.14025  0.52133  0.14502  Biso   1.000  Hf
  Hf3      1.0000 0.13981  0.52176  0.64696  Biso   1.000  Hf
  Hf4      1.0000 0.63921  0.02122  0.14633  Biso   1.000  Hf
  Hf5      1.0000 0.63894  0.02090  0.64571  Biso   1.000  Hf
  Hf6      1.0000 0.63795  0.52053  0.14557  Biso   1.000  Hf
  Hf7      1.0000 0.63835  0.52160  0.64605  Biso   1.000  Hf
  Hf8      1.0000 0.14146  0.22763  0.39284  Biso   1.000  Hf
  Hf9      1.0000 0.13931  0.22490  0.90111  Biso   1.000  Hf
  Hf10     1.0000 0.14143  0.72886  0.39389  Biso   1.000  Hf
  Hf11     1.0000 0.14148  0.73302  0.89721  Biso   1.000  Hf
  Hf12     1.0000 0.63828  0.22821  0.39559  Biso   1.000  Hf
  Hf13     1.0000 0.63866  0.22963  0.89653  Biso   1.000  Hf
  Hf14     1.0000 0.63791  0.73016  0.39570  Biso   1.000  Hf
  Hf15     1.0000 0.63855  0.72877  0.89725  Biso   1.000  Hf
  Hf16     1.0000 0.35572  0.26499  0.10550  Biso   1.000  Hf
  Hf17     1.0000 0.35909  0.27081  0.60495  Biso   1.000  Hf
  Hf18     1.0000 0.35615  0.77573  0.10422  Biso   1.000  Hf
  Hf19     1.0000 0.36048  0.77287  0.60330  Biso   1.000  Hf
  Hf20     1.0000 0.86370  0.26872  0.10348  Biso   1.000  Hf
  Hf21     1.0000 0.85958  0.27174  0.60295  Biso   1.000  Hf
  Hf22     1.0000 0.86099  0.77336  0.10525  Biso   1.000  Hf
  Hf23     1.0000 0.86045  0.77076  0.60349  Biso   1.000  Hf
  Hf24     1.0000 0.36013  0.47807  0.35301  Biso   1.000  Hf
  Hf25     1.0000 0.35930  0.47821  0.85507  Biso   1.000  Hf
  Hf26     1.0000 0.35529  0.97973  0.35025  Biso   1.000  Hf
  Hf27     1.0000 0.35822  0.97985  0.85722  Biso   1.000  Hf
  Hf28     1.0000 0.85985  0.47941  0.35358  Biso   1.000  Hf
  Hf29     1.0000 0.86082  0.47917  0.85474  Biso   1.000  Hf
  Hf30     1.0000 0.86530  0.97900  0.35010  Biso   1.000  Hf
  Hf31     1.0000 0.85933  0.97897  0.85394  Biso   1.000  Hf
  O1       1.0000 0.03546  0.17011  0.08003  Biso   1.000  O 
  O2       1.0000 0.03344  0.16821  0.57983  Biso   1.000  O 
  O3       1.0000 0.03441  0.66811  0.07959  Biso   1.000  O 
  O4       1.0000 0.03435  0.66706  0.58033  Biso   1.000  O 
  O5       1.0000 0.53559  0.16796  0.07932  Biso   1.000  O 
  O6       1.0000 0.53352  0.16719  0.57994  Biso   1.000  O 
  O7       1.0000 0.53270  0.66624  0.07893  Biso   1.000  O 
  O8       1.0000 0.53380  0.66761  0.57955  Biso   1.000  O 
  O9       1.0000 0.03107  0.08514  0.34084  Biso   1.000  O 
  O10      1.0000 0.03258  0.08308  0.82844  Biso   1.000  O 
  O11      1.0000 0.03347  0.58367  0.32851  Biso   1.000  O 
  O12      1.0000 0.03448  0.58290  0.83043  Biso   1.000  O 
  O13      1.0000 0.53372  0.08269  0.32921  Biso   1.000  O 
  O14      1.0000 0.53611  0.08283  0.82932  Biso   1.000  O 
  O15      1.0000 0.53361  0.58270  0.32921  Biso   1.000  O 
  O16      1.0000 0.53310  0.58411  0.82883  Biso   1.000  O 
  O17      1.0000 0.46542  0.41448  0.17118  Biso   1.000  O 
  O18      1.0000 0.46501  0.41723  0.67108  Biso   1.000  O 
  O19      1.0000 0.46773  0.91697  0.17001  Biso   1.000  O 
  O20      1.0000 0.46558  0.91687  0.67203  Biso   1.000  O 
  O21      1.0000 0.96485  0.41872  0.16974  Biso   1.000  O 
  O22      1.0000 0.96588  0.41715  0.67057  Biso   1.000  O 
  O23      1.0000 0.96084  0.91693  0.17125  Biso   1.000  O 
  O24      1.0000 0.96449  0.91784  0.66967  Biso   1.000  O 
  O25      1.0000 0.46501  0.33279  0.42165  Biso   1.000  O 
  O26      1.0000 0.46734  0.33593  0.92141  Biso   1.000  O 
  O27      1.0000 0.46512  0.83412  0.42134  Biso   1.000  O 
  O28      1.0000 0.47032  0.83732  0.92218  Biso   1.000  O 
  O29      1.0000 0.96535  0.33484  0.42050  Biso   1.000  O 
  O30      1.0000 0.96574  0.33323  0.91996  Biso   1.000  O 
  O31      1.0000 0.96578  0.83081  0.42001  Biso   1.000  O 
  O32      1.0000 0.96452  0.83267  0.91953  Biso   1.000  O 
  O33      1.0000 0.28463  0.13435  0.24882  Biso   1.000  O 
  O34      1.0000 0.27467  0.12749  0.73990  Biso   1.000  O 
  O35      1.0000 0.27648  0.62550  0.23920  Biso   1.000  O 
  O36      1.0000 0.27621  0.63005  0.74092  Biso   1.000  O 
  O37      1.0000 0.77530  0.12882  0.24098  Biso   1.000  O 
  O38      1.0000 0.77635  0.12911  0.74002  Biso   1.000  O 
  O39      1.0000 0.77515  0.62908  0.24049  Biso   1.000  O 
  O40      1.0000 0.77578  0.62848  0.74029  Biso   1.000  O 
  O41      1.0000 0.27492  0.12111  0.49340  Biso   1.000  O 
  O42      1.0000 0.28835  0.13027  0.98136  Biso   1.000  O 
  O43      1.0000 0.27644  0.62138  0.49041  Biso   1.000  O 
  O44      1.0000 0.27600  0.62049  0.99063  Biso   1.000  O 
  O45      1.0000 0.77475  0.12226  0.49061  Biso   1.000  O 
  O46      1.0000 0.77609  0.12148  0.99021  Biso   1.000  O 
  O47      1.0000 0.77530  0.62147  0.49063  Biso   1.000  O 
  O48      1.0000 0.77496  0.62068  0.99044  Biso   1.000  O 
  O49      1.0000 0.22332  0.37932  0.00963  Biso   1.000  O 
  O50      1.0000 0.22371  0.37926  0.50982  Biso   1.000  O 
  O51      1.0000 0.22917  0.87476  0.00231  Biso   1.000  O 
  O52      1.0000 0.22230  0.87877  0.50957  Biso   1.000  O 
  O53      1.0000 0.72451  0.37863  0.00905  Biso   1.000  O 
  O54      1.0000 0.72267  0.37938  0.50946  Biso   1.000  O 
  O55      1.0000 0.72430  0.87889  0.00900  Biso   1.000  O 
  O56      1.0000 0.72461  0.87876  0.50889  Biso   1.000  O 
  O57      1.0000 0.22112  0.37299  0.25870  Biso   1.000  O 
  O58      1.0000 0.22366  0.37069  0.76047  Biso   1.000  O 
  O59      1.0000 0.22971  0.86436  0.26207  Biso   1.000  O 
  O60      1.0000 0.22276  0.87261  0.75680  Biso   1.000  O 
  O61      1.0000 0.72364  0.37125  0.25997  Biso   1.000  O 
  O62      1.0000 0.72393  0.37181  0.75884  Biso   1.000  O 
  O63      1.0000 0.71935  0.87121  0.25981  Biso   1.000  O 
  O64      1.0000 0.72400  0.87095  0.75896  Biso   1.000  O 
