data_image0
_cell_length_a       10.0024
_cell_length_b       10.1694
_cell_length_c       10.0025
_cell_angle_alpha    90
_cell_angle_beta     90
_cell_angle_gamma    90

_symmetry_space_group_name_H-M    "P 1"
_symmetry_int_tables_number       1

loop_
  _symmetry_equiv_pos_as_xyz
  'x, y, z'

loop_
  _atom_site_label
  _atom_site_occupancy
  _atom_site_fract_x
  _atom_site_fract_y
  _atom_site_fract_z
  _atom_site_thermal_displace_type
  _atom_site_B_iso_or_equiv
  _atom_site_type_symbol
  Li1      1.0000 0.12461  0.99994  0.12461  Biso   1.000  Li
  Hf1      1.0000 0.12464  0.99995  0.62464  Biso   1.000  Hf
  Hf2      1.0000 0.12464  0.49995  0.12464  Biso   1.000  Hf
  Hf3      1.0000 0.12464  0.49995  0.62464  Biso   1.000  Hf
  Hf4      1.0000 0.62464  0.99995  0.12464  Biso   1.000  Hf
  Hf5      1.0000 0.62464  0.99995  0.62464  Biso   1.000  Hf
  Hf6      1.0000 0.62464  0.49995  0.12464  Biso   1.000  Hf
  Hf7      1.0000 0.62463  0.49995  0.62464  Biso   1.000  Hf
  Hf8      1.0000 0.12451  0.24850  0.37117  Biso   1.000  Hf
  Hf9      1.0000 0.12476  0.24849  0.87812  Biso   1.000  Hf
  Hf10     1.0000 0.12476  0.75140  0.37116  Biso   1.000  Hf
  Hf11     1.0000 0.12451  0.75139  0.87812  Biso   1.000  Hf
  Hf12     1.0000 0.62489  0.24895  0.37448  Biso   1.000  Hf
  Hf13     1.0000 0.62437  0.24894  0.87481  Biso   1.000  Hf
  Hf14     1.0000 0.62438  0.75095  0.37448  Biso   1.000  Hf
  Hf15     1.0000 0.62489  0.75094  0.87481  Biso   1.000  Hf
  Hf16     1.0000 0.37116  0.24851  0.12452  Biso   1.000  Hf
  Hf17     1.0000 0.37447  0.24895  0.62491  Biso   1.000  Hf
  Hf18     1.0000 0.37117  0.75140  0.12476  Biso   1.000  Hf
  Hf19     1.0000 0.37448  0.75095  0.62438  Biso   1.000  Hf
  Hf20     1.0000 0.87811  0.24851  0.12476  Biso   1.000  Hf
  Hf21     1.0000 0.87480  0.24895  0.62438  Biso   1.000  Hf
  Hf22     1.0000 0.87812  0.75140  0.12452  Biso   1.000  Hf
  Hf23     1.0000 0.87481  0.75095  0.62490  Biso   1.000  Hf
  Hf24     1.0000 0.36928  0.99768  0.36927  Biso   1.000  Hf
  Hf25     1.0000 0.36925  0.00222  0.88001  Biso   1.000  Hf
  Hf26     1.0000 0.37493  0.49868  0.37494  Biso   1.000  Hf
  Hf27     1.0000 0.37493  0.50121  0.87434  Biso   1.000  Hf
  Hf28     1.0000 0.88000  0.00223  0.36927  Biso   1.000  Hf
  Hf29     1.0000 0.88001  0.99766  0.88001  Biso   1.000  Hf
  Hf30     1.0000 0.87434  0.50122  0.37494  Biso   1.000  Hf
  Hf31     1.0000 0.87433  0.49867  0.87434  Biso   1.000  Hf
  O1       1.0000 0.99212  0.14459  0.99213  Biso   1.000  O 
  O2       1.0000 0.00314  0.14527  0.50137  Biso   1.000  O 
  O3       1.0000 0.00202  0.63916  0.00202  Biso   1.000  O 
  O4       1.0000 0.00044  0.64590  0.50106  Biso   1.000  O 
  O5       1.0000 0.50137  0.14526  0.00315  Biso   1.000  O 
  O6       1.0000 0.50364  0.14708  0.50365  Biso   1.000  O 
  O7       1.0000 0.50106  0.64590  0.00044  Biso   1.000  O 
  O8       1.0000 0.50020  0.64577  0.50019  Biso   1.000  O 
  O9       1.0000 0.99725  0.11665  0.25203  Biso   1.000  O 
  O10      1.0000 0.99692  0.10382  0.74790  Biso   1.000  O 
  O11      1.0000 0.99880  0.60770  0.25048  Biso   1.000  O 
  O12      1.0000 0.99901  0.60411  0.75095  Biso   1.000  O 
  O13      1.0000 0.50137  0.10383  0.25236  Biso   1.000  O 
  O14      1.0000 0.49710  0.10314  0.75218  Biso   1.000  O 
  O15      1.0000 0.49833  0.60412  0.25025  Biso   1.000  O 
  O16      1.0000 0.49940  0.60398  0.74987  Biso   1.000  O 
  O17      1.0000 0.00202  0.36074  0.24726  Biso   1.000  O 
  O18      1.0000 0.00044  0.35399  0.74822  Biso   1.000  O 
  O19      1.0000 0.99214  0.85530  0.25714  Biso   1.000  O 
  O20      1.0000 0.00315  0.85463  0.74790  Biso   1.000  O 
  O21      1.0000 0.50106  0.35400  0.24884  Biso   1.000  O 
  O22      1.0000 0.50019  0.35412  0.74908  Biso   1.000  O 
  O23      1.0000 0.50138  0.85464  0.24613  Biso   1.000  O 
  O24      1.0000 0.50364  0.85282  0.74564  Biso   1.000  O 
  O25      1.0000 0.99879  0.39219  0.99880  Biso   1.000  O 
  O26      1.0000 0.99902  0.39578  0.49832  Biso   1.000  O 
  O27      1.0000 0.99725  0.88324  0.99725  Biso   1.000  O 
  O28      1.0000 0.99693  0.89607  0.50138  Biso   1.000  O 
  O29      1.0000 0.49832  0.39577  0.99903  Biso   1.000  O 
  O30      1.0000 0.49940  0.39591  0.49940  Biso   1.000  O 
  O31      1.0000 0.50138  0.89606  0.99693  Biso   1.000  O 
  O32      1.0000 0.49711  0.89675  0.49711  Biso   1.000  O 
  O33      1.0000 0.25714  0.14460  0.25714  Biso   1.000  O 
  O34      1.0000 0.24612  0.14525  0.74790  Biso   1.000  O 
  O35      1.0000 0.24726  0.63916  0.24726  Biso   1.000  O 
  O36      1.0000 0.24883  0.64589  0.74822  Biso   1.000  O 
  O37      1.0000 0.74790  0.14527  0.24613  Biso   1.000  O 
  O38      1.0000 0.74563  0.14707  0.74564  Biso   1.000  O 
  O39      1.0000 0.74822  0.64590  0.24884  Biso   1.000  O 
  O40      1.0000 0.74908  0.64576  0.74908  Biso   1.000  O 
  O41      1.0000 0.25202  0.11664  0.99725  Biso   1.000  O 
  O42      1.0000 0.25235  0.10383  0.50138  Biso   1.000  O 
  O43      1.0000 0.25047  0.60769  0.99880  Biso   1.000  O 
  O44      1.0000 0.25026  0.60412  0.49833  Biso   1.000  O 
  O45      1.0000 0.74789  0.10382  0.99693  Biso   1.000  O 
  O46      1.0000 0.75216  0.10315  0.49711  Biso   1.000  O 
  O47      1.0000 0.75094  0.60411  0.99902  Biso   1.000  O 
  O48      1.0000 0.74988  0.60399  0.49941  Biso   1.000  O 
  O49      1.0000 0.24726  0.36075  0.00202  Biso   1.000  O 
  O50      1.0000 0.24884  0.35400  0.50106  Biso   1.000  O 
  O51      1.0000 0.25714  0.85529  0.99214  Biso   1.000  O 
  O52      1.0000 0.24613  0.85464  0.50138  Biso   1.000  O 
  O53      1.0000 0.74822  0.35400  0.00044  Biso   1.000  O 
  O54      1.0000 0.74908  0.35413  0.50020  Biso   1.000  O 
  O55      1.0000 0.74790  0.85464  0.00315  Biso   1.000  O 
  O56      1.0000 0.74563  0.85282  0.50365  Biso   1.000  O 
  O57      1.0000 0.25047  0.39220  0.25048  Biso   1.000  O 
  O58      1.0000 0.25025  0.39577  0.75095  Biso   1.000  O 
  O59      1.0000 0.25204  0.88325  0.25203  Biso   1.000  O 
  O60      1.0000 0.25236  0.89606  0.74790  Biso   1.000  O 
  O61      1.0000 0.75095  0.39578  0.25026  Biso   1.000  O 
  O62      1.0000 0.74987  0.39590  0.74987  Biso   1.000  O 
  O63      1.0000 0.74791  0.89607  0.25236  Biso   1.000  O 
  O64      1.0000 0.75217  0.89674  0.75218  Biso   1.000  O 
