data_image0
_cell_length_a       9.98225
_cell_length_b       10.331
_cell_length_c       10.0213
_cell_angle_alpha    90
_cell_angle_beta     90
_cell_angle_gamma    90

_symmetry_space_group_name_H-M    "P 1"
_symmetry_int_tables_number       1

loop_
  _symmetry_equiv_pos_as_xyz
  'x, y, z'

loop_
  _atom_site_label
  _atom_site_occupancy
  _atom_site_fract_x
  _atom_site_fract_y
  _atom_site_fract_z
  _atom_site_thermal_displace_type
  _atom_site_B_iso_or_equiv
  _atom_site_type_symbol
  Li1      1.0000 0.12104  0.00599  0.10709  Biso   1.000  Li
  Hf1      1.0000 0.13442  0.01667  0.62936  Biso   1.000  Hf
  Hf2      1.0000 0.13543  0.51557  0.12629  Biso   1.000  Hf
  Hf3      1.0000 0.13429  0.51606  0.62689  Biso   1.000  Hf
  Hf4      1.0000 0.63322  0.01561  0.12396  Biso   1.000  Hf
  Hf5      1.0000 0.63246  0.01454  0.62311  Biso   1.000  Hf
  Hf6      1.0000 0.63304  0.51652  0.12648  Biso   1.000  Hf
  Hf7      1.0000 0.63348  0.51545  0.62610  Biso   1.000  Hf
  Hf8      1.0000 0.13441  0.22909  0.37328  Biso   1.000  Hf
  Hf9      1.0000 0.13565  0.22993  0.87919  Biso   1.000  Hf
  Hf10     1.0000 0.13578  0.73454  0.37691  Biso   1.000  Hf
  Hf11     1.0000 0.13632  0.73458  0.87954  Biso   1.000  Hf
  Hf12     1.0000 0.63287  0.23221  0.37480  Biso   1.000  Hf
  Hf13     1.0000 0.63402  0.23120  0.87454  Biso   1.000  Hf
  Hf14     1.0000 0.63283  0.73418  0.37566  Biso   1.000  Hf
  Hf15     1.0000 0.63457  0.73302  0.87580  Biso   1.000  Hf
  Hf16     1.0000 0.36244  0.26365  0.12768  Biso   1.000  Hf
  Hf17     1.0000 0.36499  0.26588  0.62636  Biso   1.000  Hf
  Hf18     1.0000 0.36150  0.76796  0.12643  Biso   1.000  Hf
  Hf19     1.0000 0.36555  0.76762  0.62759  Biso   1.000  Hf
  Hf20     1.0000 0.86413  0.26429  0.12570  Biso   1.000  Hf
  Hf21     1.0000 0.86547  0.26528  0.62447  Biso   1.000  Hf
  Hf22     1.0000 0.86601  0.76975  0.12570  Biso   1.000  Hf
  Hf23     1.0000 0.86566  0.76505  0.62480  Biso   1.000  Hf
  Hf24     1.0000 0.36442  0.48270  0.37654  Biso   1.000  Hf
  Hf25     1.0000 0.36505  0.48195  0.87652  Biso   1.000  Hf
  Hf26     1.0000 0.35935  0.98268  0.37209  Biso   1.000  Hf
  Hf27     1.0000 0.35966  0.98112  0.88242  Biso   1.000  Hf
  Hf28     1.0000 0.86499  0.48371  0.37674  Biso   1.000  Hf
  Hf29     1.0000 0.86540  0.48267  0.87648  Biso   1.000  Hf
  Hf30     1.0000 0.86873  0.98325  0.37200  Biso   1.000  Hf
  Hf31     1.0000 0.86525  0.98242  0.87339  Biso   1.000  Hf
  O1       1.0000 0.02738  0.18621  0.20396  Biso   1.000  O 
  O2       1.0000 0.03742  0.18682  0.69259  Biso   1.000  O 
  O3       1.0000 0.03404  0.68324  0.19582  Biso   1.000  O 
  O4       1.0000 0.03619  0.68443  0.69434  Biso   1.000  O 
  O5       1.0000 0.53842  0.18567  0.19113  Biso   1.000  O 
  O6       1.0000 0.53664  0.18393  0.69261  Biso   1.000  O 
  O7       1.0000 0.53390  0.68277  0.19634  Biso   1.000  O 
  O8       1.0000 0.53535  0.68270  0.69562  Biso   1.000  O 
  O9       1.0000 0.03452  0.06633  0.45030  Biso   1.000  O 
  O10      1.0000 0.03642  0.06566  0.92519  Biso   1.000  O 
  O11      1.0000 0.03515  0.56452  0.44624  Biso   1.000  O 
  O12      1.0000 0.03533  0.56539  0.94577  Biso   1.000  O 
  O13      1.0000 0.53449  0.06493  0.44298  Biso   1.000  O 
  O14      1.0000 0.53690  0.06431  0.94321  Biso   1.000  O 
  O15      1.0000 0.53464  0.56575  0.44547  Biso   1.000  O 
  O16      1.0000 0.53571  0.56464  0.94502  Biso   1.000  O 
  O17      1.0000 0.46400  0.43294  0.19626  Biso   1.000  O 
  O18      1.0000 0.46365  0.43355  0.69482  Biso   1.000  O 
  O19      1.0000 0.46510  0.93391  0.19520  Biso   1.000  O 
  O20      1.0000 0.46332  0.93345  0.69769  Biso   1.000  O 
  O21      1.0000 0.96423  0.43413  0.19542  Biso   1.000  O 
  O22      1.0000 0.96372  0.43402  0.69547  Biso   1.000  O 
  O23      1.0000 0.96460  0.93164  0.19743  Biso   1.000  O 
  O24      1.0000 0.96171  0.93322  0.69128  Biso   1.000  O 
  O25      1.0000 0.46421  0.31548  0.44547  Biso   1.000  O 
  O26      1.0000 0.46508  0.31520  0.94332  Biso   1.000  O 
  O27      1.0000 0.46591  0.81722  0.44951  Biso   1.000  O 
  O28      1.0000 0.46731  0.81608  0.94687  Biso   1.000  O 
  O29      1.0000 0.96467  0.31728  0.44599  Biso   1.000  O 
  O30      1.0000 0.96544  0.31600  0.94706  Biso   1.000  O 
  O31      1.0000 0.96365  0.81435  0.44396  Biso   1.000  O 
  O32      1.0000 0.96185  0.81351  0.94195  Biso   1.000  O 
  O33      1.0000 0.28057  0.12730  0.25637  Biso   1.000  O 
  O34      1.0000 0.27299  0.11820  0.75046  Biso   1.000  O 
  O35      1.0000 0.26881  0.61418  0.25004  Biso   1.000  O 
  O36      1.0000 0.27045  0.61809  0.75101  Biso   1.000  O 
  O37      1.0000 0.76816  0.11520  0.24796  Biso   1.000  O 
  O38      1.0000 0.77010  0.11583  0.74681  Biso   1.000  O 
  O39      1.0000 0.77037  0.61696  0.24917  Biso   1.000  O 
  O40      1.0000 0.77058  0.61595  0.74922  Biso   1.000  O 
  O41      1.0000 0.27029  0.12985  0.50230  Biso   1.000  O 
  O42      1.0000 0.27708  0.13342  0.99680  Biso   1.000  O 
  O43      1.0000 0.27088  0.63213  0.50051  Biso   1.000  O 
  O44      1.0000 0.27110  0.62918  0.00086  Biso   1.000  O 
  O45      1.0000 0.76957  0.13358  0.49736  Biso   1.000  O 
  O46      1.0000 0.77223  0.13094  0.99718  Biso   1.000  O 
  O47      1.0000 0.76888  0.63206  0.49922  Biso   1.000  O 
  O48      1.0000 0.77010  0.63113  0.99952  Biso   1.000  O 
  O49      1.0000 0.22976  0.38141  0.50037  Biso   1.000  O 
  O50      1.0000 0.22964  0.38187  0.00098  Biso   1.000  O 
  O51      1.0000 0.22712  0.88206  0.50339  Biso   1.000  O 
  O52      1.0000 0.23003  0.87598  0.00034  Biso   1.000  O 
  O53      1.0000 0.72879  0.38256  0.49924  Biso   1.000  O 
  O54      1.0000 0.72859  0.38142  0.99891  Biso   1.000  O 
  O55      1.0000 0.73082  0.88280  0.49754  Biso   1.000  O 
  O56      1.0000 0.72942  0.88105  0.99880  Biso   1.000  O 
  O57      1.0000 0.22625  0.36908  0.24992  Biso   1.000  O 
  O58      1.0000 0.22914  0.36748  0.75072  Biso   1.000  O 
  O59      1.0000 0.23910  0.85784  0.25840  Biso   1.000  O 
  O60      1.0000 0.22801  0.86834  0.75105  Biso   1.000  O 
  O61      1.0000 0.72981  0.36694  0.24975  Biso   1.000  O 
  O62      1.0000 0.72973  0.36644  0.74921  Biso   1.000  O 
  O63      1.0000 0.72644  0.86627  0.24812  Biso   1.000  O 
  O64      1.0000 0.72818  0.86550  0.74747  Biso   1.000  O 
