data_image0
_cell_length_a       9.96417
_cell_length_b       10.4198
_cell_length_c       5.01569
_cell_angle_alpha    90
_cell_angle_beta     90
_cell_angle_gamma    90

_symmetry_space_group_name_H-M    "P 1"
_symmetry_int_tables_number       1

loop_
  _symmetry_equiv_pos_as_xyz
  'x, y, z'

loop_
  _atom_site_label
  _atom_site_occupancy
  _atom_site_fract_x
  _atom_site_fract_y
  _atom_site_fract_z
  _atom_site_thermal_displace_type
  _atom_site_B_iso_or_equiv
  _atom_site_type_symbol
  Hf1      1.0000 0.13287  0.01650  0.24549  Biso   1.000  Hf
  Hf2      1.0000 0.13602  0.22899  0.74888  Biso   1.000  Hf
  Hf3      1.0000 0.36859  0.26582  0.24834  Biso   1.000  Hf
  Hf4      1.0000 0.36407  0.48262  0.75015  Biso   1.000  Hf
  O1       1.0000 0.02465  0.17931  0.40071  Biso   1.000  O 
  O2       1.0000 0.03677  0.06496  0.88704  Biso   1.000  O 
  O3       1.0000 0.46214  0.43463  0.38988  Biso   1.000  O 
  O4       1.0000 0.46372  0.31742  0.88993  Biso   1.000  O 
  O5       1.0000 0.26917  0.11789  0.49248  Biso   1.000  O 
  O6       1.0000 0.27762  0.13080  0.99047  Biso   1.000  O 
  O7       1.0000 0.22690  0.38168  0.00169  Biso   1.000  O 
  O8       1.0000 0.22409  0.36843  0.49092  Biso   1.000  O 
  Hf5      1.0000 0.13794  0.53264  0.25300  Biso   1.000  Hf
  Hf6      1.0000 0.13451  0.73933  0.75354  Biso   1.000  Hf
  Hf7      1.0000 0.36926  0.76849  0.25126  Biso   1.000  Hf
  Hf8      1.0000 0.36563  0.98395  0.74850  Biso   1.000  Hf
  O9       1.0000 0.03499  0.68707  0.39572  Biso   1.000  O 
  O10      1.0000 0.03585  0.57144  0.89157  Biso   1.000  O 
  O11      1.0000 0.46482  0.93456  0.38623  Biso   1.000  O 
  O12      1.0000 0.46497  0.81764  0.88824  Biso   1.000  O 
  O13      1.0000 0.27412  0.62332  0.50474  Biso   1.000  O 
  O14      1.0000 0.27140  0.63614  0.99991  Biso   1.000  O 
  O15      1.0000 0.22954  0.88364  0.99952  Biso   1.000  O 
  O16      1.0000 0.23021  0.86916  0.49775  Biso   1.000  O 
  Hf9      1.0000 0.63358  0.01432  0.24693  Biso   1.000  Hf
  Hf10     1.0000 0.63083  0.23204  0.75044  Biso   1.000  Hf
  Hf11     1.0000 0.85177  0.26346  0.25567  Biso   1.000  Hf
  Hf12     1.0000 0.86984  0.48119  0.75374  Biso   1.000  Hf
  O17      1.0000 0.53638  0.18331  0.38721  Biso   1.000  O 
  O18      1.0000 0.53610  0.06599  0.88618  Biso   1.000  O 
  O19      1.0000 0.96836  0.43057  0.39217  Biso   1.000  O 
  O20      1.0000 0.97028  0.31581  0.91609  Biso   1.000  O 
  O21      1.0000 0.76625  0.11525  0.50030  Biso   1.000  O 
  O22      1.0000 0.77052  0.13208  0.99643  Biso   1.000  O 
  O23      1.0000 0.72974  0.38006  0.00114  Biso   1.000  O 
  O24      1.0000 0.72713  0.36914  0.50432  Biso   1.000  O 
  Hf13     1.0000 0.63447  0.51674  0.25222  Biso   1.000  Hf
  Hf14     1.0000 0.63425  0.73236  0.75218  Biso   1.000  Hf
  Hf15     1.0000 0.86378  0.76613  0.25193  Biso   1.000  Hf
  Hf16     1.0000 0.86657  0.98311  0.74883  Biso   1.000  Hf
  O25      1.0000 0.53841  0.68399  0.38764  Biso   1.000  O 
  O26      1.0000 0.53340  0.56653  0.88911  Biso   1.000  O 
  O27      1.0000 0.96424  0.93282  0.38930  Biso   1.000  O 
  O28      1.0000 0.96387  0.81780  0.89394  Biso   1.000  O 
  O29      1.0000 0.77241  0.61624  0.50288  Biso   1.000  O 
  O30      1.0000 0.77207  0.62918  0.00098  Biso   1.000  O 
  O31      1.0000 0.72895  0.88211  0.99905  Biso   1.000  O 
  O32      1.0000 0.72927  0.86653  0.49994  Biso   1.000  O 
  Li1      1.0000 0.09737  0.30818  0.22820  Biso   1.000  Li
