data_image0
_cell_length_a       10.1992
_cell_length_b       10.2397
_cell_length_c       5.21064
_cell_angle_alpha    90
_cell_angle_beta     80
_cell_angle_gamma    90

_symmetry_space_group_name_H-M    "P 1"
_symmetry_int_tables_number       1

loop_
  _symmetry_equiv_pos_as_xyz
  'x, y, z'

loop_
  _atom_site_label
  _atom_site_occupancy
  _atom_site_fract_x
  _atom_site_fract_y
  _atom_site_fract_z
  _atom_site_thermal_displace_type
  _atom_site_B_iso_or_equiv
  _atom_site_type_symbol
  Li1      1.0000 0.12706  0.00349  0.28656  Biso   1.000  Li
  Hf1      1.0000 0.14135  0.52211  0.29191  Biso   1.000  Hf
  Hf2      1.0000 0.63956  0.02072  0.29182  Biso   1.000  Hf
  Hf3      1.0000 0.63890  0.52119  0.29135  Biso   1.000  Hf
  Hf4      1.0000 0.14360  0.22657  0.79426  Biso   1.000  Hf
  Hf5      1.0000 0.14472  0.73267  0.78947  Biso   1.000  Hf
  Hf6      1.0000 0.63930  0.22873  0.79139  Biso   1.000  Hf
  Hf7      1.0000 0.63999  0.72939  0.79371  Biso   1.000  Hf
  Hf8      1.0000 0.35713  0.26704  0.21168  Biso   1.000  Hf
  Hf9      1.0000 0.35727  0.77645  0.20767  Biso   1.000  Hf
  Hf10     1.0000 0.86186  0.26919  0.20501  Biso   1.000  Hf
  Hf11     1.0000 0.86231  0.77235  0.20927  Biso   1.000  Hf
  Hf12     1.0000 0.36112  0.47860  0.70753  Biso   1.000  Hf
  Hf13     1.0000 0.35653  0.97888  0.70629  Biso   1.000  Hf
  Hf14     1.0000 0.86217  0.47943  0.70798  Biso   1.000  Hf
  Hf15     1.0000 0.86462  0.97885  0.70084  Biso   1.000  Hf
  O1       1.0000 0.03191  0.16082  0.14933  Biso   1.000  O 
  O2       1.0000 0.03358  0.66430  0.15528  Biso   1.000  O 
  O3       1.0000 0.53467  0.16750  0.15970  Biso   1.000  O 
  O4       1.0000 0.53319  0.66642  0.15856  Biso   1.000  O 
  O5       1.0000 0.02718  0.09166  0.67524  Biso   1.000  O 
  O6       1.0000 0.03336  0.58708  0.65358  Biso   1.000  O 
  O7       1.0000 0.53569  0.08296  0.65821  Biso   1.000  O 
  O8       1.0000 0.53436  0.58413  0.65749  Biso   1.000  O 
  O9       1.0000 0.46699  0.41509  0.34231  Biso   1.000  O 
  O10      1.0000 0.46983  0.91587  0.34188  Biso   1.000  O 
  O11      1.0000 0.96984  0.41168  0.34565  Biso   1.000  O 
  O12      1.0000 0.96247  0.91441  0.34661  Biso   1.000  O 
  O13      1.0000 0.46873  0.33585  0.84332  Biso   1.000  O 
  O14      1.0000 0.47172  0.83775  0.84382  Biso   1.000  O 
  O15      1.0000 0.97021  0.33895  0.84663  Biso   1.000  O 
  O16      1.0000 0.96910  0.83488  0.84268  Biso   1.000  O 
  O17      1.0000 0.28402  0.13315  0.49651  Biso   1.000  O 
  O18      1.0000 0.27729  0.62666  0.47900  Biso   1.000  O 
  O19      1.0000 0.77556  0.12894  0.48035  Biso   1.000  O 
  O20      1.0000 0.77655  0.62831  0.48037  Biso   1.000  O 
  O21      1.0000 0.28763  0.12941  0.96919  Biso   1.000  O 
  O22      1.0000 0.27805  0.62112  0.98036  Biso   1.000  O 
  O23      1.0000 0.77556  0.12218  0.97984  Biso   1.000  O 
  O24      1.0000 0.77634  0.62065  0.98049  Biso   1.000  O 
  O25      1.0000 0.22430  0.37958  0.01997  Biso   1.000  O 
  O26      1.0000 0.22898  0.87550  0.00758  Biso   1.000  O 
  O27      1.0000 0.72504  0.37844  0.01828  Biso   1.000  O 
  O28      1.0000 0.72640  0.87835  0.01706  Biso   1.000  O 
  O29      1.0000 0.22386  0.37279  0.51926  Biso   1.000  O 
  O30      1.0000 0.23076  0.86712  0.51806  Biso   1.000  O 
  O31      1.0000 0.72600  0.37194  0.51814  Biso   1.000  O 
  O32      1.0000 0.72169  0.87114  0.51915  Biso   1.000  O 
