data_image0
_cell_length_a       5.03558
_cell_length_b       10.2851
_cell_length_c       10.0207
_cell_angle_alpha    90
_cell_angle_beta     90
_cell_angle_gamma    90

_symmetry_space_group_name_H-M    "P 1"
_symmetry_int_tables_number       1

loop_
  _symmetry_equiv_pos_as_xyz
  'x, y, z'

loop_
  _atom_site_label
  _atom_site_occupancy
  _atom_site_fract_x
  _atom_site_fract_y
  _atom_site_fract_z
  _atom_site_thermal_displace_type
  _atom_site_B_iso_or_equiv
  _atom_site_type_symbol
  Hf1      1.0000 0.24984  0.99768  0.12491  Biso   1.000  Hf
  Hf2      1.0000 0.24978  0.25003  0.39815  Biso   1.000  Hf
  Hf3      1.0000 0.74986  0.25005  0.12491  Biso   1.000  Hf
  Hf4      1.0000 0.75040  0.99604  0.37609  Biso   1.000  Hf
  O1       1.0000 0.04306  0.15953  0.00474  Biso   1.000  O 
  O2       1.0000 0.95786  0.09262  0.23652  Biso   1.000  O 
  O3       1.0000 0.04306  0.34058  0.24508  Biso   1.000  O 
  O4       1.0000 0.95785  0.40748  0.01329  Biso   1.000  O 
  O5       1.0000 0.45669  0.15955  0.24511  Biso   1.000  O 
  O6       1.0000 0.54191  0.09260  0.01335  Biso   1.000  O 
  O7       1.0000 0.45668  0.34056  0.00471  Biso   1.000  O 
  O8       1.0000 0.54190  0.40751  0.23647  Biso   1.000  O 
  Hf5      1.0000 0.24980  0.99791  0.62492  Biso   1.000  Hf
  Hf6      1.0000 0.24977  0.25006  0.85167  Biso   1.000  Hf
  Hf7      1.0000 0.74974  0.25004  0.62491  Biso   1.000  Hf
  Hf8      1.0000 0.74923  0.99603  0.87373  Biso   1.000  Hf
  O9       1.0000 0.97160  0.14108  0.49240  Biso   1.000  O 
  O10      1.0000 0.01434  0.10186  0.75342  Biso   1.000  O 
  O11      1.0000 0.97160  0.35901  0.75742  Biso   1.000  O 
  O12      1.0000 0.01434  0.39823  0.49640  Biso   1.000  O 
  O13      1.0000 0.52797  0.14108  0.75746  Biso   1.000  O 
  O14      1.0000 0.48525  0.10185  0.49642  Biso   1.000  O 
  O15      1.0000 0.52797  0.35901  0.49236  Biso   1.000  O 
  O16      1.0000 0.48525  0.39824  0.75340  Biso   1.000  O 
  Hf9      1.0000 0.24983  0.50242  0.12491  Biso   1.000  Hf
  Hf10     1.0000 0.24982  0.75005  0.37521  Biso   1.000  Hf
  Hf11     1.0000 0.74983  0.75005  0.12491  Biso   1.000  Hf
  Hf12     1.0000 0.74923  0.50406  0.37608  Biso   1.000  Hf
  O17      1.0000 0.99466  0.65132  0.99953  Biso   1.000  O 
  O18      1.0000 0.00983  0.60089  0.25324  Biso   1.000  O 
  O19      1.0000 0.99467  0.84877  0.25028  Biso   1.000  O 
  O20      1.0000 0.00984  0.89919  0.99657  Biso   1.000  O 
  O21      1.0000 0.50497  0.65135  0.25028  Biso   1.000  O 
  O22      1.0000 0.48980  0.60087  0.99656  Biso   1.000  O 
  O23      1.0000 0.50497  0.84874  0.99954  Biso   1.000  O 
  O24      1.0000 0.48981  0.89922  0.25326  Biso   1.000  O 
  Hf13     1.0000 0.24980  0.50218  0.62490  Biso   1.000  Hf
  Hf14     1.0000 0.24981  0.75004  0.87461  Biso   1.000  Hf
  Hf15     1.0000 0.74981  0.75005  0.62491  Biso   1.000  Hf
  Hf16     1.0000 0.75040  0.50406  0.87373  Biso   1.000  Hf
  O25      1.0000 0.99596  0.64803  0.50184  Biso   1.000  O 
  O26      1.0000 0.00732  0.60402  0.75252  Biso   1.000  O 
  O27      1.0000 0.99596  0.85206  0.74797  Biso   1.000  O 
  O28      1.0000 0.00733  0.89606  0.49729  Biso   1.000  O 
  O29      1.0000 0.50367  0.64803  0.74797  Biso   1.000  O 
  O30      1.0000 0.49230  0.60403  0.49729  Biso   1.000  O 
  O31      1.0000 0.50367  0.85206  0.50185  Biso   1.000  O 
  O32      1.0000 0.49230  0.89606  0.75253  Biso   1.000  O 
  Li1      1.0000 0.24988  0.25005  0.12491  Biso   1.000  Li
