data_image0
_cell_length_a       10.171
_cell_length_b       10.23
_cell_length_c       5.21624
_cell_angle_alpha    90
_cell_angle_beta     80
_cell_angle_gamma    90

_symmetry_space_group_name_H-M    "P 1"
_symmetry_int_tables_number       1

loop_
  _symmetry_equiv_pos_as_xyz
  'x, y, z'

loop_
  _atom_site_label
  _atom_site_occupancy
  _atom_site_fract_x
  _atom_site_fract_y
  _atom_site_fract_z
  _atom_site_thermal_displace_type
  _atom_site_B_iso_or_equiv
  _atom_site_type_symbol
  Mg1      1.0000 0.13433  0.01185  0.30249  Biso   1.000  Mg
  Hf1      1.0000 0.14096  0.52197  0.29243  Biso   1.000  Hf
  Hf2      1.0000 0.63891  0.02100  0.29204  Biso   1.000  Hf
  Hf3      1.0000 0.63876  0.52050  0.29162  Biso   1.000  Hf
  Hf4      1.0000 0.14076  0.22501  0.79111  Biso   1.000  Hf
  Hf5      1.0000 0.14282  0.73281  0.79164  Biso   1.000  Hf
  Hf6      1.0000 0.63859  0.22908  0.79232  Biso   1.000  Hf
  Hf7      1.0000 0.63846  0.72916  0.79348  Biso   1.000  Hf
  Hf8      1.0000 0.35656  0.26688  0.20987  Biso   1.000  Hf
  Hf9      1.0000 0.35822  0.77540  0.20679  Biso   1.000  Hf
  Hf10     1.0000 0.86378  0.26888  0.20652  Biso   1.000  Hf
  Hf11     1.0000 0.86150  0.77206  0.21011  Biso   1.000  Hf
  Hf12     1.0000 0.35965  0.47844  0.70831  Biso   1.000  Hf
  Hf13     1.0000 0.35685  0.98028  0.70656  Biso   1.000  Hf
  Hf14     1.0000 0.86130  0.47918  0.70945  Biso   1.000  Hf
  Hf15     1.0000 0.86217  0.97883  0.70450  Biso   1.000  Hf
  O1       1.0000 0.03498  0.16215  0.15454  Biso   1.000  O 
  O2       1.0000 0.03460  0.66639  0.15870  Biso   1.000  O 
  O3       1.0000 0.53451  0.16768  0.15914  Biso   1.000  O 
  O4       1.0000 0.53363  0.66668  0.15867  Biso   1.000  O 
  O5       1.0000 0.02865  0.08675  0.66620  Biso   1.000  O 
  O6       1.0000 0.03410  0.58520  0.65825  Biso   1.000  O 
  O7       1.0000 0.53449  0.08313  0.65826  Biso   1.000  O 
  O8       1.0000 0.53380  0.58290  0.65815  Biso   1.000  O 
  O9       1.0000 0.46576  0.41528  0.34192  Biso   1.000  O 
  O10      1.0000 0.46808  0.91687  0.34048  Biso   1.000  O 
  O11      1.0000 0.96802  0.41476  0.34414  Biso   1.000  O 
  O12      1.0000 0.96300  0.91462  0.34583  Biso   1.000  O 
  O13      1.0000 0.46680  0.33504  0.84305  Biso   1.000  O 
  O14      1.0000 0.46769  0.83501  0.84120  Biso   1.000  O 
  O15      1.0000 0.96735  0.33559  0.84513  Biso   1.000  O 
  O16      1.0000 0.96646  0.83364  0.84280  Biso   1.000  O 
  O17      1.0000 0.27711  0.12802  0.48139  Biso   1.000  O 
  O18      1.0000 0.27702  0.62787  0.48019  Biso   1.000  O 
  O19      1.0000 0.77527  0.12867  0.48126  Biso   1.000  O 
  O20      1.0000 0.77597  0.62825  0.48134  Biso   1.000  O 
  O21      1.0000 0.28418  0.12863  0.96634  Biso   1.000  O 
  O22      1.0000 0.27650  0.62176  0.98109  Biso   1.000  O 
  O23      1.0000 0.77444  0.12174  0.98167  Biso   1.000  O 
  O24      1.0000 0.77497  0.62047  0.98149  Biso   1.000  O 
  O25      1.0000 0.22406  0.38006  0.01946  Biso   1.000  O 
  O26      1.0000 0.22692  0.87966  0.01329  Biso   1.000  O 
  O27      1.0000 0.72545  0.37820  0.01936  Biso   1.000  O 
  O28      1.0000 0.72536  0.87844  0.01810  Biso   1.000  O 
  O29      1.0000 0.22332  0.37146  0.51961  Biso   1.000  O 
  O30      1.0000 0.22669  0.86886  0.51763  Biso   1.000  O 
  O31      1.0000 0.72528  0.37146  0.51922  Biso   1.000  O 
  O32      1.0000 0.72146  0.87095  0.51963  Biso   1.000  O 
