data_image0
_cell_length_a       10.0387
_cell_length_b       10.4437
_cell_length_c       10.0617
_cell_angle_alpha    90
_cell_angle_beta     90
_cell_angle_gamma    90

_symmetry_space_group_name_H-M    "P 1"
_symmetry_int_tables_number       1

loop_
  _symmetry_equiv_pos_as_xyz
  'x, y, z'

loop_
  _atom_site_label
  _atom_site_occupancy
  _atom_site_fract_x
  _atom_site_fract_y
  _atom_site_fract_z
  _atom_site_thermal_displace_type
  _atom_site_B_iso_or_equiv
  _atom_site_type_symbol
  Hf1      1.0000 0.11922  0.03158  0.13568  Biso   1.000  Hf
  Hf2      1.0000 0.10443  0.26166  0.38903  Biso   1.000  Hf
  Hf3      1.0000 0.39519  0.24613  0.10136  Biso   1.000  Hf
  Hf4      1.0000 0.35086  0.99735  0.38686  Biso   1.000  Hf
  O1       1.0000 0.01690  0.19614  0.02995  Biso   1.000  O 
  O2       1.0000 0.98936  0.11310  0.26997  Biso   1.000  O 
  O3       1.0000 0.96486  0.35181  0.26036  Biso   1.000  O 
  O4       1.0000 0.01841  0.44909  0.00327  Biso   1.000  O 
  O5       1.0000 0.22009  0.20453  0.22440  Biso   1.000  O 
  O6       1.0000 0.22606  0.13860  0.98481  Biso   1.000  O 
  O7       1.0000 0.23840  0.38438  0.99086  Biso   1.000  O 
  O8       1.0000 0.19292  0.45375  0.25166  Biso   1.000  O 
  Hf5      1.0000 0.10391  0.03655  0.64170  Biso   1.000  Hf
  Hf6      1.0000 0.11172  0.28088  0.85993  Biso   1.000  Hf
  Hf7      1.0000 0.37508  0.25149  0.60832  Biso   1.000  Hf
  Hf8      1.0000 0.32517  0.02249  0.88082  Biso   1.000  Hf
  O9       1.0000 0.99418  0.16492  0.52212  Biso   1.000  O 
  O10      1.0000 0.97754  0.13283  0.77312  Biso   1.000  O 
  O11      1.0000 0.97269  0.38011  0.75158  Biso   1.000  O 
  O12      1.0000 0.98711  0.40760  0.50232  Biso   1.000  O 
  O13      1.0000 0.22230  0.17948  0.73069  Biso   1.000  O 
  O14      1.0000 0.23935  0.10569  0.48771  Biso   1.000  O 
  O15      1.0000 0.24226  0.35796  0.49405  Biso   1.000  O 
  O16      1.0000 0.22234  0.42838  0.75209  Biso   1.000  O 
  Hf9      1.0000 0.09098  0.58017  0.13191  Biso   1.000  Hf
  Hf10     1.0000 0.08291  0.76060  0.39654  Biso   1.000  Hf
  Hf11     1.0000 0.35738  0.77445  0.12723  Biso   1.000  Hf
  Hf12     1.0000 0.34089  0.50663  0.37879  Biso   1.000  Hf
  O17      1.0000 0.98492  0.69944  0.00816  Biso   1.000  O 
  O18      1.0000 0.94567  0.62874  0.26156  Biso   1.000  O 
  O19      1.0000 0.97985  0.87230  0.26607  Biso   1.000  O 
  O20      1.0000 0.95129  0.94106  0.02727  Biso   1.000  O 
  O21      1.0000 0.20252  0.70624  0.24231  Biso   1.000  O 
  O22      1.0000 0.21726  0.65181  0.99634  Biso   1.000  O 
  O23      1.0000 0.20433  0.89145  0.98965  Biso   1.000  O 
  O24      1.0000 0.24414  0.94615  0.22853  Biso   1.000  O 
  Hf13     1.0000 0.08959  0.52158  0.63379  Biso   1.000  Hf
  Hf14     1.0000 0.10369  0.78198  0.86122  Biso   1.000  Hf
  Hf15     1.0000 0.35286  0.76441  0.62352  Biso   1.000  Hf
  Hf16     1.0000 0.33361  0.53515  0.88291  Biso   1.000  Hf
  O25      1.0000 0.95565  0.65183  0.51215  Biso   1.000  O 
  O26      1.0000 0.97794  0.63762  0.75929  Biso   1.000  O 
  O27      1.0000 0.95776  0.89006  0.76746  Biso   1.000  O 
  O28      1.0000 0.98296  0.90595  0.51583  Biso   1.000  O 
  O29      1.0000 0.22527  0.66976  0.74625  Biso   1.000  O 
  O30      1.0000 0.20574  0.60820  0.49297  Biso   1.000  O 
  O31      1.0000 0.24062  0.85048  0.48093  Biso   1.000  O 
  O32      1.0000 0.20931  0.91846  0.73694  Biso   1.000  O 
  Hf17     1.0000 0.61303  0.02295  0.13702  Biso   1.000  Hf
  Hf18     1.0000 0.59331  0.27254  0.34542  Biso   1.000  Hf
  Hf19     1.0000 0.83876  0.24004  0.14506  Biso   1.000  Hf
  Hf20     1.0000 0.83807  0.00084  0.38397  Biso   1.000  Hf
  O33      1.0000 0.47430  0.16975  0.96896  Biso   1.000  O 
  O34      1.0000 0.47117  0.12051  0.24708  Biso   1.000  O 
  O35      1.0000 0.45629  0.38214  0.23809  Biso   1.000  O 
  O36      1.0000 0.48604  0.43326  0.98203  Biso   1.000  O 
  O37      1.0000 0.73620  0.14111  0.29016  Biso   1.000  O 
  O38      1.0000 0.75785  0.09369  0.01378  Biso   1.000  O 
  O39      1.0000 0.76802  0.37449  0.98051  Biso   1.000  O 
  O40      1.0000 0.72216  0.40707  0.23858  Biso   1.000  O 
  Hf21     1.0000 0.57703  0.01502  0.63590  Biso   1.000  Hf
  Hf22     1.0000 0.61659  0.28773  0.89088  Biso   1.000  Hf
  Hf23     1.0000 0.84460  0.25547  0.63249  Biso   1.000  Hf
  Hf24     1.0000 0.81078  0.01746  0.87546  Biso   1.000  Hf
  O41      1.0000 0.50555  0.14841  0.48948  Biso   1.000  O 
  O42      1.0000 0.45453  0.10129  0.72421  Biso   1.000  O 
  O43      1.0000 0.49014  0.35245  0.73331  Biso   1.000  O 
  O44      1.0000 0.48290  0.39909  0.48464  Biso   1.000  O 
  O45      1.0000 0.71546  0.15876  0.76474  Biso   1.000  O 
  O46      1.0000 0.76854  0.08181  0.54055  Biso   1.000  O 
  O47      1.0000 0.73809  0.33638  0.48557  Biso   1.000  O 
  O48      1.0000 0.73038  0.41038  0.73924  Biso   1.000  O 
  Hf25     1.0000 0.58865  0.52364  0.12881  Biso   1.000  Hf
  Hf26     1.0000 0.59462  0.74428  0.37670  Biso   1.000  Hf
  Hf27     1.0000 0.84972  0.78243  0.13650  Biso   1.000  Hf
  Hf28     1.0000 0.85161  0.49067  0.38033  Biso   1.000  Hf
  O49      1.0000 0.48088  0.65251  0.00019  Biso   1.000  O 
  O50      1.0000 0.45239  0.62152  0.24908  Biso   1.000  O 
  O51      1.0000 0.47930  0.86882  0.26311  Biso   1.000  O 
  O52      1.0000 0.46900  0.90636  0.01773  Biso   1.000  O 
  O53      1.0000 0.69606  0.67135  0.21739  Biso   1.000  O 
  O54      1.0000 0.70337  0.61262  0.97780  Biso   1.000  O 
  O55      1.0000 0.70735  0.87098  0.98067  Biso   1.000  O 
  O56      1.0000 0.72990  0.91622  0.23479  Biso   1.000  O 
  Hf29     1.0000 0.59180  0.50341  0.62394  Biso   1.000  Hf
  Hf30     1.0000 0.60149  0.75254  0.86112  Biso   1.000  Hf
  Hf31     1.0000 0.85323  0.77633  0.63557  Biso   1.000  Hf
  Hf32     1.0000 0.84644  0.52111  0.87111  Biso   1.000  Hf
  O57      1.0000 0.46088  0.64797  0.50133  Biso   1.000  O 
  O58      1.0000 0.47400  0.60873  0.75035  Biso   1.000  O 
  O59      1.0000 0.46030  0.86191  0.76248  Biso   1.000  O 
  O60      1.0000 0.48515  0.89446  0.50850  Biso   1.000  O 
  O61      1.0000 0.72222  0.65431  0.72655  Biso   1.000  O 
  O62      1.0000 0.69636  0.58100  0.46554  Biso   1.000  O 
  O63      1.0000 0.74407  0.83258  0.47548  Biso   1.000  O 
  O64      1.0000 0.70974  0.90018  0.73698  Biso   1.000  O 
  Mg1      1.0000 0.11418  0.32796  0.12383  Biso   1.000  Mg
