data_image0
_cell_length_a       4.99333
_cell_length_b       10.2888
_cell_length_c       10.0468
_cell_angle_alpha    90
_cell_angle_beta     90
_cell_angle_gamma    90

_symmetry_space_group_name_H-M    "P 1"
_symmetry_int_tables_number       1

loop_
  _symmetry_equiv_pos_as_xyz
  'x, y, z'

loop_
  _atom_site_label
  _atom_site_occupancy
  _atom_site_fract_x
  _atom_site_fract_y
  _atom_site_fract_z
  _atom_site_thermal_displace_type
  _atom_site_B_iso_or_equiv
  _atom_site_type_symbol
  Mg1      1.0000 0.26412  0.01776  0.11529  Biso   1.000  Mg
  Hf1      1.0000 0.26882  0.01446  0.62525  Biso   1.000  Hf
  Hf2      1.0000 0.26879  0.51526  0.12573  Biso   1.000  Hf
  Hf3      1.0000 0.26904  0.51498  0.62596  Biso   1.000  Hf
  Hf4      1.0000 0.26912  0.22812  0.37298  Biso   1.000  Hf
  Hf5      1.0000 0.27126  0.22874  0.87568  Biso   1.000  Hf
  Hf6      1.0000 0.27011  0.73473  0.37578  Biso   1.000  Hf
  Hf7      1.0000 0.27305  0.73370  0.87821  Biso   1.000  Hf
  Hf8      1.0000 0.72202  0.26094  0.12597  Biso   1.000  Hf
  Hf9      1.0000 0.73168  0.26408  0.62411  Biso   1.000  Hf
  Hf10     1.0000 0.72572  0.77014  0.12550  Biso   1.000  Hf
  Hf11     1.0000 0.73229  0.76587  0.62607  Biso   1.000  Hf
  Hf12     1.0000 0.72963  0.48217  0.37603  Biso   1.000  Hf
  Hf13     1.0000 0.73170  0.48096  0.87569  Biso   1.000  Hf
  Hf14     1.0000 0.72524  0.98325  0.36904  Biso   1.000  Hf
  Hf15     1.0000 0.72138  0.98155  0.87805  Biso   1.000  Hf
  O1       1.0000 0.05891  0.18191  0.19882  Biso   1.000  O 
  O2       1.0000 0.07487  0.18444  0.69182  Biso   1.000  O 
  O3       1.0000 0.06403  0.68188  0.19683  Biso   1.000  O 
  O4       1.0000 0.07147  0.68224  0.69557  Biso   1.000  O 
  O5       1.0000 0.06740  0.06492  0.44778  Biso   1.000  O 
  O6       1.0000 0.06844  0.06552  0.93514  Biso   1.000  O 
  O7       1.0000 0.06875  0.56460  0.44606  Biso   1.000  O 
  O8       1.0000 0.07113  0.56425  0.94597  Biso   1.000  O 
  O9       1.0000 0.92980  0.43152  0.19580  Biso   1.000  O 
  O10      1.0000 0.92941  0.43255  0.69512  Biso   1.000  O 
  O11      1.0000 0.94046  0.93070  0.19757  Biso   1.000  O 
  O12      1.0000 0.92526  0.93239  0.69529  Biso   1.000  O 
  O13      1.0000 0.93012  0.31546  0.44490  Biso   1.000  O 
  O14      1.0000 0.93405  0.31475  0.94563  Biso   1.000  O 
  O15      1.0000 0.93182  0.81545  0.44799  Biso   1.000  O 
  O16      1.0000 0.92858  0.81380  0.94325  Biso   1.000  O 
  O17      1.0000 0.54272  0.11879  0.24951  Biso   1.000  O 
  O18      1.0000 0.54374  0.11546  0.74709  Biso   1.000  O 
  O19      1.0000 0.53790  0.61367  0.24863  Biso   1.000  O 
  O20      1.0000 0.54183  0.61611  0.74977  Biso   1.000  O 
  O21      1.0000 0.54005  0.13101  0.49871  Biso   1.000  O 
  O22      1.0000 0.54671  0.13074  0.99539  Biso   1.000  O 
  O23      1.0000 0.54001  0.63164  0.49916  Biso   1.000  O 
  O24      1.0000 0.54330  0.62814  0.99967  Biso   1.000  O 
  O25      1.0000 0.45911  0.38124  0.49864  Biso   1.000  O 
  O26      1.0000 0.46050  0.37952  0.99876  Biso   1.000  O 
  O27      1.0000 0.45941  0.88207  0.50007  Biso   1.000  O 
  O28      1.0000 0.45420  0.88057  0.00078  Biso   1.000  O 
  O29      1.0000 0.45514  0.36642  0.24845  Biso   1.000  O 
  O30      1.0000 0.46077  0.36588  0.74880  Biso   1.000  O 
  O31      1.0000 0.47139  0.85973  0.25422  Biso   1.000  O 
  O32      1.0000 0.45511  0.86570  0.74875  Biso   1.000  O 
