data_image0
_cell_length_a       9.97197
_cell_length_b       10.4946
_cell_length_c       10.0666
_cell_angle_alpha    90
_cell_angle_beta     90
_cell_angle_gamma    90

_symmetry_space_group_name_H-M    "P 1"
_symmetry_int_tables_number       1

loop_
  _symmetry_equiv_pos_as_xyz
  'x, y, z'

loop_
  _atom_site_label
  _atom_site_occupancy
  _atom_site_fract_x
  _atom_site_fract_y
  _atom_site_fract_z
  _atom_site_thermal_displace_type
  _atom_site_B_iso_or_equiv
  _atom_site_type_symbol
  Hf1      1.0000 0.13530  0.02358  0.11949  Biso   1.000  Hf
  Hf2      1.0000 0.14193  0.23067  0.38503  Biso   1.000  Hf
  Hf3      1.0000 0.38977  0.26253  0.11232  Biso   1.000  Hf
  Hf4      1.0000 0.36695  0.48256  0.36834  Biso   1.000  Hf
  O1       1.0000 0.02525  0.18876  0.20591  Biso   1.000  O 
  O2       1.0000 0.04399  0.06429  0.44604  Biso   1.000  O 
  O3       1.0000 0.47280  0.43061  0.19713  Biso   1.000  O 
  O4       1.0000 0.47083  0.32520  0.45368  Biso   1.000  O 
  O5       1.0000 0.26956  0.11050  0.25137  Biso   1.000  O 
  O6       1.0000 0.28075  0.13575  0.50632  Biso   1.000  O 
  O7       1.0000 0.23275  0.38542  0.50265  Biso   1.000  O 
  O8       1.0000 0.24596  0.34826  0.25495  Biso   1.000  O 
  Hf5      1.0000 0.14604  0.01861  0.62787  Biso   1.000  Hf
  Hf6      1.0000 0.11564  0.24502  0.84518  Biso   1.000  Hf
  Hf7      1.0000 0.36941  0.27721  0.62934  Biso   1.000  Hf
  Hf8      1.0000 0.38100  0.50578  0.86703  Biso   1.000  Hf
  O9       1.0000 0.04210  0.18527  0.66942  Biso   1.000  O 
  O10      1.0000 0.03272  0.08678  0.93699  Biso   1.000  O 
  O11      1.0000 0.46955  0.44520  0.68951  Biso   1.000  O 
  O12      1.0000 0.47670  0.34557  0.93470  Biso   1.000  O 
  O13      1.0000 0.27119  0.12907  0.75816  Biso   1.000  O 
  O14      1.0000 0.22115  0.19121  0.01567  Biso   1.000  O 
  O15      1.0000 0.24890  0.43499  0.01925  Biso   1.000  O 
  O16      1.0000 0.24035  0.38037  0.75771  Biso   1.000  O 
  Hf9      1.0000 0.12889  0.57175  0.10531  Biso   1.000  Hf
  Hf10     1.0000 0.14165  0.73959  0.37942  Biso   1.000  Hf
  Hf11     1.0000 0.36746  0.78582  0.11940  Biso   1.000  Hf
  Hf12     1.0000 0.37200  0.98913  0.37922  Biso   1.000  Hf
  O17      1.0000 0.02205  0.69569  0.21326  Biso   1.000  O 
  O18      1.0000 0.04178  0.56998  0.44682  Biso   1.000  O 
  O19      1.0000 0.47169  0.93487  0.20815  Biso   1.000  O 
  O20      1.0000 0.46474  0.81707  0.44185  Biso   1.000  O 
  O21      1.0000 0.27317  0.62425  0.24364  Biso   1.000  O 
  O22      1.0000 0.27729  0.63393  0.49867  Biso   1.000  O 
  O23      1.0000 0.23384  0.88513  0.50109  Biso   1.000  O 
  O24      1.0000 0.22669  0.86905  0.24737  Biso   1.000  O 
  Hf13     1.0000 0.14356  0.52225  0.62614  Biso   1.000  Hf
  Hf14     1.0000 0.11160  0.76886  0.84144  Biso   1.000  Hf
  Hf15     1.0000 0.37379  0.77088  0.62374  Biso   1.000  Hf
  Hf16     1.0000 0.41067  0.00744  0.85348  Biso   1.000  Hf
  O25      1.0000 0.03615  0.68471  0.67597  Biso   1.000  O 
  O26      1.0000 0.03210  0.59947  0.92935  Biso   1.000  O 
  O27      1.0000 0.47537  0.93590  0.67321  Biso   1.000  O 
  O28      1.0000 0.48171  0.84239  0.94075  Biso   1.000  O 
  O29      1.0000 0.26894  0.63141  0.75032  Biso   1.000  O 
  O30      1.0000 0.24204  0.72009  0.99438  Biso   1.000  O 
  O31      1.0000 0.27168  0.93875  0.00767  Biso   1.000  O 
  O32      1.0000 0.25135  0.88165  0.75179  Biso   1.000  O 
  Hf17     1.0000 0.63237  0.02008  0.13421  Biso   1.000  Hf
  Hf18     1.0000 0.63546  0.23862  0.38376  Biso   1.000  Hf
  Hf19     1.0000 0.84886  0.26376  0.12885  Biso   1.000  Hf
  Hf20     1.0000 0.87898  0.49104  0.36630  Biso   1.000  Hf
  O33      1.0000 0.54063  0.18607  0.21380  Biso   1.000  O 
  O34      1.0000 0.53998  0.07370  0.45117  Biso   1.000  O 
  O35      1.0000 0.98044  0.44116  0.18449  Biso   1.000  O 
  O36      1.0000 0.97221  0.32504  0.44048  Biso   1.000  O 
  O37      1.0000 0.76905  0.11978  0.25274  Biso   1.000  O 
  O38      1.0000 0.77731  0.14142  0.49925  Biso   1.000  O 
  O39      1.0000 0.74027  0.39452  0.49767  Biso   1.000  O 
  O40      1.0000 0.73570  0.37163  0.25281  Biso   1.000  O 
  Hf21     1.0000 0.64783  0.02721  0.63222  Biso   1.000  Hf
  Hf22     1.0000 0.63740  0.23503  0.86761  Biso   1.000  Hf
  Hf23     1.0000 0.86833  0.28156  0.61797  Biso   1.000  Hf
  Hf24     1.0000 0.86828  0.49811  0.87543  Biso   1.000  Hf
  O41      1.0000 0.53269  0.18850  0.69992  Biso   1.000  O 
  O42      1.0000 0.50204  0.12258  0.99198  Biso   1.000  O 
  O43      1.0000 0.98352  0.42688  0.71188  Biso   1.000  O 
  O44      1.0000 0.98098  0.33936  0.96169  Biso   1.000  O 
  O45      1.0000 0.79543  0.13987  0.74337  Biso   1.000  O 
  O46      1.0000 0.76449  0.12824  0.00203  Biso   1.000  O 
  O47      1.0000 0.72972  0.38125  0.00266  Biso   1.000  O 
  O48      1.0000 0.73424  0.38149  0.74886  Biso   1.000  O 
  Hf25     1.0000 0.63420  0.52108  0.12629  Biso   1.000  Hf
  Hf26     1.0000 0.63018  0.73664  0.37117  Biso   1.000  Hf
  Hf27     1.0000 0.85778  0.77423  0.12928  Biso   1.000  Hf
  Hf28     1.0000 0.87357  0.98935  0.37387  Biso   1.000  Hf
  O49      1.0000 0.53594  0.68852  0.19091  Biso   1.000  O 
  O50      1.0000 0.53674  0.56960  0.44104  Biso   1.000  O 
  O51      1.0000 0.96178  0.94060  0.19255  Biso   1.000  O 
  O52      1.0000 0.97105  0.82449  0.44580  Biso   1.000  O 
  O53      1.0000 0.76943  0.61966  0.24705  Biso   1.000  O 
  O54      1.0000 0.77182  0.64045  0.49413  Biso   1.000  O 
  O55      1.0000 0.73652  0.89166  0.50054  Biso   1.000  O 
  O56      1.0000 0.73034  0.87255  0.25433  Biso   1.000  O 
  Hf29     1.0000 0.63983  0.52489  0.62068  Biso   1.000  Hf
  Hf30     1.0000 0.64354  0.75079  0.87348  Biso   1.000  Hf
  Hf31     1.0000 0.86567  0.77287  0.61445  Biso   1.000  Hf
  Hf32     1.0000 0.85999  0.00027  0.87682  Biso   1.000  Hf
  O57      1.0000 0.54162  0.68978  0.69822  Biso   1.000  O 
  O58      1.0000 0.53639  0.59452  0.95139  Biso   1.000  O 
  O59      1.0000 0.99136  0.92204  0.71538  Biso   1.000  O 
  O60      1.0000 0.97002  0.84352  0.95797  Biso   1.000  O 
  O61      1.0000 0.77779  0.62592  0.74539  Biso   1.000  O 
  O62      1.0000 0.77756  0.65617  0.99711  Biso   1.000  O 
  O63      1.0000 0.72104  0.88077  0.00539  Biso   1.000  O 
  O64      1.0000 0.74751  0.87534  0.74728  Biso   1.000  O 
  Mg1      1.0000 0.11667  0.31983  0.10875  Biso   1.000  Mg
