data_image0
_cell_length_a       5.12603
_cell_length_b       10.2551
_cell_length_c       10.5558
_cell_angle_alpha    90
_cell_angle_beta     80
_cell_angle_gamma    90

_symmetry_space_group_name_H-M    "P 1"
_symmetry_int_tables_number       1

loop_
  _symmetry_equiv_pos_as_xyz
  'x, y, z'

loop_
  _atom_site_label
  _atom_site_occupancy
  _atom_site_fract_x
  _atom_site_fract_y
  _atom_site_fract_z
  _atom_site_thermal_displace_type
  _atom_site_B_iso_or_equiv
  _atom_site_type_symbol
  Hf1      1.0000 0.28375  0.01765  0.14756  Biso   1.000  Hf
  Hf2      1.0000 0.35102  0.22927  0.40579  Biso   1.000  Hf
  Hf3      1.0000 0.67109  0.27193  0.10123  Biso   1.000  Hf
  Hf4      1.0000 0.71107  0.47561  0.34962  Biso   1.000  Hf
  O1       1.0000 0.05286  0.17470  0.08851  Biso   1.000  O 
  O2       1.0000 0.08269  0.09213  0.32680  Biso   1.000  O 
  O3       1.0000 0.89997  0.42352  0.16574  Biso   1.000  O 
  O4       1.0000 0.97919  0.33664  0.42849  Biso   1.000  O 
  O5       1.0000 0.56113  0.11367  0.23969  Biso   1.000  O 
  O6       1.0000 0.60510  0.11583  0.49405  Biso   1.000  O 
  O7       1.0000 0.41337  0.38316  0.00593  Biso   1.000  O 
  O8       1.0000 0.37234  0.36094  0.24619  Biso   1.000  O 
  Hf5      1.0000 0.32050  0.01876  0.64768  Biso   1.000  Hf
  Hf6      1.0000 0.30769  0.23088  0.89234  Biso   1.000  Hf
  Hf7      1.0000 0.77302  0.27021  0.60379  Biso   1.000  Hf
  Hf8      1.0000 0.75204  0.47835  0.85091  Biso   1.000  Hf
  O9       1.0000 0.11965  0.16549  0.58152  Biso   1.000  O 
  O10      1.0000 0.10894  0.08164  0.82899  Biso   1.000  O 
  O11      1.0000 0.96579  0.41479  0.67463  Biso   1.000  O 
  O12      1.0000 0.95905  0.33146  0.91847  Biso   1.000  O 
  O13      1.0000 0.59238  0.12773  0.74054  Biso   1.000  O 
  O14      1.0000 0.58447  0.12060  0.98596  Biso   1.000  O 
  O15      1.0000 0.48253  0.37771  0.51388  Biso   1.000  O 
  O16      1.0000 0.48192  0.37044  0.75627  Biso   1.000  O 
  Hf9      1.0000 0.25619  0.52664  0.14588  Biso   1.000  Hf
  Hf10     1.0000 0.27346  0.72319  0.39725  Biso   1.000  Hf
  Hf11     1.0000 0.69851  0.77101  0.10461  Biso   1.000  Hf
  Hf12     1.0000 0.71697  0.97244  0.35406  Biso   1.000  Hf
  O17      1.0000 0.04070  0.66806  0.07813  Biso   1.000  O 
  O18      1.0000 0.05684  0.58226  0.32805  Biso   1.000  O 
  O19      1.0000 0.91753  0.91169  0.17563  Biso   1.000  O 
  O20      1.0000 0.93685  0.83445  0.42313  Biso   1.000  O 
  O21      1.0000 0.53873  0.62524  0.24172  Biso   1.000  O 
  O22      1.0000 0.55462  0.62168  0.48998  Biso   1.000  O 
  O23      1.0000 0.42201  0.87747  0.01156  Biso   1.000  O 
  O24      1.0000 0.43385  0.86748  0.26041  Biso   1.000  O 
  Hf13     1.0000 0.30317  0.52225  0.64558  Biso   1.000  Hf
  Hf14     1.0000 0.30259  0.72772  0.89377  Biso   1.000  Hf
  Hf15     1.0000 0.73569  0.77041  0.60191  Biso   1.000  Hf
  Hf16     1.0000 0.74058  0.97691  0.85082  Biso   1.000  Hf
  O25      1.0000 0.07400  0.66223  0.57747  Biso   1.000  O 
  O26      1.0000 0.09567  0.58434  0.82561  Biso   1.000  O 
  O27      1.0000 0.94639  0.91417  0.67191  Biso   1.000  O 
  O28      1.0000 0.96109  0.83509  0.91980  Biso   1.000  O 
  O29      1.0000 0.57652  0.62744  0.73898  Biso   1.000  O 
  O30      1.0000 0.58488  0.62268  0.98684  Biso   1.000  O 
  O31      1.0000 0.45176  0.87625  0.50900  Biso   1.000  O 
  O32      1.0000 0.46632  0.87006  0.75774  Biso   1.000  O 
  Mg1      1.0000 0.00602  0.26233  0.25660  Biso   1.000  Mg
