data_image0
_cell_length_a       9.97316
_cell_length_b       10.3299
_cell_length_c       10.0185
_cell_angle_alpha    90
_cell_angle_beta     90
_cell_angle_gamma    90

_symmetry_space_group_name_H-M    "P 1"
_symmetry_int_tables_number       1

loop_
  _symmetry_equiv_pos_as_xyz
  'x, y, z'

loop_
  _atom_site_label
  _atom_site_occupancy
  _atom_site_fract_x
  _atom_site_fract_y
  _atom_site_fract_z
  _atom_site_thermal_displace_type
  _atom_site_B_iso_or_equiv
  _atom_site_type_symbol
  Mg1      1.0000 0.13115  0.01753  0.11714  Biso   1.000  Mg
  Hf1      1.0000 0.13475  0.01647  0.62839  Biso   1.000  Hf
  Hf2      1.0000 0.13541  0.51551  0.12618  Biso   1.000  Hf
  Hf3      1.0000 0.13461  0.51603  0.62671  Biso   1.000  Hf
  Hf4      1.0000 0.63376  0.01613  0.12480  Biso   1.000  Hf
  Hf5      1.0000 0.63336  0.01482  0.62401  Biso   1.000  Hf
  Hf6      1.0000 0.63340  0.51619  0.12646  Biso   1.000  Hf
  Hf7      1.0000 0.63425  0.51541  0.62616  Biso   1.000  Hf
  Hf8      1.0000 0.13473  0.22936  0.37391  Biso   1.000  Hf
  Hf9      1.0000 0.13560  0.23013  0.87792  Biso   1.000  Hf
  Hf10     1.0000 0.13591  0.73455  0.37676  Biso   1.000  Hf
  Hf11     1.0000 0.13631  0.73435  0.87900  Biso   1.000  Hf
  Hf12     1.0000 0.63371  0.23243  0.37531  Biso   1.000  Hf
  Hf13     1.0000 0.63424  0.23209  0.87513  Biso   1.000  Hf
  Hf14     1.0000 0.63351  0.73396  0.37585  Biso   1.000  Hf
  Hf15     1.0000 0.63459  0.73312  0.87612  Biso   1.000  Hf
  Hf16     1.0000 0.36249  0.26258  0.12719  Biso   1.000  Hf
  Hf17     1.0000 0.36508  0.26543  0.62636  Biso   1.000  Hf
  Hf18     1.0000 0.36270  0.76765  0.12680  Biso   1.000  Hf
  Hf19     1.0000 0.36609  0.76724  0.62731  Biso   1.000  Hf
  Hf20     1.0000 0.86563  0.26461  0.12603  Biso   1.000  Hf
  Hf21     1.0000 0.86656  0.26519  0.62455  Biso   1.000  Hf
  Hf22     1.0000 0.86623  0.76901  0.12575  Biso   1.000  Hf
  Hf23     1.0000 0.86618  0.76540  0.62557  Biso   1.000  Hf
  Hf24     1.0000 0.36522  0.48249  0.37638  Biso   1.000  Hf
  Hf25     1.0000 0.36591  0.48184  0.87653  Biso   1.000  Hf
  Hf26     1.0000 0.36070  0.98382  0.37315  Biso   1.000  Hf
  Hf27     1.0000 0.36150  0.98221  0.88110  Biso   1.000  Hf
  Hf28     1.0000 0.86589  0.48338  0.37664  Biso   1.000  Hf
  Hf29     1.0000 0.86583  0.48275  0.87628  Biso   1.000  Hf
  Hf30     1.0000 0.86862  0.98290  0.37309  Biso   1.000  Hf
  Hf31     1.0000 0.86598  0.98303  0.87428  Biso   1.000  Hf
  O1       1.0000 0.03056  0.18250  0.19971  Biso   1.000  O 
  O2       1.0000 0.03758  0.18577  0.69301  Biso   1.000  O 
  O3       1.0000 0.03472  0.68309  0.19557  Biso   1.000  O 
  O4       1.0000 0.03655  0.68410  0.69504  Biso   1.000  O 
  O5       1.0000 0.53727  0.18485  0.19281  Biso   1.000  O 
  O6       1.0000 0.53662  0.18374  0.69329  Biso   1.000  O 
  O7       1.0000 0.53442  0.68297  0.19612  Biso   1.000  O 
  O8       1.0000 0.53583  0.68271  0.69544  Biso   1.000  O 
  O9       1.0000 0.03515  0.06559  0.44892  Biso   1.000  O 
  O10      1.0000 0.03485  0.06624  0.93455  Biso   1.000  O 
  O11      1.0000 0.03583  0.56495  0.44585  Biso   1.000  O 
  O12      1.0000 0.03603  0.56529  0.94566  Biso   1.000  O 
  O13      1.0000 0.53496  0.06510  0.44351  Biso   1.000  O 
  O14      1.0000 0.53671  0.06466  0.94407  Biso   1.000  O 
  O15      1.0000 0.53537  0.56542  0.44526  Biso   1.000  O 
  O16      1.0000 0.53620  0.56482  0.94508  Biso   1.000  O 
  O17      1.0000 0.46403  0.43252  0.19582  Biso   1.000  O 
  O18      1.0000 0.46419  0.43331  0.69493  Biso   1.000  O 
  O19      1.0000 0.46538  0.93375  0.19506  Biso   1.000  O 
  O20      1.0000 0.46377  0.93359  0.69691  Biso   1.000  O 
  O21      1.0000 0.96465  0.43389  0.19517  Biso   1.000  O 
  O22      1.0000 0.96397  0.43404  0.69493  Biso   1.000  O 
  O23      1.0000 0.96709  0.93112  0.19720  Biso   1.000  O 
  O24      1.0000 0.96270  0.93338  0.69277  Biso   1.000  O 
  O25      1.0000 0.46440  0.31519  0.44544  Biso   1.000  O 
  O26      1.0000 0.46491  0.31481  0.94389  Biso   1.000  O 
  O27      1.0000 0.46556  0.81656  0.44806  Biso   1.000  O 
  O28      1.0000 0.46561  0.81553  0.94591  Biso   1.000  O 
  O29      1.0000 0.96439  0.31615  0.44454  Biso   1.000  O 
  O30      1.0000 0.96569  0.31605  0.94637  Biso   1.000  O 
  O31      1.0000 0.96424  0.81440  0.44482  Biso   1.000  O 
  O32      1.0000 0.96263  0.81386  0.94262  Biso   1.000  O 
  O33      1.0000 0.27487  0.12154  0.25246  Biso   1.000  O 
  O34      1.0000 0.27228  0.11730  0.75027  Biso   1.000  O 
  O35      1.0000 0.26946  0.61459  0.25005  Biso   1.000  O 
  O36      1.0000 0.27097  0.61778  0.75088  Biso   1.000  O 
  O37      1.0000 0.76932  0.11575  0.24864  Biso   1.000  O 
  O38      1.0000 0.77050  0.11629  0.74774  Biso   1.000  O 
  O39      1.0000 0.77060  0.61697  0.24937  Biso   1.000  O 
  O40      1.0000 0.77080  0.61643  0.74957  Biso   1.000  O 
  O41      1.0000 0.27012  0.13077  0.50159  Biso   1.000  O 
  O42      1.0000 0.27313  0.13141  0.99838  Biso   1.000  O 
  O43      1.0000 0.27125  0.63211  0.50034  Biso   1.000  O 
  O44      1.0000 0.27088  0.63049  0.00071  Biso   1.000  O 
  O45      1.0000 0.77010  0.13270  0.49809  Biso   1.000  O 
  O46      1.0000 0.77155  0.13151  0.99828  Biso   1.000  O 
  O47      1.0000 0.76966  0.63194  0.49956  Biso   1.000  O 
  O48      1.0000 0.77057  0.63124  0.99966  Biso   1.000  O 
  O49      1.0000 0.22985  0.38147  0.50001  Biso   1.000  O 
  O50      1.0000 0.22939  0.38179  0.00049  Biso   1.000  O 
  O51      1.0000 0.22830  0.88204  0.50263  Biso   1.000  O 
  O52      1.0000 0.22827  0.87945  0.00202  Biso   1.000  O 
  O53      1.0000 0.72922  0.38223  0.49929  Biso   1.000  O 
  O54      1.0000 0.72943  0.38145  0.99908  Biso   1.000  O 
  O55      1.0000 0.73089  0.88243  0.49807  Biso   1.000  O 
  O56      1.0000 0.72980  0.88128  0.99912  Biso   1.000  O 
  O57      1.0000 0.22743  0.36764  0.24967  Biso   1.000  O 
  O58      1.0000 0.22956  0.36738  0.75037  Biso   1.000  O 
  O59      1.0000 0.23650  0.86065  0.25593  Biso   1.000  O 
  O60      1.0000 0.22883  0.86792  0.75135  Biso   1.000  O 
  O61      1.0000 0.73010  0.36682  0.24959  Biso   1.000  O 
  O62      1.0000 0.73016  0.36656  0.74923  Biso   1.000  O 
  O63      1.0000 0.72809  0.86676  0.24861  Biso   1.000  O 
  O64      1.0000 0.72838  0.86588  0.74802  Biso   1.000  O 
