data_image0
_cell_length_a       5.06835
_cell_length_b       10.5395
_cell_length_c       10.0655
_cell_angle_alpha    80
_cell_angle_beta     90
_cell_angle_gamma    90

_symmetry_space_group_name_H-M    "P 1"
_symmetry_int_tables_number       1

loop_
  _symmetry_equiv_pos_as_xyz
  'x, y, z'

loop_
  _atom_site_label
  _atom_site_occupancy
  _atom_site_fract_x
  _atom_site_fract_y
  _atom_site_fract_z
  _atom_site_thermal_displace_type
  _atom_site_B_iso_or_equiv
  _atom_site_type_symbol
  Hf1      1.0000 0.22227  0.02183  0.14175  Biso   1.000  Hf
  Hf2      1.0000 0.22491  0.19694  0.41163  Biso   1.000  Hf
  Hf3      1.0000 0.78176  0.26289  0.14935  Biso   1.000  Hf
  Hf4      1.0000 0.75763  0.94878  0.39426  Biso   1.000  Hf
  O1       1.0000 0.06176  0.20192  0.02599  Biso   1.000  O 
  O2       1.0000 0.95587  0.10083  0.26971  Biso   1.000  O 
  O3       1.0000 0.04069  0.34881  0.26673  Biso   1.000  O 
  O4       1.0000 0.98084  0.44444  0.02948  Biso   1.000  O 
  O5       1.0000 0.43863  0.17412  0.22357  Biso   1.000  O 
  O6       1.0000 0.43011  0.99128  0.98114  Biso   1.000  O 
  O7       1.0000 0.54175  0.23850  0.98220  Biso   1.000  O 
  O8       1.0000 0.53850  0.41983  0.21169  Biso   1.000  O 
  Hf5      1.0000 0.20966  0.96074  0.64274  Biso   1.000  Hf
  Hf6      1.0000 0.28159  0.15510  0.85069  Biso   1.000  Hf
  Hf7      1.0000 0.80048  0.19683  0.64334  Biso   1.000  Hf
  Hf8      1.0000 0.70667  0.90583  0.87674  Biso   1.000  Hf
  O9       1.0000 0.91205  0.07181  0.51765  Biso   1.000  O 
  O10      1.0000 0.99213  0.03795  0.78994  Biso   1.000  O 
  O11      1.0000 0.99725  0.29909  0.78222  Biso   1.000  O 
  O12      1.0000 0.01623  0.34273  0.51308  Biso   1.000  O 
  O13      1.0000 0.52103  0.05529  0.73512  Biso   1.000  O 
  O14      1.0000 0.40956  0.02031  0.46748  Biso   1.000  O 
  O15      1.0000 0.56269  0.27499  0.46944  Biso   1.000  O 
  O16      1.0000 0.50901  0.31550  0.73336  Biso   1.000  O 
  Hf9      1.0000 0.21969  0.55520  0.14590  Biso   1.000  Hf
  Hf10     1.0000 0.23186  0.70513  0.40259  Biso   1.000  Hf
  Hf11     1.0000 0.77468  0.78120  0.14589  Biso   1.000  Hf
  Hf12     1.0000 0.73372  0.45140  0.38539  Biso   1.000  Hf
  O17      1.0000 0.04734  0.70476  0.02423  Biso   1.000  O 
  O18      1.0000 0.94656  0.60931  0.27419  Biso   1.000  O 
  O19      1.0000 0.04203  0.85372  0.27436  Biso   1.000  O 
  O20      1.0000 0.95454  0.94874  0.03087  Biso   1.000  O 
  O21      1.0000 0.44746  0.67496  0.23383  Biso   1.000  O 
  O22      1.0000 0.43831  0.49292  0.98440  Biso   1.000  O 
  O23      1.0000 0.53531  0.74000  0.98594  Biso   1.000  O 
  O24      1.0000 0.55503  0.92171  0.22497  Biso   1.000  O 
  Hf13     1.0000 0.21420  0.44443  0.64687  Biso   1.000  Hf
  Hf14     1.0000 0.27805  0.66185  0.87118  Biso   1.000  Hf
  Hf15     1.0000 0.77682  0.69896  0.64910  Biso   1.000  Hf
  Hf16     1.0000 0.71341  0.40940  0.87988  Biso   1.000  Hf
  O25      1.0000 0.96429  0.58450  0.52746  Biso   1.000  O 
  O26      1.0000 0.99649  0.54383  0.78008  Biso   1.000  O 
  O27      1.0000 0.98816  0.79364  0.77961  Biso   1.000  O 
  O28      1.0000 0.03410  0.83033  0.52611  Biso   1.000  O 
  O29      1.0000 0.49426  0.56375  0.73362  Biso   1.000  O 
  O30      1.0000 0.42782  0.52273  0.47501  Biso   1.000  O 
  O31      1.0000 0.56223  0.77238  0.47849  Biso   1.000  O 
  O32      1.0000 0.48702  0.81273  0.73385  Biso   1.000  O 
  Mg1      1.0000 0.28155  0.32165  0.10127  Biso   1.000  Mg
