data_image0
_cell_length_a       10.0201
_cell_length_b       10.4622
_cell_length_c       5.02904
_cell_angle_alpha    90
_cell_angle_beta     90
_cell_angle_gamma    90

_symmetry_space_group_name_H-M    "P 1"
_symmetry_int_tables_number       1

loop_
  _symmetry_equiv_pos_as_xyz
  'x, y, z'

loop_
  _atom_site_label
  _atom_site_occupancy
  _atom_site_fract_x
  _atom_site_fract_y
  _atom_site_fract_z
  _atom_site_thermal_displace_type
  _atom_site_B_iso_or_equiv
  _atom_site_type_symbol
  Hf1      1.0000 0.13659  0.02698  0.24285  Biso   1.000  Hf
  Hf2      1.0000 0.14343  0.22491  0.77725  Biso   1.000  Hf
  Hf3      1.0000 0.36242  0.26412  0.24438  Biso   1.000  Hf
  Hf4      1.0000 0.36698  0.48727  0.74808  Biso   1.000  Hf
  O1       1.0000 0.00298  0.17657  0.44623  Biso   1.000  O 
  O2       1.0000 0.03914  0.06456  0.89254  Biso   1.000  O 
  O3       1.0000 0.46208  0.43424  0.38915  Biso   1.000  O 
  O4       1.0000 0.46007  0.32006  0.88141  Biso   1.000  O 
  O5       1.0000 0.27122  0.12110  0.50175  Biso   1.000  O 
  O6       1.0000 0.29780  0.12344  0.98493  Biso   1.000  O 
  O7       1.0000 0.22951  0.38979  0.00557  Biso   1.000  O 
  O8       1.0000 0.22304  0.37320  0.50308  Biso   1.000  O 
  Hf5      1.0000 0.13853  0.54391  0.25464  Biso   1.000  Hf
  Hf6      1.0000 0.13461  0.74717  0.75380  Biso   1.000  Hf
  Hf7      1.0000 0.36987  0.77044  0.25092  Biso   1.000  Hf
  Hf8      1.0000 0.36670  0.98164  0.74578  Biso   1.000  Hf
  O9       1.0000 0.03593  0.69264  0.39288  Biso   1.000  O 
  O10      1.0000 0.03473  0.57837  0.89334  Biso   1.000  O 
  O11      1.0000 0.46595  0.93382  0.38279  Biso   1.000  O 
  O12      1.0000 0.46931  0.81969  0.89253  Biso   1.000  O 
  O13      1.0000 0.27457  0.62741  0.50488  Biso   1.000  O 
  O14      1.0000 0.27067  0.64361  0.99933  Biso   1.000  O 
  O15      1.0000 0.23074  0.88001  0.00231  Biso   1.000  O 
  O16      1.0000 0.23338  0.87116  0.49889  Biso   1.000  O 
  Hf9      1.0000 0.63175  0.01158  0.23450  Biso   1.000  Hf
  Hf10     1.0000 0.62340  0.23251  0.74083  Biso   1.000  Hf
  Hf11     1.0000 0.83773  0.26052  0.25412  Biso   1.000  Hf
  Hf12     1.0000 0.87098  0.48435  0.75795  Biso   1.000  Hf
  O17      1.0000 0.53502  0.18385  0.37418  Biso   1.000  O 
  O18      1.0000 0.54107  0.06491  0.87211  Biso   1.000  O 
  O19      1.0000 0.96985  0.43488  0.39452  Biso   1.000  O 
  O20      1.0000 0.96968  0.32058  0.93130  Biso   1.000  O 
  O21      1.0000 0.75629  0.11283  0.49078  Biso   1.000  O 
  O22      1.0000 0.76817  0.13880  0.98514  Biso   1.000  O 
  O23      1.0000 0.72707  0.38197  0.00086  Biso   1.000  O 
  O24      1.0000 0.72686  0.37020  0.50751  Biso   1.000  O 
  Hf13     1.0000 0.63281  0.51812  0.25398  Biso   1.000  Hf
  Hf14     1.0000 0.63726  0.73563  0.74834  Biso   1.000  Hf
  Hf15     1.0000 0.86448  0.76985  0.24402  Biso   1.000  Hf
  Hf16     1.0000 0.87108  0.98993  0.73071  Biso   1.000  Hf
  O25      1.0000 0.53796  0.68397  0.39057  Biso   1.000  O 
  O26      1.0000 0.53369  0.57075  0.89144  Biso   1.000  O 
  O27      1.0000 0.96565  0.93409  0.38236  Biso   1.000  O 
  O28      1.0000 0.96286  0.82219  0.88418  Biso   1.000  O 
  O29      1.0000 0.77310  0.61633  0.50171  Biso   1.000  O 
  O30      1.0000 0.77080  0.63020  0.00072  Biso   1.000  O 
  O31      1.0000 0.73310  0.88855  0.98793  Biso   1.000  O 
  O32      1.0000 0.73039  0.86628  0.48969  Biso   1.000  O 
  Mg1      1.0000 0.09229  0.30369  0.25223  Biso   1.000  Mg
