data_image0
_cell_length_a       10.17
_cell_length_b       5.1125
_cell_length_c       10.4385
_cell_angle_alpha    90
_cell_angle_beta     80
_cell_angle_gamma    90

_symmetry_space_group_name_H-M    "P 1"
_symmetry_int_tables_number       1

loop_
  _symmetry_equiv_pos_as_xyz
  'x, y, z'

loop_
  _atom_site_label
  _atom_site_occupancy
  _atom_site_fract_x
  _atom_site_fract_y
  _atom_site_fract_z
  _atom_site_thermal_displace_type
  _atom_site_B_iso_or_equiv
  _atom_site_type_symbol
  Mg1      1.0000 0.13586  0.02820  0.15109  Biso   1.000  Mg
  Hf1      1.0000 0.13966  0.04257  0.64593  Biso   1.000  Hf
  Hf2      1.0000 0.63852  0.03999  0.14594  Biso   1.000  Hf
  Hf3      1.0000 0.63845  0.04189  0.64606  Biso   1.000  Hf
  Hf4      1.0000 0.14148  0.45407  0.39169  Biso   1.000  Hf
  Hf5      1.0000 0.14209  0.45906  0.90005  Biso   1.000  Hf
  Hf6      1.0000 0.63789  0.45828  0.39546  Biso   1.000  Hf
  Hf7      1.0000 0.63853  0.45799  0.89737  Biso   1.000  Hf
  Hf8      1.0000 0.35375  0.53845  0.10473  Biso   1.000  Hf
  Hf9      1.0000 0.35922  0.54432  0.60372  Biso   1.000  Hf
  Hf10     1.0000 0.86386  0.53966  0.10426  Biso   1.000  Hf
  Hf11     1.0000 0.86006  0.54138  0.60354  Biso   1.000  Hf
  Hf12     1.0000 0.35659  0.95889  0.35018  Biso   1.000  Hf
  Hf13     1.0000 0.35772  0.95950  0.85737  Biso   1.000  Hf
  Hf14     1.0000 0.86241  0.95884  0.35194  Biso   1.000  Hf
  Hf15     1.0000 0.86048  0.95730  0.85467  Biso   1.000  Hf
  O1       1.0000 0.03556  0.33082  0.07912  Biso   1.000  O 
  O2       1.0000 0.03401  0.33536  0.58026  Biso   1.000  O 
  O3       1.0000 0.53404  0.33335  0.07929  Biso   1.000  O 
  O4       1.0000 0.53291  0.33411  0.57975  Biso   1.000  O 
  O5       1.0000 0.02957  0.17256  0.33346  Biso   1.000  O 
  O6       1.0000 0.03306  0.16786  0.82987  Biso   1.000  O 
  O7       1.0000 0.53309  0.16537  0.32894  Biso   1.000  O 
  O8       1.0000 0.53473  0.16608  0.82924  Biso   1.000  O 
  O9       1.0000 0.46728  0.82874  0.16999  Biso   1.000  O 
  O10      1.0000 0.46549  0.83346  0.67146  Biso   1.000  O 
  O11      1.0000 0.96462  0.82739  0.17256  Biso   1.000  O 
  O12      1.0000 0.96550  0.83482  0.67026  Biso   1.000  O 
  O13      1.0000 0.46496  0.66721  0.42080  Biso   1.000  O 
  O14      1.0000 0.46866  0.67249  0.92157  Biso   1.000  O 
  O15      1.0000 0.96644  0.66799  0.42110  Biso   1.000  O 
  O16      1.0000 0.96580  0.66636  0.92057  Biso   1.000  O 
  O17      1.0000 0.27833  0.25417  0.24166  Biso   1.000  O 
  O18      1.0000 0.27501  0.25779  0.73965  Biso   1.000  O 
  O19      1.0000 0.77490  0.25617  0.24076  Biso   1.000  O 
  O20      1.0000 0.77591  0.25707  0.74049  Biso   1.000  O 
  O21      1.0000 0.27550  0.24324  0.49093  Biso   1.000  O 
  O22      1.0000 0.28447  0.25490  0.98372  Biso   1.000  O 
  O23      1.0000 0.77432  0.24415  0.49115  Biso   1.000  O 
  O24      1.0000 0.77516  0.24009  0.99040  Biso   1.000  O 
  O25      1.0000 0.22603  0.75946  0.00720  Biso   1.000  O 
  O26      1.0000 0.22302  0.75870  0.50922  Biso   1.000  O 
  O27      1.0000 0.72520  0.75614  0.00905  Biso   1.000  O 
  O28      1.0000 0.72377  0.75739  0.50932  Biso   1.000  O 
  O29      1.0000 0.22504  0.73589  0.25987  Biso   1.000  O 
  O30      1.0000 0.22348  0.74420  0.75851  Biso   1.000  O 
  O31      1.0000 0.72164  0.74148  0.25972  Biso   1.000  O 
  O32      1.0000 0.72431  0.74248  0.75908  Biso   1.000  O 
