data_image0
_cell_length_a       4.99298
_cell_length_b       10.1584
_cell_length_c       9.98213
_cell_angle_alpha    90
_cell_angle_beta     90
_cell_angle_gamma    90

_symmetry_space_group_name_H-M    "P 1"
_symmetry_int_tables_number       1

loop_
  _symmetry_equiv_pos_as_xyz
  'x, y, z'

loop_
  _atom_site_label
  _atom_site_occupancy
  _atom_site_fract_x
  _atom_site_fract_y
  _atom_site_fract_z
  _atom_site_thermal_displace_type
  _atom_site_B_iso_or_equiv
  _atom_site_type_symbol
  Mn1      1.0000 0.24669  0.01876  0.12528  Biso   1.000  Mn
  Hf1      1.0000 0.23385  0.99826  0.62525  Biso   1.000  Hf
  Hf2      1.0000 0.24679  0.49646  0.12529  Biso   1.000  Hf
  Hf3      1.0000 0.23385  0.50359  0.62526  Biso   1.000  Hf
  Hf4      1.0000 0.24409  0.24942  0.37748  Biso   1.000  Hf
  Hf5      1.0000 0.22376  0.24945  0.87306  Biso   1.000  Hf
  Hf6      1.0000 0.22404  0.75211  0.36979  Biso   1.000  Hf
  Hf7      1.0000 0.24378  0.75216  0.88069  Biso   1.000  Hf
  Hf8      1.0000 0.74682  0.24829  0.12531  Biso   1.000  Hf
  Hf9      1.0000 0.73392  0.24819  0.62525  Biso   1.000  Hf
  Hf10     1.0000 0.74686  0.74280  0.12528  Biso   1.000  Hf
  Hf11     1.0000 0.73388  0.75304  0.62525  Biso   1.000  Hf
  Hf12     1.0000 0.72401  0.99830  0.37137  Biso   1.000  Hf
  Hf13     1.0000 0.74368  0.99835  0.87913  Biso   1.000  Hf
  Hf14     1.0000 0.73765  0.50115  0.37892  Biso   1.000  Hf
  Hf15     1.0000 0.73009  0.50116  0.87159  Biso   1.000  Hf
  O1       1.0000 0.95332  0.14838  0.98892  Biso   1.000  O 
  O2       1.0000 0.96099  0.14615  0.48323  Biso   1.000  O 
  O3       1.0000 0.98134  0.64869  0.99777  Biso   1.000  O 
  O4       1.0000 0.98683  0.64651  0.49718  Biso   1.000  O 
  O5       1.0000 0.01088  0.09251  0.23544  Biso   1.000  O 
  O6       1.0000 0.99509  0.10792  0.74118  Biso   1.000  O 
  O7       1.0000 0.98943  0.59837  0.24638  Biso   1.000  O 
  O8       1.0000 0.97666  0.60694  0.74565  Biso   1.000  O 
  O9       1.0000 0.99760  0.34799  0.25055  Biso   1.000  O 
  O10      1.0000 0.97629  0.35684  0.75221  Biso   1.000  O 
  O11      1.0000 0.91438  0.84208  0.27673  Biso   1.000  O 
  O12      1.0000 0.97830  0.85647  0.76707  Biso   1.000  O 
  O13      1.0000 0.99498  0.39683  0.00159  Biso   1.000  O 
  O14      1.0000 0.99050  0.39522  0.50218  Biso   1.000  O 
  O15      1.0000 0.06344  0.90619  0.02175  Biso   1.000  O 
  O16      1.0000 0.97707  0.89641  0.51375  Biso   1.000  O 
  O17      1.0000 0.51442  0.14834  0.26161  Biso   1.000  O 
  O18      1.0000 0.50684  0.14619  0.76729  Biso   1.000  O 
  O19      1.0000 0.48652  0.64864  0.25273  Biso   1.000  O 
  O20      1.0000 0.48088  0.64651  0.75332  Biso   1.000  O 
  O21      1.0000 0.48257  0.09248  0.01515  Biso   1.000  O 
  O22      1.0000 0.47273  0.10792  0.50936  Biso   1.000  O 
  O23      1.0000 0.50426  0.59834  0.00421  Biso   1.000  O 
  O24      1.0000 0.49103  0.60694  0.50484  Biso   1.000  O 
  O25      1.0000 0.49601  0.34795  0.00004  Biso   1.000  O 
  O26      1.0000 0.49147  0.35684  0.49832  Biso   1.000  O 
  O27      1.0000 0.55323  0.84219  0.97383  Biso   1.000  O 
  O28      1.0000 0.48936  0.85645  0.48348  Biso   1.000  O 
  O29      1.0000 0.49864  0.39689  0.24901  Biso   1.000  O 
  O30      1.0000 0.47724  0.39523  0.74835  Biso   1.000  O 
  O31      1.0000 0.42993  0.90627  0.22890  Biso   1.000  O 
  O32      1.0000 0.49059  0.89641  0.73680  Biso   1.000  O 
