data_image0
_cell_length_a       9.90521
_cell_length_b       10.3729
_cell_length_c       4.98585
_cell_angle_alpha    90
_cell_angle_beta     90
_cell_angle_gamma    90

_symmetry_space_group_name_H-M    "P 1"
_symmetry_int_tables_number       1

loop_
  _symmetry_equiv_pos_as_xyz
  'x, y, z'

loop_
  _atom_site_label
  _atom_site_occupancy
  _atom_site_fract_x
  _atom_site_fract_y
  _atom_site_fract_z
  _atom_site_thermal_displace_type
  _atom_site_B_iso_or_equiv
  _atom_site_type_symbol
  Mn1      1.0000 0.12392  0.03533  0.21905  Biso   1.000  Mn
  Hf1      1.0000 0.13248  0.51355  0.25247  Biso   1.000  Hf
  Hf2      1.0000 0.63141  0.01394  0.24433  Biso   1.000  Hf
  Hf3      1.0000 0.63107  0.51692  0.25343  Biso   1.000  Hf
  Hf4      1.0000 0.13456  0.22835  0.74104  Biso   1.000  Hf
  Hf5      1.0000 0.13419  0.72939  0.76493  Biso   1.000  Hf
  Hf6      1.0000 0.63454  0.22867  0.74914  Biso   1.000  Hf
  Hf7      1.0000 0.63305  0.73295  0.75127  Biso   1.000  Hf
  Hf8      1.0000 0.36415  0.26169  0.24589  Biso   1.000  Hf
  Hf9      1.0000 0.36107  0.76602  0.26277  Biso   1.000  Hf
  Hf10     1.0000 0.86338  0.26546  0.24465  Biso   1.000  Hf
  Hf11     1.0000 0.87026  0.76524  0.24087  Biso   1.000  Hf
  Hf12     1.0000 0.36757  0.47977  0.75146  Biso   1.000  Hf
  Hf13     1.0000 0.35443  0.97698  0.76082  Biso   1.000  Hf
  Hf14     1.0000 0.86502  0.48048  0.74894  Biso   1.000  Hf
  Hf15     1.0000 0.86444  0.98342  0.74234  Biso   1.000  Hf
  O1       1.0000 0.03506  0.18082  0.37789  Biso   1.000  O 
  O2       1.0000 0.03509  0.68337  0.39307  Biso   1.000  O 
  O3       1.0000 0.53243  0.18086  0.39348  Biso   1.000  O 
  O4       1.0000 0.53290  0.68205  0.39804  Biso   1.000  O 
  O5       1.0000 0.03908  0.06158  0.90693  Biso   1.000  O 
  O6       1.0000 0.03398  0.56040  0.89751  Biso   1.000  O 
  O7       1.0000 0.53543  0.06421  0.89696  Biso   1.000  O 
  O8       1.0000 0.53827  0.56307  0.88951  Biso   1.000  O 
  O9       1.0000 0.46239  0.43058  0.38570  Biso   1.000  O 
  O10      1.0000 0.46647  0.92942  0.41031  Biso   1.000  O 
  O11      1.0000 0.96350  0.42980  0.38932  Biso   1.000  O 
  O12      1.0000 0.98904  0.94209  0.37960  Biso   1.000  O 
  O13      1.0000 0.46488  0.31097  0.88772  Biso   1.000  O 
  O14      1.0000 0.46502  0.81595  0.90717  Biso   1.000  O 
  O15      1.0000 0.96402  0.30934  0.87879  Biso   1.000  O 
  O16      1.0000 0.96119  0.81410  0.87706  Biso   1.000  O 
  O17      1.0000 0.25612  0.10058  0.48174  Biso   1.000  O 
  O18      1.0000 0.26668  0.60707  0.50363  Biso   1.000  O 
  O19      1.0000 0.77107  0.11353  0.48886  Biso   1.000  O 
  O20      1.0000 0.77034  0.61471  0.49855  Biso   1.000  O 
  O21      1.0000 0.26793  0.12822  0.99266  Biso   1.000  O 
  O22      1.0000 0.26681  0.63406  0.00451  Biso   1.000  O 
  O23      1.0000 0.77486  0.12776  0.98853  Biso   1.000  O 
  O24      1.0000 0.76522  0.63657  0.00039  Biso   1.000  O 
  O25      1.0000 0.23061  0.37695  0.99533  Biso   1.000  O 
  O26      1.0000 0.21522  0.89190  0.04152  Biso   1.000  O 
  O27      1.0000 0.73131  0.37784  0.99799  Biso   1.000  O 
  O28      1.0000 0.73116  0.88073  0.99101  Biso   1.000  O 
  O29      1.0000 0.23086  0.35945  0.49600  Biso   1.000  O 
  O30      1.0000 0.24331  0.84774  0.54206  Biso   1.000  O 
  O31      1.0000 0.72748  0.36449  0.49667  Biso   1.000  O 
  O32      1.0000 0.73966  0.86477  0.48961  Biso   1.000  O 
