data_image0
_cell_length_a       9.99991
_cell_length_b       5.25095
_cell_length_c       10.0627
_cell_angle_alpha    90
_cell_angle_beta     90
_cell_angle_gamma    90

_symmetry_space_group_name_H-M    "P 1"
_symmetry_int_tables_number       1

loop_
  _symmetry_equiv_pos_as_xyz
  'x, y, z'

loop_
  _atom_site_label
  _atom_site_occupancy
  _atom_site_fract_x
  _atom_site_fract_y
  _atom_site_fract_z
  _atom_site_thermal_displace_type
  _atom_site_B_iso_or_equiv
  _atom_site_type_symbol
  Hf1      1.0000 0.13627  0.08422  0.12233  Biso   1.000  Hf
  Hf2      1.0000 0.14418  0.47554  0.38203  Biso   1.000  Hf
  Hf3      1.0000 0.37688  0.55511  0.12935  Biso   1.000  Hf
  Hf4      1.0000 0.37208  0.97812  0.37807  Biso   1.000  Hf
  O1       1.0000 0.02414  0.37543  0.21682  Biso   1.000  O 
  O2       1.0000 0.04652  0.13638  0.44527  Biso   1.000  O 
  O3       1.0000 0.47460  0.87425  0.20516  Biso   1.000  O 
  O4       1.0000 0.47331  0.64285  0.44853  Biso   1.000  O 
  O5       1.0000 0.28038  0.25016  0.25313  Biso   1.000  O 
  O6       1.0000 0.27989  0.27436  0.50472  Biso   1.000  O 
  O7       1.0000 0.23886  0.77487  0.50361  Biso   1.000  O 
  O8       1.0000 0.23555  0.74558  0.25377  Biso   1.000  O 
  Hf5      1.0000 0.14299  0.04062  0.62639  Biso   1.000  Hf
  Hf6      1.0000 0.12804  0.49090  0.85591  Biso   1.000  Hf
  Hf7      1.0000 0.37592  0.54342  0.62680  Biso   1.000  Hf
  Hf8      1.0000 0.39146  0.99229  0.86331  Biso   1.000  Hf
  O9       1.0000 0.03833  0.37097  0.68065  Biso   1.000  O 
  O10      1.0000 0.04120  0.16733  0.94046  Biso   1.000  O 
  O11      1.0000 0.47815  0.87549  0.68925  Biso   1.000  O 
  O12      1.0000 0.48124  0.66940  0.94374  Biso   1.000  O 
  O13      1.0000 0.27436  0.24779  0.75489  Biso   1.000  O 
  O14      1.0000 0.23834  0.36856  0.01088  Biso   1.000  O 
  O15      1.0000 0.25079  0.84214  0.00998  Biso   1.000  O 
  O16      1.0000 0.24470  0.75018  0.75237  Biso   1.000  O 
  Hf9      1.0000 0.63813  0.03616  0.12787  Biso   1.000  Hf
  Hf10     1.0000 0.63894  0.47702  0.37352  Biso   1.000  Hf
  Hf11     1.0000 0.85948  0.53049  0.12252  Biso   1.000  Hf
  Hf12     1.0000 0.87891  0.97510  0.37014  Biso   1.000  Hf
  O17      1.0000 0.54311  0.37386  0.19704  Biso   1.000  O 
  O18      1.0000 0.54139  0.14709  0.44719  Biso   1.000  O 
  O19      1.0000 0.97617  0.86023  0.18825  Biso   1.000  O 
  O20      1.0000 0.97524  0.64973  0.44686  Biso   1.000  O 
  O21      1.0000 0.77310  0.23249  0.24870  Biso   1.000  O 
  O22      1.0000 0.77825  0.28362  0.49593  Biso   1.000  O 
  O23      1.0000 0.74060  0.78596  0.49618  Biso   1.000  O 
  O24      1.0000 0.73776  0.74072  0.24977  Biso   1.000  O 
  Hf13     1.0000 0.64683  0.05341  0.62104  Biso   1.000  Hf
  Hf14     1.0000 0.64605  0.49531  0.87404  Biso   1.000  Hf
  Hf15     1.0000 0.87087  0.55482  0.62038  Biso   1.000  Hf
  Hf16     1.0000 0.87360  0.99538  0.87326  Biso   1.000  Hf
  O25      1.0000 0.53962  0.37125  0.70236  Biso   1.000  O 
  O26      1.0000 0.54050  0.17719  0.95435  Biso   1.000  O 
  O27      1.0000 0.97752  0.87061  0.70025  Biso   1.000  O 
  O28      1.0000 0.97410  0.67564  0.94710  Biso   1.000  O 
  O29      1.0000 0.77925  0.25990  0.74631  Biso   1.000  O 
  O30      1.0000 0.78145  0.30097  0.99611  Biso   1.000  O 
  O31      1.0000 0.73644  0.80241  0.99845  Biso   1.000  O 
  O32      1.0000 0.73637  0.76006  0.74564  Biso   1.000  O 
  Mn1      1.0000 0.11335  0.61853  0.09790  Biso   1.000  Mn
