data_image0
_cell_length_a       5.08624
_cell_length_b       10.3453
_cell_length_c       10.3987
_cell_angle_alpha    90
_cell_angle_beta     80
_cell_angle_gamma    90

_symmetry_space_group_name_H-M    "P 1"
_symmetry_int_tables_number       1

loop_
  _symmetry_equiv_pos_as_xyz
  'x, y, z'

loop_
  _atom_site_label
  _atom_site_occupancy
  _atom_site_fract_x
  _atom_site_fract_y
  _atom_site_fract_z
  _atom_site_thermal_displace_type
  _atom_site_B_iso_or_equiv
  _atom_site_type_symbol
  Hf1      1.0000 0.27433  0.01921  0.15154  Biso   1.000  Hf
  Hf2      1.0000 0.31285  0.22790  0.39638  Biso   1.000  Hf
  Hf3      1.0000 0.69720  0.27784  0.10331  Biso   1.000  Hf
  Hf4      1.0000 0.71751  0.46810  0.34613  Biso   1.000  Hf
  O1       1.0000 0.05020  0.18084  0.11612  Biso   1.000  O 
  O2       1.0000 0.10366  0.05974  0.34786  Biso   1.000  O 
  O3       1.0000 0.90546  0.43478  0.15499  Biso   1.000  O 
  O4       1.0000 0.95629  0.32865  0.41780  Biso   1.000  O 
  O5       1.0000 0.55778  0.12430  0.23717  Biso   1.000  O 
  O6       1.0000 0.61275  0.12320  0.47631  Biso   1.000  O 
  O7       1.0000 0.42709  0.38493  0.00413  Biso   1.000  O 
  O8       1.0000 0.41325  0.37641  0.25183  Biso   1.000  O 
  Hf5      1.0000 0.28279  0.01261  0.64847  Biso   1.000  Hf
  Hf6      1.0000 0.28801  0.22389  0.89413  Biso   1.000  Hf
  Hf7      1.0000 0.74415  0.26494  0.60522  Biso   1.000  Hf
  Hf8      1.0000 0.73275  0.47072  0.85354  Biso   1.000  Hf
  O9       1.0000 0.10417  0.16764  0.58470  Biso   1.000  O 
  O10      1.0000 0.08398  0.06879  0.83859  Biso   1.000  O 
  O11      1.0000 0.93930  0.41478  0.66816  Biso   1.000  O 
  O12      1.0000 0.93337  0.31572  0.91533  Biso   1.000  O 
  O13      1.0000 0.56394  0.12086  0.73800  Biso   1.000  O 
  O14      1.0000 0.54614  0.11295  0.99013  Biso   1.000  O 
  O15      1.0000 0.46683  0.37303  0.51148  Biso   1.000  O 
  O16      1.0000 0.46019  0.36026  0.75744  Biso   1.000  O 
  Hf9      1.0000 0.26214  0.52426  0.14450  Biso   1.000  Hf
  Hf10     1.0000 0.27506  0.71895  0.39673  Biso   1.000  Hf
  Hf11     1.0000 0.70670  0.76920  0.10386  Biso   1.000  Hf
  Hf12     1.0000 0.72072  0.96159  0.35437  Biso   1.000  Hf
  O17      1.0000 0.06410  0.67930  0.08315  Biso   1.000  O 
  O18      1.0000 0.06235  0.57574  0.33149  Biso   1.000  O 
  O19      1.0000 0.91699  0.91953  0.16782  Biso   1.000  O 
  O20      1.0000 0.92439  0.81700  0.42137  Biso   1.000  O 
  O21      1.0000 0.54492  0.62691  0.24120  Biso   1.000  O 
  O22      1.0000 0.55056  0.61378  0.49079  Biso   1.000  O 
  O23      1.0000 0.43447  0.88237  0.01078  Biso   1.000  O 
  O24      1.0000 0.43494  0.86347  0.25877  Biso   1.000  O 
  Hf13     1.0000 0.28863  0.51480  0.64528  Biso   1.000  Hf
  Hf14     1.0000 0.28043  0.72076  0.89608  Biso   1.000  Hf
  Hf15     1.0000 0.72453  0.76231  0.60466  Biso   1.000  Hf
  Hf16     1.0000 0.72099  0.96991  0.85571  Biso   1.000  Hf
  O25      1.0000 0.07481  0.66343  0.58561  Biso   1.000  O 
  O26      1.0000 0.08361  0.56829  0.83387  Biso   1.000  O 
  O27      1.0000 0.92729  0.91455  0.66985  Biso   1.000  O 
  O28      1.0000 0.92935  0.81904  0.91508  Biso   1.000  O 
  O29      1.0000 0.56034  0.61973  0.74125  Biso   1.000  O 
  O30      1.0000 0.56098  0.61243  0.98914  Biso   1.000  O 
  O31      1.0000 0.44481  0.87509  0.51197  Biso   1.000  O 
  O32      1.0000 0.44988  0.86245  0.75970  Biso   1.000  O 
  Mn1      1.0000 0.84853  0.19297  0.30849  Biso   1.000  Mn
