data_image0
_cell_length_a       10.0856
_cell_length_b       10.2514
_cell_length_c       5.26349
_cell_angle_alpha    90
_cell_angle_beta     90
_cell_angle_gamma    90

_symmetry_space_group_name_H-M    "P 1"
_symmetry_int_tables_number       1

loop_
  _symmetry_equiv_pos_as_xyz
  'x, y, z'

loop_
  _atom_site_label
  _atom_site_occupancy
  _atom_site_fract_x
  _atom_site_fract_y
  _atom_site_fract_z
  _atom_site_thermal_displace_type
  _atom_site_B_iso_or_equiv
  _atom_site_type_symbol
  Hf1      1.0000 0.13864  0.02065  0.34009  Biso   1.000  Hf
  Hf2      1.0000 0.13536  0.23131  0.83592  Biso   1.000  Hf
  Hf3      1.0000 0.35682  0.27028  0.34978  Biso   1.000  Hf
  Hf4      1.0000 0.35580  0.48376  0.84502  Biso   1.000  Hf
  Hf5      1.0000 0.63673  0.02095  0.14437  Biso   1.000  Hf
  Hf6      1.0000 0.62864  0.23235  0.69428  Biso   1.000  Hf
  Hf7      1.0000 0.87395  0.26980  0.15042  Biso   1.000  Hf
  Hf8      1.0000 0.85945  0.48523  0.66034  Biso   1.000  Hf
  O1       1.0000 0.03731  0.15976  0.14969  Biso   1.000  O 
  O2       1.0000 0.02608  0.09432  0.64631  Biso   1.000  O 
  O3       1.0000 0.47714  0.40755  0.16815  Biso   1.000  O 
  O4       1.0000 0.45736  0.33708  0.67699  Biso   1.000  O 
  O5       1.0000 0.26902  0.12530  0.59030  Biso   1.000  O 
  O6       1.0000 0.27721  0.12420  0.08703  Biso   1.000  O 
  O7       1.0000 0.21875  0.37673  0.58979  Biso   1.000  O 
  O8       1.0000 0.22695  0.37645  0.08978  Biso   1.000  O 
  O9       1.0000 0.51240  0.14492  0.35498  Biso   1.000  O 
  O10      1.0000 0.52336  0.07737  0.82678  Biso   1.000  O 
  O11      1.0000 0.96551  0.41654  0.33755  Biso   1.000  O 
  O12      1.0000 0.96527  0.34287  0.83157  Biso   1.000  O 
  O13      1.0000 0.78287  0.12118  0.89424  Biso   1.000  O 
  O14      1.0000 0.75490  0.14791  0.38989  Biso   1.000  O 
  O15      1.0000 0.71657  0.37653  0.94556  Biso   1.000  O 
  O16      1.0000 0.71554  0.39350  0.44455  Biso   1.000  O 
  Hf9      1.0000 0.13735  0.52259  0.34207  Biso   1.000  Hf
  Hf10     1.0000 0.13335  0.73243  0.84220  Biso   1.000  Hf
  Hf11     1.0000 0.36072  0.77155  0.34564  Biso   1.000  Hf
  Hf12     1.0000 0.35628  0.97834  0.84534  Biso   1.000  Hf
  Hf13     1.0000 0.64388  0.53210  0.16185  Biso   1.000  Hf
  Hf14     1.0000 0.63618  0.73422  0.65595  Biso   1.000  Hf
  Hf15     1.0000 0.86443  0.77573  0.15524  Biso   1.000  Hf
  Hf16     1.0000 0.86077  0.98244  0.65082  Biso   1.000  Hf
  O17      1.0000 0.03324  0.66433  0.15778  Biso   1.000  O 
  O18      1.0000 0.02890  0.59225  0.65644  Biso   1.000  O 
  O19      1.0000 0.46882  0.90694  0.16000  Biso   1.000  O 
  O20      1.0000 0.46365  0.83672  0.66242  Biso   1.000  O 
  O21      1.0000 0.27216  0.62482  0.59235  Biso   1.000  O 
  O22      1.0000 0.27777  0.62400  0.09252  Biso   1.000  O 
  O23      1.0000 0.22098  0.87454  0.59096  Biso   1.000  O 
  O24      1.0000 0.22400  0.87379  0.09167  Biso   1.000  O 
  O25      1.0000 0.52994  0.66342  0.34438  Biso   1.000  O 
  O26      1.0000 0.52684  0.59265  0.84259  Biso   1.000  O 
  O27      1.0000 0.96856  0.91816  0.32848  Biso   1.000  O 
  O28      1.0000 0.96428  0.84345  0.83135  Biso   1.000  O 
  O29      1.0000 0.77261  0.62892  0.90672  Biso   1.000  O 
  O30      1.0000 0.77878  0.63687  0.40856  Biso   1.000  O 
  O31      1.0000 0.71990  0.87640  0.90758  Biso   1.000  O 
  O32      1.0000 0.72557  0.88235  0.40956  Biso   1.000  O 
  Mn1      1.0000 0.62045  0.27534  0.21989  Biso   1.000  Mn
