data_image0
_cell_length_a       10.0763
_cell_length_b       10.3435
_cell_length_c       5.05608
_cell_angle_alpha    90
_cell_angle_beta     90
_cell_angle_gamma    90

_symmetry_space_group_name_H-M    "P 1"
_symmetry_int_tables_number       1

loop_
  _symmetry_equiv_pos_as_xyz
  'x, y, z'

loop_
  _atom_site_label
  _atom_site_occupancy
  _atom_site_fract_x
  _atom_site_fract_y
  _atom_site_fract_z
  _atom_site_thermal_displace_type
  _atom_site_B_iso_or_equiv
  _atom_site_type_symbol
  Hf1      1.0000 0.10774  0.96400  0.21698  Biso   1.000  Hf
  Hf2      1.0000 0.15105  0.29155  0.75626  Biso   1.000  Hf
  Hf3      1.0000 0.39090  0.26888  0.28918  Biso   1.000  Hf
  Hf4      1.0000 0.36147  0.00819  0.75345  Biso   1.000  Hf
  O1       1.0000 0.04583  0.15762  0.97420  Biso   1.000  O 
  O2       1.0000 0.00251  0.08945  0.45084  Biso   1.000  O 
  O3       1.0000 0.03560  0.33382  0.43831  Biso   1.000  O 
  O4       1.0000 0.01559  0.41057  0.97370  Biso   1.000  O 
  O5       1.0000 0.27293  0.16525  0.56381  Biso   1.000  O 
  O6       1.0000 0.27205  0.09049  0.07509  Biso   1.000  O 
  O7       1.0000 0.26512  0.35524  0.00882  Biso   1.000  O 
  O8       1.0000 0.27200  0.42233  0.50163  Biso   1.000  O 
  Hf5      1.0000 0.12666  0.50250  0.24897  Biso   1.000  Hf
  Hf6      1.0000 0.12347  0.74197  0.72423  Biso   1.000  Hf
  Hf7      1.0000 0.37493  0.77079  0.25389  Biso   1.000  Hf
  Hf8      1.0000 0.39885  0.51356  0.77768  Biso   1.000  Hf
  O9       1.0000 0.97346  0.64273  0.01771  Biso   1.000  O 
  O10      1.0000 0.01008  0.58326  0.53360  Biso   1.000  O 
  O11      1.0000 0.98806  0.83631  0.46581  Biso   1.000  O 
  O12      1.0000 0.99732  0.89744  0.95271  Biso   1.000  O 
  O13      1.0000 0.23035  0.66445  0.41055  Biso   1.000  O 
  O14      1.0000 0.23206  0.59776  0.91302  Biso   1.000  O 
  O15      1.0000 0.25493  0.85162  0.97970  Biso   1.000  O 
  O16      1.0000 0.24003  0.90319  0.50154  Biso   1.000  O 
  Hf9      1.0000 0.62090  0.01960  0.25304  Biso   1.000  Hf
  Hf10     1.0000 0.65899  0.25424  0.75268  Biso   1.000  Hf
  Hf11     1.0000 0.88923  0.24336  0.21972  Biso   1.000  Hf
  Hf12     1.0000 0.87196  0.99853  0.70821  Biso   1.000  Hf
  O17      1.0000 0.52862  0.17438  0.06082  Biso   1.000  O 
  O18      1.0000 0.51793  0.11629  0.55079  Biso   1.000  O 
  O19      1.0000 0.52149  0.36938  0.56200  Biso   1.000  O 
  O20      1.0000 0.49259  0.42602  0.06964  Biso   1.000  O 
  O21      1.0000 0.76047  0.14960  0.48030  Biso   1.000  O 
  O22      1.0000 0.78810  0.11606  0.98002  Biso   1.000  O 
  O23      1.0000 0.74426  0.35908  0.02436  Biso   1.000  O 
  O24      1.0000 0.77646  0.39769  0.52237  Biso   1.000  O 
  Hf13     1.0000 0.63651  0.49551  0.30180  Biso   1.000  Hf
  Hf14     1.0000 0.62181  0.76614  0.73357  Biso   1.000  Hf
  Hf15     1.0000 0.84764  0.75884  0.21831  Biso   1.000  Hf
  Hf16     1.0000 0.87298  0.51957  0.78889  Biso   1.000  Hf
  O25      1.0000 0.47977  0.68253  0.95402  Biso   1.000  O 
  O26      1.0000 0.50109  0.62260  0.47557  Biso   1.000  O 
  O27      1.0000 0.49278  0.87381  0.50857  Biso   1.000  O 
  O28      1.0000 0.47937  0.91837  0.01409  Biso   1.000  O 
  O29      1.0000 0.75372  0.65094  0.51820  Biso   1.000  O 
  O30      1.0000 0.71889  0.61334  0.01775  Biso   1.000  O 
  O31      1.0000 0.74716  0.87018  0.97169  Biso   1.000  O 
  O32      1.0000 0.74134  0.90148  0.47088  Biso   1.000  O 
  Mn1      1.0000 0.14562  0.19186  0.27119  Biso   1.000  Mn
