data_image0
_cell_length_a       4.95572
_cell_length_b       10.3717
_cell_length_c       9.96383
_cell_angle_alpha    90
_cell_angle_beta     90
_cell_angle_gamma    90

_symmetry_space_group_name_H-M    "P 1"
_symmetry_int_tables_number       1

loop_
  _symmetry_equiv_pos_as_xyz
  'x, y, z'

loop_
  _atom_site_label
  _atom_site_occupancy
  _atom_site_fract_x
  _atom_site_fract_y
  _atom_site_fract_z
  _atom_site_thermal_displace_type
  _atom_site_B_iso_or_equiv
  _atom_site_type_symbol
  Mn1      1.0000 0.24449  0.03450  0.11066  Biso   1.000  Mn
  Hf1      1.0000 0.28037  0.00848  0.62470  Biso   1.000  Hf
  Hf2      1.0000 0.26253  0.51314  0.12763  Biso   1.000  Hf
  Hf3      1.0000 0.27911  0.51093  0.62478  Biso   1.000  Hf
  Hf4      1.0000 0.27377  0.22318  0.37225  Biso   1.000  Hf
  Hf5      1.0000 0.28138  0.22733  0.87273  Biso   1.000  Hf
  Hf6      1.0000 0.28052  0.72906  0.37731  Biso   1.000  Hf
  Hf7      1.0000 0.27630  0.72772  0.88041  Biso   1.000  Hf
  Hf8      1.0000 0.72645  0.26062  0.12126  Biso   1.000  Hf
  Hf9      1.0000 0.74363  0.25900  0.62333  Biso   1.000  Hf
  Hf10     1.0000 0.73746  0.76016  0.12207  Biso   1.000  Hf
  Hf11     1.0000 0.74312  0.76224  0.62801  Biso   1.000  Hf
  Hf12     1.0000 0.73897  0.47651  0.37571  Biso   1.000  Hf
  Hf13     1.0000 0.74471  0.47689  0.87400  Biso   1.000  Hf
  Hf14     1.0000 0.73111  0.97847  0.37158  Biso   1.000  Hf
  Hf15     1.0000 0.72094  0.97531  0.88132  Biso   1.000  Hf
  O1       1.0000 0.06530  0.17759  0.19224  Biso   1.000  O 
  O2       1.0000 0.08483  0.17705  0.69471  Biso   1.000  O 
  O3       1.0000 0.07402  0.68337  0.19808  Biso   1.000  O 
  O4       1.0000 0.08099  0.67695  0.69742  Biso   1.000  O 
  O5       1.0000 0.08470  0.05976  0.44733  Biso   1.000  O 
  O6       1.0000 0.08087  0.06003  0.95505  Biso   1.000  O 
  O7       1.0000 0.08117  0.55931  0.44403  Biso   1.000  O 
  O8       1.0000 0.07991  0.55909  0.94978  Biso   1.000  O 
  O9       1.0000 0.92906  0.42636  0.19409  Biso   1.000  O 
  O10      1.0000 0.93869  0.42697  0.69296  Biso   1.000  O 
  O11      1.0000 0.98171  0.93826  0.18744  Biso   1.000  O 
  O12      1.0000 0.93090  0.92869  0.70068  Biso   1.000  O 
  O13      1.0000 0.93872  0.30842  0.44259  Biso   1.000  O 
  O14      1.0000 0.93849  0.30638  0.94081  Biso   1.000  O 
  O15      1.0000 0.94530  0.81492  0.45000  Biso   1.000  O 
  O16      1.0000 0.92486  0.80827  0.93929  Biso   1.000  O 
  O17      1.0000 0.52016  0.09660  0.23549  Biso   1.000  O 
  O18      1.0000 0.55564  0.10985  0.74780  Biso   1.000  O 
  O19      1.0000 0.54161  0.60318  0.24862  Biso   1.000  O 
  O20      1.0000 0.54952  0.61169  0.75150  Biso   1.000  O 
  O21      1.0000 0.55901  0.12621  0.49235  Biso   1.000  O 
  O22      1.0000 0.54116  0.12365  0.99737  Biso   1.000  O 
  O23      1.0000 0.55308  0.62726  0.50060  Biso   1.000  O 
  O24      1.0000 0.52332  0.63593  0.00057  Biso   1.000  O 
  O25      1.0000 0.46727  0.37502  0.49860  Biso   1.000  O 
  O26      1.0000 0.47549  0.37324  0.99758  Biso   1.000  O 
  O27      1.0000 0.46936  0.87829  0.50375  Biso   1.000  O 
  O28      1.0000 0.42583  0.89283  0.01429  Biso   1.000  O 
  O29      1.0000 0.46283  0.35599  0.24764  Biso   1.000  O 
  O30      1.0000 0.47031  0.36088  0.74805  Biso   1.000  O 
  O31      1.0000 0.51963  0.84454  0.26187  Biso   1.000  O 
  O32      1.0000 0.46133  0.86088  0.75501  Biso   1.000  O 
