data_image0
_cell_length_a       5.05605
_cell_length_b       10.3437
_cell_length_c       10.0763
_cell_angle_alpha    90
_cell_angle_beta     90
_cell_angle_gamma    90

_symmetry_space_group_name_H-M    "P 1"
_symmetry_int_tables_number       1

loop_
  _symmetry_equiv_pos_as_xyz
  'x, y, z'

loop_
  _atom_site_label
  _atom_site_occupancy
  _atom_site_fract_x
  _atom_site_fract_y
  _atom_site_fract_z
  _atom_site_thermal_displace_type
  _atom_site_B_iso_or_equiv
  _atom_site_type_symbol
  Hf1      1.0000 0.27783  0.95968  0.11464  Biso   1.000  Hf
  Hf2      1.0000 0.33843  0.26032  0.38732  Biso   1.000  Hf
  Hf3      1.0000 0.78445  0.28022  0.13733  Biso   1.000  Hf
  Hf4      1.0000 0.83887  0.99391  0.35635  Biso   1.000  Hf
  O1       1.0000 0.98539  0.14499  0.02554  Biso   1.000  O 
  O2       1.0000 0.10426  0.08620  0.27125  Biso   1.000  O 
  O3       1.0000 0.05169  0.35175  0.26916  Biso   1.000  O 
  O4       1.0000 0.08588  0.38533  0.99740  Biso   1.000  O 
  O5       1.0000 0.59641  0.15482  0.26191  Biso   1.000  O 
  O6       1.0000 0.54537  0.07101  0.99233  Biso   1.000  O 
  O7       1.0000 0.45876  0.32792  0.02982  Biso   1.000  O 
  O8       1.0000 0.54804  0.41258  0.26557  Biso   1.000  O 
  Hf5      1.0000 0.30978  0.00863  0.61479  Biso   1.000  Hf
  Hf6      1.0000 0.31262  0.22923  0.88637  Biso   1.000  Hf
  Hf7      1.0000 0.82468  0.23644  0.64433  Biso   1.000  Hf
  Hf8      1.0000 0.83919  0.97822  0.86716  Biso   1.000  Hf
  O9       1.0000 0.11776  0.16697  0.52894  Biso   1.000  O 
  O10      1.0000 0.05598  0.09379  0.76634  Biso   1.000  O 
  O11      1.0000 0.11064  0.34920  0.74746  Biso   1.000  O 
  O12      1.0000 0.13675  0.41883  0.49585  Biso   1.000  O 
  O13      1.0000 0.55626  0.13392  0.75062  Biso   1.000  O 
  O14      1.0000 0.60299  0.10290  0.50633  Biso   1.000  O 
  O15      1.0000 0.62801  0.35569  0.51276  Biso   1.000  O 
  O16      1.0000 0.61293  0.38117  0.76870  Biso   1.000  O 
  Hf9      1.0000 0.28686  0.49773  0.12718  Biso   1.000  Hf
  Hf10     1.0000 0.32848  0.76268  0.37836  Biso   1.000  Hf
  Hf11     1.0000 0.77391  0.73122  0.11605  Biso   1.000  Hf
  Hf12     1.0000 0.84000  0.49871  0.38708  Biso   1.000  Hf
  O17      1.0000 0.13977  0.62985  0.98006  Biso   1.000  O 
  O18      1.0000 0.96460  0.58333  0.21842  Biso   1.000  O 
  O19      1.0000 0.04680  0.83596  0.24282  Biso   1.000  O 
  O20      1.0000 0.08924  0.87252  0.98556  Biso   1.000  O 
  O21      1.0000 0.46624  0.65626  0.22906  Biso   1.000  O 
  O22      1.0000 0.56493  0.57639  0.00522  Biso   1.000  O 
  O23      1.0000 0.59890  0.81757  0.98673  Biso   1.000  O 
  O24      1.0000 0.57068  0.89365  0.23953  Biso   1.000  O 
  Hf13     1.0000 0.38527  0.48352  0.63516  Biso   1.000  Hf
  Hf14     1.0000 0.33485  0.74504  0.85119  Biso   1.000  Hf
  Hf15     1.0000 0.82942  0.74878  0.61394  Biso   1.000  Hf
  Hf16     1.0000 0.89427  0.49843  0.86053  Biso   1.000  Hf
  O25      1.0000 0.03241  0.66440  0.46594  Biso   1.000  O 
  O26      1.0000 0.11522  0.60375  0.72539  Biso   1.000  O 
  O27      1.0000 0.08410  0.84824  0.73490  Biso   1.000  O 
  O28      1.0000 0.10645  0.91189  0.48990  Biso   1.000  O 
  O29      1.0000 0.62013  0.63465  0.74921  Biso   1.000  O 
  O30      1.0000 0.55335  0.61014  0.49750  Biso   1.000  O 
  O31      1.0000 0.59905  0.86094  0.49148  Biso   1.000  O 
  O32      1.0000 0.58511  0.88584  0.74099  Biso   1.000  O 
  Mn1      1.0000 0.29416  0.18670  0.14174  Biso   1.000  Mn
