data_image0
_cell_length_a       10.053
_cell_length_b       10.2424
_cell_length_c       10.4845
_cell_angle_alpha    90
_cell_angle_beta     90
_cell_angle_gamma    90

_symmetry_space_group_name_H-M    "P 1"
_symmetry_int_tables_number       1

loop_
  _symmetry_equiv_pos_as_xyz
  'x, y, z'

loop_
  _atom_site_label
  _atom_site_occupancy
  _atom_site_fract_x
  _atom_site_fract_y
  _atom_site_fract_z
  _atom_site_thermal_displace_type
  _atom_site_B_iso_or_equiv
  _atom_site_type_symbol
  Hf1      1.0000 0.13873  0.02077  0.17142  Biso   1.000  Hf
  Hf2      1.0000 0.13357  0.23202  0.42237  Biso   1.000  Hf
  Hf3      1.0000 0.35533  0.26987  0.17549  Biso   1.000  Hf
  Hf4      1.0000 0.35828  0.48311  0.42349  Biso   1.000  Hf
  Hf5      1.0000 0.63679  0.02006  0.06922  Biso   1.000  Hf
  Hf6      1.0000 0.63126  0.23388  0.33776  Biso   1.000  Hf
  Hf7      1.0000 0.87393  0.27218  0.07441  Biso   1.000  Hf
  Hf8      1.0000 0.86054  0.48280  0.33068  Biso   1.000  Hf
  O1       1.0000 0.03871  0.16341  0.07913  Biso   1.000  O 
  O2       1.0000 0.02535  0.09253  0.32781  Biso   1.000  O 
  O3       1.0000 0.47686  0.40608  0.08250  Biso   1.000  O 
  O4       1.0000 0.46009  0.33730  0.33658  Biso   1.000  O 
  O5       1.0000 0.26914  0.12562  0.29714  Biso   1.000  O 
  O6       1.0000 0.27829  0.12393  0.04361  Biso   1.000  O 
  O7       1.0000 0.21950  0.37621  0.29616  Biso   1.000  O 
  O8       1.0000 0.22717  0.37634  0.04476  Biso   1.000  O 
  O9       1.0000 0.51254  0.14383  0.17840  Biso   1.000  O 
  O10      1.0000 0.52667  0.08907  0.42442  Biso   1.000  O 
  O11      1.0000 0.96851  0.41660  0.16890  Biso   1.000  O 
  O12      1.0000 0.96372  0.33991  0.41948  Biso   1.000  O 
  O13      1.0000 0.77450  0.12534  0.45352  Biso   1.000  O 
  O14      1.0000 0.75539  0.14644  0.19302  Biso   1.000  O 
  O15      1.0000 0.72092  0.37666  0.46119  Biso   1.000  O 
  O16      1.0000 0.72112  0.39076  0.21234  Biso   1.000  O 
  Hf9      1.0000 0.13483  0.02441  0.67041  Biso   1.000  Hf
  Hf10     1.0000 0.13771  0.23177  0.91826  Biso   1.000  Hf
  Hf11     1.0000 0.35965  0.27406  0.67174  Biso   1.000  Hf
  Hf12     1.0000 0.35669  0.48291  0.92037  Biso   1.000  Hf
  Hf13     1.0000 0.63430  0.02519  0.58060  Biso   1.000  Hf
  Hf14     1.0000 0.63459  0.23002  0.83502  Biso   1.000  Hf
  Hf15     1.0000 0.85694  0.27383  0.58141  Biso   1.000  Hf
  Hf16     1.0000 0.85737  0.48380  0.82905  Biso   1.000  Hf
  O17      1.0000 0.02842  0.16754  0.58216  Biso   1.000  O 
  O18      1.0000 0.03106  0.08886  0.83085  Biso   1.000  O 
  O19      1.0000 0.46400  0.41957  0.58494  Biso   1.000  O 
  O20      1.0000 0.46234  0.33828  0.83551  Biso   1.000  O 
  O21      1.0000 0.27308  0.12698  0.79368  Biso   1.000  O 
  O22      1.0000 0.27177  0.12945  0.54526  Biso   1.000  O 
  O23      1.0000 0.22057  0.37767  0.79441  Biso   1.000  O 
  O24      1.0000 0.22047  0.37953  0.54545  Biso   1.000  O 
  O25      1.0000 0.52991  0.16977  0.66816  Biso   1.000  O 
  O26      1.0000 0.52791  0.07583  0.90448  Biso   1.000  O 
  O27      1.0000 0.96255  0.41912  0.66704  Biso   1.000  O 
  O28      1.0000 0.96615  0.34092  0.91347  Biso   1.000  O 
  O29      1.0000 0.78369  0.12275  0.94832  Biso   1.000  O 
  O30      1.0000 0.77247  0.12907  0.70316  Biso   1.000  O 
  O31      1.0000 0.71724  0.37694  0.96541  Biso   1.000  O 
  O32      1.0000 0.72017  0.37993  0.71139  Biso   1.000  O 
  Hf17     1.0000 0.13939  0.52280  0.17226  Biso   1.000  Hf
  Hf18     1.0000 0.13591  0.73221  0.42139  Biso   1.000  Hf
  Hf19     1.0000 0.36084  0.77266  0.17239  Biso   1.000  Hf
  Hf20     1.0000 0.36013  0.98130  0.42355  Biso   1.000  Hf
  Hf21     1.0000 0.64376  0.53198  0.07947  Biso   1.000  Hf
  Hf22     1.0000 0.63781  0.73325  0.32932  Biso   1.000  Hf
  Hf23     1.0000 0.86457  0.77488  0.07841  Biso   1.000  Hf
  Hf24     1.0000 0.85943  0.98205  0.32783  Biso   1.000  Hf
  O33      1.0000 0.03461  0.66554  0.08267  Biso   1.000  O 
  O34      1.0000 0.03137  0.58935  0.33201  Biso   1.000  O 
  O35      1.0000 0.46766  0.90927  0.07884  Biso   1.000  O 
  O36      1.0000 0.46641  0.83946  0.33251  Biso   1.000  O 
  O37      1.0000 0.27426  0.62632  0.29629  Biso   1.000  O 
  O38      1.0000 0.27952  0.62402  0.04595  Biso   1.000  O 
  O39      1.0000 0.22258  0.87572  0.29578  Biso   1.000  O 
  O40      1.0000 0.22293  0.87430  0.04583  Biso   1.000  O 
  O41      1.0000 0.53115  0.66501  0.17043  Biso   1.000  O 
  O42      1.0000 0.53075  0.58915  0.41868  Biso   1.000  O 
  O43      1.0000 0.96669  0.91962  0.16593  Biso   1.000  O 
  O44      1.0000 0.96389  0.84071  0.41509  Biso   1.000  O 
  O45      1.0000 0.77398  0.62691  0.45505  Biso   1.000  O 
  O46      1.0000 0.77871  0.63563  0.20550  Biso   1.000  O 
  O47      1.0000 0.72121  0.87720  0.45539  Biso   1.000  O 
  O48      1.0000 0.72493  0.88270  0.20517  Biso   1.000  O 
  Hf25     1.0000 0.13432  0.52422  0.67088  Biso   1.000  Hf
  Hf26     1.0000 0.13417  0.73247  0.92149  Biso   1.000  Hf
  Hf27     1.0000 0.35818  0.77335  0.67161  Biso   1.000  Hf
  Hf28     1.0000 0.35562  0.97971  0.92005  Biso   1.000  Hf
  Hf29     1.0000 0.63610  0.52424  0.58001  Biso   1.000  Hf
  Hf30     1.0000 0.63474  0.73335  0.82725  Biso   1.000  Hf
  Hf31     1.0000 0.85809  0.77517  0.57822  Biso   1.000  Hf
  Hf32     1.0000 0.86001  0.98235  0.82655  Biso   1.000  Hf
  O49      1.0000 0.02909  0.66823  0.58121  Biso   1.000  O 
  O50      1.0000 0.02819  0.58997  0.83144  Biso   1.000  O 
  O51      1.0000 0.46471  0.91689  0.58482  Biso   1.000  O 
  O52      1.0000 0.46130  0.83422  0.83275  Biso   1.000  O 
  O53      1.0000 0.27213  0.62578  0.79515  Biso   1.000  O 
  O54      1.0000 0.27197  0.62943  0.54545  Biso   1.000  O 
  O55      1.0000 0.21957  0.87607  0.79446  Biso   1.000  O 
  O56      1.0000 0.22156  0.87901  0.54464  Biso   1.000  O 
  O57      1.0000 0.52941  0.66758  0.66726  Biso   1.000  O 
  O58      1.0000 0.52809  0.59035  0.91833  Biso   1.000  O 
  O59      1.0000 0.96584  0.91803  0.66396  Biso   1.000  O 
  O60      1.0000 0.96492  0.83997  0.91657  Biso   1.000  O 
  O61      1.0000 0.77347  0.62940  0.95406  Biso   1.000  O 
  O62      1.0000 0.77342  0.63000  0.70455  Biso   1.000  O 
  O63      1.0000 0.72031  0.87605  0.95350  Biso   1.000  O 
  O64      1.0000 0.72132  0.87885  0.70465  Biso   1.000  O 
  Mn1      1.0000 0.61798  0.27380  0.10438  Biso   1.000  Mn
