data_image0
_cell_length_a       10.1632
_cell_length_b       10.235
_cell_length_c       5.28799
_cell_angle_alpha    90
_cell_angle_beta     80
_cell_angle_gamma    90

_symmetry_space_group_name_H-M    "P 1"
_symmetry_int_tables_number       1

loop_
  _symmetry_equiv_pos_as_xyz
  'x, y, z'

loop_
  _atom_site_label
  _atom_site_occupancy
  _atom_site_fract_x
  _atom_site_fract_y
  _atom_site_fract_z
  _atom_site_thermal_displace_type
  _atom_site_B_iso_or_equiv
  _atom_site_type_symbol
  Hf1      1.0000 0.13634  0.02315  0.29645  Biso   1.000  Hf
  Hf2      1.0000 0.14173  0.23670  0.78290  Biso   1.000  Hf
  Hf3      1.0000 0.35321  0.27543  0.19476  Biso   1.000  Hf
  Hf4      1.0000 0.34722  0.48163  0.70962  Biso   1.000  Hf
  O1       1.0000 0.03919  0.16753  0.14905  Biso   1.000  O 
  O2       1.0000 0.03632  0.08772  0.64963  Biso   1.000  O 
  O3       1.0000 0.46967  0.38358  0.39929  Biso   1.000  O 
  O4       1.0000 0.47789  0.35655  0.87324  Biso   1.000  O 
  O5       1.0000 0.28322  0.12977  0.47055  Biso   1.000  O 
  O6       1.0000 0.29181  0.13201  0.94487  Biso   1.000  O 
  O7       1.0000 0.21181  0.38578  0.01955  Biso   1.000  O 
  O8       1.0000 0.20996  0.38064  0.50010  Biso   1.000  O 
  Hf5      1.0000 0.12996  0.52746  0.29116  Biso   1.000  Hf
  Hf6      1.0000 0.12814  0.73273  0.79514  Biso   1.000  Hf
  Hf7      1.0000 0.35220  0.77043  0.20912  Biso   1.000  Hf
  Hf8      1.0000 0.35349  0.97181  0.70535  Biso   1.000  Hf
  O9       1.0000 0.02009  0.66882  0.15353  Biso   1.000  O 
  O10      1.0000 0.02485  0.59252  0.65202  Biso   1.000  O 
  O11      1.0000 0.45978  0.90969  0.35197  Biso   1.000  O 
  O12      1.0000 0.46001  0.83445  0.85399  Biso   1.000  O 
  O13      1.0000 0.26876  0.63017  0.48361  Biso   1.000  O 
  O14      1.0000 0.26565  0.62881  0.98303  Biso   1.000  O 
  O15      1.0000 0.21436  0.88294  0.02274  Biso   1.000  O 
  O16      1.0000 0.21325  0.87137  0.51829  Biso   1.000  O 
  Hf9      1.0000 0.64034  0.02271  0.28986  Biso   1.000  Hf
  Hf10     1.0000 0.64284  0.23240  0.80268  Biso   1.000  Hf
  Hf11     1.0000 0.86273  0.27279  0.21248  Biso   1.000  Hf
  Hf12     1.0000 0.85758  0.48042  0.71440  Biso   1.000  Hf
  O17      1.0000 0.52925  0.15980  0.14955  Biso   1.000  O 
  O18      1.0000 0.53818  0.08055  0.66177  Biso   1.000  O 
  O19      1.0000 0.96016  0.41926  0.34993  Biso   1.000  O 
  O20      1.0000 0.96569  0.34034  0.84871  Biso   1.000  O 
  O21      1.0000 0.77771  0.12998  0.47982  Biso   1.000  O 
  O22      1.0000 0.78146  0.12237  0.98362  Biso   1.000  O 
  O23      1.0000 0.72244  0.37680  0.03374  Biso   1.000  O 
  O24      1.0000 0.72388  0.37360  0.52907  Biso   1.000  O 
  Hf13     1.0000 0.63170  0.51855  0.30290  Biso   1.000  Hf
  Hf14     1.0000 0.62987  0.72579  0.79348  Biso   1.000  Hf
  Hf15     1.0000 0.84890  0.77342  0.21013  Biso   1.000  Hf
  Hf16     1.0000 0.85074  0.98126  0.70909  Biso   1.000  Hf
  O25      1.0000 0.51853  0.65089  0.14808  Biso   1.000  O 
  O26      1.0000 0.52177  0.59041  0.64238  Biso   1.000  O 
  O27      1.0000 0.95661  0.91713  0.34787  Biso   1.000  O 
  O28      1.0000 0.95711  0.84077  0.85004  Biso   1.000  O 
  O29      1.0000 0.76606  0.62843  0.48092  Biso   1.000  O 
  O30      1.0000 0.76795  0.62341  0.98311  Biso   1.000  O 
  O31      1.0000 0.71067  0.87764  0.02310  Biso   1.000  O 
  O32      1.0000 0.71498  0.87181  0.52303  Biso   1.000  O 
  Mn1      1.0000 0.41084  0.23201  0.64570  Biso   1.000  Mn
