data_image0
_cell_length_a       9.9293
_cell_length_b       10.3692
_cell_length_c       9.98224
_cell_angle_alpha    90
_cell_angle_beta     90
_cell_angle_gamma    90

_symmetry_space_group_name_H-M    "P 1"
_symmetry_int_tables_number       1

loop_
  _symmetry_equiv_pos_as_xyz
  'x, y, z'

loop_
  _atom_site_label
  _atom_site_occupancy
  _atom_site_fract_x
  _atom_site_fract_y
  _atom_site_fract_z
  _atom_site_thermal_displace_type
  _atom_site_B_iso_or_equiv
  _atom_site_type_symbol
  Mn1      1.0000 0.12170  0.03544  0.11101  Biso   1.000  Mn
  Hf1      1.0000 0.13877  0.01455  0.62765  Biso   1.000  Hf
  Hf2      1.0000 0.13276  0.51400  0.12628  Biso   1.000  Hf
  Hf3      1.0000 0.13653  0.51416  0.62642  Biso   1.000  Hf
  Hf4      1.0000 0.63508  0.01622  0.12528  Biso   1.000  Hf
  Hf5      1.0000 0.63354  0.01165  0.62352  Biso   1.000  Hf
  Hf6      1.0000 0.63288  0.51639  0.12757  Biso   1.000  Hf
  Hf7      1.0000 0.63533  0.51435  0.62516  Biso   1.000  Hf
  Hf8      1.0000 0.13473  0.22748  0.37226  Biso   1.000  Hf
  Hf9      1.0000 0.13699  0.23258  0.87601  Biso   1.000  Hf
  Hf10     1.0000 0.13623  0.72973  0.37866  Biso   1.000  Hf
  Hf11     1.0000 0.13626  0.73196  0.88034  Biso   1.000  Hf
  Hf12     1.0000 0.63510  0.23042  0.37699  Biso   1.000  Hf
  Hf13     1.0000 0.63595  0.22935  0.87395  Biso   1.000  Hf
  Hf14     1.0000 0.63549  0.73351  0.37495  Biso   1.000  Hf
  Hf15     1.0000 0.63416  0.73063  0.87626  Biso   1.000  Hf
  Hf16     1.0000 0.36541  0.26254  0.12451  Biso   1.000  Hf
  Hf17     1.0000 0.36780  0.26371  0.62527  Biso   1.000  Hf
  Hf18     1.0000 0.36299  0.76428  0.12806  Biso   1.000  Hf
  Hf19     1.0000 0.36696  0.76560  0.62944  Biso   1.000  Hf
  Hf20     1.0000 0.86374  0.26653  0.12380  Biso   1.000  Hf
  Hf21     1.0000 0.86826  0.26300  0.62502  Biso   1.000  Hf
  Hf22     1.0000 0.87024  0.76487  0.12170  Biso   1.000  Hf
  Hf23     1.0000 0.86853  0.76391  0.62463  Biso   1.000  Hf
  Hf24     1.0000 0.36736  0.48006  0.37614  Biso   1.000  Hf
  Hf25     1.0000 0.36878  0.48110  0.87603  Biso   1.000  Hf
  Hf26     1.0000 0.36145  0.97815  0.37267  Biso   1.000  Hf
  Hf27     1.0000 0.36043  0.97968  0.88388  Biso   1.000  Hf
  Hf28     1.0000 0.86638  0.48121  0.37617  Biso   1.000  Hf
  Hf29     1.0000 0.86785  0.48081  0.87468  Biso   1.000  Hf
  Hf30     1.0000 0.86775  0.98454  0.37557  Biso   1.000  Hf
  Hf31     1.0000 0.86487  0.98019  0.87325  Biso   1.000  Hf
  O1       1.0000 0.03691  0.18210  0.18674  Biso   1.000  O 
  O2       1.0000 0.03727  0.18034  0.69833  Biso   1.000  O 
  O3       1.0000 0.03648  0.68385  0.19500  Biso   1.000  O 
  O4       1.0000 0.03851  0.68229  0.69491  Biso   1.000  O 
  O5       1.0000 0.53346  0.18139  0.19801  Biso   1.000  O 
  O6       1.0000 0.53932  0.18178  0.69210  Biso   1.000  O 
  O7       1.0000 0.53603  0.68361  0.19639  Biso   1.000  O 
  O8       1.0000 0.53708  0.68057  0.69590  Biso   1.000  O 
  O9       1.0000 0.03867  0.06394  0.44856  Biso   1.000  O 
  O10      1.0000 0.04012  0.06194  0.94972  Biso   1.000  O 
  O11      1.0000 0.03659  0.56137  0.44606  Biso   1.000  O 
  O12      1.0000 0.03726  0.56302  0.94646  Biso   1.000  O 
  O13      1.0000 0.53859  0.06268  0.44308  Biso   1.000  O 
  O14      1.0000 0.53627  0.06407  0.94884  Biso   1.000  O 
  O15      1.0000 0.53877  0.56410  0.44265  Biso   1.000  O 
  O16      1.0000 0.53914  0.56195  0.94564  Biso   1.000  O 
  O17      1.0000 0.46355  0.43126  0.19297  Biso   1.000  O 
  O18      1.0000 0.46518  0.43156  0.69403  Biso   1.000  O 
  O19      1.0000 0.46861  0.92970  0.19729  Biso   1.000  O 
  O20      1.0000 0.46297  0.93198  0.70043  Biso   1.000  O 
  O21      1.0000 0.96417  0.43075  0.19554  Biso   1.000  O 
  O22      1.0000 0.96574  0.43094  0.69340  Biso   1.000  O 
  O23      1.0000 0.98813  0.94175  0.18506  Biso   1.000  O 
  O24      1.0000 0.96454  0.93196  0.69377  Biso   1.000  O 
  O25      1.0000 0.46628  0.31381  0.44519  Biso   1.000  O 
  O26      1.0000 0.46455  0.31029  0.94274  Biso   1.000  O 
  O27      1.0000 0.46835  0.81578  0.45179  Biso   1.000  O 
  O28      1.0000 0.46145  0.81247  0.94400  Biso   1.000  O 
  O29      1.0000 0.96450  0.31086  0.44165  Biso   1.000  O 
  O30      1.0000 0.96614  0.31298  0.94297  Biso   1.000  O 
  O31      1.0000 0.96472  0.81517  0.44079  Biso   1.000  O 
  O32      1.0000 0.96237  0.81221  0.93960  Biso   1.000  O 
  O33      1.0000 0.25693  0.10185  0.24079  Biso   1.000  O 
  O34      1.0000 0.27482  0.11592  0.75106  Biso   1.000  O 
  O35      1.0000 0.26855  0.60740  0.24997  Biso   1.000  O 
  O36      1.0000 0.27197  0.61592  0.75215  Biso   1.000  O 
  O37      1.0000 0.77369  0.11585  0.24743  Biso   1.000  O 
  O38      1.0000 0.77152  0.11302  0.74767  Biso   1.000  O 
  O39      1.0000 0.77233  0.61549  0.24912  Biso   1.000  O 
  O40      1.0000 0.77208  0.61479  0.74964  Biso   1.000  O 
  O41      1.0000 0.27457  0.12983  0.49591  Biso   1.000  O 
  O42      1.0000 0.26051  0.13308  0.00179  Biso   1.000  O 
  O43      1.0000 0.27408  0.62910  0.50152  Biso   1.000  O 
  O44      1.0000 0.26691  0.63352  0.00091  Biso   1.000  O 
  O45      1.0000 0.77403  0.12921  0.49805  Biso   1.000  O 
  O46      1.0000 0.77404  0.12876  0.99693  Biso   1.000  O 
  O47      1.0000 0.77121  0.63118  0.49938  Biso   1.000  O 
  O48      1.0000 0.76772  0.63474  0.00020  Biso   1.000  O 
  O49      1.0000 0.22984  0.37850  0.49922  Biso   1.000  O 
  O50      1.0000 0.23309  0.37858  0.99942  Biso   1.000  O 
  O51      1.0000 0.22919  0.87947  0.50618  Biso   1.000  O 
  O52      1.0000 0.21821  0.88968  0.01423  Biso   1.000  O 
  O53      1.0000 0.73131  0.37967  0.50010  Biso   1.000  O 
  O54      1.0000 0.73208  0.37825  0.99910  Biso   1.000  O 
  O55      1.0000 0.73222  0.88169  0.49774  Biso   1.000  O 
  O56      1.0000 0.73044  0.87908  0.99794  Biso   1.000  O 
  O57      1.0000 0.23170  0.35997  0.24894  Biso   1.000  O 
  O58      1.0000 0.23112  0.36550  0.74978  Biso   1.000  O 
  O59      1.0000 0.24528  0.84867  0.26397  Biso   1.000  O 
  O60      1.0000 0.22866  0.86641  0.75637  Biso   1.000  O 
  O61      1.0000 0.72828  0.36568  0.24951  Biso   1.000  O 
  O62      1.0000 0.73146  0.36424  0.74913  Biso   1.000  O 
  O63      1.0000 0.74159  0.86682  0.24658  Biso   1.000  O 
  O64      1.0000 0.73006  0.86354  0.74819  Biso   1.000  O 
