data_image0
_cell_length_a       10.0345
_cell_length_b       10.2686
_cell_length_c       10.0345
_cell_angle_alpha    90
_cell_angle_beta     90
_cell_angle_gamma    90

_symmetry_space_group_name_H-M    "P 1"
_symmetry_int_tables_number       1

loop_
  _symmetry_equiv_pos_as_xyz
  'x, y, z'

loop_
  _atom_site_label
  _atom_site_occupancy
  _atom_site_fract_x
  _atom_site_fract_y
  _atom_site_fract_z
  _atom_site_thermal_displace_type
  _atom_site_B_iso_or_equiv
  _atom_site_type_symbol
  Hf1      1.0000 0.12281  0.96382  0.12734  Biso   1.000  Hf
  Hf2      1.0000 0.13018  0.25294  0.38285  Biso   1.000  Hf
  Hf3      1.0000 0.38034  0.25806  0.12871  Biso   1.000  Hf
  Hf4      1.0000 0.37750  0.00501  0.37698  Biso   1.000  Hf
  O1       1.0000 0.99380  0.15529  0.98825  Biso   1.000  O 
  O2       1.0000 0.00605  0.08896  0.24433  Biso   1.000  O 
  O3       1.0000 0.02063  0.33358  0.23010  Biso   1.000  O 
  O4       1.0000 0.01000  0.40605  0.98716  Biso   1.000  O 
  O5       1.0000 0.26243  0.15494  0.26044  Biso   1.000  O 
  O6       1.0000 0.23869  0.09708  0.01105  Biso   1.000  O 
  O7       1.0000 0.26877  0.34890  0.98557  Biso   1.000  O 
  O8       1.0000 0.26356  0.40578  0.24447  Biso   1.000  O 
  Hf5      1.0000 0.12671  0.99800  0.62694  Biso   1.000  Hf
  Hf6      1.0000 0.12514  0.25831  0.86992  Biso   1.000  Hf
  Hf7      1.0000 0.37542  0.25035  0.62945  Biso   1.000  Hf
  Hf8      1.0000 0.37181  0.00516  0.88210  Biso   1.000  Hf
  O9       1.0000 0.99945  0.14948  0.49587  Biso   1.000  O 
  O10      1.0000 0.99848  0.10397  0.74411  Biso   1.000  O 
  O11      1.0000 0.00211  0.35670  0.73804  Biso   1.000  O 
  O12      1.0000 0.00967  0.40155  0.48644  Biso   1.000  O 
  O13      1.0000 0.25301  0.14799  0.75475  Biso   1.000  O 
  O14      1.0000 0.25266  0.10327  0.50607  Biso   1.000  O 
  O15      1.0000 0.25999  0.35522  0.49797  Biso   1.000  O 
  O16      1.0000 0.25281  0.40054  0.74413  Biso   1.000  O 
  Hf9      1.0000 0.12529  0.49830  0.12500  Biso   1.000  Hf
  Hf10     1.0000 0.12911  0.74647  0.38009  Biso   1.000  Hf
  Hf11     1.0000 0.37841  0.74631  0.12679  Biso   1.000  Hf
  Hf12     1.0000 0.37909  0.50203  0.37781  Biso   1.000  Hf
  O17      1.0000 0.00251  0.64982  0.00357  Biso   1.000  O 
  O18      1.0000 0.99938  0.58969  0.25177  Biso   1.000  O 
  O19      1.0000 0.99930  0.83815  0.25144  Biso   1.000  O 
  O20      1.0000 0.99446  0.89375  0.99566  Biso   1.000  O 
  O21      1.0000 0.24744  0.64976  0.24725  Biso   1.000  O 
  O22      1.0000 0.25608  0.59880  0.99830  Biso   1.000  O 
  O23      1.0000 0.24851  0.84379  0.00107  Biso   1.000  O 
  O24      1.0000 0.25506  0.89348  0.25976  Biso   1.000  O 
  Hf13     1.0000 0.12500  0.50174  0.62328  Biso   1.000  Hf
  Hf14     1.0000 0.12681  0.74650  0.87178  Biso   1.000  Hf
  Hf15     1.0000 0.37761  0.75329  0.62780  Biso   1.000  Hf
  Hf16     1.0000 0.37823  0.49843  0.87557  Biso   1.000  Hf
  O25      1.0000 0.99721  0.64961  0.50227  Biso   1.000  O 
  O26      1.0000 0.00453  0.60495  0.75122  Biso   1.000  O 
  O27      1.0000 0.00343  0.85389  0.74858  Biso   1.000  O 
  O28      1.0000 0.00146  0.89984  0.49954  Biso   1.000  O 
  O29      1.0000 0.25300  0.64804  0.74735  Biso   1.000  O 
  O30      1.0000 0.24811  0.60332  0.49618  Biso   1.000  O 
  O31      1.0000 0.24902  0.85243  0.50668  Biso   1.000  O 
  O32      1.0000 0.25131  0.89940  0.75487  Biso   1.000  O 
  Hf17     1.0000 0.62309  0.99794  0.12577  Biso   1.000  Hf
  Hf18     1.0000 0.62784  0.24883  0.37785  Biso   1.000  Hf
  Hf19     1.0000 0.86738  0.25271  0.12143  Biso   1.000  Hf
  Hf20     1.0000 0.87747  0.00178  0.37406  Biso   1.000  Hf
  O33      1.0000 0.49496  0.14786  0.00028  Biso   1.000  O 
  O34      1.0000 0.50658  0.10387  0.25472  Biso   1.000  O 
  O35      1.0000 0.51277  0.35658  0.25105  Biso   1.000  O 
  O36      1.0000 0.50560  0.40037  0.00037  Biso   1.000  O 
  O37      1.0000 0.75469  0.14938  0.25255  Biso   1.000  O 
  O38      1.0000 0.74830  0.10334  0.99941  Biso   1.000  O 
  O39      1.0000 0.75641  0.35529  0.99206  Biso   1.000  O 
  O40      1.0000 0.76439  0.40146  0.24231  Biso   1.000  O 
  Hf21     1.0000 0.62516  0.00288  0.62754  Biso   1.000  Hf
  Hf22     1.0000 0.62439  0.25038  0.87726  Biso   1.000  Hf
  Hf23     1.0000 0.87485  0.24885  0.62355  Biso   1.000  Hf
  Hf24     1.0000 0.87693  0.00519  0.87397  Biso   1.000  Hf
  O41      1.0000 0.50268  0.15131  0.50356  Biso   1.000  O 
  O42      1.0000 0.50008  0.10244  0.75323  Biso   1.000  O 
  O43      1.0000 0.50237  0.35304  0.75085  Biso   1.000  O 
  O44      1.0000 0.50720  0.40064  0.50003  Biso   1.000  O 
  O45      1.0000 0.74970  0.15138  0.74939  Biso   1.000  O 
  O46      1.0000 0.75122  0.10265  0.50085  Biso   1.000  O 
  O47      1.0000 0.75791  0.35445  0.49408  Biso   1.000  O 
  O48      1.0000 0.75313  0.40068  0.74484  Biso   1.000  O 
  Hf25     1.0000 0.62706  0.50157  0.12755  Biso   1.000  Hf
  Hf26     1.0000 0.62500  0.75493  0.37699  Biso   1.000  Hf
  Hf27     1.0000 0.86999  0.74656  0.12221  Biso   1.000  Hf
  Hf28     1.0000 0.87016  0.50602  0.38130  Biso   1.000  Hf
  O49      1.0000 0.50232  0.64787  0.00009  Biso   1.000  O 
  O50      1.0000 0.49972  0.60483  0.24862  Biso   1.000  O 
  O51      1.0000 0.50214  0.85378  0.24958  Biso   1.000  O 
  O52      1.0000 0.49467  0.89926  0.00172  Biso   1.000  O 
  O53      1.0000 0.74872  0.64955  0.25479  Biso   1.000  O 
  O54      1.0000 0.75352  0.60324  0.00388  Biso   1.000  O 
  O55      1.0000 0.74287  0.85237  0.00285  Biso   1.000  O 
  O56      1.0000 0.75114  0.89977  0.25035  Biso   1.000  O 
  Hf29     1.0000 0.62488  0.50212  0.62774  Biso   1.000  Hf
  Hf30     1.0000 0.62582  0.75337  0.87484  Biso   1.000  Hf
  Hf31     1.0000 0.87545  0.75503  0.62633  Biso   1.000  Hf
  Hf32     1.0000 0.87592  0.50208  0.87237  Biso   1.000  Hf
  O57      1.0000 0.49783  0.65193  0.49881  Biso   1.000  O 
  O58      1.0000 0.50335  0.60485  0.74975  Biso   1.000  O 
  O59      1.0000 0.50277  0.85461  0.75024  Biso   1.000  O 
  O60      1.0000 0.50100  0.90172  0.50071  Biso   1.000  O 
  O61      1.0000 0.75431  0.65197  0.75412  Biso   1.000  O 
  O62      1.0000 0.74784  0.60651  0.50415  Biso   1.000  O 
  O63      1.0000 0.75075  0.85474  0.50110  Biso   1.000  O 
  O64      1.0000 0.75230  0.90179  0.75083  Biso   1.000  O 
  Mn1      1.0000 0.12325  0.19354  0.12693  Biso   1.000  Mn
