data_image0
_cell_length_a       9.97695
_cell_length_b       10.3973
_cell_length_c       10.0281
_cell_angle_alpha    90
_cell_angle_beta     90
_cell_angle_gamma    90

_symmetry_space_group_name_H-M    "P 1"
_symmetry_int_tables_number       1

loop_
  _symmetry_equiv_pos_as_xyz
  'x, y, z'

loop_
  _atom_site_label
  _atom_site_occupancy
  _atom_site_fract_x
  _atom_site_fract_y
  _atom_site_fract_z
  _atom_site_thermal_displace_type
  _atom_site_B_iso_or_equiv
  _atom_site_type_symbol
  Hf1      1.0000 0.13390  0.02146  0.12271  Biso   1.000  Hf
  Hf2      1.0000 0.13419  0.23151  0.38032  Biso   1.000  Hf
  Hf3      1.0000 0.36710  0.26432  0.12324  Biso   1.000  Hf
  Hf4      1.0000 0.36658  0.48400  0.37409  Biso   1.000  Hf
  O1       1.0000 0.01666  0.17524  0.21510  Biso   1.000  O 
  O2       1.0000 0.03557  0.06505  0.45002  Biso   1.000  O 
  O3       1.0000 0.46218  0.43397  0.19423  Biso   1.000  O 
  O4       1.0000 0.46416  0.31714  0.44504  Biso   1.000  O 
  O5       1.0000 0.26812  0.11738  0.25093  Biso   1.000  O 
  O6       1.0000 0.27135  0.13236  0.50022  Biso   1.000  O 
  O7       1.0000 0.23075  0.38391  0.49881  Biso   1.000  O 
  O8       1.0000 0.22497  0.36638  0.24675  Biso   1.000  O 
  Hf5      1.0000 0.13356  0.01525  0.62639  Biso   1.000  Hf
  Hf6      1.0000 0.13824  0.22975  0.86982  Biso   1.000  Hf
  Hf7      1.0000 0.36735  0.26740  0.62473  Biso   1.000  Hf
  Hf8      1.0000 0.36638  0.48521  0.87445  Biso   1.000  Hf
  O9       1.0000 0.03452  0.18194  0.69371  Biso   1.000  O 
  O10      1.0000 0.03606  0.06522  0.94207  Biso   1.000  O 
  O11      1.0000 0.46607  0.43434  0.69545  Biso   1.000  O 
  O12      1.0000 0.46392  0.31733  0.94315  Biso   1.000  O 
  O13      1.0000 0.27182  0.11615  0.74675  Biso   1.000  O 
  O14      1.0000 0.27960  0.12842  0.99377  Biso   1.000  O 
  O15      1.0000 0.22920  0.38640  0.99891  Biso   1.000  O 
  O16      1.0000 0.23195  0.36795  0.74779  Biso   1.000  O 
  Hf9      1.0000 0.13548  0.53443  0.12255  Biso   1.000  Hf
  Hf10     1.0000 0.13497  0.73604  0.37809  Biso   1.000  Hf
  Hf11     1.0000 0.36628  0.76930  0.12656  Biso   1.000  Hf
  Hf12     1.0000 0.36528  0.98412  0.37600  Biso   1.000  Hf
  O17      1.0000 0.03198  0.68776  0.20175  Biso   1.000  O 
  O18      1.0000 0.03526  0.56777  0.44609  Biso   1.000  O 
  O19      1.0000 0.46369  0.93438  0.19536  Biso   1.000  O 
  O20      1.0000 0.46462  0.81585  0.44336  Biso   1.000  O 
  O21      1.0000 0.27459  0.62361  0.25094  Biso   1.000  O 
  O22      1.0000 0.27053  0.63261  0.49965  Biso   1.000  O 
  O23      1.0000 0.23096  0.88284  0.50012  Biso   1.000  O 
  O24      1.0000 0.22867  0.86983  0.24978  Biso   1.000  O 
  Hf13     1.0000 0.13378  0.51635  0.62549  Biso   1.000  Hf
  Hf14     1.0000 0.13320  0.73776  0.87279  Biso   1.000  Hf
  Hf15     1.0000 0.36810  0.76558  0.62434  Biso   1.000  Hf
  Hf16     1.0000 0.36778  0.98199  0.87442  Biso   1.000  Hf
  O25      1.0000 0.03666  0.68453  0.69267  Biso   1.000  O 
  O26      1.0000 0.03426  0.57188  0.94412  Biso   1.000  O 
  O27      1.0000 0.46633  0.93297  0.69303  Biso   1.000  O 
  O28      1.0000 0.46607  0.81767  0.94599  Biso   1.000  O 
  O29      1.0000 0.27023  0.61726  0.74850  Biso   1.000  O 
  O30      1.0000 0.27186  0.63879  0.99613  Biso   1.000  O 
  O31      1.0000 0.22866  0.88437  0.99950  Biso   1.000  O 
  O32      1.0000 0.23245  0.86691  0.74840  Biso   1.000  O 
  Hf17     1.0000 0.63188  0.01415  0.12439  Biso   1.000  Hf
  Hf18     1.0000 0.63186  0.23204  0.37672  Biso   1.000  Hf
  Hf19     1.0000 0.85180  0.26303  0.12743  Biso   1.000  Hf
  Hf20     1.0000 0.86726  0.48301  0.37591  Biso   1.000  Hf
  O33      1.0000 0.53441  0.18158  0.19597  Biso   1.000  O 
  O34      1.0000 0.53466  0.06605  0.44607  Biso   1.000  O 
  O35      1.0000 0.96606  0.43068  0.19411  Biso   1.000  O 
  O36      1.0000 0.96648  0.31910  0.44935  Biso   1.000  O 
  O37      1.0000 0.76268  0.11392  0.25053  Biso   1.000  O 
  O38      1.0000 0.77088  0.13362  0.49867  Biso   1.000  O 
  O39      1.0000 0.73069  0.38316  0.50059  Biso   1.000  O 
  O40      1.0000 0.72533  0.36901  0.25224  Biso   1.000  O 
  Hf21     1.0000 0.63483  0.01604  0.62481  Biso   1.000  Hf
  Hf22     1.0000 0.63187  0.23326  0.87374  Biso   1.000  Hf
  Hf23     1.0000 0.86604  0.26672  0.62589  Biso   1.000  Hf
  Hf24     1.0000 0.86555  0.48399  0.87787  Biso   1.000  Hf
  O41      1.0000 0.53693  0.18455  0.69305  Biso   1.000  O 
  O42      1.0000 0.53728  0.06602  0.94215  Biso   1.000  O 
  O43      1.0000 0.96663  0.43230  0.70117  Biso   1.000  O 
  O44      1.0000 0.96995  0.31685  0.95576  Biso   1.000  O 
  O45      1.0000 0.77068  0.11709  0.74864  Biso   1.000  O 
  O46      1.0000 0.76882  0.13162  0.99796  Biso   1.000  O 
  O47      1.0000 0.72632  0.38300  0.99948  Biso   1.000  O 
  O48      1.0000 0.73161  0.36746  0.75095  Biso   1.000  O 
  Hf25     1.0000 0.63240  0.51702  0.12624  Biso   1.000  Hf
  Hf26     1.0000 0.63439  0.73342  0.37520  Biso   1.000  Hf
  Hf27     1.0000 0.86501  0.76741  0.12586  Biso   1.000  Hf
  Hf28     1.0000 0.86803  0.98486  0.37394  Biso   1.000  Hf
  O49      1.0000 0.53695  0.68433  0.19381  Biso   1.000  O 
  O50      1.0000 0.53463  0.56610  0.44500  Biso   1.000  O 
  O51      1.0000 0.96393  0.93470  0.19269  Biso   1.000  O 
  O52      1.0000 0.96480  0.81810  0.44581  Biso   1.000  O 
  O53      1.0000 0.77063  0.61609  0.24946  Biso   1.000  O 
  O54      1.0000 0.76984  0.63292  0.49950  Biso   1.000  O 
  O55      1.0000 0.73093  0.88368  0.49831  Biso   1.000  O 
  O56      1.0000 0.72959  0.86630  0.24914  Biso   1.000  O 
  Hf29     1.0000 0.63526  0.51643  0.62584  Biso   1.000  Hf
  Hf30     1.0000 0.63437  0.73391  0.87555  Biso   1.000  Hf
  Hf31     1.0000 0.86657  0.76671  0.62481  Biso   1.000  Hf
  Hf32     1.0000 0.86593  0.98320  0.87538  Biso   1.000  Hf
  O57      1.0000 0.53719  0.68376  0.69463  Biso   1.000  O 
  O58      1.0000 0.53535  0.56727  0.94406  Biso   1.000  O 
  O59      1.0000 0.96590  0.93182  0.69720  Biso   1.000  O 
  O60      1.0000 0.96334  0.81658  0.94542  Biso   1.000  O 
  O61      1.0000 0.77183  0.61670  0.75020  Biso   1.000  O 
  O62      1.0000 0.76963  0.63271  0.99993  Biso   1.000  O 
  O63      1.0000 0.72894  0.88273  0.99897  Biso   1.000  O 
  O64      1.0000 0.73055  0.86687  0.74890  Biso   1.000  O 
  Mn1      1.0000 0.09682  0.30951  0.10834  Biso   1.000  Mn
