data_image0
_cell_length_a       9.98206
_cell_length_b       10.1583
_cell_length_c       4.99301
_cell_angle_alpha    90
_cell_angle_beta     90
_cell_angle_gamma    90

_symmetry_space_group_name_H-M    "P 1"
_symmetry_int_tables_number       1

loop_
  _symmetry_equiv_pos_as_xyz
  'x, y, z'

loop_
  _atom_site_label
  _atom_site_occupancy
  _atom_site_fract_x
  _atom_site_fract_y
  _atom_site_fract_z
  _atom_site_thermal_displace_type
  _atom_site_B_iso_or_equiv
  _atom_site_type_symbol
  Mn1      1.0000 0.12372  0.01869  0.24998  Biso   1.000  Mn
  Hf1      1.0000 0.12373  0.49640  0.25006  Biso   1.000  Hf
  Hf2      1.0000 0.62378  0.99814  0.25001  Biso   1.000  Hf
  Hf3      1.0000 0.62374  0.50346  0.25001  Biso   1.000  Hf
  Hf4      1.0000 0.12050  0.24822  0.74999  Biso   1.000  Hf
  Hf5      1.0000 0.12051  0.74272  0.75007  Biso   1.000  Hf
  Hf6      1.0000 0.62049  0.24806  0.74999  Biso   1.000  Hf
  Hf7      1.0000 0.62052  0.75290  0.74999  Biso   1.000  Hf
  Hf8      1.0000 0.37589  0.24931  0.25381  Biso   1.000  Hf
  Hf9      1.0000 0.36837  0.75202  0.23360  Biso   1.000  Hf
  Hf10     1.0000 0.87156  0.24931  0.24625  Biso   1.000  Hf
  Hf11     1.0000 0.87910  0.75201  0.26652  Biso   1.000  Hf
  Hf12     1.0000 0.36675  0.99819  0.73360  Biso   1.000  Hf
  Hf13     1.0000 0.37417  0.50104  0.74741  Biso   1.000  Hf
  Hf14     1.0000 0.87435  0.99820  0.76633  Biso   1.000  Hf
  Hf15     1.0000 0.86685  0.50101  0.75256  Biso   1.000  Hf
  O1       1.0000 0.98270  0.14822  0.97877  Biso   1.000  O 
  O2       1.0000 0.99785  0.64854  0.00710  Biso   1.000  O 
  O3       1.0000 0.47701  0.14604  0.97340  Biso   1.000  O 
  O4       1.0000 0.49082  0.64637  0.99962  Biso   1.000  O 
  O5       1.0000 0.01205  0.09243  0.48296  Biso   1.000  O 
  O6       1.0000 0.00100  0.59829  0.50434  Biso   1.000  O 
  O7       1.0000 0.50627  0.10779  0.48585  Biso   1.000  O 
  O8       1.0000 0.50168  0.60681  0.50407  Biso   1.000  O 
  O9       1.0000 0.99684  0.34790  0.49601  Biso   1.000  O 
  O10      1.0000 0.97025  0.84202  0.57837  Biso   1.000  O 
  O11      1.0000 0.49511  0.35672  0.50435  Biso   1.000  O 
  O12      1.0000 0.48035  0.85633  0.50186  Biso   1.000  O 
  O13      1.0000 0.99519  0.39676  0.99498  Biso   1.000  O 
  O14      1.0000 0.02141  0.90615  0.06406  Biso   1.000  O 
  O15      1.0000 0.50221  0.39511  0.00353  Biso   1.000  O 
  O16      1.0000 0.50746  0.89627  0.99033  Biso   1.000  O 
  O17      1.0000 0.25829  0.14824  0.52116  Biso   1.000  O 
  O18      1.0000 0.24963  0.64855  0.49304  Biso   1.000  O 
  O19      1.0000 0.76397  0.14604  0.52656  Biso   1.000  O 
  O20      1.0000 0.75022  0.64637  0.50036  Biso   1.000  O 
  O21      1.0000 0.23537  0.09243  0.01700  Biso   1.000  O 
  O22      1.0000 0.24003  0.59827  0.99575  Biso   1.000  O 
  O23      1.0000 0.74116  0.10780  0.01419  Biso   1.000  O 
  O24      1.0000 0.73935  0.60679  0.99591  Biso   1.000  O 
  O25      1.0000 0.25056  0.34791  0.00414  Biso   1.000  O 
  O26      1.0000 0.27086  0.84199  0.92149  Biso   1.000  O 
  O27      1.0000 0.74586  0.35669  0.99567  Biso   1.000  O 
  O28      1.0000 0.76076  0.85632  0.99807  Biso   1.000  O 
  O29      1.0000 0.24578  0.39680  0.50511  Biso   1.000  O 
  O30      1.0000 0.22620  0.90617  0.43583  Biso   1.000  O 
  O31      1.0000 0.74520  0.39509  0.49658  Biso   1.000  O 
  O32      1.0000 0.73364  0.89627  0.50960  Biso   1.000  O 
