data_image0
_cell_length_a       9.96476
_cell_length_b       5.09642
_cell_length_c       10.3942
_cell_angle_alpha    90
_cell_angle_beta     90
_cell_angle_gamma    90

_symmetry_space_group_name_H-M    "P 1"
_symmetry_int_tables_number       1

loop_
  _symmetry_equiv_pos_as_xyz
  'x, y, z'

loop_
  _atom_site_label
  _atom_site_occupancy
  _atom_site_fract_x
  _atom_site_fract_y
  _atom_site_fract_z
  _atom_site_thermal_displace_type
  _atom_site_B_iso_or_equiv
  _atom_site_type_symbol
  Mn1      1.0000 0.13323  0.05079  0.17997  Biso   1.000  Mn
  Hf1      1.0000 0.13988  0.04875  0.67157  Biso   1.000  Hf
  Hf2      1.0000 0.13978  0.46879  0.41793  Biso   1.000  Hf
  Hf3      1.0000 0.14095  0.45915  0.92569  Biso   1.000  Hf
  Hf4      1.0000 0.35459  0.54542  0.17086  Biso   1.000  Hf
  Hf5      1.0000 0.36166  0.55007  0.67163  Biso   1.000  Hf
  Hf6      1.0000 0.35819  0.96576  0.41842  Biso   1.000  Hf
  Hf7      1.0000 0.35896  0.96144  0.92499  Biso   1.000  Hf
  Hf8      1.0000 0.63847  0.04511  0.07856  Biso   1.000  Hf
  Hf9      1.0000 0.63829  0.04745  0.57877  Biso   1.000  Hf
  Hf10     1.0000 0.63691  0.46266  0.32731  Biso   1.000  Hf
  Hf11     1.0000 0.63978  0.46696  0.83040  Biso   1.000  Hf
  Hf12     1.0000 0.86883  0.54110  0.08098  Biso   1.000  Hf
  Hf13     1.0000 0.86065  0.54716  0.57778  Biso   1.000  Hf
  Hf14     1.0000 0.86268  0.96680  0.32714  Biso   1.000  Hf
  Hf15     1.0000 0.86193  0.96431  0.82942  Biso   1.000  Hf
  O1       1.0000 0.03614  0.31799  0.09003  Biso   1.000  O 
  O2       1.0000 0.03124  0.32709  0.57590  Biso   1.000  O 
  O3       1.0000 0.03756  0.17680  0.32205  Biso   1.000  O 
  O4       1.0000 0.03278  0.17831  0.83155  Biso   1.000  O 
  O5       1.0000 0.46796  0.83095  0.08670  Biso   1.000  O 
  O6       1.0000 0.46433  0.84360  0.58540  Biso   1.000  O 
  O7       1.0000 0.46089  0.66461  0.33680  Biso   1.000  O 
  O8       1.0000 0.46641  0.67379  0.83649  Biso   1.000  O 
  O9       1.0000 0.27082  0.24962  0.29239  Biso   1.000  O 
  O10      1.0000 0.27849  0.25358  0.79800  Biso   1.000  O 
  O11      1.0000 0.26761  0.23302  0.05496  Biso   1.000  O 
  O12      1.0000 0.27752  0.26161  0.54418  Biso   1.000  O 
  O13      1.0000 0.21841  0.76663  0.28932  Biso   1.000  O 
  O14      1.0000 0.22301  0.75280  0.79430  Biso   1.000  O 
  O15      1.0000 0.22316  0.74421  0.04430  Biso   1.000  O 
  O16      1.0000 0.22205  0.75906  0.54260  Biso   1.000  O 
  O17      1.0000 0.53257  0.33907  0.16433  Biso   1.000  O 
  O18      1.0000 0.53515  0.34319  0.66467  Biso   1.000  O 
  O19      1.0000 0.53413  0.16807  0.41301  Biso   1.000  O 
  O20      1.0000 0.53334  0.17611  0.91660  Biso   1.000  O 
  O21      1.0000 0.98415  0.84506  0.16477  Biso   1.000  O 
  O22      1.0000 0.96837  0.83130  0.66683  Biso   1.000  O 
  O23      1.0000 0.96618  0.67455  0.41319  Biso   1.000  O 
  O24      1.0000 0.96964  0.67343  0.91872  Biso   1.000  O 
  O25      1.0000 0.77977  0.26018  0.95650  Biso   1.000  O 
  O26      1.0000 0.77776  0.25160  0.45331  Biso   1.000  O 
  O27      1.0000 0.77622  0.25463  0.20477  Biso   1.000  O 
  O28      1.0000 0.77770  0.25812  0.70535  Biso   1.000  O 
  O29      1.0000 0.72563  0.75754  0.95628  Biso   1.000  O 
  O30      1.0000 0.72239  0.75211  0.45478  Biso   1.000  O 
  O31      1.0000 0.73291  0.75497  0.20493  Biso   1.000  O 
  O32      1.0000 0.72341  0.75965  0.70535  Biso   1.000  O 
