data_image0
_cell_length_a       10.0694
_cell_length_b       5.14074
_cell_length_c       10.504
_cell_angle_alpha    90
_cell_angle_beta     90
_cell_angle_gamma    90

_symmetry_space_group_name_H-M    "P 1"
_symmetry_int_tables_number       1

loop_
  _symmetry_equiv_pos_as_xyz
  'x, y, z'

loop_
  _atom_site_label
  _atom_site_occupancy
  _atom_site_fract_x
  _atom_site_fract_y
  _atom_site_fract_z
  _atom_site_thermal_displace_type
  _atom_site_B_iso_or_equiv
  _atom_site_type_symbol
  Hf1      1.0000 0.13815  0.04259  0.17175  Biso   1.000  Hf
  Hf2      1.0000 0.13038  0.46602  0.42178  Biso   1.000  Hf
  Hf3      1.0000 0.35498  0.54151  0.17594  Biso   1.000  Hf
  Hf4      1.0000 0.35517  0.96674  0.42521  Biso   1.000  Hf
  Hf5      1.0000 0.64080  0.06571  0.06974  Biso   1.000  Hf
  Hf6      1.0000 0.62872  0.47180  0.33966  Biso   1.000  Hf
  Hf7      1.0000 0.87504  0.54832  0.07323  Biso   1.000  Hf
  Hf8      1.0000 0.85767  0.96571  0.33134  Biso   1.000  Hf
  O1       1.0000 0.03843  0.32454  0.07770  Biso   1.000  O 
  O2       1.0000 0.02348  0.18892  0.32663  Biso   1.000  O 
  O3       1.0000 0.47532  0.80388  0.07771  Biso   1.000  O 
  O4       1.0000 0.45690  0.67607  0.33760  Biso   1.000  O 
  O5       1.0000 0.26705  0.25278  0.29736  Biso   1.000  O 
  O6       1.0000 0.27996  0.24396  0.04421  Biso   1.000  O 
  O7       1.0000 0.21703  0.75281  0.29630  Biso   1.000  O 
  O8       1.0000 0.22555  0.74835  0.04541  Biso   1.000  O 
  O9       1.0000 0.51275  0.29145  0.17899  Biso   1.000  O 
  O10      1.0000 0.52464  0.17783  0.42461  Biso   1.000  O 
  O11      1.0000 0.96640  0.83678  0.16860  Biso   1.000  O 
  O12      1.0000 0.95975  0.68446  0.41826  Biso   1.000  O 
  O13      1.0000 0.77179  0.25101  0.45467  Biso   1.000  O 
  O14      1.0000 0.75719  0.31318  0.19526  Biso   1.000  O 
  O15      1.0000 0.71756  0.75402  0.46248  Biso   1.000  O 
  O16      1.0000 0.71847  0.79951  0.21258  Biso   1.000  O 
  Hf9      1.0000 0.13036  0.04948  0.66943  Biso   1.000  Hf
  Hf10     1.0000 0.13292  0.46388  0.91817  Biso   1.000  Hf
  Hf11     1.0000 0.35584  0.54755  0.67150  Biso   1.000  Hf
  Hf12     1.0000 0.35003  0.96162  0.91858  Biso   1.000  Hf
  Hf13     1.0000 0.63141  0.05103  0.58236  Biso   1.000  Hf
  Hf14     1.0000 0.62973  0.46503  0.83422  Biso   1.000  Hf
  Hf15     1.0000 0.85313  0.54910  0.58161  Biso   1.000  Hf
  Hf16     1.0000 0.85536  0.96858  0.82693  Biso   1.000  Hf
  O17      1.0000 0.02447  0.33582  0.58019  Biso   1.000  O 
  O18      1.0000 0.02612  0.18158  0.82890  Biso   1.000  O 
  O19      1.0000 0.45974  0.84009  0.58720  Biso   1.000  O 
  O20      1.0000 0.45532  0.66869  0.83533  Biso   1.000  O 
  O21      1.0000 0.26848  0.25228  0.79341  Biso   1.000  O 
  O22      1.0000 0.26712  0.26051  0.54513  Biso   1.000  O 
  O23      1.0000 0.21564  0.75441  0.79360  Biso   1.000  O 
  O24      1.0000 0.21718  0.75934  0.54489  Biso   1.000  O 
  O25      1.0000 0.52656  0.34179  0.66761  Biso   1.000  O 
  O26      1.0000 0.52271  0.15718  0.90532  Biso   1.000  O 
  O27      1.0000 0.96033  0.83843  0.66428  Biso   1.000  O 
  O28      1.0000 0.96322  0.68395  0.91247  Biso   1.000  O 
  O29      1.0000 0.77876  0.25050  0.94820  Biso   1.000  O 
  O30      1.0000 0.76897  0.26025  0.70379  Biso   1.000  O 
  O31      1.0000 0.71359  0.75607  0.96358  Biso   1.000  O 
  O32      1.0000 0.71704  0.75976  0.71116  Biso   1.000  O 
  Mn1      1.0000 0.61861  0.55643  0.10765  Biso   1.000  Mn
