data_image0
_cell_length_a       10.2498
_cell_length_b       5.15182
_cell_length_c       10.5647
_cell_angle_alpha    90
_cell_angle_beta     80
_cell_angle_gamma    90

_symmetry_space_group_name_H-M    "P 1"
_symmetry_int_tables_number       1

loop_
  _symmetry_equiv_pos_as_xyz
  'x, y, z'

loop_
  _atom_site_label
  _atom_site_occupancy
  _atom_site_fract_x
  _atom_site_fract_y
  _atom_site_fract_z
  _atom_site_thermal_displace_type
  _atom_site_B_iso_or_equiv
  _atom_site_type_symbol
  Hf1      1.0000 0.13529  0.04254  0.14242  Biso   1.000  Hf
  Hf2      1.0000 0.12838  0.46136  0.39352  Biso   1.000  Hf
  Hf3      1.0000 0.35679  0.54409  0.10172  Biso   1.000  Hf
  Hf4      1.0000 0.35793  0.96849  0.34687  Biso   1.000  Hf
  O1       1.0000 0.02934  0.33066  0.07094  Biso   1.000  O 
  O2       1.0000 0.03074  0.17797  0.31807  Biso   1.000  O 
  O3       1.0000 0.47875  0.76983  0.19687  Biso   1.000  O 
  O4       1.0000 0.49363  0.75541  0.44911  Biso   1.000  O 
  O5       1.0000 0.27513  0.26087  0.24322  Biso   1.000  O 
  O6       1.0000 0.28107  0.23775  0.49312  Biso   1.000  O 
  O7       1.0000 0.22082  0.75730  0.00392  Biso   1.000  O 
  O8       1.0000 0.21222  0.75811  0.24820  Biso   1.000  O 
  Hf5      1.0000 0.14983  0.05302  0.64514  Biso   1.000  Hf
  Hf6      1.0000 0.15033  0.47164  0.89178  Biso   1.000  Hf
  Hf7      1.0000 0.37857  0.55554  0.60890  Biso   1.000  Hf
  Hf8      1.0000 0.37261  0.97296  0.85360  Biso   1.000  Hf
  O9       1.0000 0.03827  0.33281  0.57214  Biso   1.000  O 
  O10      1.0000 0.04526  0.18666  0.81815  Biso   1.000  O 
  O11      1.0000 0.48300  0.82360  0.68988  Biso   1.000  O 
  O12      1.0000 0.48608  0.70926  0.93505  Biso   1.000  O 
  O13      1.0000 0.28663  0.26734  0.74238  Biso   1.000  O 
  O14      1.0000 0.28778  0.26126  0.98926  Biso   1.000  O 
  O15      1.0000 0.24518  0.73327  0.49245  Biso   1.000  O 
  O16      1.0000 0.23426  0.76086  0.75373  Biso   1.000  O 
  Hf9      1.0000 0.64330  0.04036  0.14326  Biso   1.000  Hf
  Hf10     1.0000 0.64238  0.47156  0.40072  Biso   1.000  Hf
  Hf11     1.0000 0.86003  0.54416  0.10294  Biso   1.000  Hf
  Hf12     1.0000 0.85866  0.96481  0.35190  Biso   1.000  Hf
  O17      1.0000 0.52417  0.29669  0.06960  Biso   1.000  O 
  O18      1.0000 0.53610  0.19085  0.31058  Biso   1.000  O 
  O19      1.0000 0.96302  0.83325  0.16846  Biso   1.000  O 
  O20      1.0000 0.96799  0.68580  0.42159  Biso   1.000  O 
  O21      1.0000 0.77685  0.25749  0.23575  Biso   1.000  O 
  O22      1.0000 0.78375  0.25001  0.48843  Biso   1.000  O 
  O23      1.0000 0.72311  0.75121  0.01052  Biso   1.000  O 
  O24      1.0000 0.72657  0.74914  0.26026  Biso   1.000  O 
  Hf13     1.0000 0.65073  0.05136  0.64633  Biso   1.000  Hf
  Hf14     1.0000 0.64919  0.46604  0.89615  Biso   1.000  Hf
  Hf15     1.0000 0.86791  0.55219  0.60383  Biso   1.000  Hf
  Hf16     1.0000 0.87253  0.96623  0.85018  Biso   1.000  Hf
  O25      1.0000 0.54423  0.33070  0.57874  Biso   1.000  O 
  O26      1.0000 0.54199  0.19980  0.82123  Biso   1.000  O 
  O27      1.0000 0.97892  0.83438  0.66964  Biso   1.000  O 
  O28      1.0000 0.97977  0.68509  0.91787  Biso   1.000  O 
  O29      1.0000 0.78604  0.26497  0.73838  Biso   1.000  O 
  O30      1.0000 0.78858  0.25408  0.98530  Biso   1.000  O 
  O31      1.0000 0.73363  0.76360  0.51292  Biso   1.000  O 
  O32      1.0000 0.73730  0.75287  0.76016  Biso   1.000  O 
  Mo1      1.0000 0.39595  0.48754  0.35847  Biso   1.000  Mo
