data_image0
_cell_length_a       10.0318
_cell_length_b       5.26921
_cell_length_c       10.1071
_cell_angle_alpha    90
_cell_angle_beta     90
_cell_angle_gamma    90

_symmetry_space_group_name_H-M    "P 1"
_symmetry_int_tables_number       1

loop_
  _symmetry_equiv_pos_as_xyz
  'x, y, z'

loop_
  _atom_site_label
  _atom_site_occupancy
  _atom_site_fract_x
  _atom_site_fract_y
  _atom_site_fract_z
  _atom_site_thermal_displace_type
  _atom_site_B_iso_or_equiv
  _atom_site_type_symbol
  Hf1      1.0000 0.12556  0.12880  0.11151  Biso   1.000  Hf
  Hf2      1.0000 0.14276  0.45959  0.38787  Biso   1.000  Hf
  Hf3      1.0000 0.38306  0.54421  0.12506  Biso   1.000  Hf
  Hf4      1.0000 0.37060  0.96522  0.37635  Biso   1.000  Hf
  O1       1.0000 0.01034  0.37737  0.23427  Biso   1.000  O 
  O2       1.0000 0.04670  0.12324  0.45069  Biso   1.000  O 
  O3       1.0000 0.47704  0.86197  0.20571  Biso   1.000  O 
  O4       1.0000 0.47606  0.63541  0.45232  Biso   1.000  O 
  O5       1.0000 0.27231  0.21354  0.25183  Biso   1.000  O 
  O6       1.0000 0.28289  0.26257  0.50450  Biso   1.000  O 
  O7       1.0000 0.23999  0.76513  0.50577  Biso   1.000  O 
  O8       1.0000 0.24836  0.69631  0.26039  Biso   1.000  O 
  Hf5      1.0000 0.14536  0.02975  0.62757  Biso   1.000  Hf
  Hf6      1.0000 0.12921  0.48269  0.85050  Biso   1.000  Hf
  Hf7      1.0000 0.37781  0.53552  0.62713  Biso   1.000  Hf
  Hf8      1.0000 0.39173  0.99124  0.86574  Biso   1.000  Hf
  O9       1.0000 0.04238  0.36751  0.67363  Biso   1.000  O 
  O10      1.0000 0.04429  0.15215  0.92325  Biso   1.000  O 
  O11      1.0000 0.48148  0.86450  0.69246  Biso   1.000  O 
  O12      1.0000 0.48739  0.66964  0.94339  Biso   1.000  O 
  O13      1.0000 0.27662  0.23968  0.75163  Biso   1.000  O 
  O14      1.0000 0.26432  0.40500  0.99706  Biso   1.000  O 
  O15      1.0000 0.25565  0.87010  0.01607  Biso   1.000  O 
  O16      1.0000 0.24835  0.74378  0.75447  Biso   1.000  O 
  Hf9      1.0000 0.63747  0.03000  0.12823  Biso   1.000  Hf
  Hf10     1.0000 0.63872  0.46985  0.37419  Biso   1.000  Hf
  Hf11     1.0000 0.85574  0.52785  0.12214  Biso   1.000  Hf
  Hf12     1.0000 0.87925  0.97432  0.37015  Biso   1.000  Hf
  O17      1.0000 0.54005  0.36169  0.20095  Biso   1.000  O 
  O18      1.0000 0.54083  0.13770  0.44793  Biso   1.000  O 
  O19      1.0000 0.97236  0.87958  0.19017  Biso   1.000  O 
  O20      1.0000 0.97579  0.64850  0.44847  Biso   1.000  O 
  O21      1.0000 0.76795  0.22376  0.24830  Biso   1.000  O 
  O22      1.0000 0.77725  0.27944  0.49489  Biso   1.000  O 
  O23      1.0000 0.74232  0.78099  0.49712  Biso   1.000  O 
  O24      1.0000 0.73610  0.73370  0.25119  Biso   1.000  O 
  Hf13     1.0000 0.64584  0.04168  0.61890  Biso   1.000  Hf
  Hf14     1.0000 0.64709  0.48308  0.87299  Biso   1.000  Hf
  Hf15     1.0000 0.87293  0.54632  0.61748  Biso   1.000  Hf
  Hf16     1.0000 0.87251  0.98377  0.87011  Biso   1.000  Hf
  O25      1.0000 0.54080  0.36086  0.70413  Biso   1.000  O 
  O26      1.0000 0.54154  0.17457  0.95792  Biso   1.000  O 
  O27      1.0000 0.97961  0.85820  0.70124  Biso   1.000  O 
  O28      1.0000 0.97694  0.66915  0.94881  Biso   1.000  O 
  O29      1.0000 0.77992  0.24469  0.74391  Biso   1.000  O 
  O30      1.0000 0.78405  0.28716  0.99472  Biso   1.000  O 
  O31      1.0000 0.73933  0.79102  0.99803  Biso   1.000  O 
  O32      1.0000 0.74108  0.74503  0.74691  Biso   1.000  O 
  Mo1      1.0000 0.11222  0.62812  0.10264  Biso   1.000  Mo
