data_image0
_cell_length_a       9.99791
_cell_length_b       10.205
_cell_length_c       5.22207
_cell_angle_alpha    90
_cell_angle_beta     90
_cell_angle_gamma    90

_symmetry_space_group_name_H-M    "P 1"
_symmetry_int_tables_number       1

loop_
  _symmetry_equiv_pos_as_xyz
  'x, y, z'

loop_
  _atom_site_label
  _atom_site_occupancy
  _atom_site_fract_x
  _atom_site_fract_y
  _atom_site_fract_z
  _atom_site_thermal_displace_type
  _atom_site_B_iso_or_equiv
  _atom_site_type_symbol
  Mo1      1.0000 0.13903  0.02394  0.34916  Biso   1.000  Mo
  Hf1      1.0000 0.14112  0.22774  0.84391  Biso   1.000  Hf
  Hf2      1.0000 0.36085  0.27056  0.34543  Biso   1.000  Hf
  Hf3      1.0000 0.36273  0.47954  0.84403  Biso   1.000  Hf
  Hf4      1.0000 0.63883  0.02160  0.15486  Biso   1.000  Hf
  Hf5      1.0000 0.63983  0.22941  0.65703  Biso   1.000  Hf
  Hf6      1.0000 0.86263  0.27044  0.15697  Biso   1.000  Hf
  Hf7      1.0000 0.86260  0.47898  0.65758  Biso   1.000  Hf
  O1       1.0000 0.03346  0.16066  0.16250  Biso   1.000  O 
  O2       1.0000 0.03733  0.08421  0.65310  Biso   1.000  O 
  O3       1.0000 0.46658  0.41599  0.17015  Biso   1.000  O 
  O4       1.0000 0.46754  0.33417  0.66981  Biso   1.000  O 
  O5       1.0000 0.27930  0.12200  0.59549  Biso   1.000  O 
  O6       1.0000 0.27409  0.12358  0.10090  Biso   1.000  O 
  O7       1.0000 0.22462  0.37419  0.59096  Biso   1.000  O 
  O8       1.0000 0.22381  0.37491  0.09009  Biso   1.000  O 
  O9       1.0000 0.53400  0.16597  0.33309  Biso   1.000  O 
  O10      1.0000 0.53335  0.08573  0.83435  Biso   1.000  O 
  O11      1.0000 0.96871  0.41395  0.33392  Biso   1.000  O 
  O12      1.0000 0.96920  0.33344  0.83260  Biso   1.000  O 
  O13      1.0000 0.77893  0.12360  0.90637  Biso   1.000  O 
  O14      1.0000 0.77770  0.12621  0.40810  Biso   1.000  O 
  O15      1.0000 0.72543  0.37392  0.91111  Biso   1.000  O 
  O16      1.0000 0.72450  0.37642  0.41038  Biso   1.000  O 
  Hf8      1.0000 0.14006  0.52130  0.34373  Biso   1.000  Hf
  Hf9      1.0000 0.14068  0.72998  0.84302  Biso   1.000  Hf
  Hf10     1.0000 0.35983  0.77442  0.34308  Biso   1.000  Hf
  Hf11     1.0000 0.36184  0.97834  0.84581  Biso   1.000  Hf
  Hf12     1.0000 0.63889  0.52180  0.15895  Biso   1.000  Hf
  Hf13     1.0000 0.63962  0.72906  0.65665  Biso   1.000  Hf
  Hf14     1.0000 0.86335  0.77197  0.15512  Biso   1.000  Hf
  Hf15     1.0000 0.86276  0.97900  0.65314  Biso   1.000  Hf
  O17      1.0000 0.03297  0.66388  0.16532  Biso   1.000  O 
  O18      1.0000 0.03424  0.58507  0.66677  Biso   1.000  O 
  O19      1.0000 0.46879  0.91504  0.16660  Biso   1.000  O 
  O20      1.0000 0.46747  0.83543  0.66769  Biso   1.000  O 
  O21      1.0000 0.27797  0.62487  0.59087  Biso   1.000  O 
  O22      1.0000 0.27719  0.62717  0.09090  Biso   1.000  O 
  O23      1.0000 0.22233  0.87594  0.58840  Biso   1.000  O 
  O24      1.0000 0.22049  0.87755  0.09139  Biso   1.000  O 
  O25      1.0000 0.53346  0.66711  0.33229  Biso   1.000  O 
  O26      1.0000 0.53537  0.58421  0.83219  Biso   1.000  O 
  O27      1.0000 0.97480  0.91687  0.32849  Biso   1.000  O 
  O28      1.0000 0.96882  0.83574  0.83017  Biso   1.000  O 
  O29      1.0000 0.77878  0.62480  0.91117  Biso   1.000  O 
  O30      1.0000 0.77767  0.62642  0.41073  Biso   1.000  O 
  O31      1.0000 0.72526  0.87447  0.90735  Biso   1.000  O 
  O32      1.0000 0.72787  0.87676  0.40832  Biso   1.000  O 
