data_image0
_cell_length_a       10.0787
_cell_length_b       5.14073
_cell_length_c       10.5741
_cell_angle_alpha    90
_cell_angle_beta     90
_cell_angle_gamma    90

_symmetry_space_group_name_H-M    "P 1"
_symmetry_int_tables_number       1

loop_
  _symmetry_equiv_pos_as_xyz
  'x, y, z'

loop_
  _atom_site_label
  _atom_site_occupancy
  _atom_site_fract_x
  _atom_site_fract_y
  _atom_site_fract_z
  _atom_site_thermal_displace_type
  _atom_site_B_iso_or_equiv
  _atom_site_type_symbol
  Hf1      1.0000 0.13608  0.03691  0.17237  Biso   1.000  Hf
  Hf2      1.0000 0.12540  0.45605  0.42131  Biso   1.000  Hf
  Hf3      1.0000 0.35624  0.53162  0.17798  Biso   1.000  Hf
  Hf4      1.0000 0.34630  0.95682  0.42534  Biso   1.000  Hf
  Hf5      1.0000 0.64358  0.03525  0.07247  Biso   1.000  Hf
  Hf6      1.0000 0.62124  0.45447  0.33678  Biso   1.000  Hf
  Hf7      1.0000 0.87300  0.53678  0.07116  Biso   1.000  Hf
  Hf8      1.0000 0.84937  0.95297  0.32950  Biso   1.000  Hf
  O1       1.0000 0.03419  0.31434  0.07438  Biso   1.000  O 
  O2       1.0000 0.01789  0.18119  0.32496  Biso   1.000  O 
  O3       1.0000 0.46382  0.81117  0.06763  Biso   1.000  O 
  O4       1.0000 0.45438  0.67863  0.33538  Biso   1.000  O 
  O5       1.0000 0.26110  0.24779  0.29924  Biso   1.000  O 
  O6       1.0000 0.27396  0.24546  0.04674  Biso   1.000  O 
  O7       1.0000 0.21116  0.74678  0.29635  Biso   1.000  O 
  O8       1.0000 0.21996  0.75258  0.04382  Biso   1.000  O 
  O9       1.0000 0.50690  0.24939  0.19953  Biso   1.000  O 
  O10      1.0000 0.51359  0.18884  0.43918  Biso   1.000  O 
  O11      1.0000 0.95825  0.82802  0.16807  Biso   1.000  O 
  O12      1.0000 0.95419  0.67492  0.41705  Biso   1.000  O 
  O13      1.0000 0.76432  0.23912  0.45068  Biso   1.000  O 
  O14      1.0000 0.75745  0.28074  0.19196  Biso   1.000  O 
  O15      1.0000 0.71182  0.74491  0.46206  Biso   1.000  O 
  O16      1.0000 0.70982  0.76580  0.21477  Biso   1.000  O 
  Hf9      1.0000 0.12529  0.04023  0.66868  Biso   1.000  Hf
  Hf10     1.0000 0.12236  0.44861  0.91967  Biso   1.000  Hf
  Hf11     1.0000 0.34844  0.54082  0.67415  Biso   1.000  Hf
  Hf12     1.0000 0.33435  0.95524  0.92080  Biso   1.000  Hf
  Hf13     1.0000 0.62620  0.03502  0.58004  Biso   1.000  Hf
  Hf14     1.0000 0.62322  0.44994  0.82679  Biso   1.000  Hf
  Hf15     1.0000 0.84716  0.53617  0.57754  Biso   1.000  Hf
  Hf16     1.0000 0.84649  0.94851  0.82401  Biso   1.000  Hf
  O17      1.0000 0.01748  0.32013  0.57719  Biso   1.000  O 
  O18      1.0000 0.01798  0.16670  0.82600  Biso   1.000  O 
  O19      1.0000 0.45650  0.80492  0.57748  Biso   1.000  O 
  O20      1.0000 0.45641  0.70093  0.82396  Biso   1.000  O 
  O21      1.0000 0.25904  0.24739  0.79553  Biso   1.000  O 
  O22      1.0000 0.26092  0.25006  0.54663  Biso   1.000  O 
  O23      1.0000 0.20697  0.74256  0.79384  Biso   1.000  O 
  O24      1.0000 0.21019  0.75016  0.54574  Biso   1.000  O 
  O25      1.0000 0.51047  0.29606  0.68474  Biso   1.000  O 
  O26      1.0000 0.49871  0.22747  0.94488  Biso   1.000  O 
  O27      1.0000 0.95298  0.82193  0.66327  Biso   1.000  O 
  O28      1.0000 0.95065  0.66201  0.91237  Biso   1.000  O 
  O29      1.0000 0.76508  0.22382  0.94081  Biso   1.000  O 
  O30      1.0000 0.76126  0.24552  0.69905  Biso   1.000  O 
  O31      1.0000 0.70538  0.73780  0.95867  Biso   1.000  O 
  O32      1.0000 0.71005  0.74092  0.70768  Biso   1.000  O 
  Mo1      1.0000 0.60487  0.51702  0.09095  Biso   1.000  Mo
