data_image0
_cell_length_a       9.93284
_cell_length_b       5.17313
_cell_length_c       9.97933
_cell_angle_alpha    90
_cell_angle_beta     90
_cell_angle_gamma    90

_symmetry_space_group_name_H-M    "P 1"
_symmetry_int_tables_number       1

loop_
  _symmetry_equiv_pos_as_xyz
  'x, y, z'

loop_
  _atom_site_label
  _atom_site_occupancy
  _atom_site_fract_x
  _atom_site_fract_y
  _atom_site_fract_z
  _atom_site_thermal_displace_type
  _atom_site_B_iso_or_equiv
  _atom_site_type_symbol
  Mo1      1.0000 0.13726  0.03964  0.12512  Biso   1.000  Mo
  Hf1      1.0000 0.13312  0.46778  0.37477  Biso   1.000  Hf
  Hf2      1.0000 0.36509  0.53748  0.12631  Biso   1.000  Hf
  Hf3      1.0000 0.36514  0.96856  0.37510  Biso   1.000  Hf
  O1       1.0000 0.03903  0.36184  0.19200  Biso   1.000  O 
  O2       1.0000 0.03530  0.13601  0.44761  Biso   1.000  O 
  O3       1.0000 0.46425  0.86948  0.19409  Biso   1.000  O 
  O4       1.0000 0.46360  0.63356  0.44305  Biso   1.000  O 
  O5       1.0000 0.27002  0.23826  0.24728  Biso   1.000  O 
  O6       1.0000 0.27094  0.26635  0.49877  Biso   1.000  O 
  O7       1.0000 0.22916  0.76576  0.49990  Biso   1.000  O 
  O8       1.0000 0.22707  0.74307  0.24916  Biso   1.000  O 
  Hf4      1.0000 0.13453  0.03460  0.62654  Biso   1.000  Hf
  Hf5      1.0000 0.13434  0.46793  0.87836  Biso   1.000  Hf
  Hf6      1.0000 0.36599  0.53526  0.62588  Biso   1.000  Hf
  Hf7      1.0000 0.36508  0.96869  0.87709  Biso   1.000  Hf
  O9       1.0000 0.03510  0.36644  0.69882  Biso   1.000  O 
  O10      1.0000 0.03750  0.13132  0.95454  Biso   1.000  O 
  O11      1.0000 0.46285  0.87178  0.69380  Biso   1.000  O 
  O12      1.0000 0.46166  0.63179  0.94346  Biso   1.000  O 
  O13      1.0000 0.27116  0.23812  0.75054  Biso   1.000  O 
  O14      1.0000 0.27055  0.25978  0.00176  Biso   1.000  O 
  O15      1.0000 0.22479  0.76405  0.00185  Biso   1.000  O 
  O16      1.0000 0.22920  0.73629  0.75106  Biso   1.000  O 
  Hf8      1.0000 0.63489  0.03462  0.12568  Biso   1.000  Hf
  Hf9      1.0000 0.63492  0.46951  0.37489  Biso   1.000  Hf
  Hf10     1.0000 0.86905  0.53366  0.12455  Biso   1.000  Hf
  Hf11     1.0000 0.86801  0.96892  0.37482  Biso   1.000  Hf
  O17      1.0000 0.53705  0.37132  0.19294  Biso   1.000  O 
  O18      1.0000 0.53665  0.13371  0.44263  Biso   1.000  O 
  O19      1.0000 0.97286  0.86383  0.19297  Biso   1.000  O 
  O20      1.0000 0.96465  0.63356  0.44557  Biso   1.000  O 
  O21      1.0000 0.77258  0.23664  0.24898  Biso   1.000  O 
  O22      1.0000 0.77106  0.26659  0.49915  Biso   1.000  O 
  O23      1.0000 0.73003  0.76702  0.49876  Biso   1.000  O 
  O24      1.0000 0.73318  0.73773  0.24845  Biso   1.000  O 
  Hf12     1.0000 0.63394  0.03461  0.62505  Biso   1.000  Hf
  Hf13     1.0000 0.63409  0.46906  0.87574  Biso   1.000  Hf
  Hf14     1.0000 0.86620  0.53397  0.62653  Biso   1.000  Hf
  Hf15     1.0000 0.86676  0.96982  0.87632  Biso   1.000  Hf
  O25      1.0000 0.53701  0.37183  0.69315  Biso   1.000  O 
  O26      1.0000 0.53696  0.13239  0.94339  Biso   1.000  O 
  O27      1.0000 0.96437  0.86962  0.69530  Biso   1.000  O 
  O28      1.0000 0.96205  0.63104  0.94161  Biso   1.000  O 
  O29      1.0000 0.77036  0.23668  0.74963  Biso   1.000  O 
  O30      1.0000 0.77150  0.26723  0.99924  Biso   1.000  O 
  O31      1.0000 0.72955  0.76742  0.99913  Biso   1.000  O 
  O32      1.0000 0.72934  0.73787  0.74944  Biso   1.000  O 
