data_image0
_cell_length_a       5.05548
_cell_length_b       10.5489
_cell_length_c       10.0792
_cell_angle_alpha    90
_cell_angle_beta     90
_cell_angle_gamma    90

_symmetry_space_group_name_H-M    "P 1"
_symmetry_int_tables_number       1

loop_
  _symmetry_equiv_pos_as_xyz
  'x, y, z'

loop_
  _atom_site_label
  _atom_site_occupancy
  _atom_site_fract_x
  _atom_site_fract_y
  _atom_site_fract_z
  _atom_site_thermal_displace_type
  _atom_site_B_iso_or_equiv
  _atom_site_type_symbol
  Hf1      1.0000 0.26339  0.01720  0.12344  Biso   1.000  Hf
  Hf2      1.0000 0.27729  0.23147  0.37948  Biso   1.000  Hf
  Hf3      1.0000 0.73942  0.26018  0.12627  Biso   1.000  Hf
  Hf4      1.0000 0.75548  0.48548  0.37337  Biso   1.000  Hf
  O1       1.0000 0.02972  0.16913  0.22761  Biso   1.000  O 
  O2       1.0000 0.08426  0.06466  0.45331  Biso   1.000  O 
  O3       1.0000 0.97387  0.43378  0.20571  Biso   1.000  O 
  O4       1.0000 0.95919  0.32546  0.45669  Biso   1.000  O 
  O5       1.0000 0.52557  0.10583  0.25059  Biso   1.000  O 
  O6       1.0000 0.56068  0.13868  0.50075  Biso   1.000  O 
  O7       1.0000 0.48901  0.39220  0.50562  Biso   1.000  O 
  O8       1.0000 0.50948  0.35398  0.26427  Biso   1.000  O 
  Hf5      1.0000 0.29372  0.01685  0.61953  Biso   1.000  Hf
  Hf6      1.0000 0.26375  0.23900  0.85589  Biso   1.000  Hf
  Hf7      1.0000 0.74692  0.27508  0.62469  Biso   1.000  Hf
  Hf8      1.0000 0.76458  0.50402  0.87085  Biso   1.000  Hf
  O9       1.0000 0.06320  0.17429  0.69175  Biso   1.000  O 
  O10      1.0000 0.05673  0.08624  0.95378  Biso   1.000  O 
  O11      1.0000 0.96598  0.43226  0.70322  Biso   1.000  O 
  O12      1.0000 0.97150  0.33875  0.95066  Biso   1.000  O 
  O13      1.0000 0.54481  0.11907  0.75001  Biso   1.000  O 
  O14      1.0000 0.48134  0.16316  0.00646  Biso   1.000  O 
  O15      1.0000 0.50931  0.41796  0.01364  Biso   1.000  O 
  O16      1.0000 0.48926  0.37333  0.75678  Biso   1.000  O 
  Hf9      1.0000 0.26545  0.54654  0.11357  Biso   1.000  Hf
  Hf10     1.0000 0.28312  0.73716  0.37342  Biso   1.000  Hf
  Hf11     1.0000 0.73490  0.77311  0.12331  Biso   1.000  Hf
  Hf12     1.0000 0.75839  0.98966  0.37103  Biso   1.000  Hf
  O17      1.0000 0.05771  0.69301  0.20572  Biso   1.000  O 
  O18      1.0000 0.08068  0.57371  0.45130  Biso   1.000  O 
  O19      1.0000 0.93633  0.93396  0.19549  Biso   1.000  O 
  O20      1.0000 0.95554  0.82280  0.44568  Biso   1.000  O 
  O21      1.0000 0.54977  0.61787  0.24550  Biso   1.000  O 
  O22      1.0000 0.55468  0.63866  0.49467  Biso   1.000  O 
  O23      1.0000 0.48963  0.88835  0.49294  Biso   1.000  O 
  O24      1.0000 0.46382  0.86556  0.24317  Biso   1.000  O 
  Hf13     1.0000 0.28715  0.52115  0.62350  Biso   1.000  Hf
  Hf14     1.0000 0.28409  0.75519  0.86207  Biso   1.000  Hf
  Hf15     1.0000 0.75858  0.76647  0.61542  Biso   1.000  Hf
  Hf16     1.0000 0.77677  0.99140  0.86157  Biso   1.000  Hf
  O25      1.0000 0.08619  0.68542  0.69433  Biso   1.000  O 
  O26      1.0000 0.08599  0.59403  0.94225  Biso   1.000  O 
  O27      1.0000 0.98035  0.92609  0.70010  Biso   1.000  O 
  O28      1.0000 0.97317  0.83725  0.95017  Biso   1.000  O 
  O29      1.0000 0.55724  0.62179  0.74248  Biso   1.000  O 
  O30      1.0000 0.55778  0.67609  0.98765  Biso   1.000  O 
  O31      1.0000 0.50047  0.91996  0.99103  Biso   1.000  O 
  O32      1.0000 0.50467  0.87030  0.73937  Biso   1.000  O 
  Mo1      1.0000 0.23548  0.30694  0.11061  Biso   1.000  Mo
