data_image0
_cell_length_a       10.008
_cell_length_b       10.2181
_cell_length_c       10.4494
_cell_angle_alpha    90
_cell_angle_beta     90
_cell_angle_gamma    90

_symmetry_space_group_name_H-M    "P 1"
_symmetry_int_tables_number       1

loop_
  _symmetry_equiv_pos_as_xyz
  'x, y, z'

loop_
  _atom_site_label
  _atom_site_occupancy
  _atom_site_fract_x
  _atom_site_fract_y
  _atom_site_fract_z
  _atom_site_thermal_displace_type
  _atom_site_B_iso_or_equiv
  _atom_site_type_symbol
  Mo1      1.0000 0.13964  0.02312  0.17474  Biso   1.000  Mo
  Hf1      1.0000 0.14046  0.22988  0.42082  Biso   1.000  Hf
  Hf2      1.0000 0.36068  0.27036  0.17203  Biso   1.000  Hf
  Hf3      1.0000 0.36213  0.47966  0.42148  Biso   1.000  Hf
  Hf4      1.0000 0.63873  0.02157  0.07776  Biso   1.000  Hf
  Hf5      1.0000 0.63921  0.22894  0.32847  Biso   1.000  Hf
  Hf6      1.0000 0.86253  0.27030  0.07912  Biso   1.000  Hf
  Hf7      1.0000 0.86158  0.47908  0.32829  Biso   1.000  Hf
  O1       1.0000 0.03407  0.16243  0.08464  Biso   1.000  O 
  O2       1.0000 0.03797  0.08331  0.32880  Biso   1.000  O 
  O3       1.0000 0.46655  0.41579  0.08481  Biso   1.000  O 
  O4       1.0000 0.46674  0.33361  0.33471  Biso   1.000  O 
  O5       1.0000 0.27791  0.12237  0.29571  Biso   1.000  O 
  O6       1.0000 0.27382  0.12324  0.04932  Biso   1.000  O 
  O7       1.0000 0.22434  0.37438  0.29503  Biso   1.000  O 
  O8       1.0000 0.22383  0.37522  0.04516  Biso   1.000  O 
  O9       1.0000 0.53359  0.16597  0.16624  Biso   1.000  O 
  O10      1.0000 0.53395  0.08428  0.41614  Biso   1.000  O 
  O11      1.0000 0.96770  0.41538  0.16625  Biso   1.000  O 
  O12      1.0000 0.96732  0.33346  0.41501  Biso   1.000  O 
  O13      1.0000 0.77851  0.12324  0.45390  Biso   1.000  O 
  O14      1.0000 0.77722  0.12610  0.20475  Biso   1.000  O 
  O15      1.0000 0.72413  0.37359  0.45535  Biso   1.000  O 
  O16      1.0000 0.72397  0.37615  0.20515  Biso   1.000  O 
  Hf8      1.0000 0.13961  0.02131  0.67138  Biso   1.000  Hf
  Hf9      1.0000 0.13961  0.22735  0.92260  Biso   1.000  Hf
  Hf10     1.0000 0.36219  0.27154  0.67189  Biso   1.000  Hf
  Hf11     1.0000 0.36240  0.47908  0.92187  Biso   1.000  Hf
  Hf12     1.0000 0.63941  0.02126  0.57809  Biso   1.000  Hf
  Hf13     1.0000 0.63996  0.22947  0.82867  Biso   1.000  Hf
  Hf14     1.0000 0.86219  0.27106  0.57817  Biso   1.000  Hf
  Hf15     1.0000 0.86263  0.47896  0.82914  Biso   1.000  Hf
  O17      1.0000 0.03336  0.16380  0.58059  Biso   1.000  O 
  O18      1.0000 0.03313  0.08557  0.83190  Biso   1.000  O 
  O19      1.0000 0.46734  0.41662  0.58440  Biso   1.000  O 
  O20      1.0000 0.46786  0.33457  0.83435  Biso   1.000  O 
  O21      1.0000 0.27766  0.12388  0.79647  Biso   1.000  O 
  O22      1.0000 0.27774  0.12681  0.54549  Biso   1.000  O 
  O23      1.0000 0.22432  0.37373  0.79531  Biso   1.000  O 
  O24      1.0000 0.22409  0.37627  0.54470  Biso   1.000  O 
  O25      1.0000 0.53422  0.16620  0.66615  Biso   1.000  O 
  O26      1.0000 0.53313  0.08556  0.91675  Biso   1.000  O 
  O27      1.0000 0.96828  0.41473  0.66656  Biso   1.000  O 
  O28      1.0000 0.96874  0.33388  0.91711  Biso   1.000  O 
  O29      1.0000 0.77734  0.12429  0.95442  Biso   1.000  O 
  O30      1.0000 0.77743  0.12645  0.70435  Biso   1.000  O 
  O31      1.0000 0.72517  0.37425  0.95548  Biso   1.000  O 
  O32      1.0000 0.72452  0.37662  0.70527  Biso   1.000  O 
  Hf16     1.0000 0.13954  0.52128  0.17144  Biso   1.000  Hf
  Hf17     1.0000 0.13933  0.72915  0.42134  Biso   1.000  Hf
  Hf18     1.0000 0.35920  0.77445  0.17137  Biso   1.000  Hf
  Hf19     1.0000 0.36157  0.97898  0.42146  Biso   1.000  Hf
  Hf20     1.0000 0.63855  0.52171  0.07904  Biso   1.000  Hf
  Hf21     1.0000 0.63886  0.72908  0.32776  Biso   1.000  Hf
  Hf22     1.0000 0.86342  0.77206  0.07810  Biso   1.000  Hf
  Hf23     1.0000 0.86270  0.97906  0.32717  Biso   1.000  Hf
  O33      1.0000 0.03352  0.66488  0.08359  Biso   1.000  O 
  O34      1.0000 0.03368  0.58438  0.33366  Biso   1.000  O 
  O35      1.0000 0.46796  0.91543  0.08306  Biso   1.000  O 
  O36      1.0000 0.46697  0.83553  0.33312  Biso   1.000  O 
  O37      1.0000 0.27710  0.62488  0.29507  Biso   1.000  O 
  O38      1.0000 0.27698  0.62711  0.04510  Biso   1.000  O 
  O39      1.0000 0.22075  0.87547  0.29453  Biso   1.000  O 
  O40      1.0000 0.22043  0.87798  0.04551  Biso   1.000  O 
  O41      1.0000 0.53277  0.66718  0.16573  Biso   1.000  O 
  O42      1.0000 0.53426  0.58450  0.41591  Biso   1.000  O 
  O43      1.0000 0.97450  0.91689  0.16524  Biso   1.000  O 
  O44      1.0000 0.96784  0.83544  0.41594  Biso   1.000  O 
  O45      1.0000 0.77727  0.62397  0.45499  Biso   1.000  O 
  O46      1.0000 0.77687  0.62652  0.20505  Biso   1.000  O 
  O47      1.0000 0.72428  0.87404  0.45409  Biso   1.000  O 
  O48      1.0000 0.72764  0.87688  0.20453  Biso   1.000  O 
  Hf24     1.0000 0.13988  0.52130  0.67187  Biso   1.000  Hf
  Hf25     1.0000 0.14057  0.72972  0.92173  Biso   1.000  Hf
  Hf26     1.0000 0.36256  0.77131  0.67162  Biso   1.000  Hf
  Hf27     1.0000 0.36185  0.97857  0.92263  Biso   1.000  Hf
  Hf28     1.0000 0.63993  0.52137  0.57897  Biso   1.000  Hf
  Hf29     1.0000 0.64021  0.72924  0.82905  Biso   1.000  Hf
  Hf30     1.0000 0.86189  0.77130  0.57819  Biso   1.000  Hf
  Hf31     1.0000 0.86245  0.97915  0.82798  Biso   1.000  Hf
  O49      1.0000 0.03368  0.66539  0.58346  Biso   1.000  O 
  O50      1.0000 0.03444  0.58466  0.83395  Biso   1.000  O 
  O51      1.0000 0.46796  0.91599  0.58408  Biso   1.000  O 
  O52      1.0000 0.46783  0.83439  0.83440  Biso   1.000  O 
  O53      1.0000 0.27800  0.62392  0.79514  Biso   1.000  O 
  O54      1.0000 0.27758  0.62648  0.54521  Biso   1.000  O 
  O55      1.0000 0.22471  0.87407  0.79495  Biso   1.000  O 
  O56      1.0000 0.22453  0.87620  0.54500  Biso   1.000  O 
  O57      1.0000 0.53476  0.66636  0.66609  Biso   1.000  O 
  O58      1.0000 0.53501  0.58395  0.91592  Biso   1.000  O 
  O59      1.0000 0.96830  0.91540  0.66589  Biso   1.000  O 
  O60      1.0000 0.96816  0.83460  0.91568  Biso   1.000  O 
  O61      1.0000 0.77860  0.62475  0.95574  Biso   1.000  O 
  O62      1.0000 0.77802  0.62626  0.70546  Biso   1.000  O 
  O63      1.0000 0.72487  0.87441  0.95470  Biso   1.000  O 
  O64      1.0000 0.72454  0.87638  0.70468  Biso   1.000  O 
