data_image0
_cell_length_a       10.1085
_cell_length_b       10.414
_cell_length_c       5.07477
_cell_angle_alpha    90
_cell_angle_beta     90
_cell_angle_gamma    90

_symmetry_space_group_name_H-M    "P 1"
_symmetry_int_tables_number       1

loop_
  _symmetry_equiv_pos_as_xyz
  'x, y, z'

loop_
  _atom_site_label
  _atom_site_occupancy
  _atom_site_fract_x
  _atom_site_fract_y
  _atom_site_fract_z
  _atom_site_thermal_displace_type
  _atom_site_B_iso_or_equiv
  _atom_site_type_symbol
  Hf1      1.0000 0.16283  0.94393  0.27178  Biso   1.000  Hf
  Hf2      1.0000 0.14095  0.27812  0.76056  Biso   1.000  Hf
  Hf3      1.0000 0.38213  0.23726  0.30083  Biso   1.000  Hf
  Hf4      1.0000 0.42170  0.98766  0.77684  Biso   1.000  Hf
  O1       1.0000 0.01068  0.14778  0.93320  Biso   1.000  O 
  O2       1.0000 0.99083  0.06609  0.44236  Biso   1.000  O 
  O3       1.0000 0.00705  0.33188  0.47118  Biso   1.000  O 
  O4       1.0000 0.02072  0.40591  0.99296  Biso   1.000  O 
  O5       1.0000 0.26480  0.14359  0.58204  Biso   1.000  O 
  O6       1.0000 0.26563  0.07148  0.08612  Biso   1.000  O 
  O7       1.0000 0.24439  0.32913  0.06847  Biso   1.000  O 
  O8       1.0000 0.27699  0.39604  0.53230  Biso   1.000  O 
  Hf5      1.0000 0.14908  0.49659  0.24722  Biso   1.000  Hf
  Hf6      1.0000 0.17055  0.71859  0.76934  Biso   1.000  Hf
  Hf7      1.0000 0.42520  0.75639  0.27587  Biso   1.000  Hf
  Hf8      1.0000 0.42195  0.50305  0.70310  Biso   1.000  Hf
  O9       1.0000 0.04271  0.65648  0.08617  Biso   1.000  O 
  O10      1.0000 0.06120  0.57036  0.58098  Biso   1.000  O 
  O11      1.0000 0.03833  0.82118  0.51454  Biso   1.000  O 
  O12      1.0000 0.05282  0.87713  0.98814  Biso   1.000  O 
  O13      1.0000 0.29666  0.63848  0.47181  Biso   1.000  O 
  O14      1.0000 0.28352  0.56181  0.95721  Biso   1.000  O 
  O15      1.0000 0.28483  0.82328  0.02209  Biso   1.000  O 
  O16      1.0000 0.29643  0.88037  0.54325  Biso   1.000  O 
  Hf9      1.0000 0.63868  0.01524  0.23929  Biso   1.000  Hf
  Hf10     1.0000 0.62975  0.23565  0.74468  Biso   1.000  Hf
  Hf11     1.0000 0.86878  0.26713  0.19914  Biso   1.000  Hf
  Hf12     1.0000 0.93518  0.98532  0.74585  Biso   1.000  Hf
  O17      1.0000 0.50180  0.15025  0.01819  Biso   1.000  O 
  O18      1.0000 0.50771  0.09770  0.52090  Biso   1.000  O 
  O19      1.0000 0.52721  0.35636  0.47023  Biso   1.000  O 
  O20      1.0000 0.52314  0.38602  0.96323  Biso   1.000  O 
  O21      1.0000 0.73928  0.17022  0.43257  Biso   1.000  O 
  O22      1.0000 0.76481  0.09825  0.94446  Biso   1.000  O 
  O23      1.0000 0.77157  0.35180  0.92210  Biso   1.000  O 
  O24      1.0000 0.78005  0.42400  0.41609  Biso   1.000  O 
  Hf13     1.0000 0.63422  0.49555  0.19055  Biso   1.000  Hf
  Hf14     1.0000 0.67177  0.75323  0.75976  Biso   1.000  Hf
  Hf15     1.0000 0.89679  0.75975  0.24416  Biso   1.000  Hf
  Hf16     1.0000 0.89277  0.49422  0.71454  Biso   1.000  Hf
  O25      1.0000 0.54211  0.63720  0.97482  Biso   1.000  O 
  O26      1.0000 0.55095  0.61027  0.47312  Biso   1.000  O 
  O27      1.0000 0.54383  0.85312  0.52989  Biso   1.000  O 
  O28      1.0000 0.53143  0.90193  0.02911  Biso   1.000  O 
  O29      1.0000 0.81124  0.66262  0.54063  Biso   1.000  O 
  O30      1.0000 0.77358  0.61542  0.01512  Biso   1.000  O 
  O31      1.0000 0.80057  0.85328  0.99633  Biso   1.000  O 
  O32      1.0000 0.79119  0.90968  0.49145  Biso   1.000  O 
  Mo1      1.0000 0.12341  0.18620  0.26273  Biso   1.000  Mo
