data_image0
_cell_length_a       5.07476
_cell_length_b       10.4136
_cell_length_c       10.1086
_cell_angle_alpha    90
_cell_angle_beta     90
_cell_angle_gamma    90

_symmetry_space_group_name_H-M    "P 1"
_symmetry_int_tables_number       1

loop_
  _symmetry_equiv_pos_as_xyz
  'x, y, z'

loop_
  _atom_site_label
  _atom_site_occupancy
  _atom_site_fract_x
  _atom_site_fract_y
  _atom_site_fract_z
  _atom_site_thermal_displace_type
  _atom_site_B_iso_or_equiv
  _atom_site_type_symbol
  Hf1      1.0000 0.23248  0.95150  0.12666  Biso   1.000  Hf
  Hf2      1.0000 0.32086  0.25249  0.36711  Biso   1.000  Hf
  Hf3      1.0000 0.75647  0.29185  0.11470  Biso   1.000  Hf
  Hf4      1.0000 0.75715  0.00951  0.37236  Biso   1.000  Hf
  O1       1.0000 0.01238  0.19041  0.98336  Biso   1.000  O 
  O2       1.0000 0.10555  0.08060  0.26082  Biso   1.000  O 
  O3       1.0000 0.07150  0.33712  0.23194  Biso   1.000  O 
  O4       1.0000 0.05837  0.44940  0.98399  Biso   1.000  O 
  O5       1.0000 0.59666  0.15889  0.24654  Biso   1.000  O 
  O6       1.0000 0.52504  0.10184  0.97709  Biso   1.000  O 
  O7       1.0000 0.54035  0.36828  0.98431  Biso   1.000  O 
  O8       1.0000 0.53375  0.41090  0.25199  Biso   1.000  O 
  Hf5      1.0000 0.29448  0.03767  0.63157  Biso   1.000  Hf
  Hf6      1.0000 0.26016  0.29587  0.85439  Biso   1.000  Hf
  Hf7      1.0000 0.78585  0.26412  0.60446  Biso   1.000  Hf
  Hf8      1.0000 0.77132  0.02257  0.88592  Biso   1.000  Hf
  O9       1.0000 0.05412  0.16562  0.49573  Biso   1.000  O 
  O10      1.0000 0.00504  0.13353  0.73916  Biso   1.000  O 
  O11      1.0000 0.96879  0.38677  0.73849  Biso   1.000  O 
  O12      1.0000 0.98609  0.41398  0.48844  Biso   1.000  O 
  O13      1.0000 0.48753  0.19804  0.72290  Biso   1.000  O 
  O14      1.0000 0.55960  0.11970  0.49192  Biso   1.000  O 
  O15      1.0000 0.49585  0.37807  0.50447  Biso   1.000  O 
  O16      1.0000 0.46011  0.45266  0.75601  Biso   1.000  O 
  Hf9      1.0000 0.23209  0.50382  0.12757  Biso   1.000  Hf
  Hf10     1.0000 0.26998  0.77217  0.39447  Biso   1.000  Hf
  Hf11     1.0000 0.74271  0.73297  0.13030  Biso   1.000  Hf
  Hf12     1.0000 0.71085  0.52445  0.38959  Biso   1.000  Hf
  O17      1.0000 0.05290  0.65825  0.01997  Biso   1.000  O 
  O18      1.0000 0.94915  0.58224  0.24382  Biso   1.000  O 
  O19      1.0000 0.00046  0.83157  0.25794  Biso   1.000  O 
  O20      1.0000 0.94199  0.89058  0.00285  Biso   1.000  O 
  O21      1.0000 0.46113  0.65294  0.26538  Biso   1.000  O 
  O22      1.0000 0.55352  0.57909  0.02997  Biso   1.000  O 
  O23      1.0000 0.47097  0.82813  0.00076  Biso   1.000  O 
  O24      1.0000 0.51879  0.89551  0.25597  Biso   1.000  O 
  Hf13     1.0000 0.21799  0.51687  0.61329  Biso   1.000  Hf
  Hf14     1.0000 0.27961  0.78950  0.86600  Biso   1.000  Hf
  Hf15     1.0000 0.77502  0.78285  0.62998  Biso   1.000  Hf
  Hf16     1.0000 0.76400  0.53009  0.85971  Biso   1.000  Hf
  O25      1.0000 0.98501  0.66566  0.49928  Biso   1.000  O 
  O26      1.0000 0.04821  0.63861  0.75266  Biso   1.000  O 
  O27      1.0000 0.01724  0.88971  0.75006  Biso   1.000  O 
  O28      1.0000 0.02470  0.91771  0.50154  Biso   1.000  O 
  O29      1.0000 0.57361  0.69361  0.77691  Biso   1.000  O 
  O30      1.0000 0.48627  0.63255  0.52015  Biso   1.000  O 
  O31      1.0000 0.52860  0.87571  0.50417  Biso   1.000  O 
  O32      1.0000 0.50910  0.93919  0.75019  Biso   1.000  O 
  Mo1      1.0000 0.26297  0.19308  0.11122  Biso   1.000  Mo
