data_image0
_cell_length_a       4.96573
_cell_length_b       10.3421
_cell_length_c       9.9863
_cell_angle_alpha    90
_cell_angle_beta     90
_cell_angle_gamma    90

_symmetry_space_group_name_H-M    "P 1"
_symmetry_int_tables_number       1

loop_
  _symmetry_equiv_pos_as_xyz
  'x, y, z'

loop_
  _atom_site_label
  _atom_site_occupancy
  _atom_site_fract_x
  _atom_site_fract_y
  _atom_site_fract_z
  _atom_site_thermal_displace_type
  _atom_site_B_iso_or_equiv
  _atom_site_type_symbol
  Mo1      1.0000 0.27627  0.01984  0.12329  Biso   1.000  Mo
  Hf1      1.0000 0.26658  0.23333  0.37568  Biso   1.000  Hf
  Hf2      1.0000 0.73327  0.26615  0.12580  Biso   1.000  Hf
  Hf3      1.0000 0.73224  0.48472  0.37615  Biso   1.000  Hf
  O1       1.0000 0.07215  0.18025  0.19551  Biso   1.000  O 
  O2       1.0000 0.06946  0.06830  0.44860  Biso   1.000  O 
  O3       1.0000 0.92938  0.43288  0.19433  Biso   1.000  O 
  O4       1.0000 0.92805  0.31712  0.44479  Biso   1.000  O 
  O5       1.0000 0.53524  0.11733  0.24770  Biso   1.000  O 
  O6       1.0000 0.54281  0.13356  0.49846  Biso   1.000  O 
  O7       1.0000 0.45885  0.38321  0.50004  Biso   1.000  O 
  O8       1.0000 0.46022  0.36827  0.25013  Biso   1.000  O 
  Hf4      1.0000 0.27014  0.01745  0.62610  Biso   1.000  Hf
  Hf5      1.0000 0.27023  0.23483  0.87727  Biso   1.000  Hf
  Hf6      1.0000 0.73297  0.26720  0.62629  Biso   1.000  Hf
  Hf7      1.0000 0.73252  0.48544  0.87589  Biso   1.000  Hf
  O9       1.0000 0.07208  0.18435  0.69839  Biso   1.000  O 
  O10      1.0000 0.07632  0.06635  0.95396  Biso   1.000  O 
  O11      1.0000 0.92742  0.43556  0.69378  Biso   1.000  O 
  O12      1.0000 0.92719  0.31603  0.94396  Biso   1.000  O 
  O13      1.0000 0.54269  0.11889  0.75032  Biso   1.000  O 
  O14      1.0000 0.54534  0.13201  0.99993  Biso   1.000  O 
  O15      1.0000 0.45719  0.38126  0.00043  Biso   1.000  O 
  O16      1.0000 0.45905  0.36867  0.75034  Biso   1.000  O 
  Hf8      1.0000 0.26963  0.51740  0.12666  Biso   1.000  Hf
  Hf9      1.0000 0.26962  0.73602  0.37451  Biso   1.000  Hf
  Hf10     1.0000 0.73314  0.76956  0.12502  Biso   1.000  Hf
  Hf11     1.0000 0.73539  0.98540  0.37292  Biso   1.000  Hf
  O17      1.0000 0.07306  0.68481  0.19314  Biso   1.000  O 
  O18      1.0000 0.07443  0.56743  0.44294  Biso   1.000  O 
  O19      1.0000 0.94148  0.93551  0.19152  Biso   1.000  O 
  O20      1.0000 0.92913  0.81777  0.44376  Biso   1.000  O 
  O21      1.0000 0.54364  0.61994  0.24974  Biso   1.000  O 
  O22      1.0000 0.54231  0.63397  0.49948  Biso   1.000  O 
  O23      1.0000 0.46081  0.88435  0.49820  Biso   1.000  O 
  O24      1.0000 0.45946  0.87213  0.24704  Biso   1.000  O 
  Hf12     1.0000 0.26877  0.51785  0.62538  Biso   1.000  Hf
  Hf13     1.0000 0.26776  0.73479  0.87594  Biso   1.000  Hf
  Hf14     1.0000 0.73304  0.76836  0.62563  Biso   1.000  Hf
  Hf15     1.0000 0.73236  0.98457  0.87754  Biso   1.000  Hf
  O25      1.0000 0.07351  0.68570  0.69350  Biso   1.000  O 
  O26      1.0000 0.07510  0.56629  0.94405  Biso   1.000  O 
  O27      1.0000 0.92926  0.93570  0.69617  Biso   1.000  O 
  O28      1.0000 0.92157  0.81623  0.94166  Biso   1.000  O 
  O29      1.0000 0.54202  0.61914  0.74967  Biso   1.000  O 
  O30      1.0000 0.54387  0.63424  0.99998  Biso   1.000  O 
  O31      1.0000 0.44828  0.88421  0.99944  Biso   1.000  O 
  O32      1.0000 0.46023  0.86906  0.74974  Biso   1.000  O 
