data_image0
_cell_length_a       4.99851
_cell_length_b       10.156
_cell_length_c       9.99484
_cell_angle_alpha    90
_cell_angle_beta     90
_cell_angle_gamma    90

_symmetry_space_group_name_H-M    "P 1"
_symmetry_int_tables_number       1

loop_
  _symmetry_equiv_pos_as_xyz
  'x, y, z'

loop_
  _atom_site_label
  _atom_site_occupancy
  _atom_site_fract_x
  _atom_site_fract_y
  _atom_site_fract_z
  _atom_site_thermal_displace_type
  _atom_site_B_iso_or_equiv
  _atom_site_type_symbol
  Mo1      1.0000 0.24982  0.00005  0.12491  Biso   1.000  Mo
  Hf1      1.0000 0.25207  0.24917  0.37371  Biso   1.000  Hf
  Hf2      1.0000 0.74982  0.24927  0.12491  Biso   1.000  Hf
  Hf3      1.0000 0.74982  0.00005  0.37413  Biso   1.000  Hf
  O1       1.0000 0.98522  0.14444  0.99466  Biso   1.000  O 
  O2       1.0000 0.01324  0.10174  0.24469  Biso   1.000  O 
  O3       1.0000 0.99529  0.35251  0.25211  Biso   1.000  O 
  O4       1.0000 0.00266  0.39628  0.00118  Biso   1.000  O 
  O5       1.0000 0.51441  0.14444  0.25515  Biso   1.000  O 
  O6       1.0000 0.48639  0.10174  0.00513  Biso   1.000  O 
  O7       1.0000 0.50434  0.35251  0.99771  Biso   1.000  O 
  O8       1.0000 0.49698  0.39628  0.24864  Biso   1.000  O 
  Hf4      1.0000 0.24982  0.00005  0.62491  Biso   1.000  Hf
  Hf5      1.0000 0.24756  0.24917  0.87610  Biso   1.000  Hf
  Hf6      1.0000 0.74982  0.24985  0.62491  Biso   1.000  Hf
  Hf7      1.0000 0.74982  0.00005  0.87569  Biso   1.000  Hf
  O9       1.0000 0.98870  0.14667  0.49268  Biso   1.000  O 
  O10      1.0000 0.00500  0.10412  0.74606  Biso   1.000  O 
  O11      1.0000 0.99568  0.35343  0.75231  Biso   1.000  O 
  O12      1.0000 0.00208  0.39637  0.50146  Biso   1.000  O 
  O13      1.0000 0.51093  0.14667  0.75714  Biso   1.000  O 
  O14      1.0000 0.49463  0.10412  0.50376  Biso   1.000  O 
  O15      1.0000 0.50396  0.35343  0.49751  Biso   1.000  O 
  O16      1.0000 0.49756  0.39637  0.74836  Biso   1.000  O 
  Hf8      1.0000 0.24982  0.50005  0.12491  Biso   1.000  Hf
  Hf9      1.0000 0.24757  0.75094  0.37371  Biso   1.000  Hf
  Hf10     1.0000 0.74982  0.75084  0.12491  Biso   1.000  Hf
  Hf11     1.0000 0.74982  0.50005  0.37569  Biso   1.000  Hf
  O17      1.0000 0.99529  0.64760  0.99771  Biso   1.000  O 
  O18      1.0000 0.00266  0.60382  0.24864  Biso   1.000  O 
  O19      1.0000 0.98522  0.85566  0.25515  Biso   1.000  O 
  O20      1.0000 0.01324  0.89837  0.00513  Biso   1.000  O 
  O21      1.0000 0.50434  0.64760  0.25211  Biso   1.000  O 
  O22      1.0000 0.49698  0.60382  0.00118  Biso   1.000  O 
  O23      1.0000 0.51441  0.85566  0.99466  Biso   1.000  O 
  O24      1.0000 0.48639  0.89837  0.24469  Biso   1.000  O 
  Hf12     1.0000 0.24982  0.50005  0.62491  Biso   1.000  Hf
  Hf13     1.0000 0.25207  0.75094  0.87610  Biso   1.000  Hf
  Hf14     1.0000 0.74982  0.75026  0.62491  Biso   1.000  Hf
  Hf15     1.0000 0.74982  0.50005  0.87413  Biso   1.000  Hf
  O25      1.0000 0.99568  0.64668  0.49751  Biso   1.000  O 
  O26      1.0000 0.00208  0.60373  0.74836  Biso   1.000  O 
  O27      1.0000 0.98870  0.85343  0.75714  Biso   1.000  O 
  O28      1.0000 0.00500  0.89598  0.50375  Biso   1.000  O 
  O29      1.0000 0.50396  0.64668  0.75231  Biso   1.000  O 
  O30      1.0000 0.49755  0.60373  0.50146  Biso   1.000  O 
  O31      1.0000 0.51093  0.85343  0.49268  Biso   1.000  O 
  O32      1.0000 0.49463  0.89598  0.74606  Biso   1.000  O 
