data_image0
_cell_length_a       10.0872
_cell_length_b       5.1783
_cell_length_c       10.1076
_cell_angle_alpha    90
_cell_angle_beta     90
_cell_angle_gamma    90

_symmetry_space_group_name_H-M    "P 1"
_symmetry_int_tables_number       1

loop_
  _symmetry_equiv_pos_as_xyz
  'x, y, z'

loop_
  _atom_site_label
  _atom_site_occupancy
  _atom_site_fract_x
  _atom_site_fract_y
  _atom_site_fract_z
  _atom_site_thermal_displace_type
  _atom_site_B_iso_or_equiv
  _atom_site_type_symbol
  Hf1      1.0000 0.12722  0.06932  0.12480  Biso   1.000  Hf
  Hf2      1.0000 0.14161  0.50276  0.39987  Biso   1.000  Hf
  Hf3      1.0000 0.41520  0.47035  0.11320  Biso   1.000  Hf
  Hf4      1.0000 0.39325  0.95429  0.38289  Biso   1.000  Hf
  O1       1.0000 0.01355  0.35313  0.00788  Biso   1.000  O 
  O2       1.0000 0.01497  0.32939  0.25018  Biso   1.000  O 
  O3       1.0000 0.98492  0.81220  0.21064  Biso   1.000  O 
  O4       1.0000 0.03088  0.82218  0.97390  Biso   1.000  O 
  O5       1.0000 0.25622  0.33128  0.24222  Biso   1.000  O 
  O6       1.0000 0.23663  0.28409  0.99716  Biso   1.000  O 
  O7       1.0000 0.29096  0.78607  0.03735  Biso   1.000  O 
  O8       1.0000 0.22691  0.82775  0.27778  Biso   1.000  O 
  Hf5      1.0000 0.11722  0.00895  0.62220  Biso   1.000  Hf
  Hf6      1.0000 0.10933  0.49980  0.85232  Biso   1.000  Hf
  Hf7      1.0000 0.38834  0.43925  0.62361  Biso   1.000  Hf
  Hf8      1.0000 0.38519  0.93971  0.87968  Biso   1.000  Hf
  O9       1.0000 0.00679  0.31484  0.51951  Biso   1.000  O 
  O10      1.0000 0.98268  0.20843  0.76041  Biso   1.000  O 
  O11      1.0000 0.98232  0.70973  0.72491  Biso   1.000  O 
  O12      1.0000 0.03197  0.81931  0.47356  Biso   1.000  O 
  O13      1.0000 0.22945  0.30419  0.72861  Biso   1.000  O 
  O14      1.0000 0.24905  0.20115  0.49161  Biso   1.000  O 
  O15      1.0000 0.26939  0.70801  0.52634  Biso   1.000  O 
  O16      1.0000 0.22428  0.81370  0.77922  Biso   1.000  O 
  Hf9      1.0000 0.63896  0.03686  0.11267  Biso   1.000  Hf
  Hf10     1.0000 0.62216  0.46058  0.35882  Biso   1.000  Hf
  Hf11     1.0000 0.86017  0.49442  0.13577  Biso   1.000  Hf
  Hf12     1.0000 0.87511  0.94151  0.37176  Biso   1.000  Hf
  O17      1.0000 0.49181  0.22036  0.97211  Biso   1.000  O 
  O18      1.0000 0.49695  0.15332  0.24412  Biso   1.000  O 
  O19      1.0000 0.47080  0.65353  0.27792  Biso   1.000  O 
  O20      1.0000 0.53312  0.76204  0.01313  Biso   1.000  O 
  O21      1.0000 0.76595  0.23275  0.25878  Biso   1.000  O 
  O22      1.0000 0.76003  0.21112  0.99406  Biso   1.000  O 
  O23      1.0000 0.76588  0.73016  0.99569  Biso   1.000  O 
  O24      1.0000 0.73544  0.75043  0.25202  Biso   1.000  O 
  Hf13     1.0000 0.63968  0.97055  0.61352  Biso   1.000  Hf
  Hf14     1.0000 0.63180  0.48727  0.89849  Biso   1.000  Hf
  Hf15     1.0000 0.85548  0.44707  0.63244  Biso   1.000  Hf
  Hf16     1.0000 0.87621  0.95528  0.85920  Biso   1.000  Hf
  O25      1.0000 0.50215  0.23451  0.48808  Biso   1.000  O 
  O26      1.0000 0.46487  0.10389  0.72125  Biso   1.000  O 
  O27      1.0000 0.47175  0.61571  0.78144  Biso   1.000  O 
  O28      1.0000 0.51771  0.72731  0.51158  Biso   1.000  O 
  O29      1.0000 0.72550  0.23522  0.74990  Biso   1.000  O 
  O30      1.0000 0.75111  0.18267  0.50404  Biso   1.000  O 
  O31      1.0000 0.76894  0.68400  0.49186  Biso   1.000  O 
  O32      1.0000 0.73429  0.73181  0.75102  Biso   1.000  O 
  Mo1      1.0000 0.13672  0.57266  0.12640  Biso   1.000  Mo
