data_image0
_cell_length_a       4.97951
_cell_length_b       10.4189
_cell_length_c       10.0367
_cell_angle_alpha    90
_cell_angle_beta     90
_cell_angle_gamma    90

_symmetry_space_group_name_H-M    "P 1"
_symmetry_int_tables_number       1

loop_
  _symmetry_equiv_pos_as_xyz
  'x, y, z'

loop_
  _atom_site_label
  _atom_site_occupancy
  _atom_site_fract_x
  _atom_site_fract_y
  _atom_site_fract_z
  _atom_site_thermal_displace_type
  _atom_site_B_iso_or_equiv
  _atom_site_type_symbol
  Hf1      1.0000 0.29427  0.01022  0.11804  Biso   1.000  Hf
  Hf2      1.0000 0.27931  0.23756  0.39228  Biso   1.000  Hf
  Hf3      1.0000 0.66920  0.27094  0.12131  Biso   1.000  Hf
  Hf4      1.0000 0.73095  0.48527  0.37601  Biso   1.000  Hf
  O1       1.0000 0.05325  0.20090  0.20031  Biso   1.000  O 
  O2       1.0000 0.08547  0.06942  0.44570  Biso   1.000  O 
  O3       1.0000 0.90299  0.43502  0.19038  Biso   1.000  O 
  O4       1.0000 0.93036  0.31900  0.44683  Biso   1.000  O 
  O5       1.0000 0.53612  0.11959  0.25860  Biso   1.000  O 
  O6       1.0000 0.55851  0.13512  0.50629  Biso   1.000  O 
  O7       1.0000 0.46548  0.38465  0.50561  Biso   1.000  O 
  O8       1.0000 0.43352  0.37530  0.25910  Biso   1.000  O 
  Hf5      1.0000 0.28975  0.02063  0.62971  Biso   1.000  Hf
  Hf6      1.0000 0.26699  0.23694  0.88193  Biso   1.000  Hf
  Hf7      1.0000 0.73929  0.27138  0.63459  Biso   1.000  Hf
  Hf8      1.0000 0.73988  0.49189  0.87390  Biso   1.000  Hf
  O9       1.0000 0.08389  0.18737  0.69354  Biso   1.000  O 
  O10      1.0000 0.12093  0.05611  0.93103  Biso   1.000  O 
  O11      1.0000 0.92556  0.44186  0.69086  Biso   1.000  O 
  O12      1.0000 0.91227  0.31972  0.92850  Biso   1.000  O 
  O13      1.0000 0.55424  0.12272  0.75300  Biso   1.000  O 
  O14      1.0000 0.60770  0.12495  0.99611  Biso   1.000  O 
  O15      1.0000 0.46857  0.39880  0.99922  Biso   1.000  O 
  O16      1.0000 0.45543  0.37368  0.75327  Biso   1.000  O 
  Hf9      1.0000 0.24875  0.52089  0.12991  Biso   1.000  Hf
  Hf10     1.0000 0.26350  0.73631  0.37744  Biso   1.000  Hf
  Hf11     1.0000 0.72071  0.76659  0.12607  Biso   1.000  Hf
  Hf12     1.0000 0.72041  0.98662  0.37732  Biso   1.000  Hf
  O17      1.0000 0.06299  0.68867  0.19592  Biso   1.000  O 
  O18      1.0000 0.07194  0.56809  0.44295  Biso   1.000  O 
  O19      1.0000 0.91739  0.94285  0.19240  Biso   1.000  O 
  O20      1.0000 0.91794  0.81781  0.44112  Biso   1.000  O 
  O21      1.0000 0.53249  0.62068  0.25124  Biso   1.000  O 
  O22      1.0000 0.53836  0.63475  0.49994  Biso   1.000  O 
  O23      1.0000 0.44860  0.88563  0.50023  Biso   1.000  O 
  O24      1.0000 0.45396  0.86907  0.24945  Biso   1.000  O 
  Hf13     1.0000 0.27028  0.52010  0.62730  Biso   1.000  Hf
  Hf14     1.0000 0.27181  0.73668  0.87626  Biso   1.000  Hf
  Hf15     1.0000 0.72983  0.76904  0.62413  Biso   1.000  Hf
  Hf16     1.0000 0.73649  0.98524  0.87116  Biso   1.000  Hf
  O25      1.0000 0.07001  0.68769  0.69475  Biso   1.000  O 
  O26      1.0000 0.07743  0.57145  0.94745  Biso   1.000  O 
  O27      1.0000 0.91983  0.93653  0.68825  Biso   1.000  O 
  O28      1.0000 0.93312  0.81881  0.94456  Biso   1.000  O 
  O29      1.0000 0.53988  0.62302  0.74960  Biso   1.000  O 
  O30      1.0000 0.52342  0.63493  0.00161  Biso   1.000  O 
  O31      1.0000 0.46800  0.88252  0.99942  Biso   1.000  O 
  O32      1.0000 0.45705  0.87089  0.74942  Biso   1.000  O 
  N1       1.0000 0.22790  0.22004  0.10068  Biso   1.000  N 
