data_image0
_cell_length_a       10.0438
_cell_length_b       10.2046
_cell_length_c       10.47
_cell_angle_alpha    90
_cell_angle_beta     90
_cell_angle_gamma    90

_symmetry_space_group_name_H-M    "P 1"
_symmetry_int_tables_number       1

loop_
  _symmetry_equiv_pos_as_xyz
  'x, y, z'

loop_
  _atom_site_label
  _atom_site_occupancy
  _atom_site_fract_x
  _atom_site_fract_y
  _atom_site_fract_z
  _atom_site_thermal_displace_type
  _atom_site_B_iso_or_equiv
  _atom_site_type_symbol
  N1       1.0000 0.04311  0.05821  0.17951  Biso   1.000  N 
  Hf1      1.0000 0.14887  0.23328  0.42220  Biso   1.000  Hf
  Hf2      1.0000 0.35549  0.26274  0.17219  Biso   1.000  Hf
  Hf3      1.0000 0.36402  0.48100  0.42025  Biso   1.000  Hf
  Hf4      1.0000 0.63897  0.02157  0.07695  Biso   1.000  Hf
  Hf5      1.0000 0.63491  0.23042  0.32938  Biso   1.000  Hf
  Hf6      1.0000 0.85195  0.27633  0.08017  Biso   1.000  Hf
  Hf7      1.0000 0.86397  0.47991  0.32920  Biso   1.000  Hf
  O1       1.0000 0.03054  0.15058  0.09319  Biso   1.000  O 
  O2       1.0000 0.02450  0.10106  0.30000  Biso   1.000  O 
  O3       1.0000 0.46538  0.41228  0.08476  Biso   1.000  O 
  O4       1.0000 0.46897  0.33850  0.33319  Biso   1.000  O 
  O5       1.0000 0.28278  0.13340  0.30828  Biso   1.000  O 
  O6       1.0000 0.28944  0.13728  0.03223  Biso   1.000  O 
  O7       1.0000 0.22394  0.37726  0.29516  Biso   1.000  O 
  O8       1.0000 0.21904  0.37489  0.04672  Biso   1.000  O 
  O9       1.0000 0.53435  0.16516  0.16715  Biso   1.000  O 
  O10      1.0000 0.53455  0.08585  0.41798  Biso   1.000  O 
  O11      1.0000 0.96763  0.41238  0.16825  Biso   1.000  O 
  O12      1.0000 0.97092  0.33643  0.41760  Biso   1.000  O 
  O13      1.0000 0.77613  0.12269  0.45564  Biso   1.000  O 
  O14      1.0000 0.77672  0.12746  0.20665  Biso   1.000  O 
  O15      1.0000 0.72701  0.37320  0.45585  Biso   1.000  O 
  O16      1.0000 0.72210  0.37770  0.20520  Biso   1.000  O 
  Hf8      1.0000 0.13986  0.02100  0.67063  Biso   1.000  Hf
  Hf9      1.0000 0.14855  0.22832  0.91999  Biso   1.000  Hf
  Hf10     1.0000 0.36423  0.27239  0.67204  Biso   1.000  Hf
  Hf11     1.0000 0.36133  0.47920  0.92459  Biso   1.000  Hf
  Hf12     1.0000 0.63513  0.02086  0.58002  Biso   1.000  Hf
  Hf13     1.0000 0.64006  0.23020  0.82816  Biso   1.000  Hf
  Hf14     1.0000 0.86466  0.27015  0.57631  Biso   1.000  Hf
  Hf15     1.0000 0.86741  0.47626  0.82929  Biso   1.000  Hf
  O17      1.0000 0.02885  0.15033  0.56381  Biso   1.000  O 
  O18      1.0000 0.03266  0.09110  0.83025  Biso   1.000  O 
  O19      1.0000 0.46943  0.41652  0.58331  Biso   1.000  O 
  O20      1.0000 0.46970  0.33711  0.83309  Biso   1.000  O 
  O21      1.0000 0.27659  0.12361  0.79148  Biso   1.000  O 
  O22      1.0000 0.27728  0.12794  0.54907  Biso   1.000  O 
  O23      1.0000 0.22581  0.37294  0.79642  Biso   1.000  O 
  O24      1.0000 0.22589  0.37672  0.54454  Biso   1.000  O 
  O25      1.0000 0.53427  0.16647  0.66765  Biso   1.000  O 
  O26      1.0000 0.53805  0.08555  0.91579  Biso   1.000  O 
  O27      1.0000 0.97457  0.40692  0.67213  Biso   1.000  O 
  O28      1.0000 0.97011  0.33220  0.92694  Biso   1.000  O 
  O29      1.0000 0.77984  0.12751  0.95620  Biso   1.000  O 
  O30      1.0000 0.77716  0.12650  0.70432  Biso   1.000  O 
  O31      1.0000 0.72404  0.37752  0.95533  Biso   1.000  O 
  O32      1.0000 0.72848  0.37666  0.70483  Biso   1.000  O 
  Hf16     1.0000 0.14070  0.52106  0.17234  Biso   1.000  Hf
  Hf17     1.0000 0.14343  0.73167  0.41931  Biso   1.000  Hf
  Hf18     1.0000 0.35766  0.77809  0.17269  Biso   1.000  Hf
  Hf19     1.0000 0.35960  0.98056  0.41727  Biso   1.000  Hf
  Hf20     1.0000 0.63281  0.52138  0.08077  Biso   1.000  Hf
  Hf21     1.0000 0.63783  0.72783  0.32686  Biso   1.000  Hf
  Hf22     1.0000 0.86099  0.76321  0.07115  Biso   1.000  Hf
  Hf23     1.0000 0.85151  0.97828  0.33664  Biso   1.000  Hf
  O33      1.0000 0.03532  0.67210  0.08855  Biso   1.000  O 
  O34      1.0000 0.03310  0.58797  0.33297  Biso   1.000  O 
  O35      1.0000 0.47579  0.91393  0.08250  Biso   1.000  O 
  O36      1.0000 0.47743  0.84440  0.32789  Biso   1.000  O 
  O37      1.0000 0.27894  0.62237  0.29466  Biso   1.000  O 
  O38      1.0000 0.27577  0.62051  0.04711  Biso   1.000  O 
  O39      1.0000 0.23211  0.86737  0.30274  Biso   1.000  O 
  O40      1.0000 0.24016  0.86540  0.03563  Biso   1.000  O 
  O41      1.0000 0.53218  0.66586  0.16787  Biso   1.000  O 
  O42      1.0000 0.53543  0.58689  0.41810  Biso   1.000  O 
  O43      1.0000 0.97267  0.95269  0.16234  Biso   1.000  O 
  O44      1.0000 0.96998  0.84288  0.41495  Biso   1.000  O 
  O45      1.0000 0.77869  0.62443  0.45569  Biso   1.000  O 
  O46      1.0000 0.77636  0.62454  0.20437  Biso   1.000  O 
  O47      1.0000 0.72325  0.87281  0.45596  Biso   1.000  O 
  O48      1.0000 0.74103  0.87474  0.20411  Biso   1.000  O 
  Hf24     1.0000 0.14083  0.52422  0.67315  Biso   1.000  Hf
  Hf25     1.0000 0.14545  0.73425  0.92355  Biso   1.000  Hf
  Hf26     1.0000 0.36333  0.77335  0.67133  Biso   1.000  Hf
  Hf27     1.0000 0.36224  0.98084  0.92528  Biso   1.000  Hf
  Hf28     1.0000 0.64157  0.52146  0.57979  Biso   1.000  Hf
  Hf29     1.0000 0.63851  0.73089  0.82761  Biso   1.000  Hf
  Hf30     1.0000 0.86374  0.77047  0.57972  Biso   1.000  Hf
  Hf31     1.0000 0.86478  0.98123  0.82759  Biso   1.000  Hf
  O49      1.0000 0.03346  0.66428  0.58330  Biso   1.000  O 
  O50      1.0000 0.03511  0.58491  0.83514  Biso   1.000  O 
  O51      1.0000 0.46819  0.91515  0.58154  Biso   1.000  O 
  O52      1.0000 0.47049  0.83812  0.83048  Biso   1.000  O 
  O53      1.0000 0.27856  0.62430  0.79559  Biso   1.000  O 
  O54      1.0000 0.27797  0.62771  0.54521  Biso   1.000  O 
  O55      1.0000 0.22550  0.87483  0.79252  Biso   1.000  O 
  O56      1.0000 0.22447  0.87793  0.54625  Biso   1.000  O 
  O57      1.0000 0.53578  0.66564  0.66677  Biso   1.000  O 
  O58      1.0000 0.53321  0.58672  0.91772  Biso   1.000  O 
  O59      1.0000 0.96978  0.91290  0.66918  Biso   1.000  O 
  O60      1.0000 0.97094  0.83886  0.91974  Biso   1.000  O 
  O61      1.0000 0.77818  0.62609  0.95714  Biso   1.000  O 
  O62      1.0000 0.78002  0.62557  0.70698  Biso   1.000  O 
  O63      1.0000 0.72661  0.87595  0.95350  Biso   1.000  O 
  O64      1.0000 0.72654  0.87623  0.70455  Biso   1.000  O 
