data_image0
_cell_length_a       4.99727
_cell_length_b       10.3471
_cell_length_c       9.99555
_cell_angle_alpha    90
_cell_angle_beta     90
_cell_angle_gamma    90

_symmetry_space_group_name_H-M    "P 1"
_symmetry_int_tables_number       1

loop_
  _symmetry_equiv_pos_as_xyz
  'x, y, z'

loop_
  _atom_site_label
  _atom_site_occupancy
  _atom_site_fract_x
  _atom_site_fract_y
  _atom_site_fract_z
  _atom_site_thermal_displace_type
  _atom_site_B_iso_or_equiv
  _atom_site_type_symbol
  N1       1.0000 0.09156  0.05397  0.11404  Biso   1.000  N 
  Hf1      1.0000 0.30112  0.23019  0.37890  Biso   1.000  Hf
  Hf2      1.0000 0.70554  0.26873  0.12116  Biso   1.000  Hf
  Hf3      1.0000 0.75275  0.48217  0.37602  Biso   1.000  Hf
  O1       1.0000 0.09116  0.17100  0.17307  Biso   1.000  O 
  O2       1.0000 0.08891  0.06958  0.44500  Biso   1.000  O 
  O3       1.0000 0.93135  0.42516  0.19602  Biso   1.000  O 
  O4       1.0000 0.95363  0.31486  0.44670  Biso   1.000  O 
  O5       1.0000 0.59377  0.13511  0.26060  Biso   1.000  O 
  O6       1.0000 0.55573  0.13104  0.50564  Biso   1.000  O 
  O7       1.0000 0.48306  0.37992  0.49953  Biso   1.000  O 
  O8       1.0000 0.44586  0.36987  0.24839  Biso   1.000  O 
  Hf4      1.0000 0.27743  0.01230  0.62603  Biso   1.000  Hf
  Hf5      1.0000 0.30295  0.23596  0.87745  Biso   1.000  Hf
  Hf6      1.0000 0.75932  0.26377  0.62733  Biso   1.000  Hf
  Hf7      1.0000 0.76459  0.48370  0.87335  Biso   1.000  Hf
  O9       1.0000 0.07834  0.17661  0.71050  Biso   1.000  O 
  O10      1.0000 0.08195  0.06553  0.98276  Biso   1.000  O 
  O11      1.0000 0.95628  0.43227  0.69297  Biso   1.000  O 
  O12      1.0000 0.96182  0.31921  0.94433  Biso   1.000  O 
  O13      1.0000 0.54536  0.11276  0.74884  Biso   1.000  O 
  O14      1.0000 0.58025  0.13898  0.99026  Biso   1.000  O 
  O15      1.0000 0.48547  0.38541  0.99925  Biso   1.000  O 
  O16      1.0000 0.48666  0.36517  0.74979  Biso   1.000  O 
  Hf8      1.0000 0.26398  0.51765  0.12899  Biso   1.000  Hf
  Hf9      1.0000 0.29806  0.73773  0.37271  Biso   1.000  Hf
  Hf10     1.0000 0.73398  0.75808  0.11359  Biso   1.000  Hf
  Hf11     1.0000 0.74061  0.98901  0.37671  Biso   1.000  Hf
  O17      1.0000 0.08484  0.69238  0.19482  Biso   1.000  O 
  O18      1.0000 0.09368  0.56666  0.44138  Biso   1.000  O 
  O19      1.0000 0.96015  0.96341  0.17644  Biso   1.000  O 
  O20      1.0000 0.96527  0.82356  0.44848  Biso   1.000  O 
  O21      1.0000 0.55133  0.60985  0.24636  Biso   1.000  O 
  O22      1.0000 0.56478  0.63366  0.49708  Biso   1.000  O 
  O23      1.0000 0.48245  0.88449  0.50094  Biso   1.000  O 
  O24      1.0000 0.54486  0.85483  0.25878  Biso   1.000  O 
  Hf12     1.0000 0.29086  0.51866  0.62269  Biso   1.000  Hf
  Hf13     1.0000 0.29602  0.73447  0.87789  Biso   1.000  Hf
  Hf14     1.0000 0.76009  0.76826  0.62417  Biso   1.000  Hf
  Hf15     1.0000 0.72292  0.97931  0.88128  Biso   1.000  Hf
  O25      1.0000 0.09452  0.68254  0.69367  Biso   1.000  O 
  O26      1.0000 0.09134  0.57008  0.95033  Biso   1.000  O 
  O27      1.0000 0.94252  0.93409  0.70128  Biso   1.000  O 
  O28      1.0000 0.95931  0.82032  0.93988  Biso   1.000  O 
  O29      1.0000 0.56558  0.61687  0.74777  Biso   1.000  O 
  O30      1.0000 0.56828  0.62697  0.99826  Biso   1.000  O 
  O31      1.0000 0.49042  0.87087  0.99737  Biso   1.000  O 
  O32      1.0000 0.47430  0.86722  0.74781  Biso   1.000  O 
