data_image0
_cell_length_a       10.1687
_cell_length_b       10.2159
_cell_length_c       5.22702
_cell_angle_alpha    90
_cell_angle_beta     80
_cell_angle_gamma    90

_symmetry_space_group_name_H-M    "P 1"
_symmetry_int_tables_number       1

loop_
  _symmetry_equiv_pos_as_xyz
  'x, y, z'

loop_
  _atom_site_label
  _atom_site_occupancy
  _atom_site_fract_x
  _atom_site_fract_y
  _atom_site_fract_z
  _atom_site_thermal_displace_type
  _atom_site_B_iso_or_equiv
  _atom_site_type_symbol
  N1       1.0000 0.04194  0.04908  0.33217  Biso   1.000  N 
  Hf1      1.0000 0.15616  0.22805  0.78185  Biso   1.000  Hf
  Hf2      1.0000 0.35862  0.26176  0.21053  Biso   1.000  Hf
  Hf3      1.0000 0.36275  0.47772  0.70719  Biso   1.000  Hf
  O1       1.0000 0.02712  0.13568  0.15208  Biso   1.000  O 
  O2       1.0000 0.02563  0.09863  0.57593  Biso   1.000  O 
  O3       1.0000 0.46681  0.41466  0.34318  Biso   1.000  O 
  O4       1.0000 0.46711  0.33420  0.84474  Biso   1.000  O 
  O5       1.0000 0.28616  0.13473  0.49747  Biso   1.000  O 
  O6       1.0000 0.28257  0.12933  0.97040  Biso   1.000  O 
  O7       1.0000 0.22377  0.37581  0.01535  Biso   1.000  O 
  O8       1.0000 0.22424  0.37180  0.51660  Biso   1.000  O 
  Hf4      1.0000 0.14433  0.52227  0.29194  Biso   1.000  Hf
  Hf5      1.0000 0.15007  0.73493  0.78853  Biso   1.000  Hf
  Hf6      1.0000 0.36130  0.77892  0.20786  Biso   1.000  Hf
  Hf7      1.0000 0.35978  0.97804  0.71117  Biso   1.000  Hf
  O9       1.0000 0.04005  0.67303  0.16868  Biso   1.000  O 
  O10      1.0000 0.03826  0.58036  0.66283  Biso   1.000  O 
  O11      1.0000 0.47575  0.91495  0.34732  Biso   1.000  O 
  O12      1.0000 0.47766  0.83797  0.84650  Biso   1.000  O 
  O13      1.0000 0.28005  0.62543  0.47685  Biso   1.000  O 
  O14      1.0000 0.27772  0.61709  0.98218  Biso   1.000  O 
  O15      1.0000 0.23816  0.87143  0.00078  Biso   1.000  O 
  O16      1.0000 0.23692  0.86487  0.52191  Biso   1.000  O 
  Hf8      1.0000 0.63464  0.02061  0.29930  Biso   1.000  Hf
  Hf9      1.0000 0.63469  0.22862  0.79415  Biso   1.000  Hf
  Hf10     1.0000 0.85514  0.27374  0.21379  Biso   1.000  Hf
  Hf11     1.0000 0.87047  0.47387  0.70923  Biso   1.000  Hf
  O17      1.0000 0.54014  0.16970  0.16202  Biso   1.000  O 
  O18      1.0000 0.54005  0.07829  0.66454  Biso   1.000  O 
  O19      1.0000 0.97219  0.40769  0.34867  Biso   1.000  O 
  O20      1.0000 0.96883  0.32089  0.85745  Biso   1.000  O 
  O21      1.0000 0.77850  0.12796  0.48269  Biso   1.000  O 
  O22      1.0000 0.77524  0.12020  0.98557  Biso   1.000  O 
  O23      1.0000 0.72982  0.38006  0.02048  Biso   1.000  O 
  O24      1.0000 0.72629  0.37018  0.52199  Biso   1.000  O 
  Hf12     1.0000 0.63606  0.52028  0.29530  Biso   1.000  Hf
  Hf13     1.0000 0.63786  0.72612  0.79545  Biso   1.000  Hf
  Hf14     1.0000 0.86500  0.76088  0.19815  Biso   1.000  Hf
  Hf15     1.0000 0.85398  0.97643  0.72732  Biso   1.000  Hf
  O25      1.0000 0.54041  0.66645  0.15433  Biso   1.000  O 
  O26      1.0000 0.53602  0.58204  0.65718  Biso   1.000  O 
  O27      1.0000 0.97238  0.94442  0.33734  Biso   1.000  O 
  O28      1.0000 0.97098  0.83969  0.84214  Biso   1.000  O 
  O29      1.0000 0.78017  0.62389  0.48154  Biso   1.000  O 
  O30      1.0000 0.78270  0.62148  0.98369  Biso   1.000  O 
  O31      1.0000 0.72941  0.87739  0.02282  Biso   1.000  O 
  O32      1.0000 0.74233  0.86734  0.51625  Biso   1.000  O 
