data_image0
_cell_length_a       10.0501
_cell_length_b       5.03105
_cell_length_c       10.0503
_cell_angle_alpha    90
_cell_angle_beta     90
_cell_angle_gamma    90

_symmetry_space_group_name_H-M    "P 1"
_symmetry_int_tables_number       1

loop_
  _symmetry_equiv_pos_as_xyz
  'x, y, z'

loop_
  _atom_site_label
  _atom_site_occupancy
  _atom_site_fract_x
  _atom_site_fract_y
  _atom_site_fract_z
  _atom_site_thermal_displace_type
  _atom_site_B_iso_or_equiv
  _atom_site_type_symbol
  N1       1.0000 0.12047  0.97015  0.12500  Biso   1.000  N 
  Hf1      1.0000 0.09815  0.46939  0.37987  Biso   1.000  Hf
  Hf2      1.0000 0.37595  0.46931  0.11229  Biso   1.000  Hf
  Hf3      1.0000 0.35130  0.02254  0.36473  Biso   1.000  Hf
  O1       1.0000 0.94265  0.33676  0.97864  Biso   1.000  O 
  O2       1.0000 0.99876  0.21456  0.24214  Biso   1.000  O 
  O3       1.0000 0.96107  0.69518  0.27849  Biso   1.000  O 
  O4       1.0000 0.04697  0.84481  0.04873  Biso   1.000  O 
  O5       1.0000 0.26067  0.33637  0.27062  Biso   1.000  O 
  O6       1.0000 0.24204  0.21448  0.00783  Biso   1.000  O 
  O7       1.0000 0.24232  0.69538  0.97078  Biso   1.000  O 
  O8       1.0000 0.19394  0.84476  0.20128  Biso   1.000  O 
  Hf4      1.0000 0.10162  0.99450  0.62470  Biso   1.000  Hf
  Hf5      1.0000 0.10522  0.46967  0.86939  Biso   1.000  Hf
  Hf6      1.0000 0.35553  0.50372  0.61719  Biso   1.000  Hf
  Hf7      1.0000 0.34011  0.98068  0.87661  Biso   1.000  Hf
  O9       1.0000 0.96661  0.23308  0.49071  Biso   1.000  O 
  O10      1.0000 0.98586  0.24813  0.73434  Biso   1.000  O 
  O11      1.0000 0.96843  0.75170  0.78741  Biso   1.000  O 
  O12      1.0000 0.98889  0.72320  0.52677  Biso   1.000  O 
  O13      1.0000 0.23664  0.23316  0.75855  Biso   1.000  O 
  O14      1.0000 0.21741  0.24769  0.51493  Biso   1.000  O 
  O15      1.0000 0.23502  0.75116  0.46187  Biso   1.000  O 
  O16      1.0000 0.21446  0.72325  0.72249  Biso   1.000  O 
  Hf8      1.0000 0.62053  0.99438  0.12489  Biso   1.000  Hf
  Hf9      1.0000 0.60345  0.50368  0.37836  Biso   1.000  Hf
  Hf10     1.0000 0.86487  0.46946  0.13770  Biso   1.000  Hf
  Hf11     1.0000 0.86331  0.98054  0.37266  Biso   1.000  Hf
  O17      1.0000 0.45417  0.23327  0.98429  Biso   1.000  O 
  O18      1.0000 0.50641  0.24757  0.23651  Biso   1.000  O 
  O19      1.0000 0.45279  0.75103  0.25217  Biso   1.000  O 
  O20      1.0000 0.52685  0.72306  0.00862  Biso   1.000  O 
  O21      1.0000 0.74915  0.23306  0.26491  Biso   1.000  O 
  O22      1.0000 0.73439  0.24789  0.01341  Biso   1.000  O 
  O23      1.0000 0.75059  0.75170  0.99716  Biso   1.000  O 
  O24      1.0000 0.71402  0.72311  0.24130  Biso   1.000  O 
  Hf12     1.0000 0.60162  0.00340  0.62460  Biso   1.000  Hf
  Hf13     1.0000 0.59979  0.50379  0.87076  Biso   1.000  Hf
  Hf14     1.0000 0.84769  0.50369  0.63197  Biso   1.000  Hf
  Hf15     1.0000 0.85203  0.02297  0.88459  Biso   1.000  Hf
  O25      1.0000 0.46654  0.24435  0.48433  Biso   1.000  O 
  O26      1.0000 0.49129  0.28308  0.73088  Biso   1.000  O 
  O27      1.0000 0.46556  0.77086  0.75574  Biso   1.000  O 
  O28      1.0000 0.48917  0.74223  0.50784  Biso   1.000  O 
  O29      1.0000 0.73671  0.24433  0.76488  Biso   1.000  O 
  O30      1.0000 0.71199  0.28302  0.51834  Biso   1.000  O 
  O31      1.0000 0.73776  0.77078  0.49345  Biso   1.000  O 
  O32      1.0000 0.71416  0.74217  0.74137  Biso   1.000  O 
