data_image0
_cell_length_a       10.1113
_cell_length_b       5.15099
_cell_length_c       10.4845
_cell_angle_alpha    90
_cell_angle_beta     80
_cell_angle_gamma    90

_symmetry_space_group_name_H-M    "P 1"
_symmetry_int_tables_number       1

loop_
  _symmetry_equiv_pos_as_xyz
  'x, y, z'

loop_
  _atom_site_label
  _atom_site_occupancy
  _atom_site_fract_x
  _atom_site_fract_y
  _atom_site_fract_z
  _atom_site_thermal_displace_type
  _atom_site_B_iso_or_equiv
  _atom_site_type_symbol
  Hf1      1.0000 0.13359  0.03956  0.14531  Biso   1.000  Hf
  Hf2      1.0000 0.13385  0.45548  0.39649  Biso   1.000  Hf
  Hf3      1.0000 0.35720  0.54119  0.10501  Biso   1.000  Hf
  Hf4      1.0000 0.34987  0.96197  0.34837  Biso   1.000  Hf
  O1       1.0000 0.03115  0.33578  0.07928  Biso   1.000  O 
  O2       1.0000 0.03066  0.15838  0.33009  Biso   1.000  O 
  O3       1.0000 0.45556  0.84956  0.16215  Biso   1.000  O 
  O4       1.0000 0.48201  0.76068  0.45241  Biso   1.000  O 
  O5       1.0000 0.27097  0.25570  0.24103  Biso   1.000  O 
  O6       1.0000 0.26594  0.22991  0.49306  Biso   1.000  O 
  O7       1.0000 0.21906  0.75535  0.00957  Biso   1.000  O 
  O8       1.0000 0.21214  0.74118  0.25728  Biso   1.000  O 
  Hf5      1.0000 0.12953  0.03404  0.64669  Biso   1.000  Hf
  Hf6      1.0000 0.12606  0.44901  0.89835  Biso   1.000  Hf
  Hf7      1.0000 0.34852  0.52965  0.60953  Biso   1.000  Hf
  Hf8      1.0000 0.34818  0.94681  0.85815  Biso   1.000  Hf
  O9       1.0000 0.02756  0.32992  0.58016  Biso   1.000  O 
  O10      1.0000 0.02543  0.15408  0.83029  Biso   1.000  O 
  O11      1.0000 0.45530  0.81515  0.68125  Biso   1.000  O 
  O12      1.0000 0.45153  0.65386  0.92344  Biso   1.000  O 
  O13      1.0000 0.26713  0.25025  0.74258  Biso   1.000  O 
  O14      1.0000 0.26379  0.23465  0.99291  Biso   1.000  O 
  O15      1.0000 0.21742  0.74902  0.51206  Biso   1.000  O 
  O16      1.0000 0.21139  0.73355  0.76175  Biso   1.000  O 
  Hf9      1.0000 0.63692  0.04007  0.14250  Biso   1.000  Hf
  Hf10     1.0000 0.63349  0.44629  0.39278  Biso   1.000  Hf
  Hf11     1.0000 0.85625  0.53934  0.10357  Biso   1.000  Hf
  Hf12     1.0000 0.85428  0.94948  0.35486  Biso   1.000  Hf
  O17      1.0000 0.53339  0.33945  0.07919  Biso   1.000  O 
  O18      1.0000 0.53703  0.14089  0.32291  Biso   1.000  O 
  O19      1.0000 0.95720  0.83549  0.16953  Biso   1.000  O 
  O20      1.0000 0.95867  0.65623  0.42042  Biso   1.000  O 
  O21      1.0000 0.77416  0.25338  0.23966  Biso   1.000  O 
  O22      1.0000 0.76782  0.23112  0.49014  Biso   1.000  O 
  O23      1.0000 0.72030  0.75457  0.00810  Biso   1.000  O 
  O24      1.0000 0.71691  0.73419  0.25873  Biso   1.000  O 
  Hf13     1.0000 0.62953  0.03315  0.64589  Biso   1.000  Hf
  Hf14     1.0000 0.62665  0.44979  0.89615  Biso   1.000  Hf
  Hf15     1.0000 0.85253  0.53339  0.60441  Biso   1.000  Hf
  Hf16     1.0000 0.84847  0.94798  0.85466  Biso   1.000  Hf
  O25      1.0000 0.52377  0.32450  0.57467  Biso   1.000  O 
  O26      1.0000 0.52409  0.15783  0.82904  Biso   1.000  O 
  O27      1.0000 0.95391  0.82849  0.67122  Biso   1.000  O 
  O28      1.0000 0.95204  0.65474  0.92117  Biso   1.000  O 
  O29      1.0000 0.76570  0.24820  0.73977  Biso   1.000  O 
  O30      1.0000 0.76479  0.23392  0.98964  Biso   1.000  O 
  O31      1.0000 0.71987  0.74868  0.51139  Biso   1.000  O 
  O32      1.0000 0.71234  0.73328  0.76043  Biso   1.000  O 
  N1       1.0000 0.43585  0.57964  0.37432  Biso   1.000  N 
