data_image0
_cell_length_a       10.1473
_cell_length_b       10.2682
_cell_length_c       5.25902
_cell_angle_alpha    90
_cell_angle_beta     80
_cell_angle_gamma    90

_symmetry_space_group_name_H-M    "P 1"
_symmetry_int_tables_number       1

loop_
  _symmetry_equiv_pos_as_xyz
  'x, y, z'

loop_
  _atom_site_label
  _atom_site_occupancy
  _atom_site_fract_x
  _atom_site_fract_y
  _atom_site_fract_z
  _atom_site_thermal_displace_type
  _atom_site_B_iso_or_equiv
  _atom_site_type_symbol
  Hf1      1.0000 0.13340  0.01723  0.28745  Biso   1.000  Hf
  Hf2      1.0000 0.13044  0.22502  0.79014  Biso   1.000  Hf
  Hf3      1.0000 0.35402  0.26540  0.21475  Biso   1.000  Hf
  Hf4      1.0000 0.34277  0.48152  0.71080  Biso   1.000  Hf
  O1       1.0000 0.03117  0.16253  0.15102  Biso   1.000  O 
  O2       1.0000 0.02915  0.07761  0.65236  Biso   1.000  O 
  O3       1.0000 0.46492  0.38790  0.39995  Biso   1.000  O 
  O4       1.0000 0.47102  0.44267  0.98278  Biso   1.000  O 
  O5       1.0000 0.27003  0.12528  0.47738  Biso   1.000  O 
  O6       1.0000 0.26882  0.11765  0.97787  Biso   1.000  O 
  O7       1.0000 0.21744  0.37550  0.02018  Biso   1.000  O 
  O8       1.0000 0.21247  0.36851  0.51714  Biso   1.000  O 
  Hf5      1.0000 0.12731  0.51879  0.28579  Biso   1.000  Hf
  Hf6      1.0000 0.12131  0.72565  0.78873  Biso   1.000  Hf
  Hf7      1.0000 0.34869  0.76951  0.20392  Biso   1.000  Hf
  Hf8      1.0000 0.34433  0.97508  0.70737  Biso   1.000  Hf
  O9       1.0000 0.01914  0.66095  0.14883  Biso   1.000  O 
  O10      1.0000 0.02115  0.58005  0.64888  Biso   1.000  O 
  O11      1.0000 0.45075  0.91212  0.34658  Biso   1.000  O 
  O12      1.0000 0.44956  0.83404  0.84650  Biso   1.000  O 
  O13      1.0000 0.26331  0.62470  0.47455  Biso   1.000  O 
  O14      1.0000 0.25499  0.62232  0.97948  Biso   1.000  O 
  O15      1.0000 0.21053  0.87716  0.01663  Biso   1.000  O 
  O16      1.0000 0.20859  0.86754  0.51753  Biso   1.000  O 
  Hf9      1.0000 0.63495  0.01638  0.28481  Biso   1.000  Hf
  Hf10     1.0000 0.64322  0.21566  0.78362  Biso   1.000  Hf
  Hf11     1.0000 0.85709  0.26733  0.20475  Biso   1.000  Hf
  Hf12     1.0000 0.84935  0.47269  0.70345  Biso   1.000  Hf
  O17      1.0000 0.53028  0.15856  0.14304  Biso   1.000  O 
  O18      1.0000 0.52810  0.08364  0.64518  Biso   1.000  O 
  O19      1.0000 0.95784  0.41156  0.34150  Biso   1.000  O 
  O20      1.0000 0.95675  0.32864  0.84096  Biso   1.000  O 
  O21      1.0000 0.77449  0.12025  0.47249  Biso   1.000  O 
  O22      1.0000 0.77268  0.11196  0.97772  Biso   1.000  O 
  O23      1.0000 0.72152  0.37034  0.01659  Biso   1.000  O 
  O24      1.0000 0.71789  0.36316  0.51682  Biso   1.000  O 
  Hf13     1.0000 0.62100  0.51399  0.27738  Biso   1.000  Hf
  Hf14     1.0000 0.62099  0.72293  0.78139  Biso   1.000  Hf
  Hf15     1.0000 0.84529  0.76420  0.20239  Biso   1.000  Hf
  Hf16     1.0000 0.84605  0.97000  0.70321  Biso   1.000  Hf
  O25      1.0000 0.52147  0.66461  0.14325  Biso   1.000  O 
  O26      1.0000 0.51296  0.59336  0.62079  Biso   1.000  O 
  O27      1.0000 0.95095  0.90903  0.34020  Biso   1.000  O 
  O28      1.0000 0.94765  0.82704  0.84267  Biso   1.000  O 
  O29      1.0000 0.76024  0.61940  0.46675  Biso   1.000  O 
  O30      1.0000 0.75720  0.61442  0.96684  Biso   1.000  O 
  O31      1.0000 0.71047  0.87399  0.01360  Biso   1.000  O 
  O32      1.0000 0.70832  0.86486  0.51386  Biso   1.000  O 
  N1       1.0000 0.46682  0.33246  0.84407  Biso   1.000  N 
