data_image0
_cell_length_a       10.076
_cell_length_b       5.19863
_cell_length_c       9.96571
_cell_angle_alpha    90
_cell_angle_beta     90
_cell_angle_gamma    90

_symmetry_space_group_name_H-M    "P 1"
_symmetry_int_tables_number       1

loop_
  _symmetry_equiv_pos_as_xyz
  'x, y, z'

loop_
  _atom_site_label
  _atom_site_occupancy
  _atom_site_fract_x
  _atom_site_fract_y
  _atom_site_fract_z
  _atom_site_thermal_displace_type
  _atom_site_B_iso_or_equiv
  _atom_site_type_symbol
  Hf1      1.0000 0.10845  0.00537  0.14565  Biso   1.000  Hf
  Hf2      1.0000 0.09567  0.51539  0.36498  Biso   1.000  Hf
  Hf3      1.0000 0.34764  0.45487  0.13277  Biso   1.000  Hf
  Hf4      1.0000 0.34596  0.95567  0.36960  Biso   1.000  Hf
  O1       1.0000 0.98657  0.42672  0.00835  Biso   1.000  O 
  O2       1.0000 0.97154  0.22778  0.25817  Biso   1.000  O 
  O3       1.0000 0.96991  0.72000  0.22982  Biso   1.000  O 
  O4       1.0000 0.02573  0.86994  0.96377  Biso   1.000  O 
  O5       1.0000 0.22471  0.24180  0.27993  Biso   1.000  O 
  O6       1.0000 0.30810  0.10122  0.04932  Biso   1.000  O 
  O7       1.0000 0.28892  0.60988  0.95487  Biso   1.000  O 
  O8       1.0000 0.22455  0.74025  0.23206  Biso   1.000  O 
  Hf5      1.0000 0.09607  0.02478  0.63304  Biso   1.000  Hf
  Hf6      1.0000 0.10309  0.53099  0.85477  Biso   1.000  Hf
  Hf7      1.0000 0.34797  0.45511  0.63361  Biso   1.000  Hf
  Hf8      1.0000 0.34446  0.95549  0.86741  Biso   1.000  Hf
  O9       1.0000 0.02417  0.35629  0.53273  Biso   1.000  O 
  O10      1.0000 0.97295  0.22648  0.76742  Biso   1.000  O 
  O11      1.0000 0.96754  0.73346  0.72647  Biso   1.000  O 
  O12      1.0000 0.02945  0.86110  0.45911  Biso   1.000  O 
  O13      1.0000 0.22322  0.25222  0.76849  Biso   1.000  O 
  O14      1.0000 0.28016  0.12036  0.53823  Biso   1.000  O 
  O15      1.0000 0.27628  0.61912  0.46549  Biso   1.000  O 
  O16      1.0000 0.21990  0.75677  0.72636  Biso   1.000  O 
  Hf9      1.0000 0.59609  0.03329  0.13763  Biso   1.000  Hf
  Hf10     1.0000 0.59291  0.52932  0.37083  Biso   1.000  Hf
  Hf11     1.0000 0.82923  0.47135  0.14402  Biso   1.000  Hf
  Hf12     1.0000 0.84583  0.96295  0.37012  Biso   1.000  Hf
  O17      1.0000 0.53958  0.37849  0.04329  Biso   1.000  O 
  O18      1.0000 0.47252  0.23448  0.27492  Biso   1.000  O 
  O19      1.0000 0.47108  0.73042  0.23139  Biso   1.000  O 
  O20      1.0000 0.52374  0.85904  0.96173  Biso   1.000  O 
  O21      1.0000 0.71963  0.25730  0.28036  Biso   1.000  O 
  O22      1.0000 0.77940  0.13660  0.04004  Biso   1.000  O 
  O23      1.0000 0.76247  0.63236  0.97161  Biso   1.000  O 
  O24      1.0000 0.71779  0.76765  0.23647  Biso   1.000  O 
  Hf13     1.0000 0.59866  0.02274  0.63906  Biso   1.000  Hf
  Hf14     1.0000 0.59076  0.52314  0.87060  Biso   1.000  Hf
  Hf15     1.0000 0.84416  0.45860  0.63757  Biso   1.000  Hf
  Hf16     1.0000 0.84038  0.95954  0.87135  Biso   1.000  Hf
  O25      1.0000 0.52954  0.35884  0.54014  Biso   1.000  O 
  O26      1.0000 0.47299  0.22431  0.77255  Biso   1.000  O 
  O27      1.0000 0.47012  0.72583  0.72990  Biso   1.000  O 
  O28      1.0000 0.52491  0.86068  0.46831  Biso   1.000  O 
  O29      1.0000 0.72252  0.25719  0.77495  Biso   1.000  O 
  O30      1.0000 0.77922  0.12168  0.53956  Biso   1.000  O 
  O31      1.0000 0.77744  0.62630  0.46642  Biso   1.000  O 
  O32      1.0000 0.71933  0.75523  0.73404  Biso   1.000  O 
  N1       1.0000 0.10903  0.35786  0.03853  Biso   1.000  N 
