data_image0
_cell_length_a       9.9602
_cell_length_b       10.3796
_cell_length_c       10.0368
_cell_angle_alpha    90
_cell_angle_beta     90
_cell_angle_gamma    90

_symmetry_space_group_name_H-M    "P 1"
_symmetry_int_tables_number       1

loop_
  _symmetry_equiv_pos_as_xyz
  'x, y, z'

loop_
  _atom_site_label
  _atom_site_occupancy
  _atom_site_fract_x
  _atom_site_fract_y
  _atom_site_fract_z
  _atom_site_thermal_displace_type
  _atom_site_B_iso_or_equiv
  _atom_site_type_symbol
  Hf1      1.0000 0.14575  0.00453  0.11770  Biso   1.000  Hf
  Hf2      1.0000 0.14582  0.23730  0.39779  Biso   1.000  Hf
  Hf3      1.0000 0.36130  0.26532  0.12870  Biso   1.000  Hf
  Hf4      1.0000 0.36899  0.48595  0.37602  Biso   1.000  Hf
  O1       1.0000 0.00636  0.20562  0.24577  Biso   1.000  O 
  O2       1.0000 0.04229  0.06836  0.45345  Biso   1.000  O 
  O3       1.0000 0.45970  0.43517  0.19285  Biso   1.000  O 
  O4       1.0000 0.46685  0.31812  0.44549  Biso   1.000  O 
  O5       1.0000 0.25884  0.11807  0.25442  Biso   1.000  O 
  O6       1.0000 0.28347  0.13187  0.50675  Biso   1.000  O 
  O7       1.0000 0.23827  0.38660  0.50724  Biso   1.000  O 
  O8       1.0000 0.22531  0.36631  0.25618  Biso   1.000  O 
  Hf5      1.0000 0.14240  0.01871  0.63186  Biso   1.000  Hf
  Hf6      1.0000 0.13868  0.23427  0.88086  Biso   1.000  Hf
  Hf7      1.0000 0.37311  0.27065  0.63232  Biso   1.000  Hf
  Hf8      1.0000 0.37028  0.48562  0.87848  Biso   1.000  Hf
  O9       1.0000 0.04702  0.19059  0.69109  Biso   1.000  O 
  O10      1.0000 0.05618  0.05543  0.92312  Biso   1.000  O 
  O11      1.0000 0.46939  0.43733  0.69779  Biso   1.000  O 
  O12      1.0000 0.46818  0.31770  0.94441  Biso   1.000  O 
  O13      1.0000 0.27973  0.12294  0.75353  Biso   1.000  O 
  O14      1.0000 0.27891  0.12614  0.00092  Biso   1.000  O 
  O15      1.0000 0.22501  0.37982  0.00424  Biso   1.000  O 
  O16      1.0000 0.23292  0.37094  0.75476  Biso   1.000  O 
  Hf9      1.0000 0.13177  0.51742  0.12773  Biso   1.000  Hf
  Hf10     1.0000 0.13439  0.73550  0.37649  Biso   1.000  Hf
  Hf11     1.0000 0.36613  0.76334  0.12517  Biso   1.000  Hf
  Hf12     1.0000 0.36507  0.98527  0.37529  Biso   1.000  Hf
  O17      1.0000 0.03622  0.68793  0.19307  Biso   1.000  O 
  O18      1.0000 0.03865  0.56875  0.44295  Biso   1.000  O 
  O19      1.0000 0.45894  0.93545  0.19229  Biso   1.000  O 
  O20      1.0000 0.46476  0.81856  0.44297  Biso   1.000  O 
  O21      1.0000 0.26986  0.61730  0.25029  Biso   1.000  O 
  O22      1.0000 0.27261  0.63523  0.49967  Biso   1.000  O 
  O23      1.0000 0.22954  0.88525  0.49951  Biso   1.000  O 
  O24      1.0000 0.23119  0.86515  0.24878  Biso   1.000  O 
  Hf13     1.0000 0.13714  0.52014  0.62721  Biso   1.000  Hf
  Hf14     1.0000 0.13830  0.73443  0.87487  Biso   1.000  Hf
  Hf15     1.0000 0.36930  0.76863  0.62444  Biso   1.000  Hf
  Hf16     1.0000 0.37226  0.98578  0.87323  Biso   1.000  Hf
  O25      1.0000 0.04005  0.68879  0.69300  Biso   1.000  O 
  O26      1.0000 0.04259  0.56781  0.94351  Biso   1.000  O 
  O27      1.0000 0.46721  0.93706  0.69224  Biso   1.000  O 
  O28      1.0000 0.47103  0.81908  0.94470  Biso   1.000  O 
  O29      1.0000 0.27480  0.61975  0.75012  Biso   1.000  O 
  O30      1.0000 0.26743  0.63020  0.00026  Biso   1.000  O 
  O31      1.0000 0.23851  0.87878  0.99596  Biso   1.000  O 
  O32      1.0000 0.23394  0.86951  0.74898  Biso   1.000  O 
  Hf17     1.0000 0.63514  0.01662  0.12391  Biso   1.000  Hf
  Hf18     1.0000 0.63610  0.23513  0.37519  Biso   1.000  Hf
  Hf19     1.0000 0.85338  0.27378  0.11359  Biso   1.000  Hf
  Hf20     1.0000 0.86821  0.48472  0.37404  Biso   1.000  Hf
  O33      1.0000 0.53208  0.18378  0.19501  Biso   1.000  O 
  O34      1.0000 0.54213  0.06658  0.44325  Biso   1.000  O 
  O35      1.0000 0.95790  0.43909  0.18623  Biso   1.000  O 
  O36      1.0000 0.97348  0.32539  0.45349  Biso   1.000  O 
  O37      1.0000 0.76724  0.11911  0.24574  Biso   1.000  O 
  O38      1.0000 0.77707  0.13766  0.49703  Biso   1.000  O 
  O39      1.0000 0.73386  0.38470  0.49892  Biso   1.000  O 
  O40      1.0000 0.72434  0.37328  0.25064  Biso   1.000  O 
  Hf21     1.0000 0.64301  0.01950  0.62357  Biso   1.000  Hf
  Hf22     1.0000 0.63859  0.23710  0.87257  Biso   1.000  Hf
  Hf23     1.0000 0.87310  0.27156  0.62734  Biso   1.000  Hf
  Hf24     1.0000 0.87068  0.49033  0.87278  Biso   1.000  Hf
  O41      1.0000 0.54441  0.18695  0.69268  Biso   1.000  O 
  O42      1.0000 0.54739  0.06788  0.94092  Biso   1.000  O 
  O43      1.0000 0.96536  0.44270  0.69178  Biso   1.000  O 
  O44      1.0000 0.96051  0.31953  0.92501  Biso   1.000  O 
  O45      1.0000 0.77884  0.12079  0.74704  Biso   1.000  O 
  O46      1.0000 0.77759  0.13561  0.99453  Biso   1.000  O 
  O47      1.0000 0.73061  0.38874  0.99729  Biso   1.000  O 
  O48      1.0000 0.73288  0.37247  0.74809  Biso   1.000  O 
  Hf25     1.0000 0.63135  0.51951  0.12743  Biso   1.000  Hf
  Hf26     1.0000 0.63660  0.73683  0.37616  Biso   1.000  Hf
  Hf27     1.0000 0.86423  0.76857  0.12555  Biso   1.000  Hf
  Hf28     1.0000 0.86764  0.99053  0.37400  Biso   1.000  Hf
  O49      1.0000 0.53561  0.68575  0.19678  Biso   1.000  O 
  O50      1.0000 0.53815  0.56836  0.44419  Biso   1.000  O 
  O51      1.0000 0.96375  0.94132  0.19253  Biso   1.000  O 
  O52      1.0000 0.96354  0.81963  0.43993  Biso   1.000  O 
  O53      1.0000 0.77057  0.62115  0.24967  Biso   1.000  O 
  O54      1.0000 0.77312  0.63481  0.49813  Biso   1.000  O 
  O55      1.0000 0.73195  0.88642  0.49799  Biso   1.000  O 
  O56      1.0000 0.72880  0.87053  0.24865  Biso   1.000  O 
  Hf29     1.0000 0.63827  0.51916  0.62477  Biso   1.000  Hf
  Hf30     1.0000 0.63917  0.73670  0.87511  Biso   1.000  Hf
  Hf31     1.0000 0.86907  0.76973  0.62275  Biso   1.000  Hf
  Hf32     1.0000 0.86919  0.98604  0.87211  Biso   1.000  Hf
  O57      1.0000 0.53964  0.68715  0.69335  Biso   1.000  O 
  O58      1.0000 0.54018  0.57056  0.94617  Biso   1.000  O 
  O59      1.0000 0.96428  0.93579  0.69086  Biso   1.000  O 
  O60      1.0000 0.96882  0.81790  0.94417  Biso   1.000  O 
  O61      1.0000 0.77368  0.62221  0.74777  Biso   1.000  O 
  O62      1.0000 0.76717  0.63395  0.00017  Biso   1.000  O 
  O63      1.0000 0.73512  0.88587  0.99911  Biso   1.000  O 
  O64      1.0000 0.73262  0.87072  0.74815  Biso   1.000  O 
  N1       1.0000 0.03879  0.18140  0.12068  Biso   1.000  N 
