data_image0
_cell_length_a       10.1796
_cell_length_b       5.11042
_cell_length_c       10.4575
_cell_angle_alpha    90
_cell_angle_beta     80
_cell_angle_gamma    90

_symmetry_space_group_name_H-M    "P 1"
_symmetry_int_tables_number       1

loop_
  _symmetry_equiv_pos_as_xyz
  'x, y, z'

loop_
  _atom_site_label
  _atom_site_occupancy
  _atom_site_fract_x
  _atom_site_fract_y
  _atom_site_fract_z
  _atom_site_thermal_displace_type
  _atom_site_B_iso_or_equiv
  _atom_site_type_symbol
  N1       1.0000 0.04067  0.11643  0.17545  Biso   1.000  N 
  Hf1      1.0000 0.15215  0.46855  0.39019  Biso   1.000  Hf
  Hf2      1.0000 0.35271  0.54352  0.10507  Biso   1.000  Hf
  Hf3      1.0000 0.35696  0.96251  0.34674  Biso   1.000  Hf
  O1       1.0000 0.03326  0.31424  0.09586  Biso   1.000  O 
  O2       1.0000 0.02498  0.19103  0.30041  Biso   1.000  O 
  O3       1.0000 0.47029  0.82889  0.17161  Biso   1.000  O 
  O4       1.0000 0.46636  0.66658  0.42180  Biso   1.000  O 
  O5       1.0000 0.28562  0.27298  0.25076  Biso   1.000  O 
  O6       1.0000 0.27515  0.24315  0.49399  Biso   1.000  O 
  O7       1.0000 0.22578  0.74992  0.00035  Biso   1.000  O 
  O8       1.0000 0.22873  0.74189  0.26147  Biso   1.000  O 
  Hf4      1.0000 0.13807  0.04577  0.64518  Biso   1.000  Hf
  Hf5      1.0000 0.15058  0.46516  0.89459  Biso   1.000  Hf
  Hf6      1.0000 0.36301  0.54691  0.60351  Biso   1.000  Hf
  Hf7      1.0000 0.35587  0.96234  0.86139  Biso   1.000  Hf
  O9       1.0000 0.02738  0.30290  0.55993  Biso   1.000  O 
  O10      1.0000 0.03191  0.17654  0.82643  Biso   1.000  O 
  O11      1.0000 0.46625  0.83341  0.67489  Biso   1.000  O 
  O12      1.0000 0.47099  0.68698  0.92504  Biso   1.000  O 
  O13      1.0000 0.27414  0.25832  0.73725  Biso   1.000  O 
  O14      1.0000 0.28454  0.26588  0.98025  Biso   1.000  O 
  O15      1.0000 0.22347  0.75640  0.50848  Biso   1.000  O 
  O16      1.0000 0.22457  0.74369  0.75624  Biso   1.000  O 
  Hf8      1.0000 0.63170  0.04463  0.14660  Biso   1.000  Hf
  Hf9      1.0000 0.63295  0.45343  0.39733  Biso   1.000  Hf
  Hf10     1.0000 0.84988  0.53451  0.09830  Biso   1.000  Hf
  Hf11     1.0000 0.84977  0.95193  0.36459  Biso   1.000  Hf
  O17      1.0000 0.53908  0.34063  0.07950  Biso   1.000  O 
  O18      1.0000 0.53789  0.15475  0.33094  Biso   1.000  O 
  O19      1.0000 0.96745  0.91298  0.16597  Biso   1.000  O 
  O20      1.0000 0.96834  0.67760  0.41740  Biso   1.000  O 
  O21      1.0000 0.77581  0.25617  0.24108  Biso   1.000  O 
  O22      1.0000 0.77334  0.23881  0.49209  Biso   1.000  O 
  O23      1.0000 0.72891  0.76373  0.00916  Biso   1.000  O 
  O24      1.0000 0.73509  0.73950  0.25855  Biso   1.000  O 
  Hf12     1.0000 0.63389  0.04041  0.65209  Biso   1.000  Hf
  Hf13     1.0000 0.63152  0.46373  0.89628  Biso   1.000  Hf
  Hf14     1.0000 0.86381  0.53621  0.60362  Biso   1.000  Hf
  Hf15     1.0000 0.86728  0.95684  0.85356  Biso   1.000  Hf
  O25      1.0000 0.53503  0.33457  0.57961  Biso   1.000  O 
  O26      1.0000 0.53349  0.17062  0.82965  Biso   1.000  O 
  O27      1.0000 0.97191  0.81188  0.67763  Biso   1.000  O 
  O28      1.0000 0.96783  0.66532  0.93640  Biso   1.000  O 
  O29      1.0000 0.77766  0.25426  0.74088  Biso   1.000  O 
  O30      1.0000 0.77568  0.25456  0.99253  Biso   1.000  O 
  O31      1.0000 0.72334  0.75071  0.51280  Biso   1.000  O 
  O32      1.0000 0.72830  0.74230  0.76053  Biso   1.000  O 
