data_image0
_cell_length_a       10.1569
_cell_length_b       10.23
_cell_length_c       5.02846
_cell_angle_alpha    90
_cell_angle_beta     90
_cell_angle_gamma    90

_symmetry_space_group_name_H-M    "P 1"
_symmetry_int_tables_number       1

loop_
  _symmetry_equiv_pos_as_xyz
  'x, y, z'

loop_
  _atom_site_label
  _atom_site_occupancy
  _atom_site_fract_x
  _atom_site_fract_y
  _atom_site_fract_z
  _atom_site_thermal_displace_type
  _atom_site_B_iso_or_equiv
  _atom_site_type_symbol
  Hf1      1.0000 0.10932  0.98973  0.30305  Biso   1.000  Hf
  Hf2      1.0000 0.10196  0.27326  0.69235  Biso   1.000  Hf
  Hf3      1.0000 0.35490  0.23319  0.25381  Biso   1.000  Hf
  Hf4      1.0000 0.36981  0.00843  0.75722  Biso   1.000  Hf
  O1       1.0000 0.94722  0.18536  0.96220  Biso   1.000  O 
  O2       1.0000 0.97913  0.11121  0.50013  Biso   1.000  O 
  O3       1.0000 0.98519  0.36442  0.40510  Biso   1.000  O 
  O4       1.0000 0.01400  0.42843  0.90036  Biso   1.000  O 
  O5       1.0000 0.23870  0.14040  0.54236  Biso   1.000  O 
  O6       1.0000 0.29459  0.05313  0.09758  Biso   1.000  O 
  O7       1.0000 0.26527  0.32988  0.92771  Biso   1.000  O 
  O8       1.0000 0.23216  0.39193  0.44545  Biso   1.000  O 
  Hf5      1.0000 0.09921  0.51588  0.24674  Biso   1.000  Hf
  Hf6      1.0000 0.10209  0.73794  0.75607  Biso   1.000  Hf
  Hf7      1.0000 0.35813  0.74173  0.25023  Biso   1.000  Hf
  Hf8      1.0000 0.34902  0.49164  0.73830  Biso   1.000  Hf
  O9       1.0000 0.98000  0.66113  0.00825  Biso   1.000  O 
  O10      1.0000 0.97428  0.61346  0.49952  Biso   1.000  O 
  O11      1.0000 0.96741  0.85776  0.56096  Biso   1.000  O 
  O12      1.0000 0.95579  0.92626  0.07483  Biso   1.000  O 
  O13      1.0000 0.22832  0.63855  0.50352  Biso   1.000  O 
  O14      1.0000 0.22216  0.58998  0.99381  Biso   1.000  O 
  O15      1.0000 0.19184  0.82263  0.10377  Biso   1.000  O 
  O16      1.0000 0.21640  0.88913  0.60080  Biso   1.000  O 
  Hf9      1.0000 0.61305  0.00124  0.25482  Biso   1.000  Hf
  Hf10     1.0000 0.60070  0.26004  0.74927  Biso   1.000  Hf
  Hf11     1.0000 0.84234  0.24348  0.28224  Biso   1.000  Hf
  Hf12     1.0000 0.85124  0.00069  0.75759  Biso   1.000  Hf
  O17      1.0000 0.50670  0.15624  0.00371  Biso   1.000  O 
  O18      1.0000 0.49034  0.10835  0.50302  Biso   1.000  O 
  O19      1.0000 0.48482  0.35338  0.46137  Biso   1.000  O 
  O20      1.0000 0.50538  0.41248  0.94501  Biso   1.000  O 
  O21      1.0000 0.73017  0.14251  0.53668  Biso   1.000  O 
  O22      1.0000 0.74709  0.10210  0.03234  Biso   1.000  O 
  O23      1.0000 0.75038  0.35377  0.97408  Biso   1.000  O 
  O24      1.0000 0.73277  0.39615  0.48743  Biso   1.000  O 
  Hf13     1.0000 0.60768  0.50738  0.25765  Biso   1.000  Hf
  Hf14     1.0000 0.58918  0.74785  0.75391  Biso   1.000  Hf
  Hf15     1.0000 0.85438  0.76349  0.26524  Biso   1.000  Hf
  Hf16     1.0000 0.84257  0.51290  0.76171  Biso   1.000  Hf
  O25      1.0000 0.46117  0.64709  0.99539  Biso   1.000  O 
  O26      1.0000 0.47645  0.60439  0.49223  Biso   1.000  O 
  O27      1.0000 0.46847  0.85747  0.50937  Biso   1.000  O 
  O28      1.0000 0.47760  0.88936  0.01200  Biso   1.000  O 
  O29      1.0000 0.72508  0.64983  0.51598  Biso   1.000  O 
  O30      1.0000 0.73847  0.60724  0.01621  Biso   1.000  O 
  O31      1.0000 0.70383  0.85450  0.99482  Biso   1.000  O 
  O32      1.0000 0.72073  0.89662  0.49428  Biso   1.000  O 
  N1       1.0000 0.09425  0.15616  0.03319  Biso   1.000  N 
