data_image0
_cell_length_a       10.007
_cell_length_b       10.2399
_cell_length_c       5.05239
_cell_angle_alpha    90
_cell_angle_beta     90
_cell_angle_gamma    90

_symmetry_space_group_name_H-M    "P 1"
_symmetry_int_tables_number       1

loop_
  _symmetry_equiv_pos_as_xyz
  'x, y, z'

loop_
  _atom_site_label
  _atom_site_occupancy
  _atom_site_fract_x
  _atom_site_fract_y
  _atom_site_fract_z
  _atom_site_thermal_displace_type
  _atom_site_B_iso_or_equiv
  _atom_site_type_symbol
  N1       1.0000 0.15803  0.98937  0.22500  Biso   1.000  N 
  Hf1      1.0000 0.09463  0.24856  0.73509  Biso   1.000  Hf
  Hf2      1.0000 0.34723  0.22521  0.32438  Biso   1.000  Hf
  Hf3      1.0000 0.38265  0.96287  0.73527  Biso   1.000  Hf
  O1       1.0000 0.95964  0.14879  0.96124  Biso   1.000  O 
  O2       1.0000 0.98135  0.11271  0.48037  Biso   1.000  O 
  O3       1.0000 0.99162  0.35678  0.44786  Biso   1.000  O 
  O4       1.0000 0.00386  0.41172  0.93868  Biso   1.000  O 
  O5       1.0000 0.24912  0.12888  0.61994  Biso   1.000  O 
  O6       1.0000 0.22530  0.05316  0.11429  Biso   1.000  O 
  O7       1.0000 0.22109  0.31168  0.07300  Biso   1.000  O 
  O8       1.0000 0.23954  0.38105  0.54520  Biso   1.000  O 
  Hf4      1.0000 0.13641  0.49126  0.24287  Biso   1.000  Hf
  Hf5      1.0000 0.13826  0.73187  0.73731  Biso   1.000  Hf
  Hf6      1.0000 0.38525  0.72336  0.24810  Biso   1.000  Hf
  Hf7      1.0000 0.39447  0.48779  0.71650  Biso   1.000  Hf
  O9       1.0000 0.05368  0.68317  0.06069  Biso   1.000  O 
  O10      1.0000 0.01098  0.59973  0.51725  Biso   1.000  O 
  O11      1.0000 0.99526  0.84884  0.58888  Biso   1.000  O 
  O12      1.0000 0.07823  0.92802  0.09043  Biso   1.000  O 
  O13      1.0000 0.26326  0.62356  0.50311  Biso   1.000  O 
  O14      1.0000 0.28418  0.57299  0.01396  Biso   1.000  O 
  O15      1.0000 0.29655  0.80788  0.93981  Biso   1.000  O 
  O16      1.0000 0.25774  0.86751  0.46651  Biso   1.000  O 
  Hf8      1.0000 0.61164  0.00089  0.26472  Biso   1.000  Hf
  Hf9      1.0000 0.58830  0.22559  0.79492  Biso   1.000  Hf
  Hf10     1.0000 0.85605  0.23948  0.25727  Biso   1.000  Hf
  Hf11     1.0000 0.86022  0.00992  0.73471  Biso   1.000  Hf
  O17      1.0000 0.46874  0.14246  0.03202  Biso   1.000  O 
  O18      1.0000 0.48911  0.08466  0.52792  Biso   1.000  O 
  O19      1.0000 0.48499  0.32947  0.51819  Biso   1.000  O 
  O20      1.0000 0.50913  0.39844  0.00051  Biso   1.000  O 
  O21      1.0000 0.73329  0.14006  0.52126  Biso   1.000  O 
  O22      1.0000 0.72911  0.11079  0.01591  Biso   1.000  O 
  O23      1.0000 0.74515  0.34320  0.94783  Biso   1.000  O 
  O24      1.0000 0.74322  0.39065  0.44292  Biso   1.000  O 
  Hf12     1.0000 0.64883  0.51076  0.18526  Biso   1.000  Hf
  Hf13     1.0000 0.65520  0.75221  0.75450  Biso   1.000  Hf
  Hf14     1.0000 0.90122  0.75441  0.27978  Biso   1.000  Hf
  Hf15     1.0000 0.86518  0.48457  0.69465  Biso   1.000  Hf
  O25      1.0000 0.51618  0.63368  0.95507  Biso   1.000  O 
  O26      1.0000 0.50902  0.58180  0.44484  Biso   1.000  O 
  O27      1.0000 0.51018  0.83810  0.47849  Biso   1.000  O 
  O28      1.0000 0.54143  0.88662  0.95822  Biso   1.000  O 
  O29      1.0000 0.76128  0.64143  0.46982  Biso   1.000  O 
  O30      1.0000 0.76948  0.60116  0.97127  Biso   1.000  O 
  O31      1.0000 0.80084  0.84654  0.98441  Biso   1.000  O 
  O32      1.0000 0.75724  0.89100  0.49141  Biso   1.000  O 
