data_image0
_cell_length_a       10.1029
_cell_length_b       10.2956
_cell_length_c       10.4526
_cell_angle_alpha    90
_cell_angle_beta     80
_cell_angle_gamma    90

_symmetry_space_group_name_H-M    "P 1"
_symmetry_int_tables_number       1

loop_
  _symmetry_equiv_pos_as_xyz
  'x, y, z'

loop_
  _atom_site_label
  _atom_site_occupancy
  _atom_site_fract_x
  _atom_site_fract_y
  _atom_site_fract_z
  _atom_site_thermal_displace_type
  _atom_site_B_iso_or_equiv
  _atom_site_type_symbol
  Hf1      1.0000 0.13686  0.02092  0.14717  Biso   1.000  Hf
  Hf2      1.0000 0.13776  0.22757  0.39623  Biso   1.000  Hf
  Hf3      1.0000 0.35934  0.27083  0.10710  Biso   1.000  Hf
  Hf4      1.0000 0.34979  0.48359  0.34798  Biso   1.000  Hf
  O1       1.0000 0.03366  0.16912  0.08134  Biso   1.000  O 
  O2       1.0000 0.03279  0.07917  0.33179  Biso   1.000  O 
  O3       1.0000 0.45784  0.42699  0.16284  Biso   1.000  O 
  O4       1.0000 0.48506  0.38133  0.44720  Biso   1.000  O 
  O5       1.0000 0.27455  0.12745  0.24245  Biso   1.000  O 
  O6       1.0000 0.27157  0.11574  0.49377  Biso   1.000  O 
  O7       1.0000 0.22122  0.37804  0.00952  Biso   1.000  O 
  O8       1.0000 0.21337  0.37149  0.25700  Biso   1.000  O 
  Hf5      1.0000 0.13119  0.01782  0.64718  Biso   1.000  Hf
  Hf6      1.0000 0.12844  0.22609  0.89909  Biso   1.000  Hf
  Hf7      1.0000 0.34994  0.26772  0.61011  Biso   1.000  Hf
  Hf8      1.0000 0.35128  0.47513  0.85780  Biso   1.000  Hf
  O9       1.0000 0.03221  0.16805  0.58123  Biso   1.000  O 
  O10      1.0000 0.02756  0.07754  0.83187  Biso   1.000  O 
  O11      1.0000 0.45765  0.41054  0.67993  Biso   1.000  O 
  O12      1.0000 0.45375  0.32706  0.92404  Biso   1.000  O 
  O13      1.0000 0.26852  0.12799  0.74330  Biso   1.000  O 
  O14      1.0000 0.26696  0.11869  0.99344  Biso   1.000  O 
  O15      1.0000 0.22093  0.37745  0.51095  Biso   1.000  O 
  O16      1.0000 0.21341  0.36851  0.76159  Biso   1.000  O 
  Hf9      1.0000 0.13313  0.52015  0.14429  Biso   1.000  Hf
  Hf10     1.0000 0.13061  0.72877  0.39659  Biso   1.000  Hf
  Hf11     1.0000 0.35696  0.77113  0.10310  Biso   1.000  Hf
  Hf12     1.0000 0.35724  0.97576  0.35554  Biso   1.000  Hf
  O17      1.0000 0.03219  0.66958  0.07963  Biso   1.000  O 
  O18      1.0000 0.03027  0.57925  0.33044  Biso   1.000  O 
  O19      1.0000 0.45833  0.91949  0.16822  Biso   1.000  O 
  O20      1.0000 0.45528  0.82492  0.42056  Biso   1.000  O 
  O21      1.0000 0.26948  0.62946  0.23976  Biso   1.000  O 
  O22      1.0000 0.26625  0.61981  0.49081  Biso   1.000  O 
  O23      1.0000 0.21989  0.87893  0.00954  Biso   1.000  O 
  O24      1.0000 0.21829  0.86972  0.26005  Biso   1.000  O 
  Hf13     1.0000 0.13050  0.52031  0.64648  Biso   1.000  Hf
  Hf14     1.0000 0.12788  0.72666  0.89668  Biso   1.000  Hf
  Hf15     1.0000 0.35308  0.76818  0.60481  Biso   1.000  Hf
  Hf16     1.0000 0.34981  0.97650  0.85590  Biso   1.000  Hf
  O25      1.0000 0.02636  0.66783  0.58146  Biso   1.000  O 
  O26      1.0000 0.02627  0.57837  0.83124  Biso   1.000  O 
  O27      1.0000 0.45402  0.91772  0.66985  Biso   1.000  O 
  O28      1.0000 0.45233  0.82873  0.91957  Biso   1.000  O 
  O29      1.0000 0.26785  0.62615  0.74135  Biso   1.000  O 
  O30      1.0000 0.26447  0.61893  0.99182  Biso   1.000  O 
  O31      1.0000 0.21524  0.87647  0.51076  Biso   1.000  O 
  O32      1.0000 0.21347  0.86871  0.76073  Biso   1.000  O 
  Hf17     1.0000 0.63692  0.01841  0.14625  Biso   1.000  Hf
  Hf18     1.0000 0.63522  0.22511  0.39374  Biso   1.000  Hf
  Hf19     1.0000 0.85759  0.27054  0.10416  Biso   1.000  Hf
  Hf20     1.0000 0.85651  0.47584  0.35531  Biso   1.000  Hf
  O33      1.0000 0.53516  0.16965  0.08392  Biso   1.000  O 
  O34      1.0000 0.54273  0.06197  0.33483  Biso   1.000  O 
  O35      1.0000 0.95825  0.41944  0.16895  Biso   1.000  O 
  O36      1.0000 0.96160  0.32829  0.41957  Biso   1.000  O 
  O37      1.0000 0.77489  0.12879  0.24068  Biso   1.000  O 
  O38      1.0000 0.77098  0.11767  0.49139  Biso   1.000  O 
  O39      1.0000 0.72155  0.37878  0.00920  Biso   1.000  O 
  O40      1.0000 0.71709  0.37011  0.25979  Biso   1.000  O 
  Hf21     1.0000 0.63096  0.02052  0.64502  Biso   1.000  Hf
  Hf22     1.0000 0.62917  0.22643  0.89786  Biso   1.000  Hf
  Hf23     1.0000 0.85628  0.26850  0.60490  Biso   1.000  Hf
  Hf24     1.0000 0.85154  0.47594  0.85530  Biso   1.000  Hf
  O41      1.0000 0.52709  0.16937  0.57677  Biso   1.000  O 
  O42      1.0000 0.52666  0.07967  0.83000  Biso   1.000  O 
  O43      1.0000 0.95670  0.41729  0.67090  Biso   1.000  O 
  O44      1.0000 0.95387  0.32795  0.92108  Biso   1.000  O 
  O45      1.0000 0.76831  0.12670  0.74104  Biso   1.000  O 
  O46      1.0000 0.76657  0.11834  0.99151  Biso   1.000  O 
  O47      1.0000 0.72268  0.37589  0.51156  Biso   1.000  O 
  O48      1.0000 0.71555  0.36776  0.76150  Biso   1.000  O 
  Hf25     1.0000 0.63623  0.52312  0.14349  Biso   1.000  Hf
  Hf26     1.0000 0.63257  0.72605  0.39515  Biso   1.000  Hf
  Hf27     1.0000 0.85760  0.77056  0.10369  Biso   1.000  Hf
  Hf28     1.0000 0.85452  0.97717  0.35439  Biso   1.000  Hf
  O49      1.0000 0.53318  0.67116  0.07751  Biso   1.000  O 
  O50      1.0000 0.52707  0.58682  0.32175  Biso   1.000  O 
  O51      1.0000 0.95975  0.91899  0.16961  Biso   1.000  O 
  O52      1.0000 0.95561  0.82893  0.42041  Biso   1.000  O 
  O53      1.0000 0.77275  0.62700  0.24032  Biso   1.000  O 
  O54      1.0000 0.76855  0.61822  0.49050  Biso   1.000  O 
  O55      1.0000 0.72034  0.87830  0.00845  Biso   1.000  O 
  O56      1.0000 0.72011  0.86720  0.25824  Biso   1.000  O 
  Hf29     1.0000 0.63078  0.51714  0.64731  Biso   1.000  Hf
  Hf30     1.0000 0.62780  0.72680  0.89558  Biso   1.000  Hf
  Hf31     1.0000 0.85096  0.76921  0.60463  Biso   1.000  Hf
  Hf32     1.0000 0.84947  0.97647  0.85495  Biso   1.000  Hf
  O57      1.0000 0.52656  0.66279  0.57934  Biso   1.000  O 
  O58      1.0000 0.52594  0.57828  0.83147  Biso   1.000  O 
  O59      1.0000 0.95369  0.91763  0.66990  Biso   1.000  O 
  O60      1.0000 0.95260  0.82831  0.92001  Biso   1.000  O 
  O61      1.0000 0.76682  0.62640  0.74071  Biso   1.000  O 
  O62      1.0000 0.76543  0.61900  0.99060  Biso   1.000  O 
  O63      1.0000 0.71408  0.87698  0.50979  Biso   1.000  O 
  O64      1.0000 0.71228  0.86923  0.75922  Biso   1.000  O 
  N1       1.0000 0.43869  0.29062  0.36856  Biso   1.000  N 
