data_image0
_cell_length_a       10.0737
_cell_length_b       10.2167
_cell_length_c       10.1397
_cell_angle_alpha    90
_cell_angle_beta     90
_cell_angle_gamma    90

_symmetry_space_group_name_H-M    "P 1"
_symmetry_int_tables_number       1

loop_
  _symmetry_equiv_pos_as_xyz
  'x, y, z'

loop_
  _atom_site_label
  _atom_site_occupancy
  _atom_site_fract_x
  _atom_site_fract_y
  _atom_site_fract_z
  _atom_site_thermal_displace_type
  _atom_site_B_iso_or_equiv
  _atom_site_type_symbol
  Hf1      1.0000 0.13331  0.98768  0.13166  Biso   1.000  Hf
  Hf2      1.0000 0.10206  0.22583  0.36123  Biso   1.000  Hf
  Hf3      1.0000 0.34787  0.26214  0.11875  Biso   1.000  Hf
  Hf4      1.0000 0.35485  0.00511  0.38500  Biso   1.000  Hf
  O1       1.0000 0.90767  0.17267  0.96588  Biso   1.000  O 
  O2       1.0000 0.02200  0.05348  0.28779  Biso   1.000  O 
  O3       1.0000 0.94804  0.33337  0.29261  Biso   1.000  O 
  O4       1.0000 0.94748  0.42622  0.04070  Biso   1.000  O 
  O5       1.0000 0.25005  0.13545  0.24765  Biso   1.000  O 
  O6       1.0000 0.17770  0.10130  0.99019  Biso   1.000  O 
  O7       1.0000 0.21075  0.36213  0.00027  Biso   1.000  O 
  O8       1.0000 0.20714  0.38605  0.24810  Biso   1.000  O 
  Hf5      1.0000 0.08987  0.98552  0.62274  Biso   1.000  Hf
  Hf6      1.0000 0.07547  0.23213  0.84980  Biso   1.000  Hf
  Hf7      1.0000 0.32568  0.24889  0.62087  Biso   1.000  Hf
  Hf8      1.0000 0.31891  0.00066  0.88483  Biso   1.000  Hf
  O9       1.0000 0.96658  0.14734  0.50317  Biso   1.000  O 
  O10      1.0000 0.95750  0.08695  0.74105  Biso   1.000  O 
  O11      1.0000 0.91985  0.33741  0.77979  Biso   1.000  O 
  O12      1.0000 0.92847  0.40366  0.53574  Biso   1.000  O 
  O13      1.0000 0.20723  0.13069  0.74240  Biso   1.000  O 
  O14      1.0000 0.21911  0.10084  0.49851  Biso   1.000  O 
  O15      1.0000 0.19205  0.34829  0.49908  Biso   1.000  O 
  O16      1.0000 0.17836  0.38381  0.74791  Biso   1.000  O 
  Hf9      1.0000 0.11385  0.51132  0.11571  Biso   1.000  Hf
  Hf10     1.0000 0.10552  0.74515  0.37467  Biso   1.000  Hf
  Hf11     1.0000 0.36537  0.73597  0.13685  Biso   1.000  Hf
  Hf12     1.0000 0.34051  0.48548  0.37555  Biso   1.000  Hf
  O17      1.0000 0.93576  0.64662  0.98616  Biso   1.000  O 
  O18      1.0000 0.97983  0.59160  0.24984  Biso   1.000  O 
  O19      1.0000 0.03071  0.82246  0.20422  Biso   1.000  O 
  O20      1.0000 0.97050  0.91290  0.96023  Biso   1.000  O 
  O21      1.0000 0.23370  0.63276  0.25196  Biso   1.000  O 
  O22      1.0000 0.24684  0.61306  0.00076  Biso   1.000  O 
  O23      1.0000 0.27495  0.86219  0.00412  Biso   1.000  O 
  O24      1.0000 0.26870  0.88085  0.25446  Biso   1.000  O 
  Hf13     1.0000 0.08159  0.50200  0.61537  Biso   1.000  Hf
  Hf14     1.0000 0.07448  0.74858  0.87496  Biso   1.000  Hf
  Hf15     1.0000 0.33240  0.73270  0.63135  Biso   1.000  Hf
  Hf16     1.0000 0.31152  0.49035  0.87292  Biso   1.000  Hf
  O25      1.0000 0.96958  0.64272  0.49012  Biso   1.000  O 
  O26      1.0000 0.94951  0.59065  0.74355  Biso   1.000  O 
  O27      1.0000 0.98349  0.83165  0.71729  Biso   1.000  O 
  O28      1.0000 0.98910  0.88923  0.47576  Biso   1.000  O 
  O29      1.0000 0.20164  0.63438  0.75067  Biso   1.000  O 
  O30      1.0000 0.21498  0.59988  0.49952  Biso   1.000  O 
  O31      1.0000 0.23448  0.85064  0.50055  Biso   1.000  O 
  O32      1.0000 0.22307  0.88367  0.74972  Biso   1.000  O 
  Hf17     1.0000 0.62388  0.99931  0.12810  Biso   1.000  Hf
  Hf18     1.0000 0.60209  0.23262  0.37265  Biso   1.000  Hf
  Hf19     1.0000 0.83927  0.27315  0.13092  Biso   1.000  Hf
  Hf20     1.0000 0.85160  0.99857  0.37991  Biso   1.000  Hf
  O33      1.0000 0.49292  0.15754  0.01419  Biso   1.000  O 
  O34      1.0000 0.50313  0.07958  0.26524  Biso   1.000  O 
  O35      1.0000 0.44683  0.32885  0.28996  Biso   1.000  O 
  O36      1.0000 0.44771  0.42270  0.04635  Biso   1.000  O 
  O37      1.0000 0.74264  0.14338  0.25510  Biso   1.000  O 
  O38      1.0000 0.68193  0.09015  0.99597  Biso   1.000  O 
  O39      1.0000 0.69312  0.35547  0.02090  Biso   1.000  O 
  O40      1.0000 0.70708  0.39473  0.26399  Biso   1.000  O 
  Hf21     1.0000 0.58351  0.99526  0.62533  Biso   1.000  Hf
  Hf22     1.0000 0.56611  0.22708  0.86923  Biso   1.000  Hf
  Hf23     1.0000 0.83306  0.23984  0.62106  Biso   1.000  Hf
  Hf24     1.0000 0.81405  0.99418  0.86926  Biso   1.000  Hf
  O41      1.0000 0.46689  0.14764  0.51132  Biso   1.000  O 
  O42      1.0000 0.45646  0.08281  0.75539  Biso   1.000  O 
  O43      1.0000 0.41083  0.32709  0.79245  Biso   1.000  O 
  O44      1.0000 0.42975  0.40505  0.54097  Biso   1.000  O 
  O45      1.0000 0.70200  0.13976  0.74885  Biso   1.000  O 
  O46      1.0000 0.71812  0.09363  0.49989  Biso   1.000  O 
  O47      1.0000 0.68330  0.33997  0.52218  Biso   1.000  O 
  O48      1.0000 0.66855  0.39320  0.77360  Biso   1.000  O 
  Hf25     1.0000 0.61367  0.51285  0.12125  Biso   1.000  Hf
  Hf26     1.0000 0.59532  0.73555  0.37792  Biso   1.000  Hf
  Hf27     1.0000 0.86465  0.74161  0.12378  Biso   1.000  Hf
  Hf28     1.0000 0.85116  0.49771  0.37316  Biso   1.000  Hf
  O49      1.0000 0.43301  0.64110  0.99752  Biso   1.000  O 
  O50      1.0000 0.47824  0.58941  0.26008  Biso   1.000  O 
  O51      1.0000 0.52808  0.83018  0.21163  Biso   1.000  O 
  O52      1.0000 0.46833  0.89669  0.96405  Biso   1.000  O 
  O53      1.0000 0.73347  0.64466  0.24686  Biso   1.000  O 
  O54      1.0000 0.67885  0.59140  0.99501  Biso   1.000  O 
  O55      1.0000 0.71911  0.83304  0.96404  Biso   1.000  O 
  O56      1.0000 0.77959  0.90466  0.21437  Biso   1.000  O 
  Hf29     1.0000 0.58710  0.49907  0.62276  Biso   1.000  Hf
  Hf30     1.0000 0.56515  0.73469  0.87459  Biso   1.000  Hf
  Hf31     1.0000 0.83578  0.73911  0.61850  Biso   1.000  Hf
  Hf32     1.0000 0.81780  0.49875  0.86564  Biso   1.000  Hf
  O57      1.0000 0.46638  0.64389  0.50287  Biso   1.000  O 
  O58      1.0000 0.44900  0.58501  0.75661  Biso   1.000  O 
  O59      1.0000 0.48558  0.83057  0.71482  Biso   1.000  O 
  O60      1.0000 0.49641  0.89645  0.46912  Biso   1.000  O 
  O61      1.0000 0.70331  0.64292  0.74333  Biso   1.000  O 
  O62      1.0000 0.71402  0.59297  0.49704  Biso   1.000  O 
  O63      1.0000 0.74592  0.83677  0.46431  Biso   1.000  O 
  O64      1.0000 0.73530  0.89800  0.71220  Biso   1.000  O 
  N1       1.0000 0.00763  0.15621  0.09284  Biso   1.000  N 
