data_image0
_cell_length_a       10.1445
_cell_length_b       10.2397
_cell_length_c       10.4676
_cell_angle_alpha    90
_cell_angle_beta     80
_cell_angle_gamma    90

_symmetry_space_group_name_H-M    "P 1"
_symmetry_int_tables_number       1

loop_
  _symmetry_equiv_pos_as_xyz
  'x, y, z'

loop_
  _atom_site_label
  _atom_site_occupancy
  _atom_site_fract_x
  _atom_site_fract_y
  _atom_site_fract_z
  _atom_site_thermal_displace_type
  _atom_site_B_iso_or_equiv
  _atom_site_type_symbol
  N1       1.0000 0.04113  0.05515  0.17082  Biso   1.000  N 
  Hf1      1.0000 0.14749  0.23087  0.39445  Biso   1.000  Hf
  Hf2      1.0000 0.35606  0.26305  0.10546  Biso   1.000  Hf
  Hf3      1.0000 0.35940  0.47767  0.35191  Biso   1.000  Hf
  O1       1.0000 0.02952  0.14959  0.08962  Biso   1.000  O 
  O2       1.0000 0.02617  0.09443  0.29587  Biso   1.000  O 
  O3       1.0000 0.46313  0.41476  0.17152  Biso   1.000  O 
  O4       1.0000 0.46280  0.33084  0.42169  Biso   1.000  O 
  O5       1.0000 0.28683  0.13829  0.25437  Biso   1.000  O 
  O6       1.0000 0.27475  0.11964  0.49508  Biso   1.000  O 
  O7       1.0000 0.22174  0.37668  0.00999  Biso   1.000  O 
  O8       1.0000 0.21913  0.37398  0.25825  Biso   1.000  O 
  Hf4      1.0000 0.13684  0.01853  0.64477  Biso   1.000  Hf
  Hf5      1.0000 0.14419  0.22540  0.89352  Biso   1.000  Hf
  Hf6      1.0000 0.36088  0.26981  0.60496  Biso   1.000  Hf
  Hf7      1.0000 0.35999  0.47717  0.85632  Biso   1.000  Hf
  O9       1.0000 0.02733  0.15039  0.55995  Biso   1.000  O 
  O10      1.0000 0.03085  0.08582  0.82610  Biso   1.000  O 
  O11      1.0000 0.46458  0.41675  0.67172  Biso   1.000  O 
  O12      1.0000 0.46470  0.33480  0.92300  Biso   1.000  O 
  O13      1.0000 0.27278  0.12666  0.73803  Biso   1.000  O 
  O14      1.0000 0.28153  0.13089  0.97987  Biso   1.000  O 
  O15      1.0000 0.22129  0.37600  0.50872  Biso   1.000  O 
  O16      1.0000 0.22393  0.36821  0.76017  Biso   1.000  O 
  Hf8      1.0000 0.13994  0.52084  0.14478  Biso   1.000  Hf
  Hf9      1.0000 0.14196  0.72823  0.39343  Biso   1.000  Hf
  Hf10     1.0000 0.35735  0.77751  0.10459  Biso   1.000  Hf
  Hf11     1.0000 0.35922  0.97853  0.35040  Biso   1.000  Hf
  O17      1.0000 0.03734  0.67447  0.08353  Biso   1.000  O 
  O18      1.0000 0.03283  0.58398  0.32777  Biso   1.000  O 
  O19      1.0000 0.47126  0.91706  0.17125  Biso   1.000  O 
  O20      1.0000 0.46840  0.83264  0.42252  Biso   1.000  O 
  O21      1.0000 0.27620  0.62454  0.23858  Biso   1.000  O 
  O22      1.0000 0.27580  0.61949  0.49010  Biso   1.000  O 
  O23      1.0000 0.22964  0.86969  0.99968  Biso   1.000  O 
  O24      1.0000 0.23462  0.86215  0.26538  Biso   1.000  O 
  Hf12     1.0000 0.13857  0.52216  0.64757  Biso   1.000  Hf
  Hf13     1.0000 0.14136  0.73268  0.89746  Biso   1.000  Hf
  Hf14     1.0000 0.36198  0.77170  0.60352  Biso   1.000  Hf
  Hf15     1.0000 0.35573  0.97770  0.85959  Biso   1.000  Hf
  O25      1.0000 0.03309  0.66423  0.57870  Biso   1.000  O 
  O26      1.0000 0.03472  0.57949  0.83094  Biso   1.000  O 
  O27      1.0000 0.46419  0.91531  0.67462  Biso   1.000  O 
  O28      1.0000 0.47039  0.83785  0.92402  Biso   1.000  O 
  O29      1.0000 0.27583  0.62840  0.74035  Biso   1.000  O 
  O30      1.0000 0.27291  0.61669  0.99177  Biso   1.000  O 
  O31      1.0000 0.22409  0.87723  0.51024  Biso   1.000  O 
  O32      1.0000 0.22160  0.87104  0.75693  Biso   1.000  O 
  Hf16     1.0000 0.63796  0.02193  0.14544  Biso   1.000  Hf
  Hf17     1.0000 0.63499  0.22787  0.39700  Biso   1.000  Hf
  Hf18     1.0000 0.85060  0.27614  0.10690  Biso   1.000  Hf
  Hf19     1.0000 0.86244  0.47731  0.35401  Biso   1.000  Hf
  O33      1.0000 0.53774  0.16887  0.07974  Biso   1.000  O 
  O34      1.0000 0.54000  0.07708  0.33103  Biso   1.000  O 
  O35      1.0000 0.96459  0.41419  0.17164  Biso   1.000  O 
  O36      1.0000 0.96647  0.33096  0.42028  Biso   1.000  O 
  O37      1.0000 0.77758  0.12965  0.24169  Biso   1.000  O 
  O38      1.0000 0.77242  0.11862  0.49188  Biso   1.000  O 
  O39      1.0000 0.72461  0.38166  0.00961  Biso   1.000  O 
  O40      1.0000 0.72021  0.37108  0.26065  Biso   1.000  O 
  Hf20     1.0000 0.63313  0.01957  0.65065  Biso   1.000  Hf
  Hf21     1.0000 0.63404  0.22783  0.89588  Biso   1.000  Hf
  Hf22     1.0000 0.86174  0.26860  0.60224  Biso   1.000  Hf
  Hf23     1.0000 0.86419  0.47398  0.85500  Biso   1.000  Hf
  O41      1.0000 0.53388  0.16763  0.58088  Biso   1.000  O 
  O42      1.0000 0.53267  0.08159  0.83054  Biso   1.000  O 
  O43      1.0000 0.96988  0.40725  0.67570  Biso   1.000  O 
  O44      1.0000 0.96450  0.32710  0.93188  Biso   1.000  O 
  O45      1.0000 0.77458  0.12730  0.73991  Biso   1.000  O 
  O46      1.0000 0.77339  0.12204  0.99129  Biso   1.000  O 
  O47      1.0000 0.72498  0.37648  0.51064  Biso   1.000  O 
  O48      1.0000 0.72489  0.36975  0.76030  Biso   1.000  O 
  Hf24     1.0000 0.63249  0.52194  0.14639  Biso   1.000  Hf
  Hf25     1.0000 0.63694  0.72523  0.39681  Biso   1.000  Hf
  Hf26     1.0000 0.86062  0.76330  0.09762  Biso   1.000  Hf
  Hf27     1.0000 0.84982  0.97573  0.36417  Biso   1.000  Hf
  O49      1.0000 0.53577  0.66846  0.07817  Biso   1.000  O 
  O50      1.0000 0.53274  0.58088  0.32939  Biso   1.000  O 
  O51      1.0000 0.96676  0.95199  0.16591  Biso   1.000  O 
  O52      1.0000 0.96762  0.83914  0.41953  Biso   1.000  O 
  O53      1.0000 0.77425  0.62619  0.23957  Biso   1.000  O 
  O54      1.0000 0.77669  0.61994  0.49050  Biso   1.000  O 
  O55      1.0000 0.72812  0.87983  0.00983  Biso   1.000  O 
  O56      1.0000 0.73750  0.86840  0.25803  Biso   1.000  O 
  Hf28     1.0000 0.63869  0.51950  0.64758  Biso   1.000  Hf
  Hf29     1.0000 0.63485  0.72870  0.89727  Biso   1.000  Hf
  Hf30     1.0000 0.86124  0.76861  0.60586  Biso   1.000  Hf
  Hf31     1.0000 0.86098  0.97864  0.85410  Biso   1.000  Hf
  O57      1.0000 0.53529  0.66490  0.57838  Biso   1.000  O 
  O58      1.0000 0.53337  0.58279  0.82852  Biso   1.000  O 
  O59      1.0000 0.96502  0.91314  0.67340  Biso   1.000  O 
  O60      1.0000 0.96373  0.83220  0.92318  Biso   1.000  O 
  O61      1.0000 0.77755  0.62584  0.74169  Biso   1.000  O 
  O62      1.0000 0.77657  0.62152  0.99235  Biso   1.000  O 
  O63      1.0000 0.72128  0.87587  0.51196  Biso   1.000  O 
  O64      1.0000 0.72416  0.86935  0.76023  Biso   1.000  O 
