data_image0
_cell_length_a       9.97164
_cell_length_b       10.3553
_cell_length_c       10.0018
_cell_angle_alpha    90
_cell_angle_beta     90
_cell_angle_gamma    90

_symmetry_space_group_name_H-M    "P 1"
_symmetry_int_tables_number       1

loop_
  _symmetry_equiv_pos_as_xyz
  'x, y, z'

loop_
  _atom_site_label
  _atom_site_occupancy
  _atom_site_fract_x
  _atom_site_fract_y
  _atom_site_fract_z
  _atom_site_thermal_displace_type
  _atom_site_B_iso_or_equiv
  _atom_site_type_symbol
  N1       1.0000 0.04067  0.05212  0.11692  Biso   1.000  N 
  Hf1      1.0000 0.14689  0.23118  0.37884  Biso   1.000  Hf
  Hf2      1.0000 0.36448  0.26179  0.12723  Biso   1.000  Hf
  Hf3      1.0000 0.36867  0.48458  0.37582  Biso   1.000  Hf
  O1       1.0000 0.03564  0.16767  0.17864  Biso   1.000  O 
  O2       1.0000 0.03802  0.07015  0.44798  Biso   1.000  O 
  O3       1.0000 0.46279  0.43405  0.19501  Biso   1.000  O 
  O4       1.0000 0.46650  0.31733  0.44675  Biso   1.000  O 
  O5       1.0000 0.28775  0.13264  0.26222  Biso   1.000  O 
  O6       1.0000 0.27121  0.13273  0.50781  Biso   1.000  O 
  O7       1.0000 0.23254  0.38163  0.50111  Biso   1.000  O 
  O8       1.0000 0.22579  0.36875  0.24967  Biso   1.000  O 
  Hf4      1.0000 0.13830  0.01669  0.62894  Biso   1.000  Hf
  Hf5      1.0000 0.14537  0.23855  0.88220  Biso   1.000  Hf
  Hf6      1.0000 0.36894  0.26822  0.62885  Biso   1.000  Hf
  Hf7      1.0000 0.37152  0.48606  0.87753  Biso   1.000  Hf
  O9       1.0000 0.02981  0.17461  0.71753  Biso   1.000  O 
  O10      1.0000 0.02976  0.06582  0.98591  Biso   1.000  O 
  O11      1.0000 0.46689  0.43674  0.69343  Biso   1.000  O 
  O12      1.0000 0.46963  0.31995  0.94147  Biso   1.000  O 
  O13      1.0000 0.27061  0.11934  0.75265  Biso   1.000  O 
  O14      1.0000 0.27995  0.14003  0.99543  Biso   1.000  O 
  O15      1.0000 0.23052  0.38325  0.00212  Biso   1.000  O 
  O16      1.0000 0.23251  0.36925  0.75275  Biso   1.000  O 
  Hf8      1.0000 0.13545  0.51638  0.12770  Biso   1.000  Hf
  Hf9      1.0000 0.13994  0.73629  0.37666  Biso   1.000  Hf
  Hf10     1.0000 0.36251  0.76849  0.12524  Biso   1.000  Hf
  Hf11     1.0000 0.36337  0.98350  0.36991  Biso   1.000  Hf
  O17      1.0000 0.03756  0.68949  0.19332  Biso   1.000  O 
  O18      1.0000 0.03866  0.56667  0.44532  Biso   1.000  O 
  O19      1.0000 0.47316  0.93261  0.19744  Biso   1.000  O 
  O20      1.0000 0.47264  0.81913  0.45175  Biso   1.000  O 
  O21      1.0000 0.26995  0.61417  0.25036  Biso   1.000  O 
  O22      1.0000 0.27560  0.63311  0.50071  Biso   1.000  O 
  O23      1.0000 0.23194  0.88354  0.50332  Biso   1.000  O 
  O24      1.0000 0.24551  0.85759  0.26018  Biso   1.000  O 
  Hf12     1.0000 0.13834  0.52009  0.62606  Biso   1.000  Hf
  Hf13     1.0000 0.14228  0.73722  0.88051  Biso   1.000  Hf
  Hf14     1.0000 0.36977  0.77033  0.62737  Biso   1.000  Hf
  Hf15     1.0000 0.36240  0.98531  0.88583  Biso   1.000  Hf
  O25      1.0000 0.04004  0.68516  0.69293  Biso   1.000  O 
  O26      1.0000 0.03775  0.57004  0.94801  Biso   1.000  O 
  O27      1.0000 0.46491  0.93586  0.70026  Biso   1.000  O 
  O28      1.0000 0.47295  0.82013  0.94683  Biso   1.000  O 
  O29      1.0000 0.27432  0.62088  0.75157  Biso   1.000  O 
  O30      1.0000 0.27264  0.62681  0.00201  Biso   1.000  O 
  O31      1.0000 0.23722  0.87363  0.99808  Biso   1.000  O 
  O32      1.0000 0.23000  0.87172  0.75070  Biso   1.000  O 
  Hf16     1.0000 0.63611  0.01754  0.12401  Biso   1.000  Hf
  Hf17     1.0000 0.63346  0.23460  0.37534  Biso   1.000  Hf
  Hf18     1.0000 0.85378  0.27450  0.12125  Biso   1.000  Hf
  Hf19     1.0000 0.86995  0.48279  0.37660  Biso   1.000  Hf
  O33      1.0000 0.54520  0.18786  0.18919  Biso   1.000  O 
  O34      1.0000 0.53806  0.06738  0.44143  Biso   1.000  O 
  O35      1.0000 0.96705  0.42549  0.19683  Biso   1.000  O 
  O36      1.0000 0.96935  0.31398  0.44430  Biso   1.000  O 
  O37      1.0000 0.77729  0.12104  0.24780  Biso   1.000  O 
  O38      1.0000 0.77230  0.13364  0.49817  Biso   1.000  O 
  O39      1.0000 0.73426  0.38251  0.49953  Biso   1.000  O 
  O40      1.0000 0.72691  0.37216  0.25019  Biso   1.000  O 
  Hf20     1.0000 0.62940  0.01487  0.62219  Biso   1.000  Hf
  Hf21     1.0000 0.63438  0.23324  0.87305  Biso   1.000  Hf
  Hf22     1.0000 0.87134  0.26455  0.62590  Biso   1.000  Hf
  Hf23     1.0000 0.87248  0.48462  0.87243  Biso   1.000  Hf
  O41      1.0000 0.53793  0.18518  0.69287  Biso   1.000  O 
  O42      1.0000 0.54067  0.06740  0.94602  Biso   1.000  O 
  O43      1.0000 0.97049  0.43156  0.69396  Biso   1.000  O 
  O44      1.0000 0.97018  0.31858  0.94807  Biso   1.000  O 
  O45      1.0000 0.76742  0.11469  0.74488  Biso   1.000  O 
  O46      1.0000 0.77710  0.13472  0.99480  Biso   1.000  O 
  O47      1.0000 0.73319  0.38593  0.99846  Biso   1.000  O 
  O48      1.0000 0.73532  0.36614  0.74834  Biso   1.000  O 
  Hf24     1.0000 0.63074  0.51874  0.12749  Biso   1.000  Hf
  Hf25     1.0000 0.63714  0.73646  0.37243  Biso   1.000  Hf
  Hf26     1.0000 0.86832  0.76045  0.11578  Biso   1.000  Hf
  Hf27     1.0000 0.86650  0.99017  0.38172  Biso   1.000  Hf
  O49      1.0000 0.53922  0.68605  0.19480  Biso   1.000  O 
  O50      1.0000 0.54050  0.56712  0.44152  Biso   1.000  O 
  O51      1.0000 0.97236  0.96080  0.17631  Biso   1.000  O 
  O52      1.0000 0.96763  0.82122  0.43914  Biso   1.000  O 
  O53      1.0000 0.77514  0.61622  0.24628  Biso   1.000  O 
  O54      1.0000 0.77293  0.63441  0.49638  Biso   1.000  O 
  O55      1.0000 0.73350  0.88488  0.49816  Biso   1.000  O 
  O56      1.0000 0.74904  0.86924  0.24645  Biso   1.000  O 
  Hf28     1.0000 0.63718  0.51721  0.62359  Biso   1.000  Hf
  Hf29     1.0000 0.63492  0.73505  0.87381  Biso   1.000  Hf
  Hf30     1.0000 0.87129  0.76545  0.62230  Biso   1.000  Hf
  Hf31     1.0000 0.86198  0.98191  0.86793  Biso   1.000  Hf
  O57      1.0000 0.53982  0.68454  0.69431  Biso   1.000  O 
  O58      1.0000 0.54137  0.56807  0.94467  Biso   1.000  O 
  O59      1.0000 0.96564  0.93372  0.69320  Biso   1.000  O 
  O60      1.0000 0.96642  0.81964  0.93789  Biso   1.000  O 
  O61      1.0000 0.77548  0.61665  0.74637  Biso   1.000  O 
  O62      1.0000 0.77439  0.63466  0.99715  Biso   1.000  O 
  O63      1.0000 0.73431  0.88472  0.99670  Biso   1.000  O 
  O64      1.0000 0.73299  0.86680  0.74707  Biso   1.000  O 
