data_image0
_cell_length_a       10.0678
_cell_length_b       5.11144
_cell_length_c       10.0681
_cell_angle_alpha    90
_cell_angle_beta     90
_cell_angle_gamma    90

_symmetry_space_group_name_H-M    "P 1"
_symmetry_int_tables_number       1

loop_
  _symmetry_equiv_pos_as_xyz
  'x, y, z'

loop_
  _atom_site_label
  _atom_site_occupancy
  _atom_site_fract_x
  _atom_site_fract_y
  _atom_site_fract_z
  _atom_site_thermal_displace_type
  _atom_site_B_iso_or_equiv
  _atom_site_type_symbol
  Hf1      1.0000 0.12491  0.00010  0.12491  Biso   1.000  Hf
  Hf2      1.0000 0.12491  0.50011  0.39325  Biso   1.000  Hf
  Hf3      1.0000 0.39335  0.50010  0.12491  Biso   1.000  Hf
  Hf4      1.0000 0.37199  0.00556  0.37202  Biso   1.000  Hf
  O1       1.0000 0.99105  0.30638  0.99109  Biso   1.000  O 
  O2       1.0000 0.00447  0.20187  0.24544  Biso   1.000  O 
  O3       1.0000 0.99105  0.69383  0.25873  Biso   1.000  O 
  O4       1.0000 0.00447  0.79834  0.00437  Biso   1.000  O 
  O5       1.0000 0.25876  0.30638  0.25873  Biso   1.000  O 
  O6       1.0000 0.24534  0.20187  0.00437  Biso   1.000  O 
  O7       1.0000 0.25876  0.69383  0.99109  Biso   1.000  O 
  O8       1.0000 0.24534  0.79834  0.24544  Biso   1.000  O 
  Hf5      1.0000 0.12491  0.00011  0.62491  Biso   1.000  Hf
  Hf6      1.0000 0.12491  0.50011  0.85657  Biso   1.000  Hf
  Hf7      1.0000 0.37828  0.50011  0.62491  Biso   1.000  Hf
  Hf8      1.0000 0.37199  0.99466  0.87780  Biso   1.000  Hf
  O9       1.0000 0.98972  0.28231  0.49564  Biso   1.000  O 
  O10      1.0000 0.00559  0.21320  0.74662  Biso   1.000  O 
  O11      1.0000 0.98971  0.71790  0.75417  Biso   1.000  O 
  O12      1.0000 0.00560  0.78702  0.50320  Biso   1.000  O 
  O13      1.0000 0.26010  0.28232  0.75417  Biso   1.000  O 
  O14      1.0000 0.24422  0.21320  0.50320  Biso   1.000  O 
  O15      1.0000 0.26010  0.71790  0.49565  Biso   1.000  O 
  O16      1.0000 0.24422  0.78701  0.74662  Biso   1.000  O 
  Hf9      1.0000 0.62491  0.00011  0.12491  Biso   1.000  Hf
  Hf10     1.0000 0.62491  0.50011  0.37816  Biso   1.000  Hf
  Hf11     1.0000 0.85646  0.50011  0.12491  Biso   1.000  Hf
  Hf12     1.0000 0.87783  0.99466  0.37202  Biso   1.000  Hf
  O17      1.0000 0.49556  0.28216  0.98962  Biso   1.000  O 
  O18      1.0000 0.50321  0.21321  0.24424  Biso   1.000  O 
  O19      1.0000 0.49556  0.71805  0.26020  Biso   1.000  O 
  O20      1.0000 0.50320  0.78701  0.00558  Biso   1.000  O 
  O21      1.0000 0.75426  0.28216  0.26020  Biso   1.000  O 
  O22      1.0000 0.74661  0.21321  0.00558  Biso   1.000  O 
  O23      1.0000 0.75426  0.71805  0.98962  Biso   1.000  O 
  O24      1.0000 0.74661  0.78701  0.24424  Biso   1.000  O 
  Hf13     1.0000 0.62491  0.00011  0.62491  Biso   1.000  Hf
  Hf14     1.0000 0.62491  0.50011  0.87166  Biso   1.000  Hf
  Hf15     1.0000 0.87154  0.50010  0.62491  Biso   1.000  Hf
  Hf16     1.0000 0.87783  0.00556  0.87780  Biso   1.000  Hf
  O25      1.0000 0.49155  0.29334  0.49151  Biso   1.000  O 
  O26      1.0000 0.50449  0.20822  0.74524  Biso   1.000  O 
  O27      1.0000 0.49155  0.70687  0.75831  Biso   1.000  O 
  O28      1.0000 0.50449  0.79200  0.50458  Biso   1.000  O 
  O29      1.0000 0.75827  0.29334  0.75831  Biso   1.000  O 
  O30      1.0000 0.74532  0.20822  0.50457  Biso   1.000  O 
  O31      1.0000 0.75827  0.70688  0.49151  Biso   1.000  O 
  O32      1.0000 0.74533  0.79200  0.74524  Biso   1.000  O 
  Na1      1.0000 0.12491  0.50011  0.12491  Biso   1.000  Na
