data_image0
_cell_length_a       10.2196
_cell_length_b       10.2815
_cell_length_c       5.21696
_cell_angle_alpha    90
_cell_angle_beta     80
_cell_angle_gamma    90

_symmetry_space_group_name_H-M    "P 1"
_symmetry_int_tables_number       1

loop_
  _symmetry_equiv_pos_as_xyz
  'x, y, z'

loop_
  _atom_site_label
  _atom_site_occupancy
  _atom_site_fract_x
  _atom_site_fract_y
  _atom_site_fract_z
  _atom_site_thermal_displace_type
  _atom_site_B_iso_or_equiv
  _atom_site_type_symbol
  Na1      1.0000 0.13902  0.01361  0.29503  Biso   1.000  Na
  Hf1      1.0000 0.13963  0.52123  0.29051  Biso   1.000  Hf
  Hf2      1.0000 0.64042  0.02035  0.29245  Biso   1.000  Hf
  Hf3      1.0000 0.63674  0.52055  0.29035  Biso   1.000  Hf
  Hf4      1.0000 0.14023  0.22813  0.79534  Biso   1.000  Hf
  Hf5      1.0000 0.14200  0.73069  0.78897  Biso   1.000  Hf
  Hf6      1.0000 0.63774  0.22886  0.79156  Biso   1.000  Hf
  Hf7      1.0000 0.63745  0.72848  0.79191  Biso   1.000  Hf
  Hf8      1.0000 0.35664  0.26694  0.21036  Biso   1.000  Hf
  Hf9      1.0000 0.35685  0.77364  0.20724  Biso   1.000  Hf
  Hf10     1.0000 0.85781  0.27056  0.20364  Biso   1.000  Hf
  Hf11     1.0000 0.85947  0.77093  0.20623  Biso   1.000  Hf
  Hf12     1.0000 0.35877  0.47759  0.70651  Biso   1.000  Hf
  Hf13     1.0000 0.35463  0.97840  0.70590  Biso   1.000  Hf
  Hf14     1.0000 0.85934  0.48000  0.70580  Biso   1.000  Hf
  Hf15     1.0000 0.86024  0.97873  0.70662  Biso   1.000  Hf
  O1       1.0000 0.03284  0.17952  0.16086  Biso   1.000  O 
  O2       1.0000 0.03323  0.66726  0.15998  Biso   1.000  O 
  O3       1.0000 0.53375  0.16717  0.16012  Biso   1.000  O 
  O4       1.0000 0.53173  0.66572  0.15752  Biso   1.000  O 
  O5       1.0000 0.02656  0.08567  0.70264  Biso   1.000  O 
  O6       1.0000 0.03240  0.58328  0.65657  Biso   1.000  O 
  O7       1.0000 0.53580  0.08233  0.65851  Biso   1.000  O 
  O8       1.0000 0.53163  0.58369  0.65636  Biso   1.000  O 
  O9       1.0000 0.46500  0.41485  0.34135  Biso   1.000  O 
  O10      1.0000 0.46689  0.91637  0.33987  Biso   1.000  O 
  O11      1.0000 0.96425  0.41801  0.33616  Biso   1.000  O 
  O12      1.0000 0.94570  0.91885  0.34581  Biso   1.000  O 
  O13      1.0000 0.46685  0.33520  0.84215  Biso   1.000  O 
  O14      1.0000 0.47052  0.83779  0.84334  Biso   1.000  O 
  O15      1.0000 0.96453  0.33640  0.83565  Biso   1.000  O 
  O16      1.0000 0.96511  0.83075  0.83738  Biso   1.000  O 
  O17      1.0000 0.28544  0.13428  0.49851  Biso   1.000  O 
  O18      1.0000 0.27525  0.62464  0.47798  Biso   1.000  O 
  O19      1.0000 0.77492  0.12991  0.48261  Biso   1.000  O 
  O20      1.0000 0.77374  0.62842  0.47873  Biso   1.000  O 
  O21      1.0000 0.28651  0.12923  0.96757  Biso   1.000  O 
  O22      1.0000 0.27554  0.61905  0.97985  Biso   1.000  O 
  O23      1.0000 0.77280  0.12278  0.98256  Biso   1.000  O 
  O24      1.0000 0.77316  0.62013  0.97887  Biso   1.000  O 
  O25      1.0000 0.22346  0.37947  0.01847  Biso   1.000  O 
  O26      1.0000 0.23130  0.86989  0.00143  Biso   1.000  O 
  O27      1.0000 0.72185  0.37942  0.01576  Biso   1.000  O 
  O28      1.0000 0.72362  0.87802  0.01677  Biso   1.000  O 
  O29      1.0000 0.22138  0.37226  0.51741  Biso   1.000  O 
  O30      1.0000 0.23204  0.86270  0.51959  Biso   1.000  O 
  O31      1.0000 0.72303  0.37210  0.51667  Biso   1.000  O 
  O32      1.0000 0.71434  0.87039  0.52096  Biso   1.000  O 
