data_image0
_cell_length_a       10.033
_cell_length_b       10.2375
_cell_length_c       10.5105
_cell_angle_alpha    90
_cell_angle_beta     90
_cell_angle_gamma    90

_symmetry_space_group_name_H-M    "P 1"
_symmetry_int_tables_number       1

loop_
  _symmetry_equiv_pos_as_xyz
  'x, y, z'

loop_
  _atom_site_label
  _atom_site_occupancy
  _atom_site_fract_x
  _atom_site_fract_y
  _atom_site_fract_z
  _atom_site_thermal_displace_type
  _atom_site_B_iso_or_equiv
  _atom_site_type_symbol
  Hf1      1.0000 0.13730  0.02074  0.17297  Biso   1.000  Hf
  Hf2      1.0000 0.13404  0.22764  0.42611  Biso   1.000  Hf
  Hf3      1.0000 0.34759  0.27308  0.18438  Biso   1.000  Hf
  Hf4      1.0000 0.35566  0.47964  0.42591  Biso   1.000  Hf
  Hf5      1.0000 0.64073  0.01429  0.07924  Biso   1.000  Hf
  Hf6      1.0000 0.63404  0.22737  0.32855  Biso   1.000  Hf
  Hf7      1.0000 0.86261  0.27144  0.07714  Biso   1.000  Hf
  Hf8      1.0000 0.85591  0.47841  0.32730  Biso   1.000  Hf
  O1       1.0000 0.03364  0.16549  0.08461  Biso   1.000  O 
  O2       1.0000 0.02929  0.08541  0.33364  Biso   1.000  O 
  O3       1.0000 0.45818  0.42497  0.09395  Biso   1.000  O 
  O4       1.0000 0.46127  0.33411  0.33818  Biso   1.000  O 
  O5       1.0000 0.27113  0.12410  0.30008  Biso   1.000  O 
  O6       1.0000 0.27840  0.12765  0.04881  Biso   1.000  O 
  O7       1.0000 0.21522  0.37535  0.30214  Biso   1.000  O 
  O8       1.0000 0.21939  0.37699  0.05029  Biso   1.000  O 
  O9       1.0000 0.52350  0.15750  0.17497  Biso   1.000  O 
  O10      1.0000 0.52810  0.08429  0.41873  Biso   1.000  O 
  O11      1.0000 0.96327  0.41614  0.16739  Biso   1.000  O 
  O12      1.0000 0.96330  0.33542  0.41676  Biso   1.000  O 
  O13      1.0000 0.77252  0.12396  0.45135  Biso   1.000  O 
  O14      1.0000 0.77263  0.12585  0.20130  Biso   1.000  O 
  O15      1.0000 0.71818  0.37471  0.45254  Biso   1.000  O 
  O16      1.0000 0.71665  0.37466  0.20069  Biso   1.000  O 
  Hf9      1.0000 0.13406  0.02130  0.67398  Biso   1.000  Hf
  Hf10     1.0000 0.13137  0.22935  0.92381  Biso   1.000  Hf
  Hf11     1.0000 0.35510  0.27228  0.67513  Biso   1.000  Hf
  Hf12     1.0000 0.34977  0.48175  0.92468  Biso   1.000  Hf
  Hf13     1.0000 0.63525  0.01796  0.57487  Biso   1.000  Hf
  Hf14     1.0000 0.64178  0.22422  0.81016  Biso   1.000  Hf
  Hf15     1.0000 0.85802  0.27285  0.57457  Biso   1.000  Hf
  Hf16     1.0000 0.85364  0.47915  0.82899  Biso   1.000  Hf
  O17      1.0000 0.02775  0.16471  0.58440  Biso   1.000  O 
  O18      1.0000 0.02662  0.08518  0.83434  Biso   1.000  O 
  O19      1.0000 0.46237  0.41516  0.58568  Biso   1.000  O 
  O20      1.0000 0.46364  0.33466  0.83554  Biso   1.000  O 
  O21      1.0000 0.27063  0.12491  0.79820  Biso   1.000  O 
  O22      1.0000 0.27255  0.12587  0.54905  Biso   1.000  O 
  O23      1.0000 0.21727  0.37453  0.79923  Biso   1.000  O 
  O24      1.0000 0.21814  0.37598  0.55012  Biso   1.000  O 
  O25      1.0000 0.52708  0.16282  0.66382  Biso   1.000  O 
  O26      1.0000 0.52733  0.08600  0.91675  Biso   1.000  O 
  O27      1.0000 0.96116  0.41522  0.66810  Biso   1.000  O 
  O28      1.0000 0.95869  0.33465  0.91711  Biso   1.000  O 
  O29      1.0000 0.76783  0.12459  0.95064  Biso   1.000  O 
  O30      1.0000 0.77532  0.12303  0.69718  Biso   1.000  O 
  O31      1.0000 0.71329  0.37450  0.95211  Biso   1.000  O 
  O32      1.0000 0.71886  0.37540  0.70051  Biso   1.000  O 
  Hf17     1.0000 0.13542  0.52290  0.17365  Biso   1.000  Hf
  Hf18     1.0000 0.13265  0.72870  0.42333  Biso   1.000  Hf
  Hf19     1.0000 0.35684  0.77186  0.17453  Biso   1.000  Hf
  Hf20     1.0000 0.35437  0.97803  0.42493  Biso   1.000  Hf
  Hf21     1.0000 0.63835  0.52857  0.07982  Biso   1.000  Hf
  Hf22     1.0000 0.63379  0.72933  0.32981  Biso   1.000  Hf
  Hf23     1.0000 0.86050  0.77059  0.07903  Biso   1.000  Hf
  Hf24     1.0000 0.85683  0.97934  0.32831  Biso   1.000  Hf
  O33      1.0000 0.03164  0.66593  0.08439  Biso   1.000  O 
  O34      1.0000 0.02742  0.58514  0.33459  Biso   1.000  O 
  O35      1.0000 0.46575  0.91296  0.08359  Biso   1.000  O 
  O36      1.0000 0.46230  0.83580  0.33505  Biso   1.000  O 
  O37      1.0000 0.27181  0.62444  0.29793  Biso   1.000  O 
  O38      1.0000 0.27480  0.62729  0.04665  Biso   1.000  O 
  O39      1.0000 0.21823  0.87424  0.29772  Biso   1.000  O 
  O40      1.0000 0.22154  0.87750  0.04741  Biso   1.000  O 
  O41      1.0000 0.53008  0.66817  0.16852  Biso   1.000  O 
  O42      1.0000 0.52704  0.58558  0.41777  Biso   1.000  O 
  O43      1.0000 0.96324  0.91619  0.16674  Biso   1.000  O 
  O44      1.0000 0.96117  0.83521  0.41767  Biso   1.000  O 
  O45      1.0000 0.77119  0.62414  0.45429  Biso   1.000  O 
  O46      1.0000 0.77421  0.62686  0.20533  Biso   1.000  O 
  O47      1.0000 0.71823  0.87376  0.45485  Biso   1.000  O 
  O48      1.0000 0.72088  0.87424  0.20566  Biso   1.000  O 
  Hf25     1.0000 0.13197  0.52136  0.67392  Biso   1.000  Hf
  Hf26     1.0000 0.12931  0.73005  0.92292  Biso   1.000  Hf
  Hf27     1.0000 0.35352  0.77138  0.67387  Biso   1.000  Hf
  Hf28     1.0000 0.35174  0.97977  0.92348  Biso   1.000  Hf
  Hf29     1.0000 0.63313  0.52231  0.57741  Biso   1.000  Hf
  Hf30     1.0000 0.62988  0.72890  0.82766  Biso   1.000  Hf
  Hf31     1.0000 0.85558  0.77051  0.57913  Biso   1.000  Hf
  Hf32     1.0000 0.85386  0.97767  0.82885  Biso   1.000  Hf
  O49      1.0000 0.02676  0.66505  0.58467  Biso   1.000  O 
  O50      1.0000 0.02508  0.58475  0.83538  Biso   1.000  O 
  O51      1.0000 0.46095  0.91317  0.58392  Biso   1.000  O 
  O52      1.0000 0.45891  0.83637  0.83410  Biso   1.000  O 
  O53      1.0000 0.26817  0.62512  0.79762  Biso   1.000  O 
  O54      1.0000 0.27005  0.62609  0.54764  Biso   1.000  O 
  O55      1.0000 0.21516  0.87454  0.79771  Biso   1.000  O 
  O56      1.0000 0.21650  0.87601  0.54806  Biso   1.000  O 
  O57      1.0000 0.52519  0.66465  0.66785  Biso   1.000  O 
  O58      1.0000 0.52251  0.58623  0.91853  Biso   1.000  O 
  O59      1.0000 0.96038  0.91446  0.66805  Biso   1.000  O 
  O60      1.0000 0.95702  0.83484  0.91769  Biso   1.000  O 
  O61      1.0000 0.76747  0.62496  0.95388  Biso   1.000  O 
  O62      1.0000 0.76918  0.62544  0.70457  Biso   1.000  O 
  O63      1.0000 0.71375  0.87424  0.95556  Biso   1.000  O 
  O64      1.0000 0.71668  0.87509  0.70515  Biso   1.000  O 
  Na1      1.0000 0.55065  0.26883  0.01785  Biso   1.000  Na
