data_image0
_cell_length_a       5.02461
_cell_length_b       10.4605
_cell_length_c       10.0595
_cell_angle_alpha    90
_cell_angle_beta     90
_cell_angle_gamma    90

_symmetry_space_group_name_H-M    "P 1"
_symmetry_int_tables_number       1

loop_
  _symmetry_equiv_pos_as_xyz
  'x, y, z'

loop_
  _atom_site_label
  _atom_site_occupancy
  _atom_site_fract_x
  _atom_site_fract_y
  _atom_site_fract_z
  _atom_site_thermal_displace_type
  _atom_site_B_iso_or_equiv
  _atom_site_type_symbol
  Hf1      1.0000 0.25754  0.01282  0.12641  Biso   1.000  Hf
  Hf2      1.0000 0.27552  0.23154  0.38314  Biso   1.000  Hf
  Hf3      1.0000 0.73166  0.26324  0.12463  Biso   1.000  Hf
  Hf4      1.0000 0.75979  0.48372  0.37445  Biso   1.000  Hf
  O1       1.0000 0.04187  0.17397  0.21463  Biso   1.000  O 
  O2       1.0000 0.08248  0.06344  0.44557  Biso   1.000  O 
  O3       1.0000 0.96083  0.43160  0.19527  Biso   1.000  O 
  O4       1.0000 0.94374  0.32085  0.44644  Biso   1.000  O 
  O5       1.0000 0.52583  0.11629  0.24520  Biso   1.000  O 
  O6       1.0000 0.55682  0.13498  0.49566  Biso   1.000  O 
  O7       1.0000 0.47509  0.38568  0.50135  Biso   1.000  O 
  O8       1.0000 0.47692  0.36341  0.25397  Biso   1.000  O 
  Hf5      1.0000 0.28288  0.01498  0.62358  Biso   1.000  Hf
  Hf6      1.0000 0.26278  0.22526  0.84425  Biso   1.000  Hf
  Hf7      1.0000 0.73945  0.27487  0.62335  Biso   1.000  Hf
  Hf8      1.0000 0.77050  0.49570  0.87532  Biso   1.000  Hf
  O9       1.0000 0.09032  0.18605  0.67243  Biso   1.000  O 
  O10      1.0000 0.05153  0.08055  0.95551  Biso   1.000  O 
  O11      1.0000 0.96061  0.43394  0.69827  Biso   1.000  O 
  O12      1.0000 0.95886  0.32241  0.94205  Biso   1.000  O 
  O13      1.0000 0.57837  0.12460  0.73902  Biso   1.000  O 
  O14      1.0000 0.51775  0.15724  0.99736  Biso   1.000  O 
  O15      1.0000 0.51547  0.40923  0.01383  Biso   1.000  O 
  O16      1.0000 0.48305  0.37575  0.75622  Biso   1.000  O 
  Hf9      1.0000 0.28852  0.53722  0.12921  Biso   1.000  Hf
  Hf10     1.0000 0.29370  0.73720  0.38105  Biso   1.000  Hf
  Hf11     1.0000 0.74795  0.77085  0.12646  Biso   1.000  Hf
  Hf12     1.0000 0.76184  0.98830  0.37353  Biso   1.000  Hf
  O17      1.0000 0.08598  0.69100  0.20228  Biso   1.000  O 
  O18      1.0000 0.09186  0.56973  0.44715  Biso   1.000  O 
  O19      1.0000 0.94204  0.93373  0.19612  Biso   1.000  O 
  O20      1.0000 0.95996  0.82133  0.44871  Biso   1.000  O 
  O21      1.0000 0.56689  0.62135  0.25179  Biso   1.000  O 
  O22      1.0000 0.56503  0.63439  0.50161  Biso   1.000  O 
  O23      1.0000 0.49488  0.88380  0.49818  Biso   1.000  O 
  O24      1.0000 0.47508  0.86792  0.24953  Biso   1.000  O 
  Hf13     1.0000 0.29573  0.52051  0.62874  Biso   1.000  Hf
  Hf14     1.0000 0.29012  0.74771  0.87284  Biso   1.000  Hf
  Hf15     1.0000 0.76367  0.76941  0.62518  Biso   1.000  Hf
  Hf16     1.0000 0.75747  0.99255  0.87308  Biso   1.000  Hf
  O25      1.0000 0.09633  0.68505  0.69798  Biso   1.000  O 
  O26      1.0000 0.09481  0.58235  0.95239  Biso   1.000  O 
  O27      1.0000 0.97016  0.93315  0.70103  Biso   1.000  O 
  O28      1.0000 0.96220  0.83003  0.94957  Biso   1.000  O 
  O29      1.0000 0.56652  0.62284  0.75109  Biso   1.000  O 
  O30      1.0000 0.55781  0.66008  0.99979  Biso   1.000  O 
  O31      1.0000 0.48928  0.90176  0.99872  Biso   1.000  O 
  O32      1.0000 0.49907  0.87026  0.74808  Biso   1.000  O 
  Na1      1.0000 0.23090  0.29414  0.09219  Biso   1.000  Na
