data_image0
_cell_length_a       10.039
_cell_length_b       5.14855
_cell_length_c       10.0883
_cell_angle_alpha    90
_cell_angle_beta     90
_cell_angle_gamma    90

_symmetry_space_group_name_H-M    "P 1"
_symmetry_int_tables_number       1

loop_
  _symmetry_equiv_pos_as_xyz
  'x, y, z'

loop_
  _atom_site_label
  _atom_site_occupancy
  _atom_site_fract_x
  _atom_site_fract_y
  _atom_site_fract_z
  _atom_site_thermal_displace_type
  _atom_site_B_iso_or_equiv
  _atom_site_type_symbol
  Na1      1.0000 0.13117  0.03021  0.12065  Biso   1.000  Na
  Hf1      1.0000 0.13213  0.03250  0.62787  Biso   1.000  Hf
  Hf2      1.0000 0.63311  0.02775  0.12308  Biso   1.000  Hf
  Hf3      1.0000 0.62999  0.02808  0.62374  Biso   1.000  Hf
  Hf4      1.0000 0.13638  0.46697  0.37596  Biso   1.000  Hf
  Hf5      1.0000 0.13723  0.46497  0.87834  Biso   1.000  Hf
  Hf6      1.0000 0.63058  0.46465  0.37524  Biso   1.000  Hf
  Hf7      1.0000 0.63372  0.46144  0.87315  Biso   1.000  Hf
  Hf8      1.0000 0.36066  0.53124  0.12638  Biso   1.000  Hf
  Hf9      1.0000 0.36412  0.53262  0.62622  Biso   1.000  Hf
  Hf10     1.0000 0.86143  0.53131  0.12437  Biso   1.000  Hf
  Hf11     1.0000 0.86397  0.52878  0.62362  Biso   1.000  Hf
  Hf12     1.0000 0.35992  0.96621  0.37317  Biso   1.000  Hf
  Hf13     1.0000 0.36107  0.96236  0.87884  Biso   1.000  Hf
  Hf14     1.0000 0.86523  0.96511  0.37696  Biso   1.000  Hf
  Hf15     1.0000 0.86351  0.96274  0.87229  Biso   1.000  Hf
  O1       1.0000 0.02671  0.39822  0.20728  Biso   1.000  O 
  O2       1.0000 0.03628  0.37466  0.69020  Biso   1.000  O 
  O3       1.0000 0.53695  0.36649  0.19336  Biso   1.000  O 
  O4       1.0000 0.53373  0.36358  0.69444  Biso   1.000  O 
  O5       1.0000 0.03245  0.13213  0.44806  Biso   1.000  O 
  O6       1.0000 0.03004  0.14136  0.92169  Biso   1.000  O 
  O7       1.0000 0.53269  0.12958  0.44448  Biso   1.000  O 
  O8       1.0000 0.53543  0.12607  0.94317  Biso   1.000  O 
  O9       1.0000 0.46670  0.86729  0.19639  Biso   1.000  O 
  O10      1.0000 0.46340  0.86385  0.69679  Biso   1.000  O 
  O11      1.0000 0.95446  0.85808  0.20225  Biso   1.000  O 
  O12      1.0000 0.96081  0.86666  0.69154  Biso   1.000  O 
  O13      1.0000 0.46555  0.63236  0.44907  Biso   1.000  O 
  O14      1.0000 0.47050  0.63186  0.94692  Biso   1.000  O 
  O15      1.0000 0.96513  0.63452  0.44861  Biso   1.000  O 
  O16      1.0000 0.96477  0.63331  0.94542  Biso   1.000  O 
  O17      1.0000 0.28056  0.24983  0.25525  Biso   1.000  O 
  O18      1.0000 0.26994  0.23460  0.74865  Biso   1.000  O 
  O19      1.0000 0.76858  0.22666  0.24667  Biso   1.000  O 
  O20      1.0000 0.76853  0.22966  0.74541  Biso   1.000  O 
  O21      1.0000 0.26852  0.26081  0.50190  Biso   1.000  O 
  O22      1.0000 0.27831  0.26407  0.99351  Biso   1.000  O 
  O23      1.0000 0.76666  0.26595  0.49702  Biso   1.000  O 
  O24      1.0000 0.76881  0.25884  0.99598  Biso   1.000  O 
  O25      1.0000 0.22831  0.76462  0.50217  Biso   1.000  O 
  O26      1.0000 0.23595  0.74538  0.99572  Biso   1.000  O 
  O27      1.0000 0.72872  0.76357  0.49801  Biso   1.000  O 
  O28      1.0000 0.72853  0.75988  0.99752  Biso   1.000  O 
  O29      1.0000 0.23856  0.72255  0.25724  Biso   1.000  O 
  O30      1.0000 0.22765  0.73558  0.74865  Biso   1.000  O 
  O31      1.0000 0.72354  0.72846  0.24816  Biso   1.000  O 
  O32      1.0000 0.72778  0.72981  0.74700  Biso   1.000  O 
