data_image0
_cell_length_a       10.1645
_cell_length_b       5.14603
_cell_length_c       10.5631
_cell_angle_alpha    90
_cell_angle_beta     80
_cell_angle_gamma    90

_symmetry_space_group_name_H-M    "P 1"
_symmetry_int_tables_number       1

loop_
  _symmetry_equiv_pos_as_xyz
  'x, y, z'

loop_
  _atom_site_label
  _atom_site_occupancy
  _atom_site_fract_x
  _atom_site_fract_y
  _atom_site_fract_z
  _atom_site_thermal_displace_type
  _atom_site_B_iso_or_equiv
  _atom_site_type_symbol
  Hf1      1.0000 0.13758  0.05019  0.14837  Biso   1.000  Hf
  Hf2      1.0000 0.14105  0.45794  0.39559  Biso   1.000  Hf
  Hf3      1.0000 0.34522  0.55392  0.08859  Biso   1.000  Hf
  Hf4      1.0000 0.35967  0.95717  0.35696  Biso   1.000  Hf
  O1       1.0000 0.03225  0.33910  0.07977  Biso   1.000  O 
  O2       1.0000 0.03834  0.16429  0.32981  Biso   1.000  O 
  O3       1.0000 0.45974  0.83506  0.17226  Biso   1.000  O 
  O4       1.0000 0.47583  0.67550  0.42906  Biso   1.000  O 
  O5       1.0000 0.28110  0.26433  0.23885  Biso   1.000  O 
  O6       1.0000 0.28636  0.25054  0.48703  Biso   1.000  O 
  O7       1.0000 0.21145  0.76918  0.00515  Biso   1.000  O 
  O8       1.0000 0.22102  0.74402  0.25761  Biso   1.000  O 
  Hf5      1.0000 0.14875  0.04576  0.64383  Biso   1.000  Hf
  Hf6      1.0000 0.14566  0.45905  0.89136  Biso   1.000  Hf
  Hf7      1.0000 0.37004  0.54676  0.60441  Biso   1.000  Hf
  Hf8      1.0000 0.36805  0.96395  0.84880  Biso   1.000  Hf
  O9       1.0000 0.04440  0.33905  0.57935  Biso   1.000  O 
  O10      1.0000 0.04544  0.16472  0.82687  Biso   1.000  O 
  O11      1.0000 0.47357  0.83731  0.67225  Biso   1.000  O 
  O12      1.0000 0.47534  0.67244  0.91697  Biso   1.000  O 
  O13      1.0000 0.28595  0.25780  0.73727  Biso   1.000  O 
  O14      1.0000 0.28707  0.25115  0.98443  Biso   1.000  O 
  O15      1.0000 0.22991  0.75988  0.50866  Biso   1.000  O 
  O16      1.0000 0.23102  0.74330  0.75590  Biso   1.000  O 
  Hf9      1.0000 0.64001  0.03817  0.14863  Biso   1.000  Hf
  Hf10     1.0000 0.65625  0.45195  0.40832  Biso   1.000  Hf
  Hf11     1.0000 0.85751  0.54278  0.10735  Biso   1.000  Hf
  Hf12     1.0000 0.86226  0.95267  0.35438  Biso   1.000  Hf
  O17      1.0000 0.52717  0.33173  0.07921  Biso   1.000  O 
  O18      1.0000 0.54485  0.15150  0.33669  Biso   1.000  O 
  O19      1.0000 0.96230  0.83661  0.17262  Biso   1.000  O 
  O20      1.0000 0.96853  0.66400  0.42260  Biso   1.000  O 
  O21      1.0000 0.78056  0.25458  0.24428  Biso   1.000  O 
  O22      1.0000 0.78946  0.23686  0.49607  Biso   1.000  O 
  O23      1.0000 0.71619  0.75406  0.01423  Biso   1.000  O 
  O24      1.0000 0.72003  0.73514  0.26291  Biso   1.000  O 
  Hf13     1.0000 0.65012  0.04359  0.64992  Biso   1.000  Hf
  Hf14     1.0000 0.64958  0.45673  0.89783  Biso   1.000  Hf
  Hf15     1.0000 0.87067  0.54519  0.60789  Biso   1.000  Hf
  Hf16     1.0000 0.86862  0.95775  0.85548  Biso   1.000  Hf
  O25      1.0000 0.54451  0.33553  0.58294  Biso   1.000  O 
  O26      1.0000 0.54459  0.16985  0.82856  Biso   1.000  O 
  O27      1.0000 0.97258  0.83819  0.67229  Biso   1.000  O 
  O28      1.0000 0.97309  0.66423  0.91998  Biso   1.000  O 
  O29      1.0000 0.78722  0.26039  0.74396  Biso   1.000  O 
  O30      1.0000 0.78815  0.24232  0.99175  Biso   1.000  O 
  O31      1.0000 0.73109  0.75558  0.51454  Biso   1.000  O 
  O32      1.0000 0.73181  0.74493  0.76239  Biso   1.000  O 
  Na1      1.0000 0.46451  0.46981  0.26779  Biso   1.000  Na
