data_image0
_cell_length_a       10.0749
_cell_length_b       10.3598
_cell_length_c       5.05844
_cell_angle_alpha    90
_cell_angle_beta     90
_cell_angle_gamma    90

_symmetry_space_group_name_H-M    "P 1"
_symmetry_int_tables_number       1

loop_
  _symmetry_equiv_pos_as_xyz
  'x, y, z'

loop_
  _atom_site_label
  _atom_site_occupancy
  _atom_site_fract_x
  _atom_site_fract_y
  _atom_site_fract_z
  _atom_site_thermal_displace_type
  _atom_site_B_iso_or_equiv
  _atom_site_type_symbol
  Hf1      1.0000 0.09404  0.98179  0.25319  Biso   1.000  Hf
  Hf2      1.0000 0.12686  0.26920  0.80734  Biso   1.000  Hf
  Hf3      1.0000 0.40251  0.24286  0.26071  Biso   1.000  Hf
  Hf4      1.0000 0.36022  0.03420  0.77889  Biso   1.000  Hf
  O1       1.0000 0.99074  0.13977  0.05863  Biso   1.000  O 
  O2       1.0000 0.03092  0.08865  0.56436  Biso   1.000  O 
  O3       1.0000 0.97372  0.33245  0.57266  Biso   1.000  O 
  O4       1.0000 0.00131  0.38910  0.05102  Biso   1.000  O 
  O5       1.0000 0.27527  0.19244  0.58147  Biso   1.000  O 
  O6       1.0000 0.24429  0.11207  0.07079  Biso   1.000  O 
  O7       1.0000 0.25254  0.36178  0.05493  Biso   1.000  O 
  O8       1.0000 0.20820  0.43608  0.56435  Biso   1.000  O 
  Hf5      1.0000 0.13691  0.52533  0.22751  Biso   1.000  Hf
  Hf6      1.0000 0.13773  0.78007  0.73376  Biso   1.000  Hf
  Hf7      1.0000 0.38304  0.74125  0.19377  Biso   1.000  Hf
  Hf8      1.0000 0.38158  0.50112  0.74657  Biso   1.000  Hf
  O9       1.0000 0.01067  0.65387  0.93583  Biso   1.000  O 
  O10      1.0000 0.96575  0.58383  0.41772  Biso   1.000  O 
  O11      1.0000 0.99563  0.83502  0.45852  Biso   1.000  O 
  O12      1.0000 0.99373  0.90196  0.96574  Biso   1.000  O 
  O13      1.0000 0.22121  0.68243  0.42429  Biso   1.000  O 
  O14      1.0000 0.26016  0.63569  0.94411  Biso   1.000  O 
  O15      1.0000 0.23943  0.86455  0.01462  Biso   1.000  O 
  O16      1.0000 0.23697  0.92903  0.52215  Biso   1.000  O 
  Hf9      1.0000 0.60051  0.98652  0.23529  Biso   1.000  Hf
  Hf10     1.0000 0.62770  0.27041  0.76423  Biso   1.000  Hf
  Hf11     1.0000 0.84460  0.26746  0.26333  Biso   1.000  Hf
  Hf12     1.0000 0.87001  0.03200  0.78453  Biso   1.000  Hf
  O17      1.0000 0.50192  0.15167  0.98388  Biso   1.000  O 
  O18      1.0000 0.50230  0.09649  0.48915  Biso   1.000  O 
  O19      1.0000 0.47885  0.35132  0.55263  Biso   1.000  O 
  O20      1.0000 0.49832  0.38857  0.02781  Biso   1.000  O 
  O21      1.0000 0.76983  0.17194  0.57190  Biso   1.000  O 
  O22      1.0000 0.74600  0.11461  0.05662  Biso   1.000  O 
  O23      1.0000 0.75321  0.39083  0.97644  Biso   1.000  O 
  O24      1.0000 0.73914  0.41937  0.48416  Biso   1.000  O 
  Hf13     1.0000 0.62932  0.52011  0.21067  Biso   1.000  Hf
  Hf14     1.0000 0.63891  0.78037  0.72553  Biso   1.000  Hf
  Hf15     1.0000 0.87952  0.73524  0.19573  Biso   1.000  Hf
  Hf16     1.0000 0.89396  0.49756  0.74645  Biso   1.000  Hf
  O25      1.0000 0.50901  0.65684  0.93131  Biso   1.000  O 
  O26      1.0000 0.46122  0.58462  0.41451  Biso   1.000  O 
  O27      1.0000 0.50218  0.83773  0.44487  Biso   1.000  O 
  O28      1.0000 0.49390  0.90694  0.95011  Biso   1.000  O 
  O29      1.0000 0.71721  0.67581  0.41899  Biso   1.000  O 
  O30      1.0000 0.76077  0.63230  0.93547  Biso   1.000  O 
  O31      1.0000 0.74052  0.86213  0.01467  Biso   1.000  O 
  O32      1.0000 0.73634  0.93049  0.52514  Biso   1.000  O 
  Na1      1.0000 0.12192  0.25234  0.31543  Biso   1.000  Na
