data_image0
_cell_length_a       10.172
_cell_length_b       10.2645
_cell_length_c       10.453
_cell_angle_alpha    90
_cell_angle_beta     80
_cell_angle_gamma    90

_symmetry_space_group_name_H-M    "P 1"
_symmetry_int_tables_number       1

loop_
  _symmetry_equiv_pos_as_xyz
  'x, y, z'

loop_
  _atom_site_label
  _atom_site_occupancy
  _atom_site_fract_x
  _atom_site_fract_y
  _atom_site_fract_z
  _atom_site_thermal_displace_type
  _atom_site_B_iso_or_equiv
  _atom_site_type_symbol
  Na1      1.0000 0.14137  0.01450  0.14695  Biso   1.000  Na
  Hf1      1.0000 0.13944  0.02098  0.64584  Biso   1.000  Hf
  Hf2      1.0000 0.13976  0.52079  0.14459  Biso   1.000  Hf
  Hf3      1.0000 0.13932  0.52169  0.64677  Biso   1.000  Hf
  Hf4      1.0000 0.63989  0.02079  0.14633  Biso   1.000  Hf
  Hf5      1.0000 0.63869  0.02114  0.64607  Biso   1.000  Hf
  Hf6      1.0000 0.63674  0.51994  0.14556  Biso   1.000  Hf
  Hf7      1.0000 0.63777  0.52157  0.64565  Biso   1.000  Hf
  Hf8      1.0000 0.14130  0.22775  0.39415  Biso   1.000  Hf
  Hf9      1.0000 0.13895  0.22680  0.90030  Biso   1.000  Hf
  Hf10     1.0000 0.14084  0.72820  0.39421  Biso   1.000  Hf
  Hf11     1.0000 0.14080  0.73212  0.89654  Biso   1.000  Hf
  Hf12     1.0000 0.63749  0.22873  0.39595  Biso   1.000  Hf
  Hf13     1.0000 0.63804  0.22953  0.89635  Biso   1.000  Hf
  Hf14     1.0000 0.63653  0.72933  0.39595  Biso   1.000  Hf
  Hf15     1.0000 0.63833  0.72903  0.89615  Biso   1.000  Hf
  Hf16     1.0000 0.35586  0.26461  0.10508  Biso   1.000  Hf
  Hf17     1.0000 0.35881  0.27066  0.60498  Biso   1.000  Hf
  Hf18     1.0000 0.35791  0.77349  0.10390  Biso   1.000  Hf
  Hf19     1.0000 0.35949  0.77298  0.60359  Biso   1.000  Hf
  Hf20     1.0000 0.86032  0.27024  0.10289  Biso   1.000  Hf
  Hf21     1.0000 0.85910  0.27160  0.60307  Biso   1.000  Hf
  Hf22     1.0000 0.85913  0.77100  0.10383  Biso   1.000  Hf
  Hf23     1.0000 0.86015  0.77120  0.60303  Biso   1.000  Hf
  Hf24     1.0000 0.35916  0.47754  0.35265  Biso   1.000  Hf
  Hf25     1.0000 0.35947  0.47793  0.85488  Biso   1.000  Hf
  Hf26     1.0000 0.35587  0.97995  0.35137  Biso   1.000  Hf
  Hf27     1.0000 0.35741  0.98029  0.85696  Biso   1.000  Hf
  Hf28     1.0000 0.85926  0.47948  0.35352  Biso   1.000  Hf
  Hf29     1.0000 0.85973  0.47962  0.85369  Biso   1.000  Hf
  Hf30     1.0000 0.86264  0.97980  0.35224  Biso   1.000  Hf
  Hf31     1.0000 0.85880  0.97897  0.85419  Biso   1.000  Hf
  O1       1.0000 0.03385  0.17980  0.07992  Biso   1.000  O 
  O2       1.0000 0.03399  0.17071  0.58310  Biso   1.000  O 
  O3       1.0000 0.03427  0.66898  0.07981  Biso   1.000  O 
  O4       1.0000 0.03393  0.66753  0.58063  Biso   1.000  O 
  O5       1.0000 0.53558  0.16762  0.07929  Biso   1.000  O 
  O6       1.0000 0.53283  0.16736  0.58044  Biso   1.000  O 
  O7       1.0000 0.53298  0.66584  0.07825  Biso   1.000  O 
  O8       1.0000 0.53286  0.66749  0.57973  Biso   1.000  O 
  O9       1.0000 0.02858  0.08444  0.34854  Biso   1.000  O 
  O10      1.0000 0.03305  0.08247  0.83019  Biso   1.000  O 
  O11      1.0000 0.03293  0.58321  0.32870  Biso   1.000  O 
  O12      1.0000 0.03393  0.58185  0.83017  Biso   1.000  O 
  O13      1.0000 0.53501  0.08180  0.32995  Biso   1.000  O 
  O14      1.0000 0.53608  0.08283  0.82912  Biso   1.000  O 
  O15      1.0000 0.53231  0.58253  0.32899  Biso   1.000  O 
  O16      1.0000 0.53260  0.58440  0.82834  Biso   1.000  O 
  O17      1.0000 0.46454  0.41429  0.17107  Biso   1.000  O 
  O18      1.0000 0.46474  0.41714  0.67087  Biso   1.000  O 
  O19      1.0000 0.46723  0.91731  0.16977  Biso   1.000  O 
  O20      1.0000 0.46466  0.91679  0.67223  Biso   1.000  O 
  O21      1.0000 0.96259  0.42085  0.16851  Biso   1.000  O 
  O22      1.0000 0.96483  0.41845  0.66916  Biso   1.000  O 
  O23      1.0000 0.94727  0.91975  0.17100  Biso   1.000  O 
  O24      1.0000 0.96353  0.91874  0.66930  Biso   1.000  O 
  O25      1.0000 0.46407  0.33235  0.42149  Biso   1.000  O 
  O26      1.0000 0.46731  0.33599  0.92121  Biso   1.000  O 
  O27      1.0000 0.46455  0.83402  0.42212  Biso   1.000  O 
  O28      1.0000 0.47159  0.83838  0.92211  Biso   1.000  O 
  O29      1.0000 0.96488  0.33469  0.42017  Biso   1.000  O 
  O30      1.0000 0.96371  0.33330  0.91727  Biso   1.000  O 
  O31      1.0000 0.96519  0.83050  0.41915  Biso   1.000  O 
  O32      1.0000 0.96351  0.83119  0.91819  Biso   1.000  O 
  O33      1.0000 0.28624  0.13566  0.25075  Biso   1.000  O 
  O34      1.0000 0.27443  0.12779  0.73990  Biso   1.000  O 
  O35      1.0000 0.27570  0.62406  0.23889  Biso   1.000  O 
  O36      1.0000 0.27544  0.63010  0.74081  Biso   1.000  O 
  O37      1.0000 0.77466  0.12999  0.24154  Biso   1.000  O 
  O38      1.0000 0.77628  0.12911  0.74027  Biso   1.000  O 
  O39      1.0000 0.77392  0.62867  0.24034  Biso   1.000  O 
  O40      1.0000 0.77502  0.62886  0.73939  Biso   1.000  O 
  O41      1.0000 0.27452  0.12068  0.49433  Biso   1.000  O 
  O42      1.0000 0.28701  0.12994  0.98115  Biso   1.000  O 
  O43      1.0000 0.27565  0.62111  0.49034  Biso   1.000  O 
  O44      1.0000 0.27542  0.61904  0.99058  Biso   1.000  O 
  O45      1.0000 0.77308  0.12289  0.49160  Biso   1.000  O 
  O46      1.0000 0.77562  0.12162  0.99028  Biso   1.000  O 
  O47      1.0000 0.77453  0.62161  0.49026  Biso   1.000  O 
  O48      1.0000 0.77362  0.62028  0.98972  Biso   1.000  O 
  O49      1.0000 0.22335  0.37911  0.00918  Biso   1.000  O 
  O50      1.0000 0.22327  0.37918  0.50972  Biso   1.000  O 
  O51      1.0000 0.23204  0.86998  0.99926  Biso   1.000  O 
  O52      1.0000 0.22181  0.87872  0.50997  Biso   1.000  O 
  O53      1.0000 0.72294  0.37914  0.00831  Biso   1.000  O 
  O54      1.0000 0.72241  0.37967  0.50913  Biso   1.000  O 
  O55      1.0000 0.72362  0.87852  0.00845  Biso   1.000  O 
  O56      1.0000 0.72399  0.87898  0.50912  Biso   1.000  O 
  O57      1.0000 0.21990  0.37260  0.25835  Biso   1.000  O 
  O58      1.0000 0.22344  0.37124  0.76001  Biso   1.000  O 
  O59      1.0000 0.23308  0.86154  0.26337  Biso   1.000  O 
  O60      1.0000 0.22169  0.87284  0.75655  Biso   1.000  O 
  O61      1.0000 0.72237  0.37185  0.26011  Biso   1.000  O 
  O62      1.0000 0.72344  0.37169  0.75820  Biso   1.000  O 
  O63      1.0000 0.71507  0.87050  0.26087  Biso   1.000  O 
  O64      1.0000 0.72379  0.87115  0.75852  Biso   1.000  O 
