data_image0
_cell_length_a       10.1404
_cell_length_b       10.2815
_cell_length_c       10.5072
_cell_angle_alpha    90
_cell_angle_beta     80
_cell_angle_gamma    90

_symmetry_space_group_name_H-M    "P 1"
_symmetry_int_tables_number       1

loop_
  _symmetry_equiv_pos_as_xyz
  'x, y, z'

loop_
  _atom_site_label
  _atom_site_occupancy
  _atom_site_fract_x
  _atom_site_fract_y
  _atom_site_fract_z
  _atom_site_thermal_displace_type
  _atom_site_B_iso_or_equiv
  _atom_site_type_symbol
  Hf1      1.0000 0.13773  0.02234  0.14613  Biso   1.000  Hf
  Hf2      1.0000 0.13828  0.22814  0.39448  Biso   1.000  Hf
  Hf3      1.0000 0.34796  0.27575  0.08702  Biso   1.000  Hf
  Hf4      1.0000 0.35934  0.48424  0.35534  Biso   1.000  Hf
  O1       1.0000 0.03453  0.16938  0.07875  Biso   1.000  O 
  O2       1.0000 0.03606  0.08090  0.32966  Biso   1.000  O 
  O3       1.0000 0.46124  0.41577  0.17105  Biso   1.000  O 
  O4       1.0000 0.47479  0.34117  0.42859  Biso   1.000  O 
  O5       1.0000 0.27730  0.13007  0.23575  Biso   1.000  O 
  O6       1.0000 0.28362  0.12324  0.48442  Biso   1.000  O 
  O7       1.0000 0.21434  0.38357  0.00378  Biso   1.000  O 
  O8       1.0000 0.22362  0.37055  0.25712  Biso   1.000  O 
  Hf5      1.0000 0.14283  0.02186  0.64426  Biso   1.000  Hf
  Hf6      1.0000 0.13873  0.22819  0.89104  Biso   1.000  Hf
  Hf7      1.0000 0.36474  0.27346  0.60387  Biso   1.000  Hf
  Hf8      1.0000 0.36227  0.48224  0.85055  Biso   1.000  Hf
  O9       1.0000 0.04109  0.17026  0.57977  Biso   1.000  O 
  O10      1.0000 0.03794  0.08095  0.82752  Biso   1.000  O 
  O11      1.0000 0.46765  0.41939  0.67207  Biso   1.000  O 
  O12      1.0000 0.46760  0.33420  0.91665  Biso   1.000  O 
  O13      1.0000 0.27964  0.12852  0.73716  Biso   1.000  O 
  O14      1.0000 0.27865  0.12308  0.98458  Biso   1.000  O 
  O15      1.0000 0.22681  0.38024  0.50721  Biso   1.000  O 
  O16      1.0000 0.22566  0.37118  0.75640  Biso   1.000  O 
  Hf9      1.0000 0.13639  0.52394  0.14703  Biso   1.000  Hf
  Hf10     1.0000 0.13764  0.72879  0.39703  Biso   1.000  Hf
  Hf11     1.0000 0.35860  0.77254  0.10407  Biso   1.000  Hf
  Hf12     1.0000 0.36022  0.97168  0.35577  Biso   1.000  Hf
  O17      1.0000 0.03257  0.66938  0.08093  Biso   1.000  O 
  O18      1.0000 0.03502  0.58162  0.33032  Biso   1.000  O 
  O19      1.0000 0.46358  0.91758  0.17298  Biso   1.000  O 
  O20      1.0000 0.46464  0.82900  0.42220  Biso   1.000  O 
  O21      1.0000 0.27567  0.62941  0.24159  Biso   1.000  O 
  O22      1.0000 0.27660  0.62326  0.49131  Biso   1.000  O 
  O23      1.0000 0.22056  0.88069  0.01047  Biso   1.000  O 
  O24      1.0000 0.22102  0.87077  0.26015  Biso   1.000  O 
  Hf13     1.0000 0.14055  0.52225  0.64583  Biso   1.000  Hf
  Hf14     1.0000 0.14073  0.72943  0.89634  Biso   1.000  Hf
  Hf15     1.0000 0.36284  0.77167  0.60520  Biso   1.000  Hf
  Hf16     1.0000 0.36269  0.97818  0.85265  Biso   1.000  Hf
  O25      1.0000 0.03565  0.66856  0.58006  Biso   1.000  O 
  O26      1.0000 0.03827  0.58182  0.82997  Biso   1.000  O 
  O27      1.0000 0.46653  0.91825  0.67103  Biso   1.000  O 
  O28      1.0000 0.46771  0.83309  0.92104  Biso   1.000  O 
  O29      1.0000 0.27850  0.62946  0.74016  Biso   1.000  O 
  O30      1.0000 0.27972  0.62323  0.99035  Biso   1.000  O 
  O31      1.0000 0.22389  0.87888  0.51025  Biso   1.000  O 
  O32      1.0000 0.22453  0.87115  0.75944  Biso   1.000  O 
  Hf17     1.0000 0.64080  0.02024  0.14773  Biso   1.000  Hf
  Hf18     1.0000 0.65332  0.22753  0.40673  Biso   1.000  Hf
  Hf19     1.0000 0.85944  0.27201  0.10599  Biso   1.000  Hf
  Hf20     1.0000 0.86143  0.47860  0.35479  Biso   1.000  Hf
  O33      1.0000 0.52931  0.16765  0.08073  Biso   1.000  O 
  O34      1.0000 0.54369  0.07460  0.33746  Biso   1.000  O 
  O35      1.0000 0.96381  0.41871  0.17147  Biso   1.000  O 
  O36      1.0000 0.96496  0.33097  0.42131  Biso   1.000  O 
  O37      1.0000 0.77971  0.12893  0.24350  Biso   1.000  O 
  O38      1.0000 0.78513  0.11886  0.49556  Biso   1.000  O 
  O39      1.0000 0.71948  0.37837  0.01277  Biso   1.000  O 
  O40      1.0000 0.72215  0.36947  0.26328  Biso   1.000  O 
  Hf21     1.0000 0.64299  0.02110  0.64862  Biso   1.000  Hf
  Hf22     1.0000 0.64282  0.22817  0.89794  Biso   1.000  Hf
  Hf23     1.0000 0.86595  0.27213  0.60817  Biso   1.000  Hf
  Hf24     1.0000 0.86307  0.47932  0.85558  Biso   1.000  Hf
  O41      1.0000 0.54023  0.16919  0.58285  Biso   1.000  O 
  O42      1.0000 0.53838  0.08239  0.83040  Biso   1.000  O 
  O43      1.0000 0.96758  0.41949  0.67177  Biso   1.000  O 
  O44      1.0000 0.96528  0.33066  0.91955  Biso   1.000  O 
  O45      1.0000 0.78030  0.12961  0.74346  Biso   1.000  O 
  O46      1.0000 0.78002  0.12062  0.99231  Biso   1.000  O 
  O47      1.0000 0.72810  0.37864  0.51393  Biso   1.000  O 
  O48      1.0000 0.72611  0.37163  0.76214  Biso   1.000  O 
  Hf25     1.0000 0.63568  0.52119  0.14741  Biso   1.000  Hf
  Hf26     1.0000 0.63996  0.72735  0.39744  Biso   1.000  Hf
  Hf27     1.0000 0.85779  0.77108  0.10532  Biso   1.000  Hf
  Hf28     1.0000 0.85999  0.97642  0.35448  Biso   1.000  Hf
  O49      1.0000 0.53167  0.66726  0.08017  Biso   1.000  O 
  O50      1.0000 0.53373  0.58363  0.32906  Biso   1.000  O 
  O51      1.0000 0.96213  0.91800  0.17133  Biso   1.000  O 
  O52      1.0000 0.96445  0.83122  0.42134  Biso   1.000  O 
  O53      1.0000 0.77549  0.62752  0.24157  Biso   1.000  O 
  O54      1.0000 0.77744  0.62042  0.49128  Biso   1.000  O 
  O55      1.0000 0.71968  0.87846  0.01166  Biso   1.000  O 
  O56      1.0000 0.72160  0.86971  0.26025  Biso   1.000  O 
  Hf29     1.0000 0.64143  0.52235  0.64799  Biso   1.000  Hf
  Hf30     1.0000 0.64119  0.72853  0.89708  Biso   1.000  Hf
  Hf31     1.0000 0.86185  0.77206  0.60506  Biso   1.000  Hf
  Hf32     1.0000 0.86210  0.97783  0.85469  Biso   1.000  Hf
  O57      1.0000 0.53633  0.66758  0.58036  Biso   1.000  O 
  O58      1.0000 0.53692  0.58363  0.82934  Biso   1.000  O 
  O59      1.0000 0.96562  0.91879  0.67065  Biso   1.000  O 
  O60      1.0000 0.96682  0.83184  0.92095  Biso   1.000  O 
  O61      1.0000 0.77886  0.62968  0.74159  Biso   1.000  O 
  O62      1.0000 0.77924  0.62110  0.99128  Biso   1.000  O 
  O63      1.0000 0.72341  0.87838  0.51089  Biso   1.000  O 
  O64      1.0000 0.72456  0.87147  0.76091  Biso   1.000  O 
  Na1      1.0000 0.45119  0.23096  0.27522  Biso   1.000  Na
