data_image0
_cell_length_a       5.09658
_cell_length_b       10.2736
_cell_length_c       10.474
_cell_angle_alpha    90
_cell_angle_beta     80
_cell_angle_gamma    90

_symmetry_space_group_name_H-M    "P 1"
_symmetry_int_tables_number       1

loop_
  _symmetry_equiv_pos_as_xyz
  'x, y, z'

loop_
  _atom_site_label
  _atom_site_occupancy
  _atom_site_fract_x
  _atom_site_fract_y
  _atom_site_fract_z
  _atom_site_thermal_displace_type
  _atom_site_B_iso_or_equiv
  _atom_site_type_symbol
  Na1      1.0000 0.28800  0.01596  0.14667  Biso   1.000  Na
  Hf1      1.0000 0.28283  0.02093  0.64578  Biso   1.000  Hf
  Hf2      1.0000 0.27446  0.51976  0.14439  Biso   1.000  Hf
  Hf3      1.0000 0.28042  0.52291  0.64592  Biso   1.000  Hf
  Hf4      1.0000 0.28243  0.22910  0.39496  Biso   1.000  Hf
  Hf5      1.0000 0.28296  0.22847  0.89861  Biso   1.000  Hf
  Hf6      1.0000 0.27823  0.72829  0.39424  Biso   1.000  Hf
  Hf7      1.0000 0.28532  0.73213  0.89575  Biso   1.000  Hf
  Hf8      1.0000 0.70820  0.26463  0.10427  Biso   1.000  Hf
  Hf9      1.0000 0.71963  0.27189  0.60390  Biso   1.000  Hf
  Hf10     1.0000 0.71232  0.77245  0.10386  Biso   1.000  Hf
  Hf11     1.0000 0.72124  0.77353  0.60225  Biso   1.000  Hf
  Hf12     1.0000 0.71761  0.47863  0.35222  Biso   1.000  Hf
  Hf13     1.0000 0.72269  0.47977  0.85383  Biso   1.000  Hf
  Hf14     1.0000 0.71494  0.98150  0.35039  Biso   1.000  Hf
  Hf15     1.0000 0.71584  0.98151  0.85601  Biso   1.000  Hf
  O1       1.0000 0.06510  0.17916  0.07840  Biso   1.000  O 
  O2       1.0000 0.06797  0.16909  0.58255  Biso   1.000  O 
  O3       1.0000 0.06291  0.66564  0.07751  Biso   1.000  O 
  O4       1.0000 0.06621  0.66624  0.57861  Biso   1.000  O 
  O5       1.0000 0.05820  0.08654  0.34641  Biso   1.000  O 
  O6       1.0000 0.07438  0.08425  0.82855  Biso   1.000  O 
  O7       1.0000 0.06133  0.58494  0.32685  Biso   1.000  O 
  O8       1.0000 0.06826  0.58614  0.82691  Biso   1.000  O 
  O9       1.0000 0.92518  0.41556  0.17028  Biso   1.000  O 
  O10      1.0000 0.93513  0.41679  0.67049  Biso   1.000  O 
  O11      1.0000 0.90360  0.91814  0.17105  Biso   1.000  O 
  O12      1.0000 0.93076  0.91695  0.67183  Biso   1.000  O 
  O13      1.0000 0.93224  0.33638  0.42222  Biso   1.000  O 
  O14      1.0000 0.94049  0.33915  0.91843  Biso   1.000  O 
  O15      1.0000 0.93444  0.83511  0.42121  Biso   1.000  O 
  O16      1.0000 0.94518  0.83943  0.92062  Biso   1.000  O 
  O17      1.0000 0.57017  0.13737  0.25174  Biso   1.000  O 
  O18      1.0000 0.55459  0.12859  0.73863  Biso   1.000  O 
  O19      1.0000 0.54743  0.62425  0.23844  Biso   1.000  O 
  O20      1.0000 0.55408  0.63046  0.73892  Biso   1.000  O 
  O21      1.0000 0.54825  0.12282  0.49446  Biso   1.000  O 
  O22      1.0000 0.57770  0.13140  0.97984  Biso   1.000  O 
  O23      1.0000 0.55094  0.62223  0.48943  Biso   1.000  O 
  O24      1.0000 0.55248  0.61949  0.98892  Biso   1.000  O 
  O25      1.0000 0.44435  0.37915  0.00844  Biso   1.000  O 
  O26      1.0000 0.44828  0.38026  0.50939  Biso   1.000  O 
  O27      1.0000 0.46850  0.87086  0.99820  Biso   1.000  O 
  O28      1.0000 0.44726  0.87920  0.50930  Biso   1.000  O 
  O29      1.0000 0.43774  0.37389  0.25924  Biso   1.000  O 
  O30      1.0000 0.45169  0.37251  0.75852  Biso   1.000  O 
  O31      1.0000 0.45611  0.86232  0.26376  Biso   1.000  O 
  O32      1.0000 0.44781  0.87318  0.75550  Biso   1.000  O 
