data_image0
_cell_length_a       10.038
_cell_length_b       5.25374
_cell_length_c       10.0706
_cell_angle_alpha    90
_cell_angle_beta     90
_cell_angle_gamma    90

_symmetry_space_group_name_H-M    "P 1"
_symmetry_int_tables_number       1

loop_
  _symmetry_equiv_pos_as_xyz
  'x, y, z'

loop_
  _atom_site_label
  _atom_site_occupancy
  _atom_site_fract_x
  _atom_site_fract_y
  _atom_site_fract_z
  _atom_site_thermal_displace_type
  _atom_site_B_iso_or_equiv
  _atom_site_type_symbol
  Hf1      1.0000 0.14452  0.12024  0.12442  Biso   1.000  Hf
  Hf2      1.0000 0.14057  0.50267  0.38295  Biso   1.000  Hf
  Hf3      1.0000 0.37617  0.58118  0.12229  Biso   1.000  Hf
  Hf4      1.0000 0.36913  0.99858  0.37870  Biso   1.000  Hf
  O1       1.0000 0.02595  0.40040  0.21010  Biso   1.000  O 
  O2       1.0000 0.04496  0.16024  0.44300  Biso   1.000  O 
  O3       1.0000 0.47539  0.88789  0.21010  Biso   1.000  O 
  O4       1.0000 0.46749  0.66911  0.45028  Biso   1.000  O 
  O5       1.0000 0.28104  0.28709  0.25158  Biso   1.000  O 
  O6       1.0000 0.27794  0.29567  0.50448  Biso   1.000  O 
  O7       1.0000 0.23137  0.79214  0.50417  Biso   1.000  O 
  O8       1.0000 0.23077  0.77733  0.25246  Biso   1.000  O 
  Hf5      1.0000 0.14330  0.06945  0.62616  Biso   1.000  Hf
  Hf6      1.0000 0.10573  0.55116  0.83389  Biso   1.000  Hf
  Hf7      1.0000 0.37069  0.57835  0.62861  Biso   1.000  Hf
  Hf8      1.0000 0.39819  0.06428  0.85317  Biso   1.000  Hf
  O9       1.0000 0.03032  0.38759  0.66979  Biso   1.000  O 
  O10      1.0000 0.03876  0.22401  0.93951  Biso   1.000  O 
  O11      1.0000 0.48101  0.90025  0.68521  Biso   1.000  O 
  O12      1.0000 0.47969  0.73516  0.94144  Biso   1.000  O 
  O13      1.0000 0.26304  0.30070  0.75385  Biso   1.000  O 
  O14      1.0000 0.22990  0.39695  0.00632  Biso   1.000  O 
  O15      1.0000 0.27908  0.89708  0.01597  Biso   1.000  O 
  O16      1.0000 0.24796  0.79748  0.75759  Biso   1.000  O 
  Hf9      1.0000 0.63547  0.04944  0.13156  Biso   1.000  Hf
  Hf10     1.0000 0.63116  0.50296  0.37326  Biso   1.000  Hf
  Hf11     1.0000 0.85130  0.54197  0.12935  Biso   1.000  Hf
  Hf12     1.0000 0.88258  0.00186  0.36601  Biso   1.000  Hf
  O17      1.0000 0.54121  0.39617  0.19236  Biso   1.000  O 
  O18      1.0000 0.53535  0.17470  0.44609  Biso   1.000  O 
  O19      1.0000 0.96805  0.90395  0.18645  Biso   1.000  O 
  O20      1.0000 0.97111  0.67492  0.44546  Biso   1.000  O 
  O21      1.0000 0.76699  0.25813  0.25172  Biso   1.000  O 
  O22      1.0000 0.77138  0.31487  0.49648  Biso   1.000  O 
  O23      1.0000 0.73539  0.81366  0.49466  Biso   1.000  O 
  O24      1.0000 0.73522  0.76115  0.25173  Biso   1.000  O 
  Hf13     1.0000 0.64469  0.08319  0.61775  Biso   1.000  Hf
  Hf14     1.0000 0.63997  0.54806  0.87266  Biso   1.000  Hf
  Hf15     1.0000 0.86327  0.58869  0.61743  Biso   1.000  Hf
  Hf16     1.0000 0.87355  0.05044  0.87671  Biso   1.000  Hf
  O25      1.0000 0.52728  0.38867  0.71200  Biso   1.000  O 
  O26      1.0000 0.53673  0.24100  0.95789  Biso   1.000  O 
  O27      1.0000 0.98984  0.87650  0.71350  Biso   1.000  O 
  O28      1.0000 0.96158  0.71734  0.94971  Biso   1.000  O 
  O29      1.0000 0.77212  0.29568  0.74630  Biso   1.000  O 
  O30      1.0000 0.77034  0.26350  0.00036  Biso   1.000  O 
  O31      1.0000 0.72806  0.76904  0.00191  Biso   1.000  O 
  O32      1.0000 0.73923  0.80081  0.74794  Biso   1.000  O 
  Na1      1.0000 0.10809  0.67384  0.08264  Biso   1.000  Na
