data_image0
_cell_length_a       10.1709
_cell_length_b       10.2867
_cell_length_c       5.28689
_cell_angle_alpha    90
_cell_angle_beta     80
_cell_angle_gamma    90

_symmetry_space_group_name_H-M    "P 1"
_symmetry_int_tables_number       1

loop_
  _symmetry_equiv_pos_as_xyz
  'x, y, z'

loop_
  _atom_site_label
  _atom_site_occupancy
  _atom_site_fract_x
  _atom_site_fract_y
  _atom_site_fract_z
  _atom_site_thermal_displace_type
  _atom_site_B_iso_or_equiv
  _atom_site_type_symbol
  Hf1      1.0000 0.13930  0.02283  0.29088  Biso   1.000  Hf
  Hf2      1.0000 0.13820  0.22759  0.78189  Biso   1.000  Hf
  Hf3      1.0000 0.34732  0.27919  0.17478  Biso   1.000  Hf
  Hf4      1.0000 0.35930  0.48736  0.70447  Biso   1.000  Hf
  O1       1.0000 0.03734  0.16947  0.15656  Biso   1.000  O 
  O2       1.0000 0.03599  0.08246  0.65276  Biso   1.000  O 
  O3       1.0000 0.46248  0.41594  0.34844  Biso   1.000  O 
  O4       1.0000 0.47567  0.34420  0.85215  Biso   1.000  O 
  O5       1.0000 0.27847  0.13060  0.46694  Biso   1.000  O 
  O6       1.0000 0.28634  0.12477  0.96015  Biso   1.000  O 
  O7       1.0000 0.21203  0.38461  0.00370  Biso   1.000  O 
  O8       1.0000 0.22364  0.37150  0.50933  Biso   1.000  O 
  Hf5      1.0000 0.13547  0.52466  0.29468  Biso   1.000  Hf
  Hf6      1.0000 0.13813  0.72933  0.79498  Biso   1.000  Hf
  Hf7      1.0000 0.35771  0.77244  0.21211  Biso   1.000  Hf
  Hf8      1.0000 0.36109  0.97096  0.71072  Biso   1.000  Hf
  O9       1.0000 0.02886  0.66728  0.15986  Biso   1.000  O 
  O10      1.0000 0.03477  0.58408  0.65797  Biso   1.000  O 
  O11      1.0000 0.46397  0.91536  0.35063  Biso   1.000  O 
  O12      1.0000 0.46752  0.83133  0.84867  Biso   1.000  O 
  O13      1.0000 0.27511  0.62974  0.48332  Biso   1.000  O 
  O14      1.0000 0.27855  0.62599  0.98236  Biso   1.000  O 
  O15      1.0000 0.21837  0.87991  0.02480  Biso   1.000  O 
  O16      1.0000 0.22070  0.87159  0.52179  Biso   1.000  O 
  Hf9      1.0000 0.64262  0.01930  0.30030  Biso   1.000  Hf
  Hf10     1.0000 0.65571  0.22584  0.81863  Biso   1.000  Hf
  Hf11     1.0000 0.86137  0.27237  0.21940  Biso   1.000  Hf
  Hf12     1.0000 0.86224  0.47823  0.71254  Biso   1.000  Hf
  O17      1.0000 0.53217  0.16698  0.16608  Biso   1.000  O 
  O18      1.0000 0.54488  0.07530  0.67419  Biso   1.000  O 
  O19      1.0000 0.96580  0.41700  0.34935  Biso   1.000  O 
  O20      1.0000 0.96527  0.33094  0.84371  Biso   1.000  O 
  O21      1.0000 0.78112  0.12850  0.49185  Biso   1.000  O 
  O22      1.0000 0.78947  0.11779  0.99471  Biso   1.000  O 
  O23      1.0000 0.72029  0.37812  0.03390  Biso   1.000  O 
  O24      1.0000 0.72327  0.36944  0.53166  Biso   1.000  O 
  Hf13     1.0000 0.63569  0.52180  0.29905  Biso   1.000  Hf
  Hf14     1.0000 0.64109  0.72675  0.79695  Biso   1.000  Hf
  Hf15     1.0000 0.85610  0.77133  0.21340  Biso   1.000  Hf
  Hf16     1.0000 0.85995  0.97557  0.70998  Biso   1.000  Hf
  O25      1.0000 0.52922  0.66483  0.16003  Biso   1.000  O 
  O26      1.0000 0.53293  0.58706  0.65540  Biso   1.000  O 
  O27      1.0000 0.96223  0.91588  0.34699  Biso   1.000  O 
  O28      1.0000 0.96672  0.83342  0.84729  Biso   1.000  O 
  O29      1.0000 0.77551  0.62730  0.48543  Biso   1.000  O 
  O30      1.0000 0.77920  0.62049  0.98355  Biso   1.000  O 
  O31      1.0000 0.71718  0.87674  0.02660  Biso   1.000  O 
  O32      1.0000 0.72132  0.86985  0.52338  Biso   1.000  O 
  Na1      1.0000 0.45427  0.23150  0.54746  Biso   1.000  Na
