data_image0
_cell_length_a       10.2201
_cell_length_b       5.12996
_cell_length_c       10.4506
_cell_angle_alpha    90
_cell_angle_beta     80
_cell_angle_gamma    90

_symmetry_space_group_name_H-M    "P 1"
_symmetry_int_tables_number       1

loop_
  _symmetry_equiv_pos_as_xyz
  'x, y, z'

loop_
  _atom_site_label
  _atom_site_occupancy
  _atom_site_fract_x
  _atom_site_fract_y
  _atom_site_fract_z
  _atom_site_thermal_displace_type
  _atom_site_B_iso_or_equiv
  _atom_site_type_symbol
  Na1      1.0000 0.13859  0.02864  0.14638  Biso   1.000  Na
  Hf1      1.0000 0.14104  0.04259  0.64631  Biso   1.000  Hf
  Hf2      1.0000 0.63942  0.03905  0.14588  Biso   1.000  Hf
  Hf3      1.0000 0.63985  0.04269  0.64584  Biso   1.000  Hf
  Hf4      1.0000 0.14264  0.45374  0.39287  Biso   1.000  Hf
  Hf5      1.0000 0.14152  0.46170  0.89986  Biso   1.000  Hf
  Hf6      1.0000 0.63630  0.45818  0.39669  Biso   1.000  Hf
  Hf7      1.0000 0.64033  0.45938  0.89584  Biso   1.000  Hf
  Hf8      1.0000 0.35553  0.53469  0.10422  Biso   1.000  Hf
  Hf9      1.0000 0.35865  0.54424  0.60408  Biso   1.000  Hf
  Hf10     1.0000 0.85918  0.53905  0.10212  Biso   1.000  Hf
  Hf11     1.0000 0.86078  0.54296  0.60229  Biso   1.000  Hf
  Hf12     1.0000 0.35550  0.95773  0.35016  Biso   1.000  Hf
  Hf13     1.0000 0.35869  0.95940  0.85604  Biso   1.000  Hf
  Hf14     1.0000 0.86066  0.96212  0.35332  Biso   1.000  Hf
  Hf15     1.0000 0.86001  0.95999  0.85317  Biso   1.000  Hf
  O1       1.0000 0.03529  0.37044  0.08193  Biso   1.000  O 
  O2       1.0000 0.03545  0.34232  0.58390  Biso   1.000  O 
  O3       1.0000 0.53517  0.33230  0.07883  Biso   1.000  O 
  O4       1.0000 0.53190  0.33270  0.58037  Biso   1.000  O 
  O5       1.0000 0.02752  0.16808  0.34838  Biso   1.000  O 
  O6       1.0000 0.03501  0.16469  0.83086  Biso   1.000  O 
  O7       1.0000 0.53439  0.16380  0.32954  Biso   1.000  O 
  O8       1.0000 0.53725  0.16721  0.82817  Biso   1.000  O 
  O9       1.0000 0.46758  0.82867  0.16960  Biso   1.000  O 
  O10      1.0000 0.46605  0.83191  0.67138  Biso   1.000  O 
  O11      1.0000 0.94120  0.85052  0.16844  Biso   1.000  O 
  O12      1.0000 0.96439  0.84054  0.66744  Biso   1.000  O 
  O13      1.0000 0.46485  0.66802  0.42248  Biso   1.000  O 
  O14      1.0000 0.47398  0.67739  0.92039  Biso   1.000  O 
  O15      1.0000 0.96604  0.66473  0.41762  Biso   1.000  O 
  O16      1.0000 0.96379  0.66386  0.91425  Biso   1.000  O 
  O17      1.0000 0.28601  0.25986  0.24715  Biso   1.000  O 
  O18      1.0000 0.27584  0.25841  0.73993  Biso   1.000  O 
  O19      1.0000 0.77401  0.26055  0.24187  Biso   1.000  O 
  O20      1.0000 0.77742  0.25861  0.73924  Biso   1.000  O 
  O21      1.0000 0.27545  0.24179  0.49297  Biso   1.000  O 
  O22      1.0000 0.28828  0.25500  0.98133  Biso   1.000  O 
  O23      1.0000 0.77247  0.24682  0.49193  Biso   1.000  O 
  O24      1.0000 0.77617  0.24198  0.98937  Biso   1.000  O 
  O25      1.0000 0.23508  0.74519  0.99906  Biso   1.000  O 
  O26      1.0000 0.22280  0.75792  0.50957  Biso   1.000  O 
  O27      1.0000 0.72258  0.75723  0.00729  Biso   1.000  O 
  O28      1.0000 0.72436  0.75913  0.50899  Biso   1.000  O 
  O29      1.0000 0.23152  0.72526  0.26143  Biso   1.000  O 
  O30      1.0000 0.22314  0.74578  0.75672  Biso   1.000  O 
  O31      1.0000 0.71394  0.74285  0.26190  Biso   1.000  O 
  O32      1.0000 0.72534  0.74320  0.75713  Biso   1.000  O 
