data_image0
_cell_length_a       10.1214
_cell_length_b       10.2356
_cell_length_c       5.22048
_cell_angle_alpha    90
_cell_angle_beta     90
_cell_angle_gamma    90

_symmetry_space_group_name_H-M    "P 1"
_symmetry_int_tables_number       1

loop_
  _symmetry_equiv_pos_as_xyz
  'x, y, z'

loop_
  _atom_site_label
  _atom_site_occupancy
  _atom_site_fract_x
  _atom_site_fract_y
  _atom_site_fract_z
  _atom_site_thermal_displace_type
  _atom_site_B_iso_or_equiv
  _atom_site_type_symbol
  Na1      1.0000 0.14106  0.01259  0.34030  Biso   1.000  Na
  Hf1      1.0000 0.14121  0.52124  0.34643  Biso   1.000  Hf
  Hf2      1.0000 0.14491  0.22942  0.84842  Biso   1.000  Hf
  Hf3      1.0000 0.14616  0.73200  0.84488  Biso   1.000  Hf
  Hf4      1.0000 0.35813  0.26665  0.34639  Biso   1.000  Hf
  Hf5      1.0000 0.35951  0.77365  0.34379  Biso   1.000  Hf
  Hf6      1.0000 0.36178  0.47824  0.84595  Biso   1.000  Hf
  Hf7      1.0000 0.35862  0.97880  0.84449  Biso   1.000  Hf
  Hf8      1.0000 0.63904  0.02075  0.15372  Biso   1.000  Hf
  Hf9      1.0000 0.63689  0.52051  0.15434  Biso   1.000  Hf
  Hf10     1.0000 0.63966  0.22881  0.65417  Biso   1.000  Hf
  Hf11     1.0000 0.63988  0.73022  0.65214  Biso   1.000  Hf
  Hf12     1.0000 0.85858  0.27110  0.14943  Biso   1.000  Hf
  Hf13     1.0000 0.86064  0.77035  0.15527  Biso   1.000  Hf
  Hf14     1.0000 0.86127  0.48100  0.65360  Biso   1.000  Hf
  Hf15     1.0000 0.86315  0.97860  0.65196  Biso   1.000  Hf
  O1       1.0000 0.02697  0.16735  0.15395  Biso   1.000  O 
  O2       1.0000 0.02956  0.65883  0.16109  Biso   1.000  O 
  O3       1.0000 0.02219  0.09595  0.69945  Biso   1.000  O 
  O4       1.0000 0.03058  0.59113  0.65983  Biso   1.000  O 
  O5       1.0000 0.46770  0.41235  0.16684  Biso   1.000  O 
  O6       1.0000 0.47135  0.91333  0.16414  Biso   1.000  O 
  O7       1.0000 0.47075  0.33721  0.66662  Biso   1.000  O 
  O8       1.0000 0.47467  0.84058  0.66081  Biso   1.000  O 
  O9       1.0000 0.28311  0.12981  0.60761  Biso   1.000  O 
  O10      1.0000 0.27769  0.62116  0.59279  Biso   1.000  O 
  O11      1.0000 0.28765  0.13488  0.07777  Biso   1.000  O 
  O12      1.0000 0.27490  0.62213  0.09546  Biso   1.000  O 
  O13      1.0000 0.22547  0.37553  0.59422  Biso   1.000  O 
  O14      1.0000 0.23379  0.86681  0.59864  Biso   1.000  O 
  O15      1.0000 0.22303  0.37705  0.09628  Biso   1.000  O 
  O16      1.0000 0.23644  0.86566  0.08044  Biso   1.000  O 
  O17      1.0000 0.53372  0.16503  0.33139  Biso   1.000  O 
  O18      1.0000 0.53157  0.66243  0.33423  Biso   1.000  O 
  O19      1.0000 0.53561  0.08415  0.82862  Biso   1.000  O 
  O20      1.0000 0.53137  0.58749  0.83398  Biso   1.000  O 
  O21      1.0000 0.97041  0.41079  0.33662  Biso   1.000  O 
  O22      1.0000 0.95957  0.90322  0.35069  Biso   1.000  O 
  O23      1.0000 0.97181  0.34526  0.83651  Biso   1.000  O 
  O24      1.0000 0.97386  0.83997  0.84331  Biso   1.000  O 
  O25      1.0000 0.77445  0.12717  0.90881  Biso   1.000  O 
  O26      1.0000 0.77476  0.62363  0.90422  Biso   1.000  O 
  O27      1.0000 0.77598  0.12613  0.40805  Biso   1.000  O 
  O28      1.0000 0.77510  0.62581  0.40452  Biso   1.000  O 
  O29      1.0000 0.72524  0.37539  0.90328  Biso   1.000  O 
  O30      1.0000 0.72911  0.87435  0.90460  Biso   1.000  O 
  O31      1.0000 0.72539  0.37718  0.40506  Biso   1.000  O 
  O32      1.0000 0.71804  0.87601  0.40462  Biso   1.000  O 
