data_image0
_cell_length_a       5.11045
_cell_length_b       10.0957
_cell_length_c       10.0627
_cell_angle_alpha    90
_cell_angle_beta     90
_cell_angle_gamma    90

_symmetry_space_group_name_H-M    "P 1"
_symmetry_int_tables_number       1

loop_
  _symmetry_equiv_pos_as_xyz
  'x, y, z'

loop_
  _atom_site_label
  _atom_site_occupancy
  _atom_site_fract_x
  _atom_site_fract_y
  _atom_site_fract_z
  _atom_site_thermal_displace_type
  _atom_site_B_iso_or_equiv
  _atom_site_type_symbol
  Hf1      1.0000 0.24982  0.98360  0.12491  Biso   1.000  Hf
  Hf2      1.0000 0.24981  0.25001  0.39792  Biso   1.000  Hf
  Hf3      1.0000 0.74982  0.25001  0.12491  Biso   1.000  Hf
  Hf4      1.0000 0.74984  0.00032  0.37226  Biso   1.000  Hf
  O1       1.0000 0.98295  0.13064  0.00299  Biso   1.000  O 
  O2       1.0000 0.02585  0.11886  0.25240  Biso   1.000  O 
  O3       1.0000 0.98295  0.36937  0.24683  Biso   1.000  O 
  O4       1.0000 0.02586  0.38115  0.99742  Biso   1.000  O 
  O5       1.0000 0.51668  0.13064  0.24683  Biso   1.000  O 
  O6       1.0000 0.47378  0.11886  0.99742  Biso   1.000  O 
  O7       1.0000 0.51668  0.36937  0.00299  Biso   1.000  O 
  O8       1.0000 0.47378  0.38115  0.25240  Biso   1.000  O 
  Hf5      1.0000 0.24982  0.00186  0.62491  Biso   1.000  Hf
  Hf6      1.0000 0.24982  0.25001  0.85190  Biso   1.000  Hf
  Hf7      1.0000 0.74982  0.25001  0.62491  Biso   1.000  Hf
  Hf8      1.0000 0.74979  0.00032  0.87756  Biso   1.000  Hf
  O9       1.0000 0.96365  0.13215  0.49965  Biso   1.000  O 
  O10      1.0000 0.02269  0.10930  0.75501  Biso   1.000  O 
  O11      1.0000 0.96365  0.36787  0.75016  Biso   1.000  O 
  O12      1.0000 0.02269  0.39071  0.49481  Biso   1.000  O 
  O13      1.0000 0.53599  0.13215  0.75016  Biso   1.000  O 
  O14      1.0000 0.47694  0.10930  0.49481  Biso   1.000  O 
  O15      1.0000 0.53598  0.36787  0.49965  Biso   1.000  O 
  O16      1.0000 0.47695  0.39071  0.75501  Biso   1.000  O 
  Hf9      1.0000 0.24982  0.51641  0.12491  Biso   1.000  Hf
  Hf10     1.0000 0.24981  0.75001  0.38047  Biso   1.000  Hf
  Hf11     1.0000 0.74982  0.75001  0.12491  Biso   1.000  Hf
  Hf12     1.0000 0.74979  0.49969  0.37226  Biso   1.000  Hf
  O17      1.0000 0.96812  0.63078  0.00542  Biso   1.000  O 
  O18      1.0000 0.03008  0.62103  0.25939  Biso   1.000  O 
  O19      1.0000 0.96812  0.86923  0.24440  Biso   1.000  O 
  O20      1.0000 0.03007  0.87898  0.99043  Biso   1.000  O 
  O21      1.0000 0.53152  0.63078  0.24439  Biso   1.000  O 
  O22      1.0000 0.46956  0.62103  0.99043  Biso   1.000  O 
  O23      1.0000 0.53151  0.86923  0.00542  Biso   1.000  O 
  O24      1.0000 0.46956  0.87898  0.25939  Biso   1.000  O 
  Hf13     1.0000 0.24982  0.49816  0.62491  Biso   1.000  Hf
  Hf14     1.0000 0.24982  0.75001  0.86935  Biso   1.000  Hf
  Hf15     1.0000 0.74982  0.75001  0.62491  Biso   1.000  Hf
  Hf16     1.0000 0.74984  0.49969  0.87756  Biso   1.000  Hf
  O25      1.0000 0.96263  0.63496  0.50286  Biso   1.000  O 
  O26      1.0000 0.03902  0.61229  0.75892  Biso   1.000  O 
  O27      1.0000 0.96264  0.86505  0.74696  Biso   1.000  O 
  O28      1.0000 0.03902  0.88773  0.49090  Biso   1.000  O 
  O29      1.0000 0.53700  0.63496  0.74696  Biso   1.000  O 
  O30      1.0000 0.46061  0.61229  0.49090  Biso   1.000  O 
  O31      1.0000 0.53700  0.86505  0.50286  Biso   1.000  O 
  O32      1.0000 0.46061  0.88773  0.75892  Biso   1.000  O 
  Nb1      1.0000 0.24982  0.25001  0.12491  Biso   1.000  Nb
