data_image0
_cell_length_a       10.0711
_cell_length_b       10.5654
_cell_length_c       5.0564
_cell_angle_alpha    90
_cell_angle_beta     90
_cell_angle_gamma    90

_symmetry_space_group_name_H-M    "P 1"
_symmetry_int_tables_number       1

loop_
  _symmetry_equiv_pos_as_xyz
  'x, y, z'

loop_
  _atom_site_label
  _atom_site_occupancy
  _atom_site_fract_x
  _atom_site_fract_y
  _atom_site_fract_z
  _atom_site_thermal_displace_type
  _atom_site_B_iso_or_equiv
  _atom_site_type_symbol
  Hf1      1.0000 0.12983  0.00762  0.24493  Biso   1.000  Hf
  Hf2      1.0000 0.13080  0.21305  0.72554  Biso   1.000  Hf
  Hf3      1.0000 0.39087  0.27509  0.23520  Biso   1.000  Hf
  Hf4      1.0000 0.37634  0.48951  0.74017  Biso   1.000  Hf
  O1       1.0000 0.00156  0.15649  0.42076  Biso   1.000  O 
  O2       1.0000 0.03057  0.05724  0.90449  Biso   1.000  O 
  O3       1.0000 0.48290  0.43441  0.40044  Biso   1.000  O 
  O4       1.0000 0.48315  0.32581  0.89134  Biso   1.000  O 
  O5       1.0000 0.25784  0.09255  0.51009  Biso   1.000  O 
  O6       1.0000 0.26271  0.15140  0.02240  Biso   1.000  O 
  O7       1.0000 0.26029  0.41287  0.02952  Biso   1.000  O 
  O8       1.0000 0.25562  0.34753  0.52806  Biso   1.000  O 
  Hf5      1.0000 0.13584  0.53947  0.22565  Biso   1.000  Hf
  Hf6      1.0000 0.13866  0.74113  0.73665  Biso   1.000  Hf
  Hf7      1.0000 0.37704  0.76443  0.24113  Biso   1.000  Hf
  Hf8      1.0000 0.38024  0.98209  0.74518  Biso   1.000  Hf
  O9       1.0000 0.03204  0.68550  0.40281  Biso   1.000  O 
  O10      1.0000 0.03925  0.57201  0.88117  Biso   1.000  O 
  O11      1.0000 0.47578  0.92868  0.39742  Biso   1.000  O 
  O12      1.0000 0.48116  0.82053  0.89513  Biso   1.000  O 
  O13      1.0000 0.27738  0.61408  0.48414  Biso   1.000  O 
  O14      1.0000 0.27526  0.65083  0.97750  Biso   1.000  O 
  O15      1.0000 0.24412  0.89108  0.98589  Biso   1.000  O 
  O16      1.0000 0.24171  0.85649  0.48298  Biso   1.000  O 
  Hf9      1.0000 0.63124  0.01111  0.24710  Biso   1.000  Hf
  Hf10     1.0000 0.63786  0.23059  0.74626  Biso   1.000  Hf
  Hf11     1.0000 0.85385  0.26127  0.24576  Biso   1.000  Hf
  Hf12     1.0000 0.87556  0.48035  0.74430  Biso   1.000  Hf
  O17      1.0000 0.53359  0.17525  0.41068  Biso   1.000  O 
  O18      1.0000 0.52843  0.07348  0.90983  Biso   1.000  O 
  O19      1.0000 0.98124  0.42460  0.39986  Biso   1.000  O 
  O20      1.0000 0.97626  0.31663  0.90922  Biso   1.000  O 
  O21      1.0000 0.75986  0.10692  0.49734  Biso   1.000  O 
  O22      1.0000 0.76837  0.13212  0.99362  Biso   1.000  O 
  O23      1.0000 0.73918  0.38594  0.99721  Biso   1.000  O 
  O24      1.0000 0.73703  0.36362  0.50388  Biso   1.000  O 
  Hf13     1.0000 0.64188  0.51875  0.24462  Biso   1.000  Hf
  Hf14     1.0000 0.64266  0.73211  0.74728  Biso   1.000  Hf
  Hf15     1.0000 0.86993  0.76543  0.24581  Biso   1.000  Hf
  Hf16     1.0000 0.87566  0.98115  0.74231  Biso   1.000  Hf
  O25      1.0000 0.54185  0.68202  0.39696  Biso   1.000  O 
  O26      1.0000 0.53940  0.57290  0.90197  Biso   1.000  O 
  O27      1.0000 0.97489  0.92126  0.40457  Biso   1.000  O 
  O28      1.0000 0.97539  0.81748  0.90311  Biso   1.000  O 
  O29      1.0000 0.77676  0.61059  0.49488  Biso   1.000  O 
  O30      1.0000 0.77761  0.63406  0.99223  Biso   1.000  O 
  O31      1.0000 0.74055  0.88469  0.99278  Biso   1.000  O 
  O32      1.0000 0.73752  0.86115  0.49360  Biso   1.000  O 
  Nb1      1.0000 0.12094  0.29063  0.21932  Biso   1.000  Nb
