data_image0
_cell_length_a       10.0541
_cell_length_b       5.14936
_cell_length_c       10.5526
_cell_angle_alpha    90
_cell_angle_beta     90
_cell_angle_gamma    90

_symmetry_space_group_name_H-M    "P 1"
_symmetry_int_tables_number       1

loop_
  _symmetry_equiv_pos_as_xyz
  'x, y, z'

loop_
  _atom_site_label
  _atom_site_occupancy
  _atom_site_fract_x
  _atom_site_fract_y
  _atom_site_fract_z
  _atom_site_thermal_displace_type
  _atom_site_B_iso_or_equiv
  _atom_site_type_symbol
  Hf1      1.0000 0.12528  0.04323  0.17552  Biso   1.000  Hf
  Hf2      1.0000 0.12100  0.45479  0.42631  Biso   1.000  Hf
  Hf3      1.0000 0.33647  0.55025  0.18444  Biso   1.000  Hf
  Hf4      1.0000 0.34005  0.95609  0.42754  Biso   1.000  Hf
  Hf5      1.0000 0.64356  0.06153  0.07590  Biso   1.000  Hf
  Hf6      1.0000 0.62196  0.45875  0.33194  Biso   1.000  Hf
  Hf7      1.0000 0.85315  0.53433  0.07477  Biso   1.000  Hf
  Hf8      1.0000 0.84359  0.95550  0.32603  Biso   1.000  Hf
  O1       1.0000 0.02591  0.33032  0.08591  Biso   1.000  O 
  O2       1.0000 0.01575  0.16789  0.33793  Biso   1.000  O 
  O3       1.0000 0.45450  0.88254  0.10879  Biso   1.000  O 
  O4       1.0000 0.44789  0.66525  0.34235  Biso   1.000  O 
  O5       1.0000 0.25782  0.25186  0.30133  Biso   1.000  O 
  O6       1.0000 0.26497  0.24140  0.05235  Biso   1.000  O 
  O7       1.0000 0.20111  0.75530  0.30584  Biso   1.000  O 
  O8       1.0000 0.20643  0.75852  0.05595  Biso   1.000  O 
  O9       1.0000 0.51325  0.33204  0.17455  Biso   1.000  O 
  O10      1.0000 0.51530  0.16685  0.41610  Biso   1.000  O 
  O11      1.0000 0.94737  0.83265  0.16751  Biso   1.000  O 
  O12      1.0000 0.95012  0.66799  0.41711  Biso   1.000  O 
  O13      1.0000 0.75827  0.24957  0.45147  Biso   1.000  O 
  O14      1.0000 0.76900  0.25017  0.20748  Biso   1.000  O 
  O15      1.0000 0.70580  0.75000  0.45108  Biso   1.000  O 
  O16      1.0000 0.70119  0.73513  0.19696  Biso   1.000  O 
  Hf9      1.0000 0.12086  0.04356  0.67639  Biso   1.000  Hf
  Hf10     1.0000 0.10589  0.46464  0.92641  Biso   1.000  Hf
  Hf11     1.0000 0.33815  0.54324  0.67764  Biso   1.000  Hf
  Hf12     1.0000 0.31951  0.96028  0.93545  Biso   1.000  Hf
  Hf13     1.0000 0.62164  0.03938  0.57251  Biso   1.000  Hf
  Hf14     1.0000 0.62486  0.45773  0.80578  Biso   1.000  Hf
  Hf15     1.0000 0.84673  0.54301  0.57458  Biso   1.000  Hf
  Hf16     1.0000 0.83597  0.96054  0.82643  Biso   1.000  Hf
  O17      1.0000 0.01504  0.32862  0.58544  Biso   1.000  O 
  O18      1.0000 0.00976  0.17176  0.83388  Biso   1.000  O 
  O19      1.0000 0.44735  0.82573  0.58547  Biso   1.000  O 
  O20      1.0000 0.45196  0.68751  0.83307  Biso   1.000  O 
  O21      1.0000 0.25197  0.25333  0.79994  Biso   1.000  O 
  O22      1.0000 0.25843  0.25079  0.55000  Biso   1.000  O 
  O23      1.0000 0.19743  0.74691  0.80259  Biso   1.000  O 
  O24      1.0000 0.20401  0.74937  0.55326  Biso   1.000  O 
  O25      1.0000 0.50954  0.32358  0.66241  Biso   1.000  O 
  O26      1.0000 0.49377  0.20897  0.92365  Biso   1.000  O 
  O27      1.0000 0.94768  0.82812  0.66782  Biso   1.000  O 
  O28      1.0000 0.93141  0.67279  0.91765  Biso   1.000  O 
  O29      1.0000 0.75304  0.25171  0.94023  Biso   1.000  O 
  O30      1.0000 0.76024  0.24381  0.69364  Biso   1.000  O 
  O31      1.0000 0.68522  0.76761  0.94965  Biso   1.000  O 
  O32      1.0000 0.70565  0.75068  0.69665  Biso   1.000  O 
  Nb1      1.0000 0.54516  0.56153  0.02143  Biso   1.000  Nb
