data_image0
_cell_length_a       9.94002
_cell_length_b       5.17809
_cell_length_c       9.98972
_cell_angle_alpha    90
_cell_angle_beta     90
_cell_angle_gamma    90

_symmetry_space_group_name_H-M    "P 1"
_symmetry_int_tables_number       1

loop_
  _symmetry_equiv_pos_as_xyz
  'x, y, z'

loop_
  _atom_site_label
  _atom_site_occupancy
  _atom_site_fract_x
  _atom_site_fract_y
  _atom_site_fract_z
  _atom_site_thermal_displace_type
  _atom_site_B_iso_or_equiv
  _atom_site_type_symbol
  Nb1      1.0000 0.13554  0.03702  0.12634  Biso   1.000  Nb
  Hf1      1.0000 0.13353  0.46717  0.37590  Biso   1.000  Hf
  Hf2      1.0000 0.36544  0.53584  0.12606  Biso   1.000  Hf
  Hf3      1.0000 0.36565  0.96742  0.37546  Biso   1.000  Hf
  O1       1.0000 0.03857  0.36567  0.19267  Biso   1.000  O 
  O2       1.0000 0.03539  0.13398  0.44655  Biso   1.000  O 
  O3       1.0000 0.46389  0.86919  0.19406  Biso   1.000  O 
  O4       1.0000 0.46363  0.63237  0.44354  Biso   1.000  O 
  O5       1.0000 0.27057  0.23754  0.24840  Biso   1.000  O 
  O6       1.0000 0.27089  0.26492  0.49929  Biso   1.000  O 
  O7       1.0000 0.22923  0.76490  0.49991  Biso   1.000  O 
  O8       1.0000 0.22771  0.73933  0.24958  Biso   1.000  O 
  Hf4      1.0000 0.13420  0.03341  0.62641  Biso   1.000  Hf
  Hf5      1.0000 0.13405  0.46709  0.87716  Biso   1.000  Hf
  Hf6      1.0000 0.36595  0.53389  0.62596  Biso   1.000  Hf
  Hf7      1.0000 0.36531  0.96781  0.87664  Biso   1.000  Hf
  O9       1.0000 0.03559  0.36691  0.69690  Biso   1.000  O 
  O10      1.0000 0.03702  0.13071  0.95056  Biso   1.000  O 
  O11      1.0000 0.46302  0.87024  0.69397  Biso   1.000  O 
  O12      1.0000 0.46242  0.63170  0.94383  Biso   1.000  O 
  O13      1.0000 0.27095  0.23661  0.75016  Biso   1.000  O 
  O14      1.0000 0.27074  0.26189  0.00083  Biso   1.000  O 
  O15      1.0000 0.22619  0.76471  0.00092  Biso   1.000  O 
  O16      1.0000 0.22928  0.73545  0.75051  Biso   1.000  O 
  Hf8      1.0000 0.63461  0.03406  0.12587  Biso   1.000  Hf
  Hf9      1.0000 0.63460  0.46832  0.37537  Biso   1.000  Hf
  Hf10     1.0000 0.86752  0.53329  0.12499  Biso   1.000  Hf
  Hf11     1.0000 0.86674  0.96787  0.37585  Biso   1.000  Hf
  O17      1.0000 0.53681  0.37024  0.19341  Biso   1.000  O 
  O18      1.0000 0.53656  0.13248  0.44326  Biso   1.000  O 
  O19      1.0000 0.96908  0.86738  0.19366  Biso   1.000  O 
  O20      1.0000 0.96420  0.63267  0.44521  Biso   1.000  O 
  O21      1.0000 0.77217  0.23649  0.24954  Biso   1.000  O 
  O22      1.0000 0.77074  0.26537  0.49968  Biso   1.000  O 
  O23      1.0000 0.72949  0.76546  0.49947  Biso   1.000  O 
  O24      1.0000 0.73149  0.73720  0.24914  Biso   1.000  O 
  Hf12     1.0000 0.63378  0.03362  0.62565  Biso   1.000  Hf
  Hf13     1.0000 0.63391  0.46779  0.87595  Biso   1.000  Hf
  Hf14     1.0000 0.86601  0.53315  0.62650  Biso   1.000  Hf
  Hf15     1.0000 0.86639  0.96808  0.87622  Biso   1.000  Hf
  O25      1.0000 0.53668  0.37026  0.69369  Biso   1.000  O 
  O26      1.0000 0.53662  0.13158  0.94372  Biso   1.000  O 
  O27      1.0000 0.96395  0.86873  0.69496  Biso   1.000  O 
  O28      1.0000 0.96250  0.63054  0.94269  Biso   1.000  O 
  O29      1.0000 0.77036  0.23572  0.74990  Biso   1.000  O 
  O30      1.0000 0.77108  0.26546  0.99970  Biso   1.000  O 
  O31      1.0000 0.72937  0.76574  0.99959  Biso   1.000  O 
  O32      1.0000 0.72916  0.73645  0.74976  Biso   1.000  O 
