data_image0
_cell_length_a       9.94902
_cell_length_b       10.3593
_cell_length_c       9.994
_cell_angle_alpha    90
_cell_angle_beta     90
_cell_angle_gamma    90

_symmetry_space_group_name_H-M    "P 1"
_symmetry_int_tables_number       1

loop_
  _symmetry_equiv_pos_as_xyz
  'x, y, z'

loop_
  _atom_site_label
  _atom_site_occupancy
  _atom_site_fract_x
  _atom_site_fract_y
  _atom_site_fract_z
  _atom_site_thermal_displace_type
  _atom_site_B_iso_or_equiv
  _atom_site_type_symbol
  Nb1      1.0000 0.13524  0.01887  0.12541  Biso   1.000  Nb
  Hf1      1.0000 0.13373  0.23325  0.37579  Biso   1.000  Hf
  Hf2      1.0000 0.36641  0.26706  0.12586  Biso   1.000  Hf
  Hf3      1.0000 0.36610  0.48398  0.37621  Biso   1.000  Hf
  O1       1.0000 0.03742  0.18276  0.19423  Biso   1.000  O 
  O2       1.0000 0.03543  0.06688  0.44702  Biso   1.000  O 
  O3       1.0000 0.46347  0.43480  0.19379  Biso   1.000  O 
  O4       1.0000 0.46361  0.31605  0.44389  Biso   1.000  O 
  O5       1.0000 0.26989  0.11793  0.24800  Biso   1.000  O 
  O6       1.0000 0.27091  0.13241  0.49915  Biso   1.000  O 
  O7       1.0000 0.22933  0.38234  0.49995  Biso   1.000  O 
  O8       1.0000 0.22969  0.36810  0.25014  Biso   1.000  O 
  Hf4      1.0000 0.13432  0.01678  0.62650  Biso   1.000  Hf
  Hf5      1.0000 0.13452  0.23397  0.87693  Biso   1.000  Hf
  Hf6      1.0000 0.36603  0.26678  0.62595  Biso   1.000  Hf
  Hf7      1.0000 0.36610  0.48416  0.87593  Biso   1.000  Hf
  O9       1.0000 0.03566  0.18363  0.69720  Biso   1.000  O 
  O10      1.0000 0.03732  0.06556  0.94996  Biso   1.000  O 
  O11      1.0000 0.46339  0.43490  0.69370  Biso   1.000  O 
  O12      1.0000 0.46327  0.31570  0.94365  Biso   1.000  O 
  O13      1.0000 0.27098  0.11828  0.75002  Biso   1.000  O 
  O14      1.0000 0.27130  0.13084  0.00021  Biso   1.000  O 
  O15      1.0000 0.22927  0.38196  0.00010  Biso   1.000  O 
  O16      1.0000 0.22927  0.36789  0.75018  Biso   1.000  O 
  Hf8      1.0000 0.13436  0.51656  0.12647  Biso   1.000  Hf
  Hf9      1.0000 0.13414  0.73418  0.37609  Biso   1.000  Hf
  Hf10     1.0000 0.36496  0.76761  0.12631  Biso   1.000  Hf
  Hf11     1.0000 0.36571  0.98356  0.37534  Biso   1.000  Hf
  O17      1.0000 0.03683  0.68410  0.19405  Biso   1.000  O 
  O18      1.0000 0.03663  0.56591  0.44383  Biso   1.000  O 
  O19      1.0000 0.46411  0.93431  0.19459  Biso   1.000  O 
  O20      1.0000 0.46363  0.81604  0.44379  Biso   1.000  O 
  O21      1.0000 0.27114  0.61882  0.25012  Biso   1.000  O 
  O22      1.0000 0.27087  0.63251  0.49993  Biso   1.000  O 
  O23      1.0000 0.22951  0.88260  0.49990  Biso   1.000  O 
  O24      1.0000 0.22732  0.86976  0.24931  Biso   1.000  O 
  Hf12     1.0000 0.13403  0.51660  0.62589  Biso   1.000  Hf
  Hf13     1.0000 0.13391  0.73357  0.87597  Biso   1.000  Hf
  Hf14     1.0000 0.36623  0.76682  0.62598  Biso   1.000  Hf
  Hf15     1.0000 0.36548  0.98357  0.87673  Biso   1.000  Hf
  O25      1.0000 0.03651  0.68442  0.69387  Biso   1.000  O 
  O26      1.0000 0.03658  0.56560  0.94455  Biso   1.000  O 
  O27      1.0000 0.46346  0.93484  0.69438  Biso   1.000  O 
  O28      1.0000 0.46284  0.81606  0.94444  Biso   1.000  O 
  O29      1.0000 0.27074  0.61798  0.74982  Biso   1.000  O 
  O30      1.0000 0.27083  0.63218  0.00000  Biso   1.000  O 
  O31      1.0000 0.22607  0.88232  0.00056  Biso   1.000  O 
  O32      1.0000 0.22971  0.86782  0.75017  Biso   1.000  O 
  Hf16     1.0000 0.63429  0.01659  0.12580  Biso   1.000  Hf
  Hf17     1.0000 0.63412  0.23371  0.37617  Biso   1.000  Hf
  Hf18     1.0000 0.86590  0.26620  0.12607  Biso   1.000  Hf
  Hf19     1.0000 0.86600  0.48374  0.37612  Biso   1.000  Hf
  O33      1.0000 0.53658  0.18451  0.19409  Biso   1.000  O 
  O34      1.0000 0.53619  0.06589  0.44379  Biso   1.000  O 
  O35      1.0000 0.96425  0.43334  0.19458  Biso   1.000  O 
  O36      1.0000 0.96373  0.31589  0.44461  Biso   1.000  O 
  O37      1.0000 0.77123  0.11808  0.24969  Biso   1.000  O 
  O38      1.0000 0.77068  0.13245  0.49972  Biso   1.000  O 
  O39      1.0000 0.72940  0.38249  0.50003  Biso   1.000  O 
  O40      1.0000 0.72935  0.36805  0.24994  Biso   1.000  O 
  Hf20     1.0000 0.63386  0.01656  0.62573  Biso   1.000  Hf
  Hf21     1.0000 0.63407  0.23364  0.87584  Biso   1.000  Hf
  Hf22     1.0000 0.86612  0.26631  0.62625  Biso   1.000  Hf
  Hf23     1.0000 0.86602  0.48378  0.87611  Biso   1.000  Hf
  O41      1.0000 0.53678  0.18492  0.69365  Biso   1.000  O 
  O42      1.0000 0.53657  0.06579  0.94405  Biso   1.000  O 
  O43      1.0000 0.96362  0.43438  0.69420  Biso   1.000  O 
  O44      1.0000 0.96375  0.31562  0.94440  Biso   1.000  O 
  O45      1.0000 0.77051  0.11768  0.74983  Biso   1.000  O 
  O46      1.0000 0.77113  0.13260  0.99963  Biso   1.000  O 
  O47      1.0000 0.72924  0.38193  0.00011  Biso   1.000  O 
  O48      1.0000 0.72945  0.36792  0.74991  Biso   1.000  O 
  Hf24     1.0000 0.63426  0.51697  0.12612  Biso   1.000  Hf
  Hf25     1.0000 0.63453  0.73419  0.37529  Biso   1.000  Hf
  Hf26     1.0000 0.86741  0.76690  0.12511  Biso   1.000  Hf
  Hf27     1.0000 0.86722  0.98404  0.37551  Biso   1.000  Hf
  O49      1.0000 0.53647  0.68506  0.19349  Biso   1.000  O 
  O50      1.0000 0.53689  0.56623  0.44372  Biso   1.000  O 
  O51      1.0000 0.96820  0.93478  0.19325  Biso   1.000  O 
  O52      1.0000 0.96409  0.81623  0.44460  Biso   1.000  O 
  O53      1.0000 0.77111  0.61805  0.24977  Biso   1.000  O 
  O54      1.0000 0.77086  0.63275  0.49983  Biso   1.000  O 
  O55      1.0000 0.72966  0.88280  0.49922  Biso   1.000  O 
  O56      1.0000 0.73156  0.86831  0.24903  Biso   1.000  O 
  Hf28     1.0000 0.63419  0.51689  0.62593  Biso   1.000  Hf
  Hf29     1.0000 0.63401  0.73405  0.87615  Biso   1.000  Hf
  Hf30     1.0000 0.86607  0.76690  0.62615  Biso   1.000  Hf
  Hf31     1.0000 0.86654  0.98390  0.87617  Biso   1.000  Hf
  O57      1.0000 0.53666  0.68486  0.69418  Biso   1.000  O 
  O58      1.0000 0.53697  0.56578  0.94361  Biso   1.000  O 
  O59      1.0000 0.96422  0.93447  0.69513  Biso   1.000  O 
  O60      1.0000 0.96256  0.81529  0.94252  Biso   1.000  O 
  O61      1.0000 0.77078  0.61808  0.75000  Biso   1.000  O 
  O62      1.0000 0.77095  0.63269  0.99999  Biso   1.000  O 
  O63      1.0000 0.72939  0.88299  0.99933  Biso   1.000  O 
  O64      1.0000 0.72939  0.86823  0.74973  Biso   1.000  O 
