data_image0
_cell_length_a       10.0605
_cell_length_b       10.2833
_cell_length_c       5.28249
_cell_angle_alpha    90
_cell_angle_beta     90
_cell_angle_gamma    90

_symmetry_space_group_name_H-M    "P 1"
_symmetry_int_tables_number       1

loop_
  _symmetry_equiv_pos_as_xyz
  'x, y, z'

loop_
  _atom_site_label
  _atom_site_occupancy
  _atom_site_fract_x
  _atom_site_fract_y
  _atom_site_fract_z
  _atom_site_thermal_displace_type
  _atom_site_B_iso_or_equiv
  _atom_site_type_symbol
  Hf1      1.0000 0.13373  0.02201  0.35310  Biso   1.000  Hf
  Hf2      1.0000 0.12186  0.22881  0.86016  Biso   1.000  Hf
  Hf3      1.0000 0.34310  0.27257  0.37600  Biso   1.000  Hf
  Hf4      1.0000 0.33877  0.48118  0.86441  Biso   1.000  Hf
  Hf5      1.0000 0.64805  0.01524  0.14874  Biso   1.000  Hf
  Hf6      1.0000 0.64110  0.22162  0.61792  Biso   1.000  Hf
  Hf7      1.0000 0.85277  0.26627  0.13695  Biso   1.000  Hf
  Hf8      1.0000 0.84803  0.47954  0.65063  Biso   1.000  Hf
  O1       1.0000 0.02647  0.16171  0.16887  Biso   1.000  O 
  O2       1.0000 0.02558  0.08484  0.66837  Biso   1.000  O 
  O3       1.0000 0.45187  0.43984  0.21274  Biso   1.000  O 
  O4       1.0000 0.46333  0.33489  0.68654  Biso   1.000  O 
  O5       1.0000 0.26479  0.12634  0.61061  Biso   1.000  O 
  O6       1.0000 0.26895  0.12140  0.10882  Biso   1.000  O 
  O7       1.0000 0.20652  0.37683  0.61703  Biso   1.000  O 
  O8       1.0000 0.21124  0.37691  0.11545  Biso   1.000  O 
  O9       1.0000 0.51194  0.14672  0.34983  Biso   1.000  O 
  O10      1.0000 0.51773  0.09978  0.85397  Biso   1.000  O 
  O11      1.0000 0.94916  0.41386  0.33820  Biso   1.000  O 
  O12      1.0000 0.95143  0.33715  0.83688  Biso   1.000  O 
  O13      1.0000 0.77199  0.11752  0.88153  Biso   1.000  O 
  O14      1.0000 0.78113  0.11782  0.39678  Biso   1.000  O 
  O15      1.0000 0.70316  0.37883  0.87905  Biso   1.000  O 
  O16      1.0000 0.69524  0.36641  0.35704  Biso   1.000  O 
  Hf9      1.0000 0.12631  0.51962  0.35230  Biso   1.000  Hf
  Hf10     1.0000 0.11904  0.72889  0.84931  Biso   1.000  Hf
  Hf11     1.0000 0.34837  0.77479  0.35365  Biso   1.000  Hf
  Hf12     1.0000 0.33540  0.97970  0.85775  Biso   1.000  Hf
  Hf13     1.0000 0.62982  0.53589  0.15056  Biso   1.000  Hf
  Hf14     1.0000 0.62149  0.73249  0.65561  Biso   1.000  Hf
  Hf15     1.0000 0.85573  0.76809  0.15902  Biso   1.000  Hf
  Hf16     1.0000 0.84612  0.97436  0.65663  Biso   1.000  Hf
  O17      1.0000 0.02506  0.66136  0.16949  Biso   1.000  O 
  O18      1.0000 0.01490  0.58472  0.67215  Biso   1.000  O 
  O19      1.0000 0.46030  0.91099  0.16080  Biso   1.000  O 
  O20      1.0000 0.45280  0.84603  0.66603  Biso   1.000  O 
  O21      1.0000 0.25857  0.62595  0.59730  Biso   1.000  O 
  O22      1.0000 0.26727  0.62599  0.09712  Biso   1.000  O 
  O23      1.0000 0.20701  0.87447  0.60196  Biso   1.000  O 
  O24      1.0000 0.21494  0.87507  0.10026  Biso   1.000  O 
  O25      1.0000 0.52158  0.67416  0.33760  Biso   1.000  O 
  O26      1.0000 0.50793  0.59201  0.83534  Biso   1.000  O 
  O27      1.0000 0.95738  0.90977  0.33926  Biso   1.000  O 
  O28      1.0000 0.94845  0.83403  0.84235  Biso   1.000  O 
  O29      1.0000 0.75714  0.62876  0.90214  Biso   1.000  O 
  O30      1.0000 0.76419  0.62439  0.40915  Biso   1.000  O 
  O31      1.0000 0.70399  0.87415  0.91306  Biso   1.000  O 
  O32      1.0000 0.71471  0.87081  0.41160  Biso   1.000  O 
  Nb1      1.0000 0.55195  0.27526  0.05806  Biso   1.000  Nb
