data_image0
_cell_length_a       10.0734
_cell_length_b       10.2222
_cell_length_c       10.538
_cell_angle_alpha    90
_cell_angle_beta     90
_cell_angle_gamma    90

_symmetry_space_group_name_H-M    "P 1"
_symmetry_int_tables_number       1

loop_
  _symmetry_equiv_pos_as_xyz
  'x, y, z'

loop_
  _atom_site_label
  _atom_site_occupancy
  _atom_site_fract_x
  _atom_site_fract_y
  _atom_site_fract_z
  _atom_site_thermal_displace_type
  _atom_site_B_iso_or_equiv
  _atom_site_type_symbol
  Hf1      1.0000 0.13812  0.02067  0.17342  Biso   1.000  Hf
  Hf2      1.0000 0.13568  0.22758  0.42311  Biso   1.000  Hf
  Hf3      1.0000 0.35810  0.26483  0.17759  Biso   1.000  Hf
  Hf4      1.0000 0.35944  0.47690  0.42316  Biso   1.000  Hf
  Hf5      1.0000 0.63788  0.99898  0.08076  Biso   1.000  Hf
  Hf6      1.0000 0.63102  0.22430  0.33237  Biso   1.000  Hf
  Hf7      1.0000 0.87747  0.27608  0.07421  Biso   1.000  Hf
  Hf8      1.0000 0.86055  0.47829  0.32725  Biso   1.000  Hf
  O1       1.0000 0.03450  0.15786  0.07631  Biso   1.000  O 
  O2       1.0000 0.02483  0.09161  0.32726  Biso   1.000  O 
  O3       1.0000 0.47249  0.41196  0.08198  Biso   1.000  O 
  O4       1.0000 0.46509  0.33584  0.33284  Biso   1.000  O 
  O5       1.0000 0.26953  0.12200  0.30081  Biso   1.000  O 
  O6       1.0000 0.27571  0.12240  0.04729  Biso   1.000  O 
  O7       1.0000 0.22038  0.37366  0.29939  Biso   1.000  O 
  O8       1.0000 0.22711  0.37590  0.04533  Biso   1.000  O 
  O9       1.0000 0.51066  0.12428  0.19287  Biso   1.000  O 
  O10      1.0000 0.52409  0.09104  0.43262  Biso   1.000  O 
  O11      1.0000 0.97293  0.41436  0.17280  Biso   1.000  O 
  O12      1.0000 0.96652  0.33810  0.41965  Biso   1.000  O 
  O13      1.0000 0.77256  0.12112  0.45332  Biso   1.000  O 
  O14      1.0000 0.76203  0.13133  0.19694  Biso   1.000  O 
  O15      1.0000 0.72264  0.37327  0.45356  Biso   1.000  O 
  O16      1.0000 0.72176  0.38011  0.20069  Biso   1.000  O 
  Hf9      1.0000 0.13354  0.01999  0.67283  Biso   1.000  Hf
  Hf10     1.0000 0.13855  0.22554  0.92151  Biso   1.000  Hf
  Hf11     1.0000 0.35735  0.26984  0.67203  Biso   1.000  Hf
  Hf12     1.0000 0.35657  0.47734  0.92169  Biso   1.000  Hf
  Hf13     1.0000 0.63491  0.01754  0.57875  Biso   1.000  Hf
  Hf14     1.0000 0.63506  0.22910  0.81723  Biso   1.000  Hf
  Hf15     1.0000 0.85935  0.27039  0.57547  Biso   1.000  Hf
  Hf16     1.0000 0.86002  0.47820  0.82615  Biso   1.000  Hf
  O17      1.0000 0.02731  0.15979  0.57963  Biso   1.000  O 
  O18      1.0000 0.02615  0.08763  0.83003  Biso   1.000  O 
  O19      1.0000 0.46850  0.40640  0.57815  Biso   1.000  O 
  O20      1.0000 0.46750  0.34408  0.82445  Biso   1.000  O 
  O21      1.0000 0.27090  0.12271  0.79612  Biso   1.000  O 
  O22      1.0000 0.27101  0.12431  0.54783  Biso   1.000  O 
  O23      1.0000 0.22193  0.37237  0.79552  Biso   1.000  O 
  O24      1.0000 0.22174  0.37502  0.54705  Biso   1.000  O 
  O25      1.0000 0.52136  0.15019  0.67632  Biso   1.000  O 
  O26      1.0000 0.51672  0.10312  0.93865  Biso   1.000  O 
  O27      1.0000 0.96645  0.41148  0.66810  Biso   1.000  O 
  O28      1.0000 0.97055  0.33813  0.91645  Biso   1.000  O 
  O29      1.0000 0.76054  0.12556  0.95512  Biso   1.000  O 
  O30      1.0000 0.77345  0.12336  0.70097  Biso   1.000  O 
  O31      1.0000 0.72505  0.37808  0.95233  Biso   1.000  O 
  O32      1.0000 0.72331  0.37486  0.70140  Biso   1.000  O 
  Hf17     1.0000 0.14272  0.52032  0.17418  Biso   1.000  Hf
  Hf18     1.0000 0.13690  0.72807  0.42323  Biso   1.000  Hf
  Hf19     1.0000 0.36015  0.76885  0.17446  Biso   1.000  Hf
  Hf20     1.0000 0.36157  0.97716  0.42427  Biso   1.000  Hf
  Hf21     1.0000 0.64351  0.53245  0.07636  Biso   1.000  Hf
  Hf22     1.0000 0.63833  0.72752  0.33010  Biso   1.000  Hf
  Hf23     1.0000 0.86923  0.77060  0.07810  Biso   1.000  Hf
  Hf24     1.0000 0.86211  0.97941  0.32769  Biso   1.000  Hf
  O33      1.0000 0.03626  0.66164  0.08085  Biso   1.000  O 
  O34      1.0000 0.03053  0.58856  0.33164  Biso   1.000  O 
  O35      1.0000 0.47040  0.89394  0.07044  Biso   1.000  O 
  O36      1.0000 0.47125  0.84192  0.32700  Biso   1.000  O 
  O37      1.0000 0.27544  0.62330  0.29751  Biso   1.000  O 
  O38      1.0000 0.27894  0.62484  0.04688  Biso   1.000  O 
  O39      1.0000 0.22414  0.87196  0.29717  Biso   1.000  O 
  O40      1.0000 0.22581  0.87585  0.04739  Biso   1.000  O 
  O41      1.0000 0.53120  0.65992  0.17468  Biso   1.000  O 
  O42      1.0000 0.52871  0.58871  0.42163  Biso   1.000  O 
  O43      1.0000 0.97013  0.91363  0.16947  Biso   1.000  O 
  O44      1.0000 0.96787  0.84013  0.42051  Biso   1.000  O 
  O45      1.0000 0.77491  0.62260  0.45401  Biso   1.000  O 
  O46      1.0000 0.77895  0.62799  0.20389  Biso   1.000  O 
  O47      1.0000 0.72362  0.87268  0.45547  Biso   1.000  O 
  O48      1.0000 0.73050  0.87064  0.20787  Biso   1.000  O 
  Hf25     1.0000 0.13617  0.52037  0.67196  Biso   1.000  Hf
  Hf26     1.0000 0.13617  0.72733  0.92239  Biso   1.000  Hf
  Hf27     1.0000 0.35994  0.77037  0.67270  Biso   1.000  Hf
  Hf28     1.0000 0.35835  0.97656  0.92385  Biso   1.000  Hf
  Hf29     1.0000 0.63624  0.51946  0.57645  Biso   1.000  Hf
  Hf30     1.0000 0.63584  0.72695  0.82537  Biso   1.000  Hf
  Hf31     1.0000 0.86033  0.77085  0.57860  Biso   1.000  Hf
  Hf32     1.0000 0.85967  0.97935  0.82910  Biso   1.000  Hf
  O49      1.0000 0.02974  0.66215  0.58110  Biso   1.000  O 
  O50      1.0000 0.02897  0.58735  0.82995  Biso   1.000  O 
  O51      1.0000 0.47001  0.90366  0.57691  Biso   1.000  O 
  O52      1.0000 0.47102  0.84458  0.82417  Biso   1.000  O 
  O53      1.0000 0.27354  0.62228  0.79700  Biso   1.000  O 
  O54      1.0000 0.27338  0.62467  0.54667  Biso   1.000  O 
  O55      1.0000 0.22273  0.87192  0.79696  Biso   1.000  O 
  O56      1.0000 0.22343  0.87533  0.54719  Biso   1.000  O 
  O57      1.0000 0.52745  0.65684  0.67177  Biso   1.000  O 
  O58      1.0000 0.52563  0.59120  0.92189  Biso   1.000  O 
  O59      1.0000 0.96685  0.91094  0.67116  Biso   1.000  O 
  O60      1.0000 0.96717  0.83716  0.91975  Biso   1.000  O 
  O61      1.0000 0.77401  0.62509  0.95191  Biso   1.000  O 
  O62      1.0000 0.77332  0.62450  0.70289  Biso   1.000  O 
  O63      1.0000 0.72357  0.86967  0.95365  Biso   1.000  O 
  O64      1.0000 0.72410  0.87381  0.70579  Biso   1.000  O 
  Nb1      1.0000 0.61360  0.25365  0.07090  Biso   1.000  Nb
