data_image0
_cell_length_a       10.2008
_cell_length_b       10.2956
_cell_length_c       5.29809
_cell_angle_alpha    90
_cell_angle_beta     80
_cell_angle_gamma    90

_symmetry_space_group_name_H-M    "P 1"
_symmetry_int_tables_number       1

loop_
  _symmetry_equiv_pos_as_xyz
  'x, y, z'

loop_
  _atom_site_label
  _atom_site_occupancy
  _atom_site_fract_x
  _atom_site_fract_y
  _atom_site_fract_z
  _atom_site_thermal_displace_type
  _atom_site_B_iso_or_equiv
  _atom_site_type_symbol
  Hf1      1.0000 0.13424  0.01927  0.29064  Biso   1.000  Hf
  Hf2      1.0000 0.13529  0.22938  0.78078  Biso   1.000  Hf
  Hf3      1.0000 0.35493  0.27593  0.16101  Biso   1.000  Hf
  Hf4      1.0000 0.36187  0.49232  0.70815  Biso   1.000  Hf
  O1       1.0000 0.03657  0.16337  0.14692  Biso   1.000  O 
  O2       1.0000 0.03200  0.08447  0.64702  Biso   1.000  O 
  O3       1.0000 0.47609  0.40317  0.36745  Biso   1.000  O 
  O4       1.0000 0.49129  0.36514  0.86383  Biso   1.000  O 
  O5       1.0000 0.27523  0.12154  0.44573  Biso   1.000  O 
  O6       1.0000 0.28732  0.12481  0.93467  Biso   1.000  O 
  O7       1.0000 0.21226  0.38999  0.01271  Biso   1.000  O 
  O8       1.0000 0.23842  0.36684  0.50509  Biso   1.000  O 
  Hf5      1.0000 0.13977  0.52459  0.29433  Biso   1.000  Hf
  Hf6      1.0000 0.13839  0.73012  0.79671  Biso   1.000  Hf
  Hf7      1.0000 0.36308  0.77098  0.20932  Biso   1.000  Hf
  Hf8      1.0000 0.36530  0.96636  0.70286  Biso   1.000  Hf
  O9       1.0000 0.03074  0.66370  0.15632  Biso   1.000  O 
  O10      1.0000 0.03704  0.58726  0.65603  Biso   1.000  O 
  O11      1.0000 0.47211  0.91150  0.35115  Biso   1.000  O 
  O12      1.0000 0.47214  0.83384  0.85576  Biso   1.000  O 
  O13      1.0000 0.27817  0.62891  0.48244  Biso   1.000  O 
  O14      1.0000 0.27764  0.63001  0.98614  Biso   1.000  O 
  O15      1.0000 0.22399  0.87916  0.02160  Biso   1.000  O 
  O16      1.0000 0.22440  0.86705  0.51802  Biso   1.000  O 
  Hf9      1.0000 0.63975  0.02356  0.29852  Biso   1.000  Hf
  Hf10     1.0000 0.64935  0.23411  0.80732  Biso   1.000  Hf
  Hf11     1.0000 0.86484  0.27307  0.21974  Biso   1.000  Hf
  Hf12     1.0000 0.86565  0.48065  0.71544  Biso   1.000  Hf
  O17      1.0000 0.52866  0.16621  0.16844  Biso   1.000  O 
  O18      1.0000 0.54019  0.07740  0.67970  Biso   1.000  O 
  O19      1.0000 0.97247  0.41270  0.35867  Biso   1.000  O 
  O20      1.0000 0.96917  0.33945  0.85498  Biso   1.000  O 
  O21      1.0000 0.77841  0.13002  0.48689  Biso   1.000  O 
  O22      1.0000 0.78235  0.12128  0.99252  Biso   1.000  O 
  O23      1.0000 0.72909  0.37805  0.03615  Biso   1.000  O 
  O24      1.0000 0.73275  0.37466  0.53111  Biso   1.000  O 
  Hf13     1.0000 0.64019  0.52142  0.29951  Biso   1.000  Hf
  Hf14     1.0000 0.64336  0.72812  0.79631  Biso   1.000  Hf
  Hf15     1.0000 0.86027  0.77218  0.21499  Biso   1.000  Hf
  Hf16     1.0000 0.86205  0.97925  0.71422  Biso   1.000  Hf
  O25      1.0000 0.53090  0.65723  0.14937  Biso   1.000  O 
  O26      1.0000 0.53514  0.59612  0.64188  Biso   1.000  O 
  O27      1.0000 0.96690  0.91223  0.35510  Biso   1.000  O 
  O28      1.0000 0.96922  0.83816  0.85428  Biso   1.000  O 
  O29      1.0000 0.77895  0.62918  0.48420  Biso   1.000  O 
  O30      1.0000 0.77964  0.62330  0.98404  Biso   1.000  O 
  O31      1.0000 0.72286  0.87867  0.02976  Biso   1.000  O 
  O32      1.0000 0.72594  0.87281  0.52708  Biso   1.000  O 
  Nb1      1.0000 0.40942  0.23515  0.61586  Biso   1.000  Nb
