data_image0
_cell_length_a       10.0045
_cell_length_b       10.1907
_cell_length_c       10.0045
_cell_angle_alpha    90
_cell_angle_beta     90
_cell_angle_gamma    90

_symmetry_space_group_name_H-M    "P 1"
_symmetry_int_tables_number       1

loop_
  _symmetry_equiv_pos_as_xyz
  'x, y, z'

loop_
  _atom_site_label
  _atom_site_occupancy
  _atom_site_fract_x
  _atom_site_fract_y
  _atom_site_fract_z
  _atom_site_thermal_displace_type
  _atom_site_B_iso_or_equiv
  _atom_site_type_symbol
  Nb1      1.0000 0.12500  0.00009  0.12500  Biso   1.000  Nb
  Hf1      1.0000 0.12580  0.25022  0.37459  Biso   1.000  Hf
  Hf2      1.0000 0.37458  0.25023  0.12580  Biso   1.000  Hf
  Hf3      1.0000 0.37454  0.00037  0.37454  Biso   1.000  Hf
  O1       1.0000 0.99651  0.14651  0.99651  Biso   1.000  O 
  O2       1.0000 0.00327  0.10119  0.24672  Biso   1.000  O 
  O3       1.0000 0.99978  0.35190  0.25020  Biso   1.000  O 
  O4       1.0000 0.00018  0.39767  0.00019  Biso   1.000  O 
  O5       1.0000 0.25347  0.14652  0.25347  Biso   1.000  O 
  O6       1.0000 0.24670  0.10120  0.00326  Biso   1.000  O 
  O7       1.0000 0.25020  0.35189  0.99979  Biso   1.000  O 
  O8       1.0000 0.24979  0.39765  0.24980  Biso   1.000  O 
  Hf4      1.0000 0.12501  0.00008  0.62500  Biso   1.000  Hf
  Hf5      1.0000 0.12418  0.25021  0.87539  Biso   1.000  Hf
  Hf6      1.0000 0.37494  0.24960  0.62547  Biso   1.000  Hf
  Hf7      1.0000 0.37452  0.99979  0.87545  Biso   1.000  Hf
  O9       1.0000 0.99785  0.14758  0.49610  Biso   1.000  O 
  O10      1.0000 0.00053  0.10267  0.74756  Biso   1.000  O 
  O11      1.0000 0.99926  0.35239  0.75033  Biso   1.000  O 
  O12      1.0000 0.00055  0.39764  0.50011  Biso   1.000  O 
  O13      1.0000 0.25213  0.14757  0.75387  Biso   1.000  O 
  O14      1.0000 0.24945  0.10269  0.50242  Biso   1.000  O 
  O15      1.0000 0.25073  0.35240  0.49966  Biso   1.000  O 
  O16      1.0000 0.24943  0.39762  0.74988  Biso   1.000  O 
  Hf8      1.0000 0.12499  0.50010  0.12500  Biso   1.000  Hf
  Hf9      1.0000 0.12416  0.74995  0.37459  Biso   1.000  Hf
  Hf10     1.0000 0.37457  0.74996  0.12418  Biso   1.000  Hf
  Hf11     1.0000 0.37545  0.50023  0.37546  Biso   1.000  Hf
  O17      1.0000 0.99978  0.64826  0.99979  Biso   1.000  O 
  O18      1.0000 0.00018  0.60251  0.24980  Biso   1.000  O 
  O19      1.0000 0.99649  0.85365  0.25347  Biso   1.000  O 
  O20      1.0000 0.00325  0.89898  0.00327  Biso   1.000  O 
  O21      1.0000 0.25018  0.64827  0.25019  Biso   1.000  O 
  O22      1.0000 0.24978  0.60252  0.00019  Biso   1.000  O 
  O23      1.0000 0.25347  0.85364  0.99652  Biso   1.000  O 
  O24      1.0000 0.24669  0.89897  0.24672  Biso   1.000  O 
  Hf12     1.0000 0.12499  0.50009  0.62500  Biso   1.000  Hf
  Hf13     1.0000 0.12579  0.74994  0.87539  Biso   1.000  Hf
  Hf14     1.0000 0.37493  0.75057  0.62452  Biso   1.000  Hf
  Hf15     1.0000 0.37546  0.49992  0.87454  Biso   1.000  Hf
  O25      1.0000 0.99926  0.64776  0.49966  Biso   1.000  O 
  O26      1.0000 0.00055  0.60252  0.74988  Biso   1.000  O 
  O27      1.0000 0.99784  0.85257  0.75388  Biso   1.000  O 
  O28      1.0000 0.00051  0.89748  0.50242  Biso   1.000  O 
  O29      1.0000 0.25072  0.64775  0.75032  Biso   1.000  O 
  O30      1.0000 0.24942  0.60253  0.50011  Biso   1.000  O 
  O31      1.0000 0.25211  0.85258  0.49611  Biso   1.000  O 
  O32      1.0000 0.24944  0.89747  0.74756  Biso   1.000  O 
  Hf16     1.0000 0.62500  0.00009  0.12500  Biso   1.000  Hf
  Hf17     1.0000 0.62547  0.24960  0.37494  Biso   1.000  Hf
  Hf18     1.0000 0.87538  0.25023  0.12418  Biso   1.000  Hf
  Hf19     1.0000 0.87543  0.99980  0.37454  Biso   1.000  Hf
  O33      1.0000 0.49610  0.14757  0.99785  Biso   1.000  O 
  O34      1.0000 0.50242  0.10269  0.24945  Biso   1.000  O 
  O35      1.0000 0.49965  0.35240  0.25072  Biso   1.000  O 
  O36      1.0000 0.50010  0.39765  0.00056  Biso   1.000  O 
  O37      1.0000 0.75388  0.14758  0.25212  Biso   1.000  O 
  O38      1.0000 0.74755  0.10270  0.00052  Biso   1.000  O 
  O39      1.0000 0.75033  0.35239  0.99926  Biso   1.000  O 
  O40      1.0000 0.74986  0.39763  0.24943  Biso   1.000  O 
  Hf20     1.0000 0.62501  0.00008  0.62500  Biso   1.000  Hf
  Hf21     1.0000 0.62452  0.24959  0.87505  Biso   1.000  Hf
  Hf22     1.0000 0.87505  0.24960  0.62452  Biso   1.000  Hf
  Hf23     1.0000 0.87546  0.00035  0.87546  Biso   1.000  Hf
  O41      1.0000 0.49823  0.14764  0.49823  Biso   1.000  O 
  O42      1.0000 0.50089  0.10249  0.74909  Biso   1.000  O 
  O43      1.0000 0.49918  0.35267  0.75080  Biso   1.000  O 
  O44      1.0000 0.50048  0.39745  0.50048  Biso   1.000  O 
  O45      1.0000 0.75175  0.14763  0.75174  Biso   1.000  O 
  O46      1.0000 0.74909  0.10250  0.50087  Biso   1.000  O 
  O47      1.0000 0.75081  0.35268  0.49918  Biso   1.000  O 
  O48      1.0000 0.74950  0.39744  0.74950  Biso   1.000  O 
  Hf24     1.0000 0.62499  0.50010  0.12500  Biso   1.000  Hf
  Hf25     1.0000 0.62450  0.75057  0.37494  Biso   1.000  Hf
  Hf26     1.0000 0.87537  0.74995  0.12580  Biso   1.000  Hf
  Hf27     1.0000 0.87453  0.49993  0.37546  Biso   1.000  Hf
  O49      1.0000 0.49966  0.64775  0.99927  Biso   1.000  O 
  O50      1.0000 0.50010  0.60253  0.24943  Biso   1.000  O 
  O51      1.0000 0.49608  0.85258  0.25213  Biso   1.000  O 
  O52      1.0000 0.50240  0.89749  0.00053  Biso   1.000  O 
  O53      1.0000 0.75030  0.64776  0.25072  Biso   1.000  O 
  O54      1.0000 0.74986  0.60254  0.00056  Biso   1.000  O 
  O55      1.0000 0.75388  0.85257  0.99786  Biso   1.000  O 
  O56      1.0000 0.74754  0.89748  0.24946  Biso   1.000  O 
  Hf28     1.0000 0.62499  0.50009  0.62500  Biso   1.000  Hf
  Hf29     1.0000 0.62546  0.75056  0.87505  Biso   1.000  Hf
  Hf30     1.0000 0.87504  0.75057  0.62546  Biso   1.000  Hf
  Hf31     1.0000 0.87454  0.50022  0.87454  Biso   1.000  Hf
  O57      1.0000 0.49918  0.64749  0.49919  Biso   1.000  O 
  O58      1.0000 0.50048  0.60271  0.74951  Biso   1.000  O 
  O59      1.0000 0.49821  0.85251  0.75176  Biso   1.000  O 
  O60      1.0000 0.50086  0.89767  0.50088  Biso   1.000  O 
  O61      1.0000 0.75079  0.64748  0.75080  Biso   1.000  O 
  O62      1.0000 0.74949  0.60272  0.50048  Biso   1.000  O 
  O63      1.0000 0.75173  0.85252  0.49824  Biso   1.000  O 
  O64      1.0000 0.74908  0.89766  0.74910  Biso   1.000  O 
