data_image0
_cell_length_a       10.2314
_cell_length_b       5.15693
_cell_length_c       10.5616
_cell_angle_alpha    90
_cell_angle_beta     80
_cell_angle_gamma    90

_symmetry_space_group_name_H-M    "P 1"
_symmetry_int_tables_number       1

loop_
  _symmetry_equiv_pos_as_xyz
  'x, y, z'

loop_
  _atom_site_label
  _atom_site_occupancy
  _atom_site_fract_x
  _atom_site_fract_y
  _atom_site_fract_z
  _atom_site_thermal_displace_type
  _atom_site_B_iso_or_equiv
  _atom_site_type_symbol
  Hf1      1.0000 0.13613  0.04921  0.14254  Biso   1.000  Hf
  Hf2      1.0000 0.15298  0.46191  0.38911  Biso   1.000  Hf
  Hf3      1.0000 0.34265  0.54765  0.08267  Biso   1.000  Hf
  Hf4      1.0000 0.36166  0.93498  0.34971  Biso   1.000  Hf
  O1       1.0000 0.02960  0.34198  0.07611  Biso   1.000  O 
  O2       1.0000 0.04571  0.17091  0.32559  Biso   1.000  O 
  O3       1.0000 0.47062  0.79489  0.17974  Biso   1.000  O 
  O4       1.0000 0.48854  0.66644  0.42742  Biso   1.000  O 
  O5       1.0000 0.28381  0.24161  0.23118  Biso   1.000  O 
  O6       1.0000 0.30363  0.26449  0.47346  Biso   1.000  O 
  O7       1.0000 0.24113  0.76621  0.99237  Biso   1.000  O 
  O8       1.0000 0.21343  0.74054  0.24341  Biso   1.000  O 
  Hf5      1.0000 0.15408  0.04094  0.64195  Biso   1.000  Hf
  Hf6      1.0000 0.15314  0.45530  0.88761  Biso   1.000  Hf
  Hf7      1.0000 0.37992  0.54006  0.60310  Biso   1.000  Hf
  Hf8      1.0000 0.37914  0.95779  0.84349  Biso   1.000  Hf
  O9       1.0000 0.05530  0.33065  0.57433  Biso   1.000  O 
  O10      1.0000 0.05296  0.16108  0.82397  Biso   1.000  O 
  O11      1.0000 0.48403  0.83300  0.66800  Biso   1.000  O 
  O12      1.0000 0.48905  0.67180  0.91317  Biso   1.000  O 
  O13      1.0000 0.29348  0.25009  0.73095  Biso   1.000  O 
  O14      1.0000 0.29577  0.24461  0.97581  Biso   1.000  O 
  O15      1.0000 0.23524  0.76315  0.50765  Biso   1.000  O 
  O16      1.0000 0.24265  0.73641  0.75119  Biso   1.000  O 
  Hf9      1.0000 0.64233  0.04672  0.15956  Biso   1.000  Hf
  Hf10     1.0000 0.66512  0.44801  0.40470  Biso   1.000  Hf
  Hf11     1.0000 0.85538  0.54562  0.10955  Biso   1.000  Hf
  Hf12     1.0000 0.87269  0.95347  0.35677  Biso   1.000  Hf
  O17      1.0000 0.51643  0.32052  0.08225  Biso   1.000  O 
  O18      1.0000 0.55034  0.11621  0.35046  Biso   1.000  O 
  O19      1.0000 0.96571  0.83590  0.17064  Biso   1.000  O 
  O20      1.0000 0.97962  0.66866  0.42476  Biso   1.000  O 
  O21      1.0000 0.79194  0.25003  0.24752  Biso   1.000  O 
  O22      1.0000 0.79907  0.23113  0.49839  Biso   1.000  O 
  O23      1.0000 0.71477  0.76121  0.01772  Biso   1.000  O 
  O24      1.0000 0.73488  0.74671  0.26688  Biso   1.000  O 
  Hf13     1.0000 0.65965  0.04073  0.64818  Biso   1.000  Hf
  Hf14     1.0000 0.65995  0.45275  0.89785  Biso   1.000  Hf
  Hf15     1.0000 0.88094  0.53984  0.60581  Biso   1.000  Hf
  Hf16     1.0000 0.87662  0.95317  0.85635  Biso   1.000  Hf
  O25      1.0000 0.55381  0.33317  0.58382  Biso   1.000  O 
  O26      1.0000 0.55436  0.16758  0.82718  Biso   1.000  O 
  O27      1.0000 0.98206  0.82929  0.67405  Biso   1.000  O 
  O28      1.0000 0.98298  0.66241  0.91835  Biso   1.000  O 
  O29      1.0000 0.79594  0.25564  0.74492  Biso   1.000  O 
  O30      1.0000 0.79691  0.24164  0.99410  Biso   1.000  O 
  O31      1.0000 0.74149  0.74902  0.51533  Biso   1.000  O 
  O32      1.0000 0.74237  0.73899  0.76274  Biso   1.000  O 
  Nb1      1.0000 0.45325  0.43323  0.28192  Biso   1.000  Nb
