data_image0
_cell_length_a       5.00105
_cell_length_b       10.1758
_cell_length_c       10.0048
_cell_angle_alpha    90
_cell_angle_beta     90
_cell_angle_gamma    90

_symmetry_space_group_name_H-M    "P 1"
_symmetry_int_tables_number       1

loop_
  _symmetry_equiv_pos_as_xyz
  'x, y, z'

loop_
  _atom_site_label
  _atom_site_occupancy
  _atom_site_fract_x
  _atom_site_fract_y
  _atom_site_fract_z
  _atom_site_thermal_displace_type
  _atom_site_B_iso_or_equiv
  _atom_site_type_symbol
  Nb1      1.0000 0.25001  0.00016  0.12502  Biso   1.000  Nb
  Hf1      1.0000 0.25238  0.24914  0.37419  Biso   1.000  Hf
  Hf2      1.0000 0.74999  0.25093  0.12502  Biso   1.000  Hf
  Hf3      1.0000 0.75001  0.00014  0.37506  Biso   1.000  Hf
  O1       1.0000 0.98498  0.14617  0.99727  Biso   1.000  O 
  O2       1.0000 0.01572  0.10118  0.25027  Biso   1.000  O 
  O3       1.0000 0.99791  0.35205  0.25020  Biso   1.000  O 
  O4       1.0000 0.00257  0.39746  0.99964  Biso   1.000  O 
  O5       1.0000 0.51503  0.14618  0.25278  Biso   1.000  O 
  O6       1.0000 0.48430  0.10117  0.99978  Biso   1.000  O 
  O7       1.0000 0.50205  0.35205  0.99985  Biso   1.000  O 
  O8       1.0000 0.49737  0.39747  0.25040  Biso   1.000  O 
  Hf4      1.0000 0.25000  0.00014  0.62503  Biso   1.000  Hf
  Hf5      1.0000 0.24759  0.24914  0.87584  Biso   1.000  Hf
  Hf6      1.0000 0.74999  0.24992  0.62502  Biso   1.000  Hf
  Hf7      1.0000 0.75000  0.00014  0.87499  Biso   1.000  Hf
  O9       1.0000 0.99241  0.14731  0.49673  Biso   1.000  O 
  O10      1.0000 0.00525  0.10332  0.74887  Biso   1.000  O 
  O11      1.0000 0.99591  0.35310  0.75059  Biso   1.000  O 
  O12      1.0000 0.00410  0.39705  0.49947  Biso   1.000  O 
  O13      1.0000 0.50757  0.14732  0.75331  Biso   1.000  O 
  O14      1.0000 0.49474  0.10332  0.50118  Biso   1.000  O 
  O15      1.0000 0.50404  0.35310  0.49946  Biso   1.000  O 
  O16      1.0000 0.49585  0.39705  0.75058  Biso   1.000  O 
  Hf8      1.0000 0.24998  0.50016  0.12503  Biso   1.000  Hf
  Hf9      1.0000 0.24756  0.75115  0.37420  Biso   1.000  Hf
  Hf10     1.0000 0.74995  0.74938  0.12502  Biso   1.000  Hf
  Hf11     1.0000 0.74997  0.50014  0.37616  Biso   1.000  Hf
  O17      1.0000 0.99788  0.64824  0.99985  Biso   1.000  O 
  O18      1.0000 0.00254  0.60283  0.25040  Biso   1.000  O 
  O19      1.0000 0.98492  0.85412  0.25278  Biso   1.000  O 
  O20      1.0000 0.01565  0.89912  0.99977  Biso   1.000  O 
  O21      1.0000 0.50201  0.64825  0.25018  Biso   1.000  O 
  O22      1.0000 0.49734  0.60282  0.99964  Biso   1.000  O 
  O23      1.0000 0.51496  0.85411  0.99727  Biso   1.000  O 
  O24      1.0000 0.48424  0.89913  0.25027  Biso   1.000  O 
  Hf12     1.0000 0.24998  0.50014  0.62503  Biso   1.000  Hf
  Hf13     1.0000 0.25233  0.75115  0.87584  Biso   1.000  Hf
  Hf14     1.0000 0.74996  0.75036  0.62502  Biso   1.000  Hf
  Hf15     1.0000 0.74997  0.50014  0.87390  Biso   1.000  Hf
  O25      1.0000 0.99589  0.64718  0.49945  Biso   1.000  O 
  O26      1.0000 0.00408  0.60323  0.75058  Biso   1.000  O 
  O27      1.0000 0.99235  0.85297  0.75331  Biso   1.000  O 
  O28      1.0000 0.00521  0.89696  0.50118  Biso   1.000  O 
  O29      1.0000 0.50402  0.64718  0.75059  Biso   1.000  O 
  O30      1.0000 0.49584  0.60323  0.49946  Biso   1.000  O 
  O31      1.0000 0.50754  0.85297  0.49673  Biso   1.000  O 
  O32      1.0000 0.49467  0.89696  0.74887  Biso   1.000  O 
