data_image0
_cell_length_a       5.04464
_cell_length_b       10.2591
_cell_length_c       10.4493
_cell_angle_alpha    90
_cell_angle_beta     80
_cell_angle_gamma    90

_symmetry_space_group_name_H-M    "P 1"
_symmetry_int_tables_number       1

loop_
  _symmetry_equiv_pos_as_xyz
  'x, y, z'

loop_
  _atom_site_label
  _atom_site_occupancy
  _atom_site_fract_x
  _atom_site_fract_y
  _atom_site_fract_z
  _atom_site_thermal_displace_type
  _atom_site_B_iso_or_equiv
  _atom_site_type_symbol
  Nb1      1.0000 0.28089  0.02276  0.14753  Biso   1.000  Nb
  Hf1      1.0000 0.28043  0.22893  0.39548  Biso   1.000  Hf
  Hf2      1.0000 0.72257  0.27112  0.10457  Biso   1.000  Hf
  Hf3      1.0000 0.72353  0.47860  0.35369  Biso   1.000  Hf
  O1       1.0000 0.07347  0.16593  0.08051  Biso   1.000  O 
  O2       1.0000 0.08178  0.07786  0.32660  Biso   1.000  O 
  O3       1.0000 0.93029  0.41874  0.16937  Biso   1.000  O 
  O4       1.0000 0.92754  0.32881  0.41841  Biso   1.000  O 
  O5       1.0000 0.55868  0.12870  0.24182  Biso   1.000  O 
  O6       1.0000 0.55545  0.12013  0.49054  Biso   1.000  O 
  O7       1.0000 0.44693  0.37881  0.00975  Biso   1.000  O 
  O8       1.0000 0.44782  0.37104  0.25928  Biso   1.000  O 
  Hf4      1.0000 0.27481  0.02066  0.64593  Biso   1.000  Hf
  Hf5      1.0000 0.27406  0.22756  0.89581  Biso   1.000  Hf
  Hf6      1.0000 0.72114  0.27086  0.60403  Biso   1.000  Hf
  Hf7      1.0000 0.71905  0.47808  0.85490  Biso   1.000  Hf
  O9       1.0000 0.07046  0.16803  0.57861  Biso   1.000  O 
  O10      1.0000 0.06569  0.08072  0.82985  Biso   1.000  O 
  O11      1.0000 0.92762  0.41834  0.67002  Biso   1.000  O 
  O12      1.0000 0.92455  0.32919  0.92076  Biso   1.000  O 
  O13      1.0000 0.55009  0.12863  0.74089  Biso   1.000  O 
  O14      1.0000 0.54527  0.12002  0.99230  Biso   1.000  O 
  O15      1.0000 0.44610  0.37854  0.50940  Biso   1.000  O 
  O16      1.0000 0.44429  0.37036  0.75981  Biso   1.000  O 
  Hf8      1.0000 0.27906  0.52255  0.14558  Biso   1.000  Hf
  Hf9      1.0000 0.28094  0.72820  0.39604  Biso   1.000  Hf
  Hf10     1.0000 0.72255  0.77543  0.10432  Biso   1.000  Hf
  Hf11     1.0000 0.72643  0.97805  0.35325  Biso   1.000  Hf
  O17      1.0000 0.07059  0.66951  0.08077  Biso   1.000  O 
  O18      1.0000 0.07327  0.58015  0.33080  Biso   1.000  O 
  O19      1.0000 0.94321  0.92004  0.16872  Biso   1.000  O 
  O20      1.0000 0.93284  0.83127  0.42030  Biso   1.000  O 
  O21      1.0000 0.55500  0.63023  0.24040  Biso   1.000  O 
  O22      1.0000 0.55580  0.62043  0.49097  Biso   1.000  O 
  O23      1.0000 0.43627  0.88063  0.01016  Biso   1.000  O 
  O24      1.0000 0.44914  0.87253  0.25999  Biso   1.000  O 
  Hf12     1.0000 0.27749  0.52109  0.64643  Biso   1.000  Hf
  Hf13     1.0000 0.27458  0.72819  0.89701  Biso   1.000  Hf
  Hf14     1.0000 0.72289  0.77108  0.60460  Biso   1.000  Hf
  Hf15     1.0000 0.71974  0.97829  0.85499  Biso   1.000  Hf
  O25      1.0000 0.07278  0.66890  0.58053  Biso   1.000  O 
  O26      1.0000 0.06908  0.57999  0.83086  Biso   1.000  O 
  O27      1.0000 0.92858  0.91886  0.67042  Biso   1.000  O 
  O28      1.0000 0.92274  0.83052  0.92050  Biso   1.000  O 
  O29      1.0000 0.55256  0.62857  0.74121  Biso   1.000  O 
  O30      1.0000 0.55083  0.62130  0.99121  Biso   1.000  O 
  O31      1.0000 0.44934  0.87856  0.50942  Biso   1.000  O 
  O32      1.0000 0.44525  0.87047  0.75995  Biso   1.000  O 
