data_image0
_cell_length_a       10.1281
_cell_length_b       10.3245
_cell_length_c       5.23846
_cell_angle_alpha    90
_cell_angle_beta     80
_cell_angle_gamma    90

_symmetry_space_group_name_H-M    "P 1"
_symmetry_int_tables_number       1

loop_
  _symmetry_equiv_pos_as_xyz
  'x, y, z'

loop_
  _atom_site_label
  _atom_site_occupancy
  _atom_site_fract_x
  _atom_site_fract_y
  _atom_site_fract_z
  _atom_site_thermal_displace_type
  _atom_site_B_iso_or_equiv
  _atom_site_type_symbol
  Hf1      1.0000 0.13571  0.02075  0.29869  Biso   1.000  Hf
  Hf2      1.0000 0.13695  0.22874  0.79656  Biso   1.000  Hf
  Hf3      1.0000 0.35845  0.27536  0.21017  Biso   1.000  Hf
  Hf4      1.0000 0.35370  0.47457  0.70058  Biso   1.000  Hf
  O1       1.0000 0.03464  0.17007  0.16353  Biso   1.000  O 
  O2       1.0000 0.03425  0.07901  0.66210  Biso   1.000  O 
  O3       1.0000 0.45843  0.42743  0.32849  Biso   1.000  O 
  O4       1.0000 0.47161  0.33989  0.84890  Biso   1.000  O 
  O5       1.0000 0.27856  0.12951  0.49070  Biso   1.000  O 
  O6       1.0000 0.27046  0.11168  0.99467  Biso   1.000  O 
  O7       1.0000 0.22081  0.38085  0.01686  Biso   1.000  O 
  O8       1.0000 0.20895  0.37455  0.50978  Biso   1.000  O 
  Hf5      1.0000 0.13434  0.52219  0.28945  Biso   1.000  Hf
  Hf6      1.0000 0.13185  0.72521  0.79551  Biso   1.000  Hf
  Hf7      1.0000 0.35700  0.76851  0.21146  Biso   1.000  Hf
  Hf8      1.0000 0.35357  0.96684  0.71846  Biso   1.000  Hf
  O9       1.0000 0.02964  0.67043  0.16044  Biso   1.000  O 
  O10      1.0000 0.02976  0.58060  0.65976  Biso   1.000  O 
  O11      1.0000 0.45808  0.91764  0.34522  Biso   1.000  O 
  O12      1.0000 0.45809  0.82397  0.84461  Biso   1.000  O 
  O13      1.0000 0.27122  0.62844  0.48260  Biso   1.000  O 
  O14      1.0000 0.26966  0.61668  0.98129  Biso   1.000  O 
  O15      1.0000 0.21855  0.87631  0.02567  Biso   1.000  O 
  O16      1.0000 0.21694  0.86847  0.52368  Biso   1.000  O 
  Hf9      1.0000 0.63691  0.01992  0.29194  Biso   1.000  Hf
  Hf10     1.0000 0.64380  0.22609  0.79824  Biso   1.000  Hf
  Hf11     1.0000 0.86033  0.27158  0.21158  Biso   1.000  Hf
  Hf12     1.0000 0.85796  0.47630  0.71006  Biso   1.000  Hf
  O17      1.0000 0.53402  0.16811  0.15821  Biso   1.000  O 
  O18      1.0000 0.53813  0.07009  0.67375  Biso   1.000  O 
  O19      1.0000 0.95939  0.42108  0.33859  Biso   1.000  O 
  O20      1.0000 0.96026  0.32876  0.84150  Biso   1.000  O 
  O21      1.0000 0.77469  0.12781  0.48232  Biso   1.000  O 
  O22      1.0000 0.77596  0.11661  0.98510  Biso   1.000  O 
  O23      1.0000 0.72286  0.37906  0.02346  Biso   1.000  O 
  O24      1.0000 0.72109  0.36954  0.52183  Biso   1.000  O 
  Hf13     1.0000 0.63564  0.52209  0.29344  Biso   1.000  Hf
  Hf14     1.0000 0.63403  0.72428  0.79248  Biso   1.000  Hf
  Hf15     1.0000 0.85564  0.77138  0.20933  Biso   1.000  Hf
  Hf16     1.0000 0.85604  0.97578  0.70994  Biso   1.000  Hf
  O25      1.0000 0.53391  0.67085  0.16151  Biso   1.000  O 
  O26      1.0000 0.53008  0.57987  0.65847  Biso   1.000  O 
  O27      1.0000 0.95917  0.91926  0.33955  Biso   1.000  O 
  O28      1.0000 0.95767  0.82870  0.84152  Biso   1.000  O 
  O29      1.0000 0.77253  0.62847  0.48273  Biso   1.000  O 
  O30      1.0000 0.77087  0.61742  0.98234  Biso   1.000  O 
  O31      1.0000 0.71884  0.88016  0.02048  Biso   1.000  O 
  O32      1.0000 0.71832  0.86932  0.52068  Biso   1.000  O 
  Ni1      1.0000 0.40757  0.21184  0.65793  Biso   1.000  Ni
