data_image0
_cell_length_a       5.0644
_cell_length_b       10.3173
_cell_length_c       10.4795
_cell_angle_alpha    90
_cell_angle_beta     80
_cell_angle_gamma    90

_symmetry_space_group_name_H-M    "P 1"
_symmetry_int_tables_number       1

loop_
  _symmetry_equiv_pos_as_xyz
  'x, y, z'

loop_
  _atom_site_label
  _atom_site_occupancy
  _atom_site_fract_x
  _atom_site_fract_y
  _atom_site_fract_z
  _atom_site_thermal_displace_type
  _atom_site_B_iso_or_equiv
  _atom_site_type_symbol
  Hf1      1.0000 0.27421  0.02170  0.14735  Biso   1.000  Hf
  Hf2      1.0000 0.29200  0.22860  0.40058  Biso   1.000  Hf
  Hf3      1.0000 0.71534  0.27589  0.10177  Biso   1.000  Hf
  Hf4      1.0000 0.70955  0.47362  0.34905  Biso   1.000  Hf
  O1       1.0000 0.06619  0.16901  0.08008  Biso   1.000  O 
  O2       1.0000 0.08047  0.07124  0.33685  Biso   1.000  O 
  O3       1.0000 0.91068  0.43070  0.15991  Biso   1.000  O 
  O4       1.0000 0.94234  0.33908  0.42604  Biso   1.000  O 
  O5       1.0000 0.56062  0.12947  0.24312  Biso   1.000  O 
  O6       1.0000 0.54753  0.10895  0.49790  Biso   1.000  O 
  O7       1.0000 0.43888  0.38224  0.00693  Biso   1.000  O 
  O8       1.0000 0.41699  0.37518  0.25503  Biso   1.000  O 
  Hf5      1.0000 0.26728  0.01471  0.64860  Biso   1.000  Hf
  Hf6      1.0000 0.26608  0.22207  0.89748  Biso   1.000  Hf
  Hf7      1.0000 0.71644  0.26625  0.60925  Biso   1.000  Hf
  Hf8      1.0000 0.70958  0.47265  0.85585  Biso   1.000  Hf
  O9       1.0000 0.06682  0.16487  0.58155  Biso   1.000  O 
  O10      1.0000 0.06083  0.07432  0.83119  Biso   1.000  O 
  O11      1.0000 0.92062  0.41288  0.67323  Biso   1.000  O 
  O12      1.0000 0.91659  0.32376  0.91893  Biso   1.000  O 
  O13      1.0000 0.54410  0.12372  0.74401  Biso   1.000  O 
  O14      1.0000 0.53999  0.11442  0.99314  Biso   1.000  O 
  O15      1.0000 0.44540  0.37346  0.51350  Biso   1.000  O 
  O16      1.0000 0.43769  0.36481  0.76067  Biso   1.000  O 
  Hf9      1.0000 0.26744  0.52349  0.14429  Biso   1.000  Hf
  Hf10     1.0000 0.26648  0.72173  0.39689  Biso   1.000  Hf
  Hf11     1.0000 0.71178  0.77175  0.10454  Biso   1.000  Hf
  Hf12     1.0000 0.70950  0.96615  0.35879  Biso   1.000  Hf
  O17      1.0000 0.06438  0.67531  0.08032  Biso   1.000  O 
  O18      1.0000 0.05600  0.58046  0.32767  Biso   1.000  O 
  O19      1.0000 0.91812  0.91978  0.17209  Biso   1.000  O 
  O20      1.0000 0.91654  0.82356  0.42284  Biso   1.000  O 
  O21      1.0000 0.54241  0.62953  0.24103  Biso   1.000  O 
  O22      1.0000 0.53884  0.61372  0.49075  Biso   1.000  O 
  O23      1.0000 0.43705  0.88193  0.01140  Biso   1.000  O 
  O24      1.0000 0.43503  0.86861  0.26124  Biso   1.000  O 
  Hf13     1.0000 0.26785  0.51616  0.64741  Biso   1.000  Hf
  Hf14     1.0000 0.26020  0.72314  0.89763  Biso   1.000  Hf
  Hf15     1.0000 0.70858  0.76399  0.60634  Biso   1.000  Hf
  Hf16     1.0000 0.70405  0.97261  0.85626  Biso   1.000  Hf
  O25      1.0000 0.05753  0.66151  0.58108  Biso   1.000  O 
  O26      1.0000 0.05862  0.57536  0.83164  Biso   1.000  O 
  O27      1.0000 0.91133  0.91275  0.67129  Biso   1.000  O 
  O28      1.0000 0.91059  0.82522  0.92110  Biso   1.000  O 
  O29      1.0000 0.54045  0.62280  0.74190  Biso   1.000  O 
  O30      1.0000 0.53744  0.61560  0.99118  Biso   1.000  O 
  O31      1.0000 0.43235  0.87027  0.51231  Biso   1.000  O 
  O32      1.0000 0.43076  0.86498  0.76168  Biso   1.000  O 
  Ni1      1.0000 0.81991  0.21278  0.32633  Biso   1.000  Ni
