data_image0
_cell_length_a       10.0876
_cell_length_b       10.2339
_cell_length_c       10.4388
_cell_angle_alpha    90
_cell_angle_beta     80
_cell_angle_gamma    90

_symmetry_space_group_name_H-M    "P 1"
_symmetry_int_tables_number       1

loop_
  _symmetry_equiv_pos_as_xyz
  'x, y, z'

loop_
  _atom_site_label
  _atom_site_occupancy
  _atom_site_fract_x
  _atom_site_fract_y
  _atom_site_fract_z
  _atom_site_thermal_displace_type
  _atom_site_B_iso_or_equiv
  _atom_site_type_symbol
  Ni1      1.0000 0.12106  0.00962  0.17158  Biso   1.000  Ni
  Hf1      1.0000 0.12963  0.01929  0.64408  Biso   1.000  Hf
  Hf2      1.0000 0.14132  0.52264  0.14613  Biso   1.000  Hf
  Hf3      1.0000 0.13580  0.51933  0.64805  Biso   1.000  Hf
  Hf4      1.0000 0.63636  0.02194  0.14560  Biso   1.000  Hf
  Hf5      1.0000 0.63061  0.02033  0.64784  Biso   1.000  Hf
  Hf6      1.0000 0.63899  0.52016  0.14509  Biso   1.000  Hf
  Hf7      1.0000 0.63419  0.51999  0.64850  Biso   1.000  Hf
  Hf8      1.0000 0.13631  0.22845  0.39077  Biso   1.000  Hf
  Hf9      1.0000 0.13430  0.22089  0.89845  Biso   1.000  Hf
  Hf10     1.0000 0.13585  0.72724  0.39820  Biso   1.000  Hf
  Hf11     1.0000 0.13275  0.73073  0.89813  Biso   1.000  Hf
  Hf12     1.0000 0.63524  0.22808  0.39632  Biso   1.000  Hf
  Hf13     1.0000 0.63131  0.22883  0.89888  Biso   1.000  Hf
  Hf14     1.0000 0.63761  0.72716  0.39647  Biso   1.000  Hf
  Hf15     1.0000 0.63058  0.72751  0.89920  Biso   1.000  Hf
  Hf16     1.0000 0.35890  0.26814  0.10064  Biso   1.000  Hf
  Hf17     1.0000 0.35507  0.27070  0.60424  Biso   1.000  Hf
  Hf18     1.0000 0.35958  0.77756  0.10320  Biso   1.000  Hf
  Hf19     1.0000 0.35886  0.77109  0.60587  Biso   1.000  Hf
  Hf20     1.0000 0.86957  0.26485  0.10776  Biso   1.000  Hf
  Hf21     1.0000 0.85584  0.27001  0.60545  Biso   1.000  Hf
  Hf22     1.0000 0.86564  0.77115  0.10378  Biso   1.000  Hf
  Hf23     1.0000 0.85649  0.76859  0.60768  Biso   1.000  Hf
  Hf24     1.0000 0.36068  0.47861  0.35373  Biso   1.000  Hf
  Hf25     1.0000 0.35370  0.47829  0.85644  Biso   1.000  Hf
  Hf26     1.0000 0.36072  0.97851  0.35153  Biso   1.000  Hf
  Hf27     1.0000 0.35660  0.98273  0.85667  Biso   1.000  Hf
  Hf28     1.0000 0.85915  0.47787  0.35457  Biso   1.000  Hf
  Hf29     1.0000 0.85724  0.47476  0.85925  Biso   1.000  Hf
  Hf30     1.0000 0.85900  0.97565  0.35679  Biso   1.000  Hf
  Hf31     1.0000 0.85698  0.97792  0.85589  Biso   1.000  Hf
  O1       1.0000 0.04690  0.15235  0.08553  Biso   1.000  O 
  O2       1.0000 0.02786  0.16221  0.57169  Biso   1.000  O 
  O3       1.0000 0.03965  0.67015  0.08079  Biso   1.000  O 
  O4       1.0000 0.03169  0.66544  0.58153  Biso   1.000  O 
  O5       1.0000 0.53658  0.16977  0.08026  Biso   1.000  O 
  O6       1.0000 0.53015  0.16858  0.58038  Biso   1.000  O 
  O7       1.0000 0.53709  0.67017  0.08013  Biso   1.000  O 
  O8       1.0000 0.53316  0.66826  0.58037  Biso   1.000  O 
  O9       1.0000 0.03217  0.07727  0.32481  Biso   1.000  O 
  O10      1.0000 0.02568  0.08089  0.82738  Biso   1.000  O 
  O11      1.0000 0.03556  0.57896  0.33138  Biso   1.000  O 
  O12      1.0000 0.03121  0.58032  0.83344  Biso   1.000  O 
  O13      1.0000 0.52916  0.08184  0.32961  Biso   1.000  O 
  O14      1.0000 0.53047  0.07954  0.83138  Biso   1.000  O 
  O15      1.0000 0.53673  0.57857  0.33092  Biso   1.000  O 
  O16      1.0000 0.52837  0.58229  0.83015  Biso   1.000  O 
  O17      1.0000 0.46418  0.41895  0.16999  Biso   1.000  O 
  O18      1.0000 0.45869  0.41785  0.67158  Biso   1.000  O 
  O19      1.0000 0.46724  0.91800  0.17163  Biso   1.000  O 
  O20      1.0000 0.46171  0.91912  0.67044  Biso   1.000  O 
  O21      1.0000 0.96815  0.41662  0.17181  Biso   1.000  O 
  O22      1.0000 0.96207  0.41288  0.67548  Biso   1.000  O 
  O23      1.0000 0.96961  0.92022  0.17293  Biso   1.000  O 
  O24      1.0000 0.96138  0.91522  0.67234  Biso   1.000  O 
  O25      1.0000 0.46128  0.33108  0.42087  Biso   1.000  O 
  O26      1.0000 0.46150  0.33684  0.92387  Biso   1.000  O 
  O27      1.0000 0.46254  0.82972  0.41893  Biso   1.000  O 
  O28      1.0000 0.45383  0.83038  0.92218  Biso   1.000  O 
  O29      1.0000 0.96066  0.32884  0.41996  Biso   1.000  O 
  O30      1.0000 0.96009  0.32649  0.92966  Biso   1.000  O 
  O31      1.0000 0.96194  0.82963  0.42360  Biso   1.000  O 
  O32      1.0000 0.95710  0.82958  0.92288  Biso   1.000  O 
  O33      1.0000 0.26224  0.11839  0.22867  Biso   1.000  O 
  O34      1.0000 0.26675  0.12554  0.73392  Biso   1.000  O 
  O35      1.0000 0.27687  0.63361  0.24210  Biso   1.000  O 
  O36      1.0000 0.27163  0.62856  0.74185  Biso   1.000  O 
  O37      1.0000 0.77302  0.12629  0.24247  Biso   1.000  O 
  O38      1.0000 0.77037  0.12852  0.74140  Biso   1.000  O 
  O39      1.0000 0.77782  0.62837  0.24076  Biso   1.000  O 
  O40      1.0000 0.77233  0.62630  0.74417  Biso   1.000  O 
  O41      1.0000 0.27202  0.12200  0.48418  Biso   1.000  O 
  O42      1.0000 0.28685  0.13699  0.97213  Biso   1.000  O 
  O43      1.0000 0.27449  0.61961  0.49219  Biso   1.000  O 
  O44      1.0000 0.26843  0.62421  0.99255  Biso   1.000  O 
  O45      1.0000 0.77191  0.11910  0.49129  Biso   1.000  O 
  O46      1.0000 0.76742  0.11903  0.99384  Biso   1.000  O 
  O47      1.0000 0.77428  0.61912  0.49237  Biso   1.000  O 
  O48      1.0000 0.76917  0.61950  0.99334  Biso   1.000  O 
  O49      1.0000 0.22589  0.38342  0.00897  Biso   1.000  O 
  O50      1.0000 0.21794  0.37750  0.50886  Biso   1.000  O 
  O51      1.0000 0.22472  0.89776  0.01682  Biso   1.000  O 
  O52      1.0000 0.22224  0.87794  0.50857  Biso   1.000  O 
  O53      1.0000 0.73095  0.37750  0.01180  Biso   1.000  O 
  O54      1.0000 0.71966  0.37745  0.51128  Biso   1.000  O 
  O55      1.0000 0.72747  0.87973  0.01006  Biso   1.000  O 
  O56      1.0000 0.72024  0.87691  0.51118  Biso   1.000  O 
  O57      1.0000 0.22506  0.36891  0.25875  Biso   1.000  O 
  O58      1.0000 0.21839  0.36764  0.76155  Biso   1.000  O 
  O59      1.0000 0.21269  0.87486  0.25764  Biso   1.000  O 
  O60      1.0000 0.21958  0.87018  0.76193  Biso   1.000  O 
  O61      1.0000 0.72518  0.36837  0.25987  Biso   1.000  O 
  O62      1.0000 0.71866  0.37061  0.76256  Biso   1.000  O 
  O63      1.0000 0.72824  0.87027  0.25960  Biso   1.000  O 
  O64      1.0000 0.71889  0.86927  0.76195  Biso   1.000  O 
