data_image0
_cell_length_a       10.0003
_cell_length_b       10.4194
_cell_length_c       5.02268
_cell_angle_alpha    90
_cell_angle_beta     90
_cell_angle_gamma    90

_symmetry_space_group_name_H-M    "P 1"
_symmetry_int_tables_number       1

loop_
  _symmetry_equiv_pos_as_xyz
  'x, y, z'

loop_
  _atom_site_label
  _atom_site_occupancy
  _atom_site_fract_x
  _atom_site_fract_y
  _atom_site_fract_z
  _atom_site_thermal_displace_type
  _atom_site_B_iso_or_equiv
  _atom_site_type_symbol
  Hf1      1.0000 0.13791  0.01734  0.25299  Biso   1.000  Hf
  Hf2      1.0000 0.13889  0.22659  0.76792  Biso   1.000  Hf
  Hf3      1.0000 0.36993  0.26477  0.25526  Biso   1.000  Hf
  Hf4      1.0000 0.37076  0.48391  0.75420  Biso   1.000  Hf
  O1       1.0000 0.02037  0.16891  0.42587  Biso   1.000  O 
  O2       1.0000 0.04091  0.06180  0.90067  Biso   1.000  O 
  O3       1.0000 0.46718  0.43400  0.39293  Biso   1.000  O 
  O4       1.0000 0.46854  0.31736  0.89196  Biso   1.000  O 
  O5       1.0000 0.27163  0.11621  0.50498  Biso   1.000  O 
  O6       1.0000 0.28826  0.12531  0.99696  Biso   1.000  O 
  O7       1.0000 0.22794  0.38179  0.01727  Biso   1.000  O 
  O8       1.0000 0.23755  0.36968  0.52079  Biso   1.000  O 
  Hf5      1.0000 0.13600  0.53094  0.25232  Biso   1.000  Hf
  Hf6      1.0000 0.13872  0.73766  0.75293  Biso   1.000  Hf
  Hf7      1.0000 0.36982  0.76744  0.25161  Biso   1.000  Hf
  Hf8      1.0000 0.37170  0.98231  0.75178  Biso   1.000  Hf
  O9       1.0000 0.03644  0.68759  0.39412  Biso   1.000  O 
  O10      1.0000 0.04169  0.56864  0.88860  Biso   1.000  O 
  O11      1.0000 0.46644  0.93354  0.38556  Biso   1.000  O 
  O12      1.0000 0.47076  0.81645  0.88903  Biso   1.000  O 
  O13      1.0000 0.27557  0.62155  0.50214  Biso   1.000  O 
  O14      1.0000 0.27660  0.63513  0.99877  Biso   1.000  O 
  O15      1.0000 0.22973  0.88034  0.00086  Biso   1.000  O 
  O16      1.0000 0.23361  0.86841  0.49936  Biso   1.000  O 
  Hf9      1.0000 0.63565  0.01470  0.24633  Biso   1.000  Hf
  Hf10     1.0000 0.63652  0.23299  0.74740  Biso   1.000  Hf
  Hf11     1.0000 0.85810  0.26525  0.24135  Biso   1.000  Hf
  Hf12     1.0000 0.87140  0.48323  0.74673  Biso   1.000  Hf
  O17      1.0000 0.53774  0.18194  0.38986  Biso   1.000  O 
  O18      1.0000 0.54373  0.06522  0.88482  Biso   1.000  O 
  O19      1.0000 0.96653  0.43412  0.37655  Biso   1.000  O 
  O20      1.0000 0.96032  0.31607  0.86404  Biso   1.000  O 
  O21      1.0000 0.76852  0.11528  0.49389  Biso   1.000  O 
  O22      1.0000 0.77494  0.13298  0.99213  Biso   1.000  O 
  O23      1.0000 0.73160  0.38314  0.99532  Biso   1.000  O 
  O24      1.0000 0.73069  0.36831  0.49497  Biso   1.000  O 
  Hf13     1.0000 0.63529  0.51694  0.24992  Biso   1.000  Hf
  Hf14     1.0000 0.63926  0.73286  0.74913  Biso   1.000  Hf
  Hf15     1.0000 0.86602  0.76687  0.24703  Biso   1.000  Hf
  Hf16     1.0000 0.87099  0.98408  0.74322  Biso   1.000  Hf
  O25      1.0000 0.53913  0.68423  0.38816  Biso   1.000  O 
  O26      1.0000 0.54053  0.56700  0.88834  Biso   1.000  O 
  O27      1.0000 0.96738  0.92977  0.38996  Biso   1.000  O 
  O28      1.0000 0.96816  0.81677  0.88757  Biso   1.000  O 
  O29      1.0000 0.77325  0.61685  0.49451  Biso   1.000  O 
  O30      1.0000 0.77552  0.63288  0.99531  Biso   1.000  O 
  O31      1.0000 0.73622  0.88331  0.99458  Biso   1.000  O 
  O32      1.0000 0.73193  0.86681  0.49524  Biso   1.000  O 
  Ni1      1.0000 0.10869  0.29337  0.24671  Biso   1.000  Ni
