data_image0
_cell_length_a       10.0353
_cell_length_b       10.2833
_cell_length_c       5.24035
_cell_angle_alpha    90
_cell_angle_beta     90
_cell_angle_gamma    90

_symmetry_space_group_name_H-M    "P 1"
_symmetry_int_tables_number       1

loop_
  _symmetry_equiv_pos_as_xyz
  'x, y, z'

loop_
  _atom_site_label
  _atom_site_occupancy
  _atom_site_fract_x
  _atom_site_fract_y
  _atom_site_fract_z
  _atom_site_thermal_displace_type
  _atom_site_B_iso_or_equiv
  _atom_site_type_symbol
  Hf1      1.0000 0.13976  0.02124  0.34439  Biso   1.000  Hf
  Hf2      1.0000 0.13585  0.22995  0.84691  Biso   1.000  Hf
  Hf3      1.0000 0.35356  0.27212  0.35175  Biso   1.000  Hf
  Hf4      1.0000 0.36001  0.48253  0.84225  Biso   1.000  Hf
  Hf5      1.0000 0.64280  0.02266  0.15014  Biso   1.000  Hf
  Hf6      1.0000 0.63906  0.22627  0.66176  Biso   1.000  Hf
  Hf7      1.0000 0.85958  0.26888  0.16355  Biso   1.000  Hf
  Hf8      1.0000 0.86274  0.48141  0.66297  Biso   1.000  Hf
  O1       1.0000 0.03360  0.16500  0.17101  Biso   1.000  O 
  O2       1.0000 0.03440  0.08502  0.66763  Biso   1.000  O 
  O3       1.0000 0.46058  0.42718  0.18623  Biso   1.000  O 
  O4       1.0000 0.46519  0.33480  0.66950  Biso   1.000  O 
  O5       1.0000 0.27514  0.12582  0.59365  Biso   1.000  O 
  O6       1.0000 0.27615  0.12528  0.09086  Biso   1.000  O 
  O7       1.0000 0.22042  0.37567  0.59434  Biso   1.000  O 
  O8       1.0000 0.22274  0.37579  0.09067  Biso   1.000  O 
  O9       1.0000 0.52437  0.15788  0.33935  Biso   1.000  O 
  O10      1.0000 0.53647  0.07478  0.81604  Biso   1.000  O 
  O11      1.0000 0.96617  0.41575  0.33754  Biso   1.000  O 
  O12      1.0000 0.96445  0.33704  0.83881  Biso   1.000  O 
  O13      1.0000 0.78612  0.12118  0.90367  Biso   1.000  O 
  O14      1.0000 0.77735  0.12464  0.41364  Biso   1.000  O 
  O15      1.0000 0.71843  0.37447  0.92346  Biso   1.000  O 
  O16      1.0000 0.72534  0.38187  0.42587  Biso   1.000  O 
  Hf9      1.0000 0.13763  0.52145  0.34268  Biso   1.000  Hf
  Hf10     1.0000 0.13818  0.73091  0.84372  Biso   1.000  Hf
  Hf11     1.0000 0.36037  0.77300  0.34401  Biso   1.000  Hf
  Hf12     1.0000 0.35928  0.97969  0.84499  Biso   1.000  Hf
  Hf13     1.0000 0.64030  0.53037  0.16518  Biso   1.000  Hf
  Hf14     1.0000 0.63803  0.73296  0.65992  Biso   1.000  Hf
  Hf15     1.0000 0.86246  0.77230  0.15935  Biso   1.000  Hf
  Hf16     1.0000 0.86080  0.97881  0.65710  Biso   1.000  Hf
  O17      1.0000 0.03306  0.66470  0.16692  Biso   1.000  O 
  O18      1.0000 0.03305  0.58689  0.66616  Biso   1.000  O 
  O19      1.0000 0.46587  0.91652  0.16901  Biso   1.000  O 
  O20      1.0000 0.46325  0.83215  0.67251  Biso   1.000  O 
  O21      1.0000 0.27589  0.62431  0.58977  Biso   1.000  O 
  O22      1.0000 0.27661  0.62593  0.08946  Biso   1.000  O 
  O23      1.0000 0.22282  0.87519  0.59138  Biso   1.000  O 
  O24      1.0000 0.22232  0.87495  0.09186  Biso   1.000  O 
  O25      1.0000 0.53403  0.67156  0.33357  Biso   1.000  O 
  O26      1.0000 0.53400  0.58542  0.83389  Biso   1.000  O 
  O27      1.0000 0.96768  0.91534  0.33219  Biso   1.000  O 
  O28      1.0000 0.96658  0.83540  0.83372  Biso   1.000  O 
  O29      1.0000 0.77655  0.62666  0.91340  Biso   1.000  O 
  O30      1.0000 0.77737  0.62987  0.41471  Biso   1.000  O 
  O31      1.0000 0.72277  0.87477  0.91254  Biso   1.000  O 
  O32      1.0000 0.72356  0.87737  0.41065  Biso   1.000  O 
  Ni1      1.0000 0.58952  0.28521  0.12530  Biso   1.000  Ni
