data_image0
_cell_length_a       9.98961
_cell_length_b       10.1691
_cell_length_c       5.19836
_cell_angle_alpha    90
_cell_angle_beta     90
_cell_angle_gamma    90

_symmetry_space_group_name_H-M    "P 1"
_symmetry_int_tables_number       1

loop_
  _symmetry_equiv_pos_as_xyz
  'x, y, z'

loop_
  _atom_site_label
  _atom_site_occupancy
  _atom_site_fract_x
  _atom_site_fract_y
  _atom_site_fract_z
  _atom_site_thermal_displace_type
  _atom_site_B_iso_or_equiv
  _atom_site_type_symbol
  Ni1      1.0000 0.11929  0.00962  0.38294  Biso   1.000  Ni
  Hf1      1.0000 0.14222  0.52243  0.34602  Biso   1.000  Hf
  Hf2      1.0000 0.14126  0.22567  0.83483  Biso   1.000  Hf
  Hf3      1.0000 0.13727  0.73276  0.84692  Biso   1.000  Hf
  Hf4      1.0000 0.35904  0.27032  0.33241  Biso   1.000  Hf
  Hf5      1.0000 0.36167  0.77827  0.33813  Biso   1.000  Hf
  Hf6      1.0000 0.35890  0.47973  0.84258  Biso   1.000  Hf
  Hf7      1.0000 0.36066  0.98334  0.83916  Biso   1.000  Hf
  Hf8      1.0000 0.63625  0.02183  0.15422  Biso   1.000  Hf
  Hf9      1.0000 0.64348  0.51970  0.16221  Biso   1.000  Hf
  Hf10     1.0000 0.63610  0.22985  0.65879  Biso   1.000  Hf
  Hf11     1.0000 0.63756  0.72756  0.65797  Biso   1.000  Hf
  Hf12     1.0000 0.87129  0.26341  0.16981  Biso   1.000  Hf
  Hf13     1.0000 0.86692  0.77022  0.16127  Biso   1.000  Hf
  Hf14     1.0000 0.86308  0.47608  0.66787  Biso   1.000  Hf
  Hf15     1.0000 0.86155  0.97728  0.66113  Biso   1.000  Hf
  O1       1.0000 0.04862  0.14855  0.17276  Biso   1.000  O 
  O2       1.0000 0.03908  0.66768  0.17480  Biso   1.000  O 
  O3       1.0000 0.03115  0.07976  0.65598  Biso   1.000  O 
  O4       1.0000 0.03553  0.58199  0.67951  Biso   1.000  O 
  O5       1.0000 0.46795  0.41977  0.17250  Biso   1.000  O 
  O6       1.0000 0.47355  0.91890  0.16559  Biso   1.000  O 
  O7       1.0000 0.46408  0.33188  0.67036  Biso   1.000  O 
  O8       1.0000 0.46277  0.83203  0.66985  Biso   1.000  O 
  O9       1.0000 0.26140  0.11319  0.54250  Biso   1.000  O 
  O10      1.0000 0.27699  0.62781  0.58979  Biso   1.000  O 
  O11      1.0000 0.30547  0.14994  0.03240  Biso   1.000  O 
  O12      1.0000 0.28277  0.63263  0.08894  Biso   1.000  O 
  O13      1.0000 0.22416  0.37237  0.59032  Biso   1.000  O 
  O14      1.0000 0.21497  0.87774  0.58312  Biso   1.000  O 
  O15      1.0000 0.22227  0.38284  0.08780  Biso   1.000  O 
  O16      1.0000 0.22501  0.89199  0.09583  Biso   1.000  O 
  O17      1.0000 0.53549  0.17058  0.32337  Biso   1.000  O 
  O18      1.0000 0.53690  0.67029  0.32494  Biso   1.000  O 
  O19      1.0000 0.53237  0.07755  0.81504  Biso   1.000  O 
  O20      1.0000 0.53453  0.58032  0.82682  Biso   1.000  O 
  O21      1.0000 0.97172  0.41182  0.34336  Biso   1.000  O 
  O22      1.0000 0.97297  0.91927  0.33467  Biso   1.000  O 
  O23      1.0000 0.96615  0.32615  0.84476  Biso   1.000  O 
  O24      1.0000 0.96393  0.83210  0.83480  Biso   1.000  O 
  O25      1.0000 0.77392  0.12162  0.91367  Biso   1.000  O 
  O26      1.0000 0.77643  0.62239  0.91739  Biso   1.000  O 
  O27      1.0000 0.77572  0.12491  0.41226  Biso   1.000  O 
  O28      1.0000 0.77995  0.62448  0.41795  Biso   1.000  O 
  O29      1.0000 0.72434  0.37107  0.92019  Biso   1.000  O 
  O30      1.0000 0.72197  0.87147  0.91126  Biso   1.000  O 
  O31      1.0000 0.72793  0.37432  0.41665  Biso   1.000  O 
  O32      1.0000 0.73043  0.87582  0.41189  Biso   1.000  O 
