data_image0
_cell_length_a       10.1245
_cell_length_b       5.16295
_cell_length_c       10.4789
_cell_angle_alpha    90
_cell_angle_beta     80
_cell_angle_gamma    90

_symmetry_space_group_name_H-M    "P 1"
_symmetry_int_tables_number       1

loop_
  _symmetry_equiv_pos_as_xyz
  'x, y, z'

loop_
  _atom_site_label
  _atom_site_occupancy
  _atom_site_fract_x
  _atom_site_fract_y
  _atom_site_fract_z
  _atom_site_thermal_displace_type
  _atom_site_B_iso_or_equiv
  _atom_site_type_symbol
  Hf1      1.0000 0.13544  0.04666  0.14592  Biso   1.000  Hf
  Hf2      1.0000 0.13623  0.45319  0.39840  Biso   1.000  Hf
  Hf3      1.0000 0.35865  0.55040  0.10224  Biso   1.000  Hf
  Hf4      1.0000 0.35202  0.92679  0.35319  Biso   1.000  Hf
  O1       1.0000 0.03266  0.34532  0.08061  Biso   1.000  O 
  O2       1.0000 0.03258  0.16210  0.32909  Biso   1.000  O 
  O3       1.0000 0.45676  0.85807  0.16403  Biso   1.000  O 
  O4       1.0000 0.47037  0.66946  0.42790  Biso   1.000  O 
  O5       1.0000 0.27732  0.26044  0.24317  Biso   1.000  O 
  O6       1.0000 0.26938  0.21548  0.49525  Biso   1.000  O 
  O7       1.0000 0.22009  0.76561  0.00812  Biso   1.000  O 
  O8       1.0000 0.20718  0.74902  0.25642  Biso   1.000  O 
  Hf5      1.0000 0.13375  0.03112  0.64868  Biso   1.000  Hf
  Hf6      1.0000 0.13137  0.44646  0.89837  Biso   1.000  Hf
  Hf7      1.0000 0.35584  0.52968  0.60965  Biso   1.000  Hf
  Hf8      1.0000 0.35383  0.94619  0.85659  Biso   1.000  Hf
  O9       1.0000 0.03092  0.32757  0.58181  Biso   1.000  O 
  O10      1.0000 0.03024  0.14962  0.83217  Biso   1.000  O 
  O11      1.0000 0.45882  0.82391  0.67321  Biso   1.000  O 
  O12      1.0000 0.45817  0.65093  0.92011  Biso   1.000  O 
  O13      1.0000 0.27163  0.24714  0.74376  Biso   1.000  O 
  O14      1.0000 0.26925  0.23167  0.99281  Biso   1.000  O 
  O15      1.0000 0.21864  0.73953  0.51474  Biso   1.000  O 
  O16      1.0000 0.21762  0.73008  0.76158  Biso   1.000  O 
  Hf9      1.0000 0.63714  0.04442  0.14516  Biso   1.000  Hf
  Hf10     1.0000 0.64378  0.44821  0.39879  Biso   1.000  Hf
  Hf11     1.0000 0.85763  0.54471  0.10440  Biso   1.000  Hf
  Hf12     1.0000 0.85917  0.95084  0.35433  Biso   1.000  Hf
  O17      1.0000 0.53508  0.34379  0.07919  Biso   1.000  O 
  O18      1.0000 0.53704  0.14092  0.33484  Biso   1.000  O 
  O19      1.0000 0.95943  0.84437  0.16758  Biso   1.000  O 
  O20      1.0000 0.96062  0.65868  0.42201  Biso   1.000  O 
  O21      1.0000 0.77484  0.25733  0.24078  Biso   1.000  O 
  O22      1.0000 0.77545  0.23054  0.49235  Biso   1.000  O 
  O23      1.0000 0.72057  0.76264  0.01039  Biso   1.000  O 
  O24      1.0000 0.72082  0.73878  0.26044  Biso   1.000  O 
  Hf13     1.0000 0.63447  0.03168  0.64741  Biso   1.000  Hf
  Hf14     1.0000 0.63251  0.44527  0.89672  Biso   1.000  Hf
  Hf15     1.0000 0.85755  0.53318  0.60645  Biso   1.000  Hf
  Hf16     1.0000 0.85389  0.94543  0.85604  Biso   1.000  Hf
  O25      1.0000 0.53187  0.32527  0.58042  Biso   1.000  O 
  O26      1.0000 0.53003  0.15130  0.83070  Biso   1.000  O 
  O27      1.0000 0.95832  0.82799  0.67210  Biso   1.000  O 
  O28      1.0000 0.95617  0.64856  0.92034  Biso   1.000  O 
  O29      1.0000 0.77122  0.24723  0.74184  Biso   1.000  O 
  O30      1.0000 0.76990  0.22953  0.99151  Biso   1.000  O 
  O31      1.0000 0.72050  0.74773  0.51179  Biso   1.000  O 
  O32      1.0000 0.71760  0.73103  0.76124  Biso   1.000  O 
  Ni1      1.0000 0.40547  0.42027  0.32947  Biso   1.000  Ni
