data_image0
_cell_length_a       10.0716
_cell_length_b       10.1874
_cell_length_c       5.21219
_cell_angle_alpha    90
_cell_angle_beta     80
_cell_angle_gamma    90

_symmetry_space_group_name_H-M    "P 1"
_symmetry_int_tables_number       1

loop_
  _symmetry_equiv_pos_as_xyz
  'x, y, z'

loop_
  _atom_site_label
  _atom_site_occupancy
  _atom_site_fract_x
  _atom_site_fract_y
  _atom_site_fract_z
  _atom_site_thermal_displace_type
  _atom_site_B_iso_or_equiv
  _atom_site_type_symbol
  Ni1      1.0000 0.11905  0.00817  0.33641  Biso   1.000  Ni
  Hf1      1.0000 0.14496  0.52182  0.29523  Biso   1.000  Hf
  Hf2      1.0000 0.63550  0.02162  0.29302  Biso   1.000  Hf
  Hf3      1.0000 0.64098  0.51944  0.29344  Biso   1.000  Hf
  Hf4      1.0000 0.13900  0.22237  0.78262  Biso   1.000  Hf
  Hf5      1.0000 0.13842  0.73118  0.79866  Biso   1.000  Hf
  Hf6      1.0000 0.63607  0.22925  0.79674  Biso   1.000  Hf
  Hf7      1.0000 0.63727  0.72717  0.79689  Biso   1.000  Hf
  Hf8      1.0000 0.35945  0.26852  0.19940  Biso   1.000  Hf
  Hf9      1.0000 0.36358  0.77848  0.20747  Biso   1.000  Hf
  Hf10     1.0000 0.87143  0.26408  0.21693  Biso   1.000  Hf
  Hf11     1.0000 0.86750  0.76927  0.21222  Biso   1.000  Hf
  Hf12     1.0000 0.36105  0.47937  0.71015  Biso   1.000  Hf
  Hf13     1.0000 0.36455  0.98357  0.70399  Biso   1.000  Hf
  Hf14     1.0000 0.86317  0.47546  0.71729  Biso   1.000  Hf
  Hf15     1.0000 0.86282  0.97589  0.71373  Biso   1.000  Hf
  O1       1.0000 0.04742  0.14685  0.15288  Biso   1.000  O 
  O2       1.0000 0.04177  0.66737  0.16226  Biso   1.000  O 
  O3       1.0000 0.53658  0.16909  0.15875  Biso   1.000  O 
  O4       1.0000 0.54013  0.66957  0.15830  Biso   1.000  O 
  O5       1.0000 0.02964  0.07868  0.64015  Biso   1.000  O 
  O6       1.0000 0.03885  0.58004  0.66756  Biso   1.000  O 
  O7       1.0000 0.53320  0.08066  0.65964  Biso   1.000  O 
  O8       1.0000 0.53667  0.58161  0.65855  Biso   1.000  O 
  O9       1.0000 0.46572  0.41739  0.34308  Biso   1.000  O 
  O10      1.0000 0.47198  0.91860  0.34289  Biso   1.000  O 
  O11      1.0000 0.97305  0.41150  0.35377  Biso   1.000  O 
  O12      1.0000 0.97299  0.91763  0.34587  Biso   1.000  O 
  O13      1.0000 0.46797  0.33938  0.84987  Biso   1.000  O 
  O14      1.0000 0.45984  0.83042  0.83983  Biso   1.000  O 
  O15      1.0000 0.96493  0.32557  0.85787  Biso   1.000  O 
  O16      1.0000 0.96321  0.82932  0.84936  Biso   1.000  O 
  O17      1.0000 0.25915  0.11570  0.44051  Biso   1.000  O 
  O18      1.0000 0.27921  0.63417  0.48508  Biso   1.000  O 
  O19      1.0000 0.77434  0.12677  0.48419  Biso   1.000  O 
  O20      1.0000 0.78064  0.62633  0.48660  Biso   1.000  O 
  O21      1.0000 0.29328  0.14171  0.92277  Biso   1.000  O 
  O22      1.0000 0.27499  0.62471  0.98606  Biso   1.000  O 
  O23      1.0000 0.77188  0.11842  0.98648  Biso   1.000  O 
  O24      1.0000 0.77504  0.61892  0.98754  Biso   1.000  O 
  O25      1.0000 0.22693  0.38338  0.01514  Biso   1.000  O 
  O26      1.0000 0.22916  0.89881  0.03032  Biso   1.000  O 
  O27      1.0000 0.73374  0.37638  0.02645  Biso   1.000  O 
  O28      1.0000 0.73021  0.87825  0.02107  Biso   1.000  O 
  O29      1.0000 0.22739  0.36665  0.51919  Biso   1.000  O 
  O30      1.0000 0.21623  0.87520  0.51610  Biso   1.000  O 
  O31      1.0000 0.72819  0.36911  0.52437  Biso   1.000  O 
  O32      1.0000 0.73096  0.86934  0.52167  Biso   1.000  O 
