data_image0
_cell_length_a       10.0028
_cell_length_b       5.10864
_cell_length_c       10.0027
_cell_angle_alpha    90
_cell_angle_beta     90
_cell_angle_gamma    90

_symmetry_space_group_name_H-M    "P 1"
_symmetry_int_tables_number       1

loop_
  _symmetry_equiv_pos_as_xyz
  'x, y, z'

loop_
  _atom_site_label
  _atom_site_occupancy
  _atom_site_fract_x
  _atom_site_fract_y
  _atom_site_fract_z
  _atom_site_thermal_displace_type
  _atom_site_B_iso_or_equiv
  _atom_site_type_symbol
  Ni1      1.0000 0.12403  0.08543  0.12088  Biso   1.000  Ni
  Hf1      1.0000 0.07665  0.99876  0.63754  Biso   1.000  Hf
  Hf2      1.0000 0.60472  0.01909  0.13853  Biso   1.000  Hf
  Hf3      1.0000 0.58817  0.98042  0.62655  Biso   1.000  Hf
  Hf4      1.0000 0.09023  0.45462  0.38735  Biso   1.000  Hf
  Hf5      1.0000 0.07947  0.47311  0.88763  Biso   1.000  Hf
  Hf6      1.0000 0.59553  0.48071  0.38374  Biso   1.000  Hf
  Hf7      1.0000 0.58182  0.46260  0.87999  Biso   1.000  Hf
  Hf8      1.0000 0.36026  0.50404  0.12720  Biso   1.000  Hf
  Hf9      1.0000 0.33990  0.47294  0.62425  Biso   1.000  Hf
  Hf10     1.0000 0.86006  0.46452  0.14399  Biso   1.000  Hf
  Hf11     1.0000 0.83625  0.47028  0.63829  Biso   1.000  Hf
  Hf12     1.0000 0.35200  0.97621  0.37000  Biso   1.000  Hf
  Hf13     1.0000 0.34390  0.96050  0.86797  Biso   1.000  Hf
  Hf14     1.0000 0.86218  0.95466  0.37776  Biso   1.000  Hf
  Hf15     1.0000 0.84160  0.95508  0.88769  Biso   1.000  Hf
  O1       1.0000 0.01616  0.32222  0.02508  Biso   1.000  O 
  O2       1.0000 0.96068  0.25767  0.50881  Biso   1.000  O 
  O3       1.0000 0.50374  0.31484  0.00571  Biso   1.000  O 
  O4       1.0000 0.46671  0.27066  0.49917  Biso   1.000  O 
  O5       1.0000 0.98477  0.15352  0.25332  Biso   1.000  O 
  O6       1.0000 0.95754  0.19327  0.76761  Biso   1.000  O 
  O7       1.0000 0.47030  0.21426  0.25242  Biso   1.000  O 
  O8       1.0000 0.46042  0.17986  0.74950  Biso   1.000  O 
  O9       1.0000 0.97320  0.66334  0.26967  Biso   1.000  O 
  O10      1.0000 0.97124  0.69023  0.75651  Biso   1.000  O 
  O11      1.0000 0.48740  0.71109  0.24488  Biso   1.000  O 
  O12      1.0000 0.47393  0.67160  0.74192  Biso   1.000  O 
  O13      1.0000 0.05364  0.84736  0.00466  Biso   1.000  O 
  O14      1.0000 0.99200  0.75679  0.50867  Biso   1.000  O 
  O15      1.0000 0.48970  0.77855  0.98219  Biso   1.000  O 
  O16      1.0000 0.48717  0.77727  0.49207  Biso   1.000  O 
  O17      1.0000 0.21617  0.31350  0.23657  Biso   1.000  O 
  O18      1.0000 0.20676  0.28445  0.74906  Biso   1.000  O 
  O19      1.0000 0.72949  0.26760  0.26438  Biso   1.000  O 
  O20      1.0000 0.71163  0.26001  0.75817  Biso   1.000  O 
  O21      1.0000 0.25251  0.18897  0.00048  Biso   1.000  O 
  O22      1.0000 0.20992  0.15858  0.49740  Biso   1.000  O 
  O23      1.0000 0.75379  0.17819  0.01511  Biso   1.000  O 
  O24      1.0000 0.71680  0.17775  0.50704  Biso   1.000  O 
  O25      1.0000 0.24758  0.63699  0.95568  Biso   1.000  O 
  O26      1.0000 0.25285  0.64501  0.45546  Biso   1.000  O 
  O27      1.0000 0.74728  0.62368  0.97824  Biso   1.000  O 
  O28      1.0000 0.73807  0.67562  0.49219  Biso   1.000  O 
  O29      1.0000 0.24416  0.83908  0.20612  Biso   1.000  O 
  O30      1.0000 0.23607  0.78937  0.71412  Biso   1.000  O 
  O31      1.0000 0.73666  0.76777  0.23871  Biso   1.000  O 
  O32      1.0000 0.72514  0.76690  0.74380  Biso   1.000  O 
