data_image0
_cell_length_a       4.95978
_cell_length_b       10.3535
_cell_length_c       9.96671
_cell_angle_alpha    90
_cell_angle_beta     90
_cell_angle_gamma    90

_symmetry_space_group_name_H-M    "P 1"
_symmetry_int_tables_number       1

loop_
  _symmetry_equiv_pos_as_xyz
  'x, y, z'

loop_
  _atom_site_label
  _atom_site_occupancy
  _atom_site_fract_x
  _atom_site_fract_y
  _atom_site_fract_z
  _atom_site_thermal_displace_type
  _atom_site_B_iso_or_equiv
  _atom_site_type_symbol
  Ni1      1.0000 0.25013  0.03928  0.10264  Biso   1.000  Ni
  Hf1      1.0000 0.28981  0.00825  0.62403  Biso   1.000  Hf
  Hf2      1.0000 0.26707  0.51441  0.12885  Biso   1.000  Hf
  Hf3      1.0000 0.28540  0.51122  0.62457  Biso   1.000  Hf
  Hf4      1.0000 0.28360  0.22263  0.37316  Biso   1.000  Hf
  Hf5      1.0000 0.28802  0.22924  0.87230  Biso   1.000  Hf
  Hf6      1.0000 0.28496  0.72996  0.37719  Biso   1.000  Hf
  Hf7      1.0000 0.28267  0.72736  0.87997  Biso   1.000  Hf
  Hf8      1.0000 0.72669  0.26101  0.12251  Biso   1.000  Hf
  Hf9      1.0000 0.75115  0.25898  0.62327  Biso   1.000  Hf
  Hf10     1.0000 0.74441  0.76443  0.12410  Biso   1.000  Hf
  Hf11     1.0000 0.74895  0.76247  0.62697  Biso   1.000  Hf
  Hf12     1.0000 0.74407  0.47701  0.37577  Biso   1.000  Hf
  Hf13     1.0000 0.75294  0.47861  0.87390  Biso   1.000  Hf
  Hf14     1.0000 0.74131  0.97859  0.36741  Biso   1.000  Hf
  Hf15     1.0000 0.72804  0.97493  0.87958  Biso   1.000  Hf
  O1       1.0000 0.07800  0.17781  0.18599  Biso   1.000  O 
  O2       1.0000 0.09235  0.17725  0.69556  Biso   1.000  O 
  O3       1.0000 0.07576  0.68149  0.19860  Biso   1.000  O 
  O4       1.0000 0.08633  0.67655  0.69805  Biso   1.000  O 
  O5       1.0000 0.09160  0.06067  0.44820  Biso   1.000  O 
  O6       1.0000 0.08850  0.05841  0.95029  Biso   1.000  O 
  O7       1.0000 0.08666  0.55873  0.44413  Biso   1.000  O 
  O8       1.0000 0.09108  0.55764  0.94971  Biso   1.000  O 
  O9       1.0000 0.93420  0.42346  0.19399  Biso   1.000  O 
  O10      1.0000 0.94560  0.42701  0.69294  Biso   1.000  O 
  O11      1.0000 0.96598  0.93821  0.18799  Biso   1.000  O 
  O12      1.0000 0.93652  0.92898  0.69932  Biso   1.000  O 
  O13      1.0000 0.94294  0.30743  0.44073  Biso   1.000  O 
  O14      1.0000 0.94187  0.30447  0.93921  Biso   1.000  O 
  O15      1.0000 0.94965  0.81380  0.45039  Biso   1.000  O 
  O16      1.0000 0.92973  0.80781  0.93717  Biso   1.000  O 
  O17      1.0000 0.52735  0.10098  0.24060  Biso   1.000  O 
  O18      1.0000 0.56313  0.11096  0.74980  Biso   1.000  O 
  O19      1.0000 0.54809  0.60411  0.24869  Biso   1.000  O 
  O20      1.0000 0.55543  0.61171  0.75148  Biso   1.000  O 
  O21      1.0000 0.56562  0.12635  0.49446  Biso   1.000  O 
  O22      1.0000 0.50413  0.13407  0.00056  Biso   1.000  O 
  O23      1.0000 0.55759  0.62704  0.50055  Biso   1.000  O 
  O24      1.0000 0.52218  0.63805  0.00111  Biso   1.000  O 
  O25      1.0000 0.47341  0.37466  0.49883  Biso   1.000  O 
  O26      1.0000 0.48625  0.37331  0.99811  Biso   1.000  O 
  O27      1.0000 0.47508  0.87813  0.50321  Biso   1.000  O 
  O28      1.0000 0.41805  0.89566  0.01314  Biso   1.000  O 
  O29      1.0000 0.46588  0.35821  0.24816  Biso   1.000  O 
  O30      1.0000 0.47758  0.36161  0.74806  Biso   1.000  O 
  O31      1.0000 0.51711  0.84588  0.26125  Biso   1.000  O 
  O32      1.0000 0.46751  0.86045  0.75433  Biso   1.000  O 
