data_image0
_cell_length_a       10.0025
_cell_length_b       10.2065
_cell_length_c       10.4214
_cell_angle_alpha    90
_cell_angle_beta     90
_cell_angle_gamma    90

_symmetry_space_group_name_H-M    "P 1"
_symmetry_int_tables_number       1

loop_
  _symmetry_equiv_pos_as_xyz
  'x, y, z'

loop_
  _atom_site_label
  _atom_site_occupancy
  _atom_site_fract_x
  _atom_site_fract_y
  _atom_site_fract_z
  _atom_site_thermal_displace_type
  _atom_site_B_iso_or_equiv
  _atom_site_type_symbol
  Ni1      1.0000 0.12121  0.01130  0.19494  Biso   1.000  Ni
  Hf1      1.0000 0.13279  0.02026  0.66790  Biso   1.000  Hf
  Hf2      1.0000 0.14026  0.52298  0.17100  Biso   1.000  Hf
  Hf3      1.0000 0.13700  0.52021  0.67303  Biso   1.000  Hf
  Hf4      1.0000 0.13812  0.23120  0.41556  Biso   1.000  Hf
  Hf5      1.0000 0.13941  0.22293  0.92387  Biso   1.000  Hf
  Hf6      1.0000 0.13569  0.72822  0.42228  Biso   1.000  Hf
  Hf7      1.0000 0.13650  0.73298  0.92215  Biso   1.000  Hf
  Hf8      1.0000 0.35896  0.26989  0.16695  Biso   1.000  Hf
  Hf9      1.0000 0.35761  0.27126  0.67027  Biso   1.000  Hf
  Hf10     1.0000 0.35885  0.77761  0.16870  Biso   1.000  Hf
  Hf11     1.0000 0.36030  0.77129  0.67156  Biso   1.000  Hf
  Hf12     1.0000 0.35959  0.47976  0.42094  Biso   1.000  Hf
  Hf13     1.0000 0.35692  0.47873  0.92152  Biso   1.000  Hf
  Hf14     1.0000 0.35932  0.98066  0.41826  Biso   1.000  Hf
  Hf15     1.0000 0.35863  0.98185  0.92227  Biso   1.000  Hf
  Hf16     1.0000 0.63923  0.02226  0.07702  Biso   1.000  Hf
  Hf17     1.0000 0.63193  0.02044  0.57892  Biso   1.000  Hf
  Hf18     1.0000 0.64118  0.52056  0.07925  Biso   1.000  Hf
  Hf19     1.0000 0.63722  0.52024  0.58046  Biso   1.000  Hf
  Hf20     1.0000 0.63585  0.22910  0.32836  Biso   1.000  Hf
  Hf21     1.0000 0.63545  0.22958  0.82968  Biso   1.000  Hf
  Hf22     1.0000 0.63601  0.72757  0.32767  Biso   1.000  Hf
  Hf23     1.0000 0.63666  0.72885  0.82993  Biso   1.000  Hf
  Hf24     1.0000 0.87028  0.26492  0.08417  Biso   1.000  Hf
  Hf25     1.0000 0.85796  0.26978  0.57901  Biso   1.000  Hf
  Hf26     1.0000 0.86627  0.77165  0.07883  Biso   1.000  Hf
  Hf27     1.0000 0.85811  0.76945  0.58056  Biso   1.000  Hf
  Hf28     1.0000 0.85988  0.47896  0.32939  Biso   1.000  Hf
  Hf29     1.0000 0.86094  0.47574  0.83306  Biso   1.000  Hf
  Hf30     1.0000 0.85825  0.97672  0.33076  Biso   1.000  Hf
  Hf31     1.0000 0.86080  0.97965  0.82887  Biso   1.000  Hf
  O1       1.0000 0.04793  0.15328  0.09466  Biso   1.000  O 
  O2       1.0000 0.02834  0.16090  0.57496  Biso   1.000  O 
  O3       1.0000 0.03783  0.66942  0.08622  Biso   1.000  O 
  O4       1.0000 0.03079  0.66424  0.58537  Biso   1.000  O 
  O5       1.0000 0.03347  0.07785  0.33248  Biso   1.000  O 
  O6       1.0000 0.02843  0.08489  0.83101  Biso   1.000  O 
  O7       1.0000 0.03292  0.58218  0.33604  Biso   1.000  O 
  O8       1.0000 0.03226  0.58319  0.83751  Biso   1.000  O 
  O9       1.0000 0.46754  0.41827  0.08597  Biso   1.000  O 
  O10      1.0000 0.46252  0.41926  0.58578  Biso   1.000  O 
  O11      1.0000 0.47233  0.91739  0.08381  Biso   1.000  O 
  O12      1.0000 0.46336  0.91870  0.58437  Biso   1.000  O 
  O13      1.0000 0.46189  0.32901  0.33768  Biso   1.000  O 
  O14      1.0000 0.46325  0.33350  0.83422  Biso   1.000  O 
  O15      1.0000 0.46105  0.83220  0.33474  Biso   1.000  O 
  O16      1.0000 0.46415  0.83224  0.83509  Biso   1.000  O 
  O17      1.0000 0.26411  0.11638  0.28007  Biso   1.000  O 
  O18      1.0000 0.27105  0.12105  0.78637  Biso   1.000  O 
  O19      1.0000 0.27553  0.62795  0.29469  Biso   1.000  O 
  O20      1.0000 0.27438  0.62347  0.79460  Biso   1.000  O 
  O21      1.0000 0.30202  0.14483  0.02593  Biso   1.000  O 
  O22      1.0000 0.27341  0.12862  0.53745  Biso   1.000  O 
  O23      1.0000 0.28080  0.63216  0.04373  Biso   1.000  O 
  O24      1.0000 0.27441  0.62582  0.54521  Biso   1.000  O 
  O25      1.0000 0.22311  0.37491  0.29411  Biso   1.000  O 
  O26      1.0000 0.22068  0.37170  0.79563  Biso   1.000  O 
  O27      1.0000 0.21314  0.87828  0.29125  Biso   1.000  O 
  O28      1.0000 0.22149  0.87338  0.79512  Biso   1.000  O 
  O29      1.0000 0.22234  0.38247  0.04478  Biso   1.000  O 
  O30      1.0000 0.21936  0.37578  0.54345  Biso   1.000  O 
  O31      1.0000 0.22298  0.88994  0.04858  Biso   1.000  O 
  O32      1.0000 0.22261  0.87614  0.54291  Biso   1.000  O 
  O33      1.0000 0.53548  0.16888  0.16341  Biso   1.000  O 
  O34      1.0000 0.53080  0.16924  0.66285  Biso   1.000  O 
  O35      1.0000 0.53385  0.66923  0.16330  Biso   1.000  O 
  O36      1.0000 0.53346  0.66848  0.66365  Biso   1.000  O 
  O37      1.0000 0.52928  0.08084  0.41206  Biso   1.000  O 
  O38      1.0000 0.53294  0.07956  0.91046  Biso   1.000  O 
  O39      1.0000 0.53314  0.58134  0.41366  Biso   1.000  O 
  O40      1.0000 0.53192  0.58119  0.91402  Biso   1.000  O 
  O41      1.0000 0.96831  0.41655  0.16703  Biso   1.000  O 
  O42      1.0000 0.96597  0.41123  0.66974  Biso   1.000  O 
  O43      1.0000 0.97082  0.92098  0.16819  Biso   1.000  O 
  O44      1.0000 0.96563  0.91423  0.66617  Biso   1.000  O 
  O45      1.0000 0.96337  0.33086  0.41393  Biso   1.000  O 
  O46      1.0000 0.96590  0.32901  0.92353  Biso   1.000  O 
  O47      1.0000 0.96364  0.83245  0.41741  Biso   1.000  O 
  O48      1.0000 0.96317  0.83357  0.91627  Biso   1.000  O 
  O49      1.0000 0.77397  0.12339  0.95663  Biso   1.000  O 
  O50      1.0000 0.77250  0.12210  0.45528  Biso   1.000  O 
  O51      1.0000 0.77507  0.62339  0.95775  Biso   1.000  O 
  O52      1.0000 0.77455  0.62295  0.45621  Biso   1.000  O 
  O53      1.0000 0.77668  0.12482  0.20666  Biso   1.000  O 
  O54      1.0000 0.77248  0.12608  0.70478  Biso   1.000  O 
  O55      1.0000 0.77702  0.62623  0.20622  Biso   1.000  O 
  O56      1.0000 0.77578  0.62427  0.70790  Biso   1.000  O 
  O57      1.0000 0.72236  0.37191  0.95824  Biso   1.000  O 
  O58      1.0000 0.72150  0.37296  0.45690  Biso   1.000  O 
  O59      1.0000 0.72164  0.87322  0.95557  Biso   1.000  O 
  O60      1.0000 0.71988  0.87202  0.45539  Biso   1.000  O 
  O61      1.0000 0.72545  0.37428  0.20646  Biso   1.000  O 
  O62      1.0000 0.72169  0.37626  0.70705  Biso   1.000  O 
  O63      1.0000 0.72893  0.87585  0.20554  Biso   1.000  O 
  O64      1.0000 0.72176  0.87621  0.70568  Biso   1.000  O 
