data_image0
_cell_length_a       9.97797
_cell_length_b       10.3889
_cell_length_c       10.0197
_cell_angle_alpha    90
_cell_angle_beta     90
_cell_angle_gamma    90

_symmetry_space_group_name_H-M    "P 1"
_symmetry_int_tables_number       1

loop_
  _symmetry_equiv_pos_as_xyz
  'x, y, z'

loop_
  _atom_site_label
  _atom_site_occupancy
  _atom_site_fract_x
  _atom_site_fract_y
  _atom_site_fract_z
  _atom_site_thermal_displace_type
  _atom_site_B_iso_or_equiv
  _atom_site_type_symbol
  Hf1      1.0000 0.13628  0.01911  0.12407  Biso   1.000  Hf
  Hf2      1.0000 0.13858  0.23203  0.38368  Biso   1.000  Hf
  Hf3      1.0000 0.36921  0.26458  0.12550  Biso   1.000  Hf
  Hf4      1.0000 0.36937  0.48456  0.37760  Biso   1.000  Hf
  O1       1.0000 0.01899  0.17077  0.21415  Biso   1.000  O 
  O2       1.0000 0.03952  0.06505  0.44989  Biso   1.000  O 
  O3       1.0000 0.46564  0.43381  0.19467  Biso   1.000  O 
  O4       1.0000 0.46728  0.31753  0.44684  Biso   1.000  O 
  O5       1.0000 0.27032  0.11847  0.25250  Biso   1.000  O 
  O6       1.0000 0.27556  0.13235  0.50237  Biso   1.000  O 
  O7       1.0000 0.23377  0.38299  0.50387  Biso   1.000  O 
  O8       1.0000 0.23548  0.37182  0.25683  Biso   1.000  O 
  Hf5      1.0000 0.13772  0.01623  0.62802  Biso   1.000  Hf
  Hf6      1.0000 0.13778  0.23005  0.87562  Biso   1.000  Hf
  Hf7      1.0000 0.36946  0.26815  0.62851  Biso   1.000  Hf
  Hf8      1.0000 0.36987  0.48449  0.87621  Biso   1.000  Hf
  O9       1.0000 0.03968  0.18391  0.69307  Biso   1.000  O 
  O10      1.0000 0.04173  0.06309  0.94307  Biso   1.000  O 
  O11      1.0000 0.46710  0.43615  0.69567  Biso   1.000  O 
  O12      1.0000 0.46713  0.31685  0.94297  Biso   1.000  O 
  O13      1.0000 0.27416  0.11795  0.74990  Biso   1.000  O 
  O14      1.0000 0.28671  0.12661  0.99629  Biso   1.000  O 
  O15      1.0000 0.22565  0.38071  0.00397  Biso   1.000  O 
  O16      1.0000 0.23284  0.36892  0.75276  Biso   1.000  O 
  Hf9      1.0000 0.13591  0.53015  0.12712  Biso   1.000  Hf
  Hf10     1.0000 0.13744  0.73638  0.37837  Biso   1.000  Hf
  Hf11     1.0000 0.36749  0.76846  0.12676  Biso   1.000  Hf
  Hf12     1.0000 0.36839  0.98425  0.37683  Biso   1.000  Hf
  O17      1.0000 0.03596  0.68713  0.19782  Biso   1.000  O 
  O18      1.0000 0.04037  0.56691  0.44296  Biso   1.000  O 
  O19      1.0000 0.46403  0.93478  0.19485  Biso   1.000  O 
  O20      1.0000 0.46699  0.81630  0.44352  Biso   1.000  O 
  O21      1.0000 0.27512  0.62287  0.25159  Biso   1.000  O 
  O22      1.0000 0.27384  0.63308  0.50079  Biso   1.000  O 
  O23      1.0000 0.23321  0.88302  0.50072  Biso   1.000  O 
  O24      1.0000 0.23050  0.87010  0.25035  Biso   1.000  O 
  Hf13     1.0000 0.13739  0.51753  0.62661  Biso   1.000  Hf
  Hf14     1.0000 0.13814  0.73600  0.87477  Biso   1.000  Hf
  Hf15     1.0000 0.37086  0.76684  0.62563  Biso   1.000  Hf
  Hf16     1.0000 0.37210  0.98300  0.87521  Biso   1.000  Hf
  O25      1.0000 0.04041  0.68604  0.69335  Biso   1.000  O 
  O26      1.0000 0.04079  0.56821  0.94556  Biso   1.000  O 
  O27      1.0000 0.46855  0.93473  0.69208  Biso   1.000  O 
  O28      1.0000 0.46983  0.81726  0.94531  Biso   1.000  O 
  O29      1.0000 0.27425  0.61835  0.75054  Biso   1.000  O 
  O30      1.0000 0.27614  0.63521  0.99968  Biso   1.000  O 
  O31      1.0000 0.22867  0.88023  0.00017  Biso   1.000  O 
  O32      1.0000 0.23513  0.86785  0.74983  Biso   1.000  O 
  Hf17     1.0000 0.63372  0.01465  0.12475  Biso   1.000  Hf
  Hf18     1.0000 0.63582  0.23375  0.37652  Biso   1.000  Hf
  Hf19     1.0000 0.85616  0.26472  0.12093  Biso   1.000  Hf
  Hf20     1.0000 0.87011  0.48337  0.37531  Biso   1.000  Hf
  O33      1.0000 0.53675  0.18265  0.19511  Biso   1.000  O 
  O34      1.0000 0.53904  0.06650  0.44446  Biso   1.000  O 
  O35      1.0000 0.96563  0.43254  0.19038  Biso   1.000  O 
  O36      1.0000 0.96895  0.31834  0.44656  Biso   1.000  O 
  O37      1.0000 0.76678  0.11590  0.24859  Biso   1.000  O 
  O38      1.0000 0.77441  0.13476  0.49843  Biso   1.000  O 
  O39      1.0000 0.73347  0.38357  0.49868  Biso   1.000  O 
  O40      1.0000 0.73050  0.36800  0.24964  Biso   1.000  O 
  Hf21     1.0000 0.63860  0.01737  0.62452  Biso   1.000  Hf
  Hf22     1.0000 0.63745  0.23412  0.87350  Biso   1.000  Hf
  Hf23     1.0000 0.86992  0.26829  0.62677  Biso   1.000  Hf
  Hf24     1.0000 0.87011  0.48488  0.87441  Biso   1.000  Hf
  O41      1.0000 0.54021  0.18512  0.69353  Biso   1.000  O 
  O42      1.0000 0.54388  0.06564  0.94172  Biso   1.000  O 
  O43      1.0000 0.96599  0.43768  0.69161  Biso   1.000  O 
  O44      1.0000 0.95707  0.31403  0.92863  Biso   1.000  O 
  O45      1.0000 0.77461  0.11836  0.74856  Biso   1.000  O 
  O46      1.0000 0.77419  0.13177  0.99786  Biso   1.000  O 
  O47      1.0000 0.72990  0.38337  0.99917  Biso   1.000  O 
  O48      1.0000 0.73129  0.36977  0.74815  Biso   1.000  O 
  Hf25     1.0000 0.63407  0.51752  0.12627  Biso   1.000  Hf
  Hf26     1.0000 0.63740  0.73417  0.37555  Biso   1.000  Hf
  Hf27     1.0000 0.86543  0.76676  0.12495  Biso   1.000  Hf
  Hf28     1.0000 0.87053  0.98578  0.37311  Biso   1.000  Hf
  O49      1.0000 0.53843  0.68530  0.19397  Biso   1.000  O 
  O50      1.0000 0.54013  0.56684  0.44394  Biso   1.000  O 
  O51      1.0000 0.96527  0.93199  0.19235  Biso   1.000  O 
  O52      1.0000 0.96696  0.81785  0.44441  Biso   1.000  O 
  O53      1.0000 0.77283  0.61713  0.24919  Biso   1.000  O 
  O54      1.0000 0.77441  0.63332  0.49875  Biso   1.000  O 
  O55      1.0000 0.73401  0.88444  0.49812  Biso   1.000  O 
  O56      1.0000 0.73089  0.86750  0.24879  Biso   1.000  O 
  Hf29     1.0000 0.63794  0.51717  0.62507  Biso   1.000  Hf
  Hf30     1.0000 0.63865  0.73384  0.87528  Biso   1.000  Hf
  Hf31     1.0000 0.86960  0.76739  0.62475  Biso   1.000  Hf
  Hf32     1.0000 0.86971  0.98333  0.87451  Biso   1.000  Hf
  O57      1.0000 0.54018  0.68484  0.69413  Biso   1.000  O 
  O58      1.0000 0.53956  0.56727  0.94415  Biso   1.000  O 
  O59      1.0000 0.96805  0.93346  0.69581  Biso   1.000  O 
  O60      1.0000 0.96721  0.81562  0.94309  Biso   1.000  O 
  O61      1.0000 0.77397  0.61890  0.74838  Biso   1.000  O 
  O62      1.0000 0.77445  0.63323  0.99907  Biso   1.000  O 
  O63      1.0000 0.73435  0.88261  0.99904  Biso   1.000  O 
  O64      1.0000 0.73328  0.86834  0.74873  Biso   1.000  O 
  Ni1      1.0000 0.10664  0.29229  0.11917  Biso   1.000  Ni
