data_image0
_cell_length_a       5.03672
_cell_length_b       10.1846
_cell_length_c       10.4298
_cell_angle_alpha    90
_cell_angle_beta     80
_cell_angle_gamma    90

_symmetry_space_group_name_H-M    "P 1"
_symmetry_int_tables_number       1

loop_
  _symmetry_equiv_pos_as_xyz
  'x, y, z'

loop_
  _atom_site_label
  _atom_site_occupancy
  _atom_site_fract_x
  _atom_site_fract_y
  _atom_site_fract_z
  _atom_site_thermal_displace_type
  _atom_site_B_iso_or_equiv
  _atom_site_type_symbol
  Ni1      1.0000 0.23712  0.00976  0.17113  Biso   1.000  Ni
  Hf1      1.0000 0.25049  0.01852  0.64536  Biso   1.000  Hf
  Hf2      1.0000 0.28499  0.52155  0.14550  Biso   1.000  Hf
  Hf3      1.0000 0.27068  0.51800  0.65055  Biso   1.000  Hf
  Hf4      1.0000 0.26970  0.22823  0.39036  Biso   1.000  Hf
  Hf5      1.0000 0.26403  0.22138  0.90093  Biso   1.000  Hf
  Hf6      1.0000 0.27458  0.72599  0.39859  Biso   1.000  Hf
  Hf7      1.0000 0.25994  0.73043  0.90094  Biso   1.000  Hf
  Hf8      1.0000 0.73719  0.26159  0.10437  Biso   1.000  Hf
  Hf9      1.0000 0.70787  0.26958  0.60515  Biso   1.000  Hf
  Hf10     1.0000 0.73050  0.77766  0.10317  Biso   1.000  Hf
  Hf11     1.0000 0.71679  0.76841  0.60880  Biso   1.000  Hf
  Hf12     1.0000 0.72227  0.47825  0.35414  Biso   1.000  Hf
  Hf13     1.0000 0.71060  0.47491  0.86118  Biso   1.000  Hf
  Hf14     1.0000 0.72089  0.97545  0.35285  Biso   1.000  Hf
  Hf15     1.0000 0.71765  0.98228  0.85721  Biso   1.000  Hf
  O1       1.0000 0.09724  0.15147  0.08463  Biso   1.000  O 
  O2       1.0000 0.05141  0.16096  0.57036  Biso   1.000  O 
  O3       1.0000 0.08275  0.67091  0.08083  Biso   1.000  O 
  O4       1.0000 0.06503  0.66412  0.58114  Biso   1.000  O 
  O5       1.0000 0.05106  0.08034  0.32200  Biso   1.000  O 
  O6       1.0000 0.04983  0.08102  0.82689  Biso   1.000  O 
  O7       1.0000 0.07709  0.57738  0.33169  Biso   1.000  O 
  O8       1.0000 0.05826  0.58230  0.83296  Biso   1.000  O 
  O9       1.0000 0.94045  0.41538  0.17281  Biso   1.000  O 
  O10      1.0000 0.92271  0.41082  0.67774  Biso   1.000  O 
  O11      1.0000 0.94802  0.91959  0.17259  Biso   1.000  O 
  O12      1.0000 0.92825  0.91468  0.67255  Biso   1.000  O 
  O13      1.0000 0.92222  0.33058  0.42187  Biso   1.000  O 
  O14      1.0000 0.92688  0.33342  0.93390  Biso   1.000  O 
  O15      1.0000 0.92647  0.82939  0.42194  Biso   1.000  O 
  O16      1.0000 0.90527  0.82951  0.92432  Biso   1.000  O 
  O17      1.0000 0.51772  0.11606  0.22900  Biso   1.000  O 
  O18      1.0000 0.52977  0.12493  0.73369  Biso   1.000  O 
  O19      1.0000 0.55969  0.63283  0.24247  Biso   1.000  O 
  O20      1.0000 0.54436  0.62580  0.74501  Biso   1.000  O 
  O21      1.0000 0.54166  0.12068  0.48321  Biso   1.000  O 
  O22      1.0000 0.56949  0.13619  0.97393  Biso   1.000  O 
  O23      1.0000 0.55061  0.61809  0.49395  Biso   1.000  O 
  O24      1.0000 0.53359  0.62392  0.99474  Biso   1.000  O 
  O25      1.0000 0.46935  0.38201  0.01191  Biso   1.000  O 
  O26      1.0000 0.43519  0.37586  0.51053  Biso   1.000  O 
  O27      1.0000 0.45917  0.89933  0.01782  Biso   1.000  O 
  O28      1.0000 0.44566  0.87598  0.50984  Biso   1.000  O 
  O29      1.0000 0.45869  0.36655  0.25922  Biso   1.000  O 
  O30      1.0000 0.43742  0.36762  0.76438  Biso   1.000  O 
  O31      1.0000 0.43683  0.87429  0.25806  Biso   1.000  O 
  O32      1.0000 0.44101  0.86882  0.76389  Biso   1.000  O 
