data_image0
_cell_length_a       10.0312
_cell_length_b       5.14308
_cell_length_c       10.482
_cell_angle_alpha    90
_cell_angle_beta     90
_cell_angle_gamma    90

_symmetry_space_group_name_H-M    "P 1"
_symmetry_int_tables_number       1

loop_
  _symmetry_equiv_pos_as_xyz
  'x, y, z'

loop_
  _atom_site_label
  _atom_site_occupancy
  _atom_site_fract_x
  _atom_site_fract_y
  _atom_site_fract_z
  _atom_site_thermal_displace_type
  _atom_site_B_iso_or_equiv
  _atom_site_type_symbol
  Hf1      1.0000 0.13782  0.04407  0.17183  Biso   1.000  Hf
  Hf2      1.0000 0.13756  0.46177  0.42333  Biso   1.000  Hf
  Hf3      1.0000 0.35373  0.54774  0.17541  Biso   1.000  Hf
  Hf4      1.0000 0.36133  0.96306  0.42251  Biso   1.000  Hf
  Hf5      1.0000 0.64466  0.06693  0.07695  Biso   1.000  Hf
  Hf6      1.0000 0.64033  0.46576  0.33366  Biso   1.000  Hf
  Hf7      1.0000 0.86070  0.54209  0.08065  Biso   1.000  Hf
  Hf8      1.0000 0.86156  0.96298  0.33191  Biso   1.000  Hf
  O1       1.0000 0.03376  0.33056  0.08449  Biso   1.000  O 
  O2       1.0000 0.03383  0.17298  0.33466  Biso   1.000  O 
  O3       1.0000 0.46132  0.85371  0.09106  Biso   1.000  O 
  O4       1.0000 0.46570  0.67164  0.33524  Biso   1.000  O 
  O5       1.0000 0.27491  0.25298  0.29614  Biso   1.000  O 
  O6       1.0000 0.27673  0.25192  0.04456  Biso   1.000  O 
  O7       1.0000 0.22151  0.75357  0.29718  Biso   1.000  O 
  O8       1.0000 0.22172  0.75116  0.04540  Biso   1.000  O 
  O9       1.0000 0.52587  0.32515  0.17254  Biso   1.000  O 
  O10      1.0000 0.53408  0.17383  0.41723  Biso   1.000  O 
  O11      1.0000 0.96637  0.83241  0.16865  Biso   1.000  O 
  O12      1.0000 0.96589  0.67164  0.41829  Biso   1.000  O 
  O13      1.0000 0.77621  0.25319  0.45771  Biso   1.000  O 
  O14      1.0000 0.77849  0.26180  0.21102  Biso   1.000  O 
  O15      1.0000 0.72285  0.75200  0.45894  Biso   1.000  O 
  O16      1.0000 0.72489  0.76955  0.21095  Biso   1.000  O 
  Hf9      1.0000 0.13987  0.04784  0.67161  Biso   1.000  Hf
  Hf10     1.0000 0.13719  0.46680  0.92194  Biso   1.000  Hf
  Hf11     1.0000 0.36076  0.54814  0.67199  Biso   1.000  Hf
  Hf12     1.0000 0.35893  0.96814  0.92051  Biso   1.000  Hf
  Hf13     1.0000 0.63904  0.04751  0.58070  Biso   1.000  Hf
  Hf14     1.0000 0.63751  0.45967  0.82776  Biso   1.000  Hf
  Hf15     1.0000 0.86135  0.54700  0.58118  Biso   1.000  Hf
  Hf16     1.0000 0.86243  0.96420  0.82841  Biso   1.000  Hf
  O17      1.0000 0.03329  0.33652  0.58504  Biso   1.000  O 
  O18      1.0000 0.03445  0.17655  0.83280  Biso   1.000  O 
  O19      1.0000 0.46587  0.83869  0.58507  Biso   1.000  O 
  O20      1.0000 0.46353  0.67001  0.83479  Biso   1.000  O 
  O21      1.0000 0.27676  0.25417  0.79514  Biso   1.000  O 
  O22      1.0000 0.27629  0.25671  0.54532  Biso   1.000  O 
  O23      1.0000 0.22226  0.75469  0.79536  Biso   1.000  O 
  O24      1.0000 0.22368  0.75684  0.54560  Biso   1.000  O 
  O25      1.0000 0.53273  0.33940  0.66470  Biso   1.000  O 
  O26      1.0000 0.53735  0.15336  0.90762  Biso   1.000  O 
  O27      1.0000 0.96743  0.83746  0.66600  Biso   1.000  O 
  O28      1.0000 0.96561  0.67905  0.91771  Biso   1.000  O 
  O29      1.0000 0.78742  0.24895  0.95187  Biso   1.000  O 
  O30      1.0000 0.77676  0.25535  0.70464  Biso   1.000  O 
  O31      1.0000 0.71904  0.75431  0.95905  Biso   1.000  O 
  O32      1.0000 0.72394  0.75678  0.70737  Biso   1.000  O 
  Ni1      1.0000 0.59142  0.57311  0.06228  Biso   1.000  Ni
