data_image0
_cell_length_a       5.01842
_cell_length_b       10.2076
_cell_length_c       9.97683
_cell_angle_alpha    90
_cell_angle_beta     90
_cell_angle_gamma    90

_symmetry_space_group_name_H-M    "P 1"
_symmetry_int_tables_number       1

loop_
  _symmetry_equiv_pos_as_xyz
  'x, y, z'

loop_
  _atom_site_label
  _atom_site_occupancy
  _atom_site_fract_x
  _atom_site_fract_y
  _atom_site_fract_z
  _atom_site_thermal_displace_type
  _atom_site_B_iso_or_equiv
  _atom_site_type_symbol
  Ni1      1.0000 0.31482  0.96048  0.11594  Biso   1.000  Ni
  Hf1      1.0000 0.29518  0.98746  0.60532  Biso   1.000  Hf
  Hf2      1.0000 0.29880  0.51300  0.12949  Biso   1.000  Hf
  Hf3      1.0000 0.31714  0.47202  0.63275  Biso   1.000  Hf
  Hf4      1.0000 0.32060  0.24274  0.36714  Biso   1.000  Hf
  Hf5      1.0000 0.31202  0.22305  0.88730  Biso   1.000  Hf
  Hf6      1.0000 0.27209  0.72804  0.39107  Biso   1.000  Hf
  Hf7      1.0000 0.31642  0.72958  0.86789  Biso   1.000  Hf
  Hf8      1.0000 0.79635  0.26736  0.12491  Biso   1.000  Hf
  Hf9      1.0000 0.80264  0.21829  0.62609  Biso   1.000  Hf
  Hf10     1.0000 0.79089  0.75392  0.12903  Biso   1.000  Hf
  Hf11     1.0000 0.77829  0.74067  0.62166  Biso   1.000  Hf
  Hf12     1.0000 0.83155  0.00507  0.34856  Biso   1.000  Hf
  Hf13     1.0000 0.82339  0.97702  0.87503  Biso   1.000  Hf
  Hf14     1.0000 0.81292  0.48214  0.39064  Biso   1.000  Hf
  Hf15     1.0000 0.82534  0.46420  0.86997  Biso   1.000  Hf
  O1       1.0000 0.97353  0.14035  0.96131  Biso   1.000  O 
  O2       1.0000 0.06753  0.13129  0.48094  Biso   1.000  O 
  O3       1.0000 0.09798  0.66500  0.02908  Biso   1.000  O 
  O4       1.0000 0.04207  0.62147  0.52351  Biso   1.000  O 
  O5       1.0000 0.10828  0.09429  0.22082  Biso   1.000  O 
  O6       1.0000 0.99893  0.06037  0.72166  Biso   1.000  O 
  O7       1.0000 0.02597  0.60150  0.26693  Biso   1.000  O 
  O8       1.0000 0.11361  0.56596  0.77873  Biso   1.000  O 
  O9       1.0000 0.06614  0.35233  0.25175  Biso   1.000  O 
  O10      1.0000 0.06961  0.31785  0.74943  Biso   1.000  O 
  O11      1.0000 0.10895  0.85256  0.24284  Biso   1.000  O 
  O12      1.0000 0.01136  0.81256  0.77010  Biso   1.000  O 
  O13      1.0000 0.02670  0.40802  0.00562  Biso   1.000  O 
  O14      1.0000 0.06530  0.37534  0.50436  Biso   1.000  O 
  O15      1.0000 0.03294  0.91480  0.00203  Biso   1.000  O 
  O16      1.0000 0.04430  0.87643  0.49980  Biso   1.000  O 
  O17      1.0000 0.62947  0.16447  0.26911  Biso   1.000  O 
  O18      1.0000 0.52166  0.12094  0.74811  Biso   1.000  O 
  O19      1.0000 0.52152  0.66262  0.24892  Biso   1.000  O 
  O20      1.0000 0.59214  0.61713  0.75401  Biso   1.000  O 
  O21      1.0000 0.41680  0.08592  0.00368  Biso   1.000  O 
  O22      1.0000 0.57007  0.08566  0.49842  Biso   1.000  O 
  O23      1.0000 0.59482  0.59965  0.01435  Biso   1.000  O 
  O24      1.0000 0.53632  0.58835  0.49975  Biso   1.000  O 
  O25      1.0000 0.50826  0.35218  0.00545  Biso   1.000  O 
  O26      1.0000 0.56490  0.33721  0.50126  Biso   1.000  O 
  O27      1.0000 0.51926  0.84783  0.00118  Biso   1.000  O 
  O28      1.0000 0.53981  0.83799  0.49346  Biso   1.000  O 
  O29      1.0000 0.55852  0.40675  0.25187  Biso   1.000  O 
  O30      1.0000 0.57096  0.36410  0.75098  Biso   1.000  O 
  O31      1.0000 0.61414  0.92281  0.22377  Biso   1.000  O 
  O32      1.0000 0.53127  0.87307  0.74674  Biso   1.000  O 
