data_image0
_cell_length_a       5.04947
_cell_length_b       10.2439
_cell_length_c       10.425
_cell_angle_alpha    90
_cell_angle_beta     80
_cell_angle_gamma    90

_symmetry_space_group_name_H-M    "P 1"
_symmetry_int_tables_number       1

loop_
  _symmetry_equiv_pos_as_xyz
  'x, y, z'

loop_
  _atom_site_label
  _atom_site_occupancy
  _atom_site_fract_x
  _atom_site_fract_y
  _atom_site_fract_z
  _atom_site_thermal_displace_type
  _atom_site_B_iso_or_equiv
  _atom_site_type_symbol
  Os1      1.0000 0.28238  0.02218  0.15121  Biso   1.000  Os
  Hf1      1.0000 0.27902  0.23149  0.39507  Biso   1.000  Hf
  Hf2      1.0000 0.72565  0.26953  0.10579  Biso   1.000  Hf
  Hf3      1.0000 0.72288  0.48076  0.35357  Biso   1.000  Hf
  O1       1.0000 0.06948  0.16556  0.08044  Biso   1.000  O 
  O2       1.0000 0.07673  0.08539  0.31958  Biso   1.000  O 
  O3       1.0000 0.92887  0.42061  0.16963  Biso   1.000  O 
  O4       1.0000 0.92776  0.33261  0.41991  Biso   1.000  O 
  O5       1.0000 0.55517  0.12752  0.24163  Biso   1.000  O 
  O6       1.0000 0.55616  0.12253  0.49016  Biso   1.000  O 
  O7       1.0000 0.44655  0.37852  0.01024  Biso   1.000  O 
  O8       1.0000 0.44794  0.37222  0.25962  Biso   1.000  O 
  Hf4      1.0000 0.27555  0.02292  0.64611  Biso   1.000  Hf
  Hf5      1.0000 0.27147  0.22847  0.89942  Biso   1.000  Hf
  Hf6      1.0000 0.72023  0.27342  0.60493  Biso   1.000  Hf
  Hf7      1.0000 0.71838  0.48062  0.85535  Biso   1.000  Hf
  O9       1.0000 0.06835  0.16805  0.57630  Biso   1.000  O 
  O10      1.0000 0.06487  0.08409  0.82827  Biso   1.000  O 
  O11      1.0000 0.92813  0.41984  0.67078  Biso   1.000  O 
  O12      1.0000 0.92403  0.33079  0.92071  Biso   1.000  O 
  O13      1.0000 0.55097  0.13091  0.74329  Biso   1.000  O 
  O14      1.0000 0.54147  0.11892  0.99992  Biso   1.000  O 
  O15      1.0000 0.44540  0.38017  0.50977  Biso   1.000  O 
  O16      1.0000 0.44384  0.37264  0.76044  Biso   1.000  O 
  Hf8      1.0000 0.27906  0.52280  0.14547  Biso   1.000  Hf
  Hf9      1.0000 0.27821  0.73047  0.39538  Biso   1.000  Hf
  Hf10     1.0000 0.72364  0.77659  0.10313  Biso   1.000  Hf
  Hf11     1.0000 0.72201  0.98072  0.35195  Biso   1.000  Hf
  O17      1.0000 0.06894  0.66889  0.07996  Biso   1.000  O 
  O18      1.0000 0.07246  0.58223  0.33050  Biso   1.000  O 
  O19      1.0000 0.94621  0.92091  0.16772  Biso   1.000  O 
  O20      1.0000 0.93162  0.83457  0.41899  Biso   1.000  O 
  O21      1.0000 0.55389  0.63293  0.24068  Biso   1.000  O 
  O22      1.0000 0.55352  0.62275  0.49072  Biso   1.000  O 
  O23      1.0000 0.43821  0.88145  0.00942  Biso   1.000  O 
  O24      1.0000 0.44933  0.87596  0.25622  Biso   1.000  O 
  Hf12     1.0000 0.27683  0.52314  0.64696  Biso   1.000  Hf
  Hf13     1.0000 0.27488  0.73170  0.89699  Biso   1.000  Hf
  Hf14     1.0000 0.72145  0.77327  0.60367  Biso   1.000  Hf
  Hf15     1.0000 0.71639  0.98087  0.85501  Biso   1.000  Hf
  O25      1.0000 0.07068  0.67054  0.57946  Biso   1.000  O 
  O26      1.0000 0.06916  0.58277  0.83099  Biso   1.000  O 
  O27      1.0000 0.92748  0.92027  0.66995  Biso   1.000  O 
  O28      1.0000 0.92391  0.83352  0.91894  Biso   1.000  O 
  O29      1.0000 0.55251  0.63104  0.74117  Biso   1.000  O 
  O30      1.0000 0.55291  0.62566  0.99118  Biso   1.000  O 
  O31      1.0000 0.44684  0.88073  0.50779  Biso   1.000  O 
  O32      1.0000 0.44447  0.87297  0.75854  Biso   1.000  O 
