data_image0
_cell_length_a       10.1005
_cell_length_b       10.2624
_cell_length_c       10.431
_cell_angle_alpha    90
_cell_angle_beta     80
_cell_angle_gamma    90

_symmetry_space_group_name_H-M    "P 1"
_symmetry_int_tables_number       1

loop_
  _symmetry_equiv_pos_as_xyz
  'x, y, z'

loop_
  _atom_site_label
  _atom_site_occupancy
  _atom_site_fract_x
  _atom_site_fract_y
  _atom_site_fract_z
  _atom_site_thermal_displace_type
  _atom_site_B_iso_or_equiv
  _atom_site_type_symbol
  Os1      1.0000 0.14093  0.02176  0.15137  Biso   1.000  Os
  Hf1      1.0000 0.13865  0.23056  0.39547  Biso   1.000  Hf
  Hf2      1.0000 0.35957  0.27146  0.10556  Biso   1.000  Hf
  Hf3      1.0000 0.36044  0.48013  0.35440  Biso   1.000  Hf
  O1       1.0000 0.03516  0.16578  0.07984  Biso   1.000  O 
  O2       1.0000 0.03795  0.08441  0.31933  Biso   1.000  O 
  O3       1.0000 0.46305  0.42054  0.16922  Biso   1.000  O 
  O4       1.0000 0.46172  0.33080  0.41990  Biso   1.000  O 
  O5       1.0000 0.27802  0.12731  0.24182  Biso   1.000  O 
  O6       1.0000 0.27548  0.12214  0.49189  Biso   1.000  O 
  O7       1.0000 0.22282  0.37855  0.01031  Biso   1.000  O 
  O8       1.0000 0.22270  0.37183  0.25982  Biso   1.000  O 
  Hf4      1.0000 0.13644  0.02223  0.64618  Biso   1.000  Hf
  Hf5      1.0000 0.13343  0.22725  0.89938  Biso   1.000  Hf
  Hf6      1.0000 0.35847  0.27254  0.60577  Biso   1.000  Hf
  Hf7      1.0000 0.35665  0.47966  0.85512  Biso   1.000  Hf
  O9       1.0000 0.03205  0.16675  0.57590  Biso   1.000  O 
  O10      1.0000 0.03102  0.08330  0.82771  Biso   1.000  O 
  O11      1.0000 0.46100  0.42141  0.66983  Biso   1.000  O 
  O12      1.0000 0.45757  0.32887  0.91968  Biso   1.000  O 
  O13      1.0000 0.27408  0.12999  0.74419  Biso   1.000  O 
  O14      1.0000 0.27222  0.11536  0.00028  Biso   1.000  O 
  O15      1.0000 0.22098  0.37964  0.50982  Biso   1.000  O 
  O16      1.0000 0.21968  0.37151  0.76053  Biso   1.000  O 
  Hf8      1.0000 0.13854  0.52207  0.14594  Biso   1.000  Hf
  Hf9      1.0000 0.13680  0.72986  0.39575  Biso   1.000  Hf
  Hf10     1.0000 0.35845  0.77484  0.10405  Biso   1.000  Hf
  Hf11     1.0000 0.35956  0.97909  0.35400  Biso   1.000  Hf
  O17      1.0000 0.03556  0.66868  0.07971  Biso   1.000  O 
  O18      1.0000 0.03438  0.58183  0.33036  Biso   1.000  O 
  O19      1.0000 0.46459  0.91892  0.17087  Biso   1.000  O 
  O20      1.0000 0.46302  0.83026  0.41904  Biso   1.000  O 
  O21      1.0000 0.27575  0.63158  0.24119  Biso   1.000  O 
  O22      1.0000 0.27473  0.62179  0.49103  Biso   1.000  O 
  O23      1.0000 0.21926  0.88123  0.00925  Biso   1.000  O 
  O24      1.0000 0.21885  0.87404  0.25688  Biso   1.000  O 
  Hf12     1.0000 0.13625  0.52231  0.64668  Biso   1.000  Hf
  Hf13     1.0000 0.13520  0.73079  0.89639  Biso   1.000  Hf
  Hf14     1.0000 0.35915  0.77211  0.60409  Biso   1.000  Hf
  Hf15     1.0000 0.35612  0.97939  0.85576  Biso   1.000  Hf
  O25      1.0000 0.03297  0.66982  0.57977  Biso   1.000  O 
  O26      1.0000 0.03228  0.58219  0.83071  Biso   1.000  O 
  O27      1.0000 0.46077  0.92083  0.67006  Biso   1.000  O 
  O28      1.0000 0.45886  0.83132  0.91981  Biso   1.000  O 
  O29      1.0000 0.27391  0.63019  0.74111  Biso   1.000  O 
  O30      1.0000 0.27272  0.62320  0.99124  Biso   1.000  O 
  O31      1.0000 0.22165  0.87978  0.50861  Biso   1.000  O 
  O32      1.0000 0.22013  0.87193  0.75891  Biso   1.000  O 
  Hf16     1.0000 0.63818  0.02227  0.14567  Biso   1.000  Hf
  Hf17     1.0000 0.63706  0.22960  0.39600  Biso   1.000  Hf
  Hf18     1.0000 0.86350  0.26960  0.10462  Biso   1.000  Hf
  Hf19     1.0000 0.85955  0.47938  0.35373  Biso   1.000  Hf
  O33      1.0000 0.53557  0.17073  0.08185  Biso   1.000  O 
  O34      1.0000 0.53509  0.08027  0.33180  Biso   1.000  O 
  O35      1.0000 0.96360  0.42045  0.16969  Biso   1.000  O 
  O36      1.0000 0.96282  0.33150  0.41939  Biso   1.000  O 
  O37      1.0000 0.77527  0.12948  0.24082  Biso   1.000  O 
  O38      1.0000 0.77591  0.12134  0.48965  Biso   1.000  O 
  O39      1.0000 0.72338  0.37924  0.00930  Biso   1.000  O 
  O40      1.0000 0.72249  0.37122  0.25952  Biso   1.000  O 
  Hf20     1.0000 0.63571  0.02220  0.64655  Biso   1.000  Hf
  Hf21     1.0000 0.63483  0.23018  0.89679  Biso   1.000  Hf
  Hf22     1.0000 0.85851  0.27238  0.60401  Biso   1.000  Hf
  Hf23     1.0000 0.85752  0.47977  0.85534  Biso   1.000  Hf
  O41      1.0000 0.53435  0.17158  0.58193  Biso   1.000  O 
  O42      1.0000 0.53176  0.08088  0.83257  Biso   1.000  O 
  O43      1.0000 0.96196  0.41882  0.67073  Biso   1.000  O 
  O44      1.0000 0.96133  0.33168  0.92111  Biso   1.000  O 
  O45      1.0000 0.77293  0.13031  0.74064  Biso   1.000  O 
  O46      1.0000 0.77190  0.12272  0.99066  Biso   1.000  O 
  O47      1.0000 0.72139  0.37989  0.50985  Biso   1.000  O 
  O48      1.0000 0.72006  0.37214  0.76006  Biso   1.000  O 
  Hf24     1.0000 0.63875  0.52220  0.14550  Biso   1.000  Hf
  Hf25     1.0000 0.63834  0.72951  0.39586  Biso   1.000  Hf
  Hf26     1.0000 0.86348  0.77331  0.10332  Biso   1.000  Hf
  Hf27     1.0000 0.86006  0.98050  0.35244  Biso   1.000  Hf
  O49      1.0000 0.53444  0.67018  0.08100  Biso   1.000  O 
  O50      1.0000 0.53574  0.58037  0.33145  Biso   1.000  O 
  O51      1.0000 0.97169  0.92171  0.16640  Biso   1.000  O 
  O52      1.0000 0.96348  0.83438  0.41975  Biso   1.000  O 
  O53      1.0000 0.77608  0.63065  0.24035  Biso   1.000  O 
  O54      1.0000 0.77527  0.62193  0.49082  Biso   1.000  O 
  O55      1.0000 0.72267  0.87926  0.00966  Biso   1.000  O 
  O56      1.0000 0.72757  0.87270  0.25876  Biso   1.000  O 
  Hf28     1.0000 0.63646  0.52242  0.64674  Biso   1.000  Hf
  Hf29     1.0000 0.63467  0.72964  0.89748  Biso   1.000  Hf
  Hf30     1.0000 0.85833  0.77276  0.60441  Biso   1.000  Hf
  Hf31     1.0000 0.85689  0.98022  0.85446  Biso   1.000  Hf
  O57      1.0000 0.53456  0.67111  0.58116  Biso   1.000  O 
  O58      1.0000 0.53272  0.58049  0.83206  Biso   1.000  O 
  O59      1.0000 0.96172  0.91976  0.66991  Biso   1.000  O 
  O60      1.0000 0.96009  0.83222  0.91937  Biso   1.000  O 
  O61      1.0000 0.77381  0.63024  0.74153  Biso   1.000  O 
  O62      1.0000 0.77353  0.62339  0.99166  Biso   1.000  O 
  O63      1.0000 0.72127  0.88035  0.50913  Biso   1.000  O 
  O64      1.0000 0.71974  0.87202  0.75988  Biso   1.000  O 
