data_image0
_cell_length_a       10.0416
_cell_length_b       5.19003
_cell_length_c       10.5326
_cell_angle_alpha    90
_cell_angle_beta     90
_cell_angle_gamma    90

_symmetry_space_group_name_H-M    "P 1"
_symmetry_int_tables_number       1

loop_
  _symmetry_equiv_pos_as_xyz
  'x, y, z'

loop_
  _atom_site_label
  _atom_site_occupancy
  _atom_site_fract_x
  _atom_site_fract_y
  _atom_site_fract_z
  _atom_site_thermal_displace_type
  _atom_site_B_iso_or_equiv
  _atom_site_type_symbol
  Hf1      1.0000 0.13826  0.03416  0.16977  Biso   1.000  Hf
  Hf2      1.0000 0.13024  0.45958  0.41946  Biso   1.000  Hf
  Hf3      1.0000 0.35607  0.53528  0.17401  Biso   1.000  Hf
  Hf4      1.0000 0.35406  0.96283  0.42388  Biso   1.000  Hf
  Hf5      1.0000 0.63893  0.07898  0.06981  Biso   1.000  Hf
  Hf6      1.0000 0.62770  0.46700  0.34685  Biso   1.000  Hf
  Hf7      1.0000 0.88206  0.54152  0.06555  Biso   1.000  Hf
  Hf8      1.0000 0.85686  0.95783  0.33783  Biso   1.000  Hf
  O1       1.0000 0.04295  0.32006  0.07463  Biso   1.000  O 
  O2       1.0000 0.02456  0.18280  0.32433  Biso   1.000  O 
  O3       1.0000 0.46679  0.82826  0.07698  Biso   1.000  O 
  O4       1.0000 0.45369  0.66773  0.34157  Biso   1.000  O 
  O5       1.0000 0.26699  0.24639  0.29413  Biso   1.000  O 
  O6       1.0000 0.28338  0.23917  0.04152  Biso   1.000  O 
  O7       1.0000 0.21575  0.74656  0.29192  Biso   1.000  O 
  O8       1.0000 0.22336  0.74278  0.04185  Biso   1.000  O 
  O9       1.0000 0.51535  0.28593  0.19623  Biso   1.000  O 
  O10      1.0000 0.52472  0.17572  0.43150  Biso   1.000  O 
  O11      1.0000 0.95830  0.83401  0.16811  Biso   1.000  O 
  O12      1.0000 0.95785  0.67005  0.41827  Biso   1.000  O 
  O13      1.0000 0.77129  0.24501  0.45729  Biso   1.000  O 
  O14      1.0000 0.76065  0.34231  0.19594  Biso   1.000  O 
  O15      1.0000 0.71725  0.74365  0.47117  Biso   1.000  O 
  O16      1.0000 0.69959  0.85838  0.23407  Biso   1.000  O 
  Hf9      1.0000 0.13263  0.04238  0.66665  Biso   1.000  Hf
  Hf10     1.0000 0.14047  0.45516  0.91465  Biso   1.000  Hf
  Hf11     1.0000 0.35655  0.54048  0.66792  Biso   1.000  Hf
  Hf12     1.0000 0.35095  0.95529  0.91302  Biso   1.000  Hf
  Hf13     1.0000 0.63294  0.04297  0.58660  Biso   1.000  Hf
  Hf14     1.0000 0.62694  0.45586  0.83605  Biso   1.000  Hf
  Hf15     1.0000 0.85391  0.53987  0.58549  Biso   1.000  Hf
  Hf16     1.0000 0.85687  0.96369  0.82709  Biso   1.000  Hf
  O17      1.0000 0.02630  0.32979  0.57956  Biso   1.000  O 
  O18      1.0000 0.03092  0.17275  0.82762  Biso   1.000  O 
  O19      1.0000 0.45725  0.83899  0.58963  Biso   1.000  O 
  O20      1.0000 0.45133  0.65023  0.83624  Biso   1.000  O 
  O21      1.0000 0.27187  0.24483  0.78965  Biso   1.000  O 
  O22      1.0000 0.26760  0.25515  0.54233  Biso   1.000  O 
  O23      1.0000 0.21629  0.74764  0.78873  Biso   1.000  O 
  O24      1.0000 0.21656  0.75403  0.54087  Biso   1.000  O 
  O25      1.0000 0.52916  0.34230  0.66633  Biso   1.000  O 
  O26      1.0000 0.53214  0.12499  0.89379  Biso   1.000  O 
  O27      1.0000 0.95940  0.83611  0.66180  Biso   1.000  O 
  O28      1.0000 0.96928  0.67368  0.90638  Biso   1.000  O 
  O29      1.0000 0.78447  0.24676  0.94786  Biso   1.000  O 
  O30      1.0000 0.77090  0.24932  0.70557  Biso   1.000  O 
  O31      1.0000 0.72151  0.76453  0.96614  Biso   1.000  O 
  O32      1.0000 0.71827  0.74857  0.71622  Biso   1.000  O 
  Os1      1.0000 0.61605  0.56217  0.10113  Biso   1.000  Os
