data_image0
_cell_length_a       10.0471
_cell_length_b       10.2355
_cell_length_c       10.5208
_cell_angle_alpha    90
_cell_angle_beta     90
_cell_angle_gamma    90

_symmetry_space_group_name_H-M    "P 1"
_symmetry_int_tables_number       1

loop_
  _symmetry_equiv_pos_as_xyz
  'x, y, z'

loop_
  _atom_site_label
  _atom_site_occupancy
  _atom_site_fract_x
  _atom_site_fract_y
  _atom_site_fract_z
  _atom_site_thermal_displace_type
  _atom_site_B_iso_or_equiv
  _atom_site_type_symbol
  Hf1      1.0000 0.13684  0.02097  0.17371  Biso   1.000  Hf
  Hf2      1.0000 0.13381  0.22720  0.42441  Biso   1.000  Hf
  Hf3      1.0000 0.35234  0.27011  0.17743  Biso   1.000  Hf
  Hf4      1.0000 0.35568  0.47649  0.42111  Biso   1.000  Hf
  Hf5      1.0000 0.64975  0.01633  0.07855  Biso   1.000  Hf
  Hf6      1.0000 0.63395  0.22182  0.33025  Biso   1.000  Hf
  Hf7      1.0000 0.85713  0.26230  0.07525  Biso   1.000  Hf
  Hf8      1.0000 0.85548  0.47628  0.32590  Biso   1.000  Hf
  O1       1.0000 0.02954  0.15981  0.08139  Biso   1.000  O 
  O2       1.0000 0.03102  0.08260  0.33542  Biso   1.000  O 
  O3       1.0000 0.44627  0.43930  0.09406  Biso   1.000  O 
  O4       1.0000 0.46261  0.33302  0.33348  Biso   1.000  O 
  O5       1.0000 0.26951  0.12456  0.29957  Biso   1.000  O 
  O6       1.0000 0.27168  0.12572  0.04751  Biso   1.000  O 
  O7       1.0000 0.21565  0.37422  0.29754  Biso   1.000  O 
  O8       1.0000 0.21527  0.37613  0.04498  Biso   1.000  O 
  O9       1.0000 0.51162  0.13388  0.18905  Biso   1.000  O 
  O10      1.0000 0.52656  0.08938  0.42897  Biso   1.000  O 
  O11      1.0000 0.95713  0.41140  0.16744  Biso   1.000  O 
  O12      1.0000 0.96229  0.33382  0.41723  Biso   1.000  O 
  O13      1.0000 0.77197  0.12045  0.45594  Biso   1.000  O 
  O14      1.0000 0.78284  0.12059  0.21327  Biso   1.000  O 
  O15      1.0000 0.71872  0.37146  0.45215  Biso   1.000  O 
  O16      1.0000 0.70285  0.37557  0.19693  Biso   1.000  O 
  Hf9      1.0000 0.13729  0.01937  0.67238  Biso   1.000  Hf
  Hf10     1.0000 0.13035  0.22493  0.92235  Biso   1.000  Hf
  Hf11     1.0000 0.35631  0.27009  0.67416  Biso   1.000  Hf
  Hf12     1.0000 0.34910  0.47821  0.92180  Biso   1.000  Hf
  Hf13     1.0000 0.63655  0.01745  0.57962  Biso   1.000  Hf
  Hf14     1.0000 0.63649  0.22662  0.82115  Biso   1.000  Hf
  Hf15     1.0000 0.85728  0.26897  0.57666  Biso   1.000  Hf
  Hf16     1.0000 0.85469  0.47664  0.82780  Biso   1.000  Hf
  O17      1.0000 0.02841  0.16264  0.58401  Biso   1.000  O 
  O18      1.0000 0.03026  0.08080  0.83056  Biso   1.000  O 
  O19      1.0000 0.46428  0.40715  0.57730  Biso   1.000  O 
  O20      1.0000 0.46431  0.34477  0.82438  Biso   1.000  O 
  O21      1.0000 0.27222  0.12312  0.79782  Biso   1.000  O 
  O22      1.0000 0.27200  0.12369  0.54741  Biso   1.000  O 
  O23      1.0000 0.21546  0.37051  0.79582  Biso   1.000  O 
  O24      1.0000 0.21901  0.37449  0.54702  Biso   1.000  O 
  O25      1.0000 0.52263  0.15144  0.67733  Biso   1.000  O 
  O26      1.0000 0.51670  0.11281  0.94233  Biso   1.000  O 
  O27      1.0000 0.96080  0.41289  0.66757  Biso   1.000  O 
  O28      1.0000 0.95558  0.33008  0.91571  Biso   1.000  O 
  O29      1.0000 0.78223  0.11111  0.94325  Biso   1.000  O 
  O30      1.0000 0.77292  0.12255  0.70083  Biso   1.000  O 
  O31      1.0000 0.70866  0.37380  0.95458  Biso   1.000  O 
  O32      1.0000 0.71884  0.37316  0.70191  Biso   1.000  O 
  Hf17     1.0000 0.13224  0.51906  0.17107  Biso   1.000  Hf
  Hf18     1.0000 0.13205  0.72569  0.42171  Biso   1.000  Hf
  Hf19     1.0000 0.35432  0.77392  0.17196  Biso   1.000  Hf
  Hf20     1.0000 0.35052  0.97779  0.42363  Biso   1.000  Hf
  Hf21     1.0000 0.62995  0.53409  0.07820  Biso   1.000  Hf
  Hf22     1.0000 0.63122  0.72998  0.33015  Biso   1.000  Hf
  Hf23     1.0000 0.85765  0.76980  0.07888  Biso   1.000  Hf
  Hf24     1.0000 0.85357  0.97537  0.33170  Biso   1.000  Hf
  O33      1.0000 0.02653  0.66185  0.08214  Biso   1.000  O 
  O34      1.0000 0.02458  0.58202  0.33284  Biso   1.000  O 
  O35      1.0000 0.46518  0.90822  0.07464  Biso   1.000  O 
  O36      1.0000 0.46132  0.84069  0.33044  Biso   1.000  O 
  O37      1.0000 0.26854  0.62325  0.29402  Biso   1.000  O 
  O38      1.0000 0.26841  0.62914  0.04455  Biso   1.000  O 
  O39      1.0000 0.21613  0.87281  0.29585  Biso   1.000  O 
  O40      1.0000 0.21801  0.87862  0.04552  Biso   1.000  O 
  O41      1.0000 0.52708  0.67164  0.17020  Biso   1.000  O 
  O42      1.0000 0.52437  0.58678  0.41830  Biso   1.000  O 
  O43      1.0000 0.96125  0.91132  0.16953  Biso   1.000  O 
  O44      1.0000 0.96025  0.82983  0.41742  Biso   1.000  O 
  O45      1.0000 0.76894  0.62102  0.45390  Biso   1.000  O 
  O46      1.0000 0.76969  0.62523  0.20503  Biso   1.000  O 
  O47      1.0000 0.71586  0.87172  0.45673  Biso   1.000  O 
  O48      1.0000 0.72072  0.87236  0.20718  Biso   1.000  O 
  Hf25     1.0000 0.13215  0.51846  0.67119  Biso   1.000  Hf
  Hf26     1.0000 0.12826  0.72641  0.92189  Biso   1.000  Hf
  Hf27     1.0000 0.35268  0.77034  0.67242  Biso   1.000  Hf
  Hf28     1.0000 0.34855  0.97783  0.92602  Biso   1.000  Hf
  Hf29     1.0000 0.63137  0.51877  0.57641  Biso   1.000  Hf
  Hf30     1.0000 0.62872  0.72700  0.82599  Biso   1.000  Hf
  Hf31     1.0000 0.85454  0.76666  0.57754  Biso   1.000  Hf
  Hf32     1.0000 0.85268  0.97191  0.82548  Biso   1.000  Hf
  O49      1.0000 0.02581  0.66035  0.58225  Biso   1.000  O 
  O50      1.0000 0.02371  0.58281  0.83205  Biso   1.000  O 
  O51      1.0000 0.45947  0.90642  0.57809  Biso   1.000  O 
  O52      1.0000 0.46287  0.84587  0.82644  Biso   1.000  O 
  O53      1.0000 0.26665  0.62228  0.79559  Biso   1.000  O 
  O54      1.0000 0.26956  0.62350  0.54500  Biso   1.000  O 
  O55      1.0000 0.21485  0.87150  0.79671  Biso   1.000  O 
  O56      1.0000 0.21505  0.87336  0.54591  Biso   1.000  O 
  O57      1.0000 0.52195  0.65878  0.66932  Biso   1.000  O 
  O58      1.0000 0.51819  0.59073  0.91941  Biso   1.000  O 
  O59      1.0000 0.96045  0.90986  0.66456  Biso   1.000  O 
  O60      1.0000 0.95730  0.83186  0.91879  Biso   1.000  O 
  O61      1.0000 0.76564  0.62178  0.95261  Biso   1.000  O 
  O62      1.0000 0.76739  0.62282  0.70408  Biso   1.000  O 
  O63      1.0000 0.71324  0.86861  0.95470  Biso   1.000  O 
  O64      1.0000 0.71574  0.87128  0.70342  Biso   1.000  O 
  Os1      1.0000 0.58788  0.26404  0.06741  Biso   1.000  Os
