data_image0
_cell_length_a       10.1421
_cell_length_b       10.5116
_cell_length_c       5.03464
_cell_angle_alpha    90
_cell_angle_beta     90
_cell_angle_gamma    90

_symmetry_space_group_name_H-M    "P 1"
_symmetry_int_tables_number       1

loop_
  _symmetry_equiv_pos_as_xyz
  'x, y, z'

loop_
  _atom_site_label
  _atom_site_occupancy
  _atom_site_fract_x
  _atom_site_fract_y
  _atom_site_fract_z
  _atom_site_thermal_displace_type
  _atom_site_B_iso_or_equiv
  _atom_site_type_symbol
  Hf1      1.0000 0.09580  0.94317  0.23836  Biso   1.000  Hf
  Hf2      1.0000 0.14337  0.29027  0.79761  Biso   1.000  Hf
  Hf3      1.0000 0.36766  0.24737  0.29716  Biso   1.000  Hf
  Hf4      1.0000 0.34574  0.99672  0.76396  Biso   1.000  Hf
  O1       1.0000 0.99833  0.16931  0.95554  Biso   1.000  O 
  O2       1.0000 0.96155  0.05381  0.43260  Biso   1.000  O 
  O3       1.0000 0.01228  0.31774  0.48341  Biso   1.000  O 
  O4       1.0000 0.01785  0.41983  0.98890  Biso   1.000  O 
  O5       1.0000 0.25052  0.15383  0.59183  Biso   1.000  O 
  O6       1.0000 0.25739  0.07556  0.08996  Biso   1.000  O 
  O7       1.0000 0.30657  0.37404  0.99962  Biso   1.000  O 
  O8       1.0000 0.26293  0.40259  0.52161  Biso   1.000  O 
  Hf5      1.0000 0.14141  0.48842  0.25951  Biso   1.000  Hf
  Hf6      1.0000 0.11959  0.72696  0.72247  Biso   1.000  Hf
  Hf7      1.0000 0.37463  0.76577  0.25205  Biso   1.000  Hf
  Hf8      1.0000 0.38546  0.51928  0.75090  Biso   1.000  Hf
  O9       1.0000 0.97469  0.66054  0.97638  Biso   1.000  O 
  O10      1.0000 0.02067  0.56492  0.52723  Biso   1.000  O 
  O11      1.0000 0.99441  0.80397  0.44238  Biso   1.000  O 
  O12      1.0000 0.97216  0.90037  0.94971  Biso   1.000  O 
  O13      1.0000 0.25587  0.64429  0.46294  Biso   1.000  O 
  O14      1.0000 0.22752  0.59337  0.95292  Biso   1.000  O 
  O15      1.0000 0.22405  0.83130  0.00024  Biso   1.000  O 
  O16      1.0000 0.23226  0.88779  0.51736  Biso   1.000  O 
  Hf9      1.0000 0.61040  0.01997  0.27537  Biso   1.000  Hf
  Hf10     1.0000 0.62407  0.27291  0.77087  Biso   1.000  Hf
  Hf11     1.0000 0.86243  0.24161  0.25802  Biso   1.000  Hf
  Hf12     1.0000 0.85535  0.00957  0.75334  Biso   1.000  Hf
  O17      1.0000 0.51075  0.17953  0.04937  Biso   1.000  O 
  O18      1.0000 0.48958  0.11106  0.54307  Biso   1.000  O 
  O19      1.0000 0.51073  0.36444  0.47880  Biso   1.000  O 
  O20      1.0000 0.54392  0.44235  0.94367  Biso   1.000  O 
  O21      1.0000 0.73674  0.15387  0.52545  Biso   1.000  O 
  O22      1.0000 0.74447  0.11019  0.02597  Biso   1.000  O 
  O23      1.0000 0.76126  0.36161  0.00700  Biso   1.000  O 
  O24      1.0000 0.76564  0.39783  0.50580  Biso   1.000  O 
  Hf13     1.0000 0.63743  0.49517  0.26953  Biso   1.000  Hf
  Hf14     1.0000 0.62392  0.74948  0.70932  Biso   1.000  Hf
  Hf15     1.0000 0.84157  0.76178  0.19788  Biso   1.000  Hf
  Hf16     1.0000 0.87420  0.51218  0.77471  Biso   1.000  Hf
  O25      1.0000 0.47062  0.68465  0.93903  Biso   1.000  O 
  O26      1.0000 0.50901  0.61931  0.45158  Biso   1.000  O 
  O27      1.0000 0.48411  0.86619  0.53245  Biso   1.000  O 
  O28      1.0000 0.45876  0.92911  0.05428  Biso   1.000  O 
  O29      1.0000 0.76058  0.64487  0.49141  Biso   1.000  O 
  O30      1.0000 0.73263  0.62081  0.99030  Biso   1.000  O 
  O31      1.0000 0.71863  0.86853  0.97245  Biso   1.000  O 
  O32      1.0000 0.73215  0.89730  0.47584  Biso   1.000  O 
  Os1      1.0000 0.11846  0.18088  0.28228  Biso   1.000  Os
