data_image0
_cell_length_a       10.0183
_cell_length_b       5.25409
_cell_length_c       10.1051
_cell_angle_alpha    90
_cell_angle_beta     90
_cell_angle_gamma    90

_symmetry_space_group_name_H-M    "P 1"
_symmetry_int_tables_number       1

loop_
  _symmetry_equiv_pos_as_xyz
  'x, y, z'

loop_
  _atom_site_label
  _atom_site_occupancy
  _atom_site_fract_x
  _atom_site_fract_y
  _atom_site_fract_z
  _atom_site_thermal_displace_type
  _atom_site_B_iso_or_equiv
  _atom_site_type_symbol
  Hf1      1.0000 0.12456  0.11796  0.10894  Biso   1.000  Hf
  Hf2      1.0000 0.13149  0.45106  0.39231  Biso   1.000  Hf
  Hf3      1.0000 0.36672  0.52184  0.11774  Biso   1.000  Hf
  Hf4      1.0000 0.36069  0.95388  0.37401  Biso   1.000  Hf
  O1       1.0000 0.00293  0.36978  0.23310  Biso   1.000  O 
  O2       1.0000 0.03209  0.12157  0.45516  Biso   1.000  O 
  O3       1.0000 0.46043  0.85592  0.19604  Biso   1.000  O 
  O4       1.0000 0.46199  0.62374  0.44730  Biso   1.000  O 
  O5       1.0000 0.26149  0.19943  0.25166  Biso   1.000  O 
  O6       1.0000 0.27179  0.25173  0.50133  Biso   1.000  O 
  O7       1.0000 0.22762  0.75752  0.50318  Biso   1.000  O 
  O8       1.0000 0.23650  0.67852  0.26036  Biso   1.000  O 
  Hf5      1.0000 0.13265  0.01837  0.62783  Biso   1.000  Hf
  Hf6      1.0000 0.13817  0.45584  0.86518  Biso   1.000  Hf
  Hf7      1.0000 0.36753  0.52279  0.62409  Biso   1.000  Hf
  Hf8      1.0000 0.36663  0.95848  0.87123  Biso   1.000  Hf
  O9       1.0000 0.03531  0.36075  0.68705  Biso   1.000  O 
  O10      1.0000 0.03237  0.12962  0.92551  Biso   1.000  O 
  O11      1.0000 0.46584  0.85491  0.69320  Biso   1.000  O 
  O12      1.0000 0.46551  0.62828  0.94268  Biso   1.000  O 
  O13      1.0000 0.26946  0.22056  0.74434  Biso   1.000  O 
  O14      1.0000 0.28537  0.25658  0.98182  Biso   1.000  O 
  O15      1.0000 0.23493  0.80212  0.00203  Biso   1.000  O 
  O16      1.0000 0.23317  0.72388  0.74867  Biso   1.000  O 
  Hf9      1.0000 0.62832  0.02592  0.12596  Biso   1.000  Hf
  Hf10     1.0000 0.62790  0.45674  0.37664  Biso   1.000  Hf
  Hf11     1.0000 0.84430  0.53048  0.12720  Biso   1.000  Hf
  Hf12     1.0000 0.86167  0.96830  0.37502  Biso   1.000  Hf
  O17      1.0000 0.52805  0.35208  0.19820  Biso   1.000  O 
  O18      1.0000 0.53205  0.12303  0.44677  Biso   1.000  O 
  O19      1.0000 0.95142  0.90087  0.19242  Biso   1.000  O 
  O20      1.0000 0.96389  0.63976  0.45144  Biso   1.000  O 
  O21      1.0000 0.75674  0.22539  0.25099  Biso   1.000  O 
  O22      1.0000 0.76726  0.26355  0.49822  Biso   1.000  O 
  O23      1.0000 0.72776  0.76144  0.49984  Biso   1.000  O 
  O24      1.0000 0.72032  0.72989  0.25273  Biso   1.000  O 
  Hf13     1.0000 0.63485  0.02326  0.62252  Biso   1.000  Hf
  Hf14     1.0000 0.63053  0.45485  0.87268  Biso   1.000  Hf
  Hf15     1.0000 0.86509  0.52769  0.62335  Biso   1.000  Hf
  Hf16     1.0000 0.85658  0.95724  0.87404  Biso   1.000  Hf
  O25      1.0000 0.53458  0.35514  0.69509  Biso   1.000  O 
  O26      1.0000 0.53827  0.12363  0.94363  Biso   1.000  O 
  O27      1.0000 0.96307  0.85094  0.70299  Biso   1.000  O 
  O28      1.0000 0.96610  0.62939  0.95422  Biso   1.000  O 
  O29      1.0000 0.76975  0.22163  0.74827  Biso   1.000  O 
  O30      1.0000 0.76764  0.25437  0.99880  Biso   1.000  O 
  O31      1.0000 0.72171  0.75438  0.99947  Biso   1.000  O 
  O32      1.0000 0.72914  0.72141  0.74999  Biso   1.000  O 
  Os1      1.0000 0.09847  0.62087  0.11356  Biso   1.000  Os
