data_image0
_cell_length_a       9.94382
_cell_length_b       10.3254
_cell_length_c       4.9877
_cell_angle_alpha    90
_cell_angle_beta     90
_cell_angle_gamma    90

_symmetry_space_group_name_H-M    "P 1"
_symmetry_int_tables_number       1

loop_
  _symmetry_equiv_pos_as_xyz
  'x, y, z'

loop_
  _atom_site_label
  _atom_site_occupancy
  _atom_site_fract_x
  _atom_site_fract_y
  _atom_site_fract_z
  _atom_site_thermal_displace_type
  _atom_site_B_iso_or_equiv
  _atom_site_type_symbol
  Os1      1.0000 0.13829  0.02176  0.24580  Biso   1.000  Os
  Hf1      1.0000 0.13446  0.23330  0.75585  Biso   1.000  Hf
  Hf2      1.0000 0.36617  0.26808  0.25193  Biso   1.000  Hf
  Hf3      1.0000 0.36600  0.48620  0.75207  Biso   1.000  Hf
  O1       1.0000 0.03248  0.17574  0.41154  Biso   1.000  O 
  O2       1.0000 0.03464  0.06905  0.93023  Biso   1.000  O 
  O3       1.0000 0.46268  0.43623  0.38603  Biso   1.000  O 
  O4       1.0000 0.46169  0.31632  0.88524  Biso   1.000  O 
  O5       1.0000 0.26862  0.11839  0.49471  Biso   1.000  O 
  O6       1.0000 0.27186  0.12742  0.00149  Biso   1.000  O 
  O7       1.0000 0.22822  0.38125  0.00130  Biso   1.000  O 
  O8       1.0000 0.22921  0.36829  0.50274  Biso   1.000  O 
  Hf4      1.0000 0.13377  0.51690  0.25271  Biso   1.000  Hf
  Hf5      1.0000 0.13258  0.73623  0.75062  Biso   1.000  Hf
  Hf6      1.0000 0.36362  0.76892  0.25215  Biso   1.000  Hf
  Hf7      1.0000 0.36390  0.98379  0.75139  Biso   1.000  Hf
  O9       1.0000 0.03601  0.68304  0.38750  Biso   1.000  O 
  O10      1.0000 0.03638  0.56731  0.88896  Biso   1.000  O 
  O11      1.0000 0.46338  0.93457  0.38890  Biso   1.000  O 
  O12      1.0000 0.46087  0.81660  0.88507  Biso   1.000  O 
  O13      1.0000 0.27083  0.62108  0.49952  Biso   1.000  O 
  O14      1.0000 0.27088  0.63445  0.99875  Biso   1.000  O 
  O15      1.0000 0.22335  0.88293  0.00540  Biso   1.000  O 
  O16      1.0000 0.22517  0.87425  0.49763  Biso   1.000  O 
  Hf8      1.0000 0.63416  0.01652  0.24766  Biso   1.000  Hf
  Hf9      1.0000 0.63372  0.23483  0.75073  Biso   1.000  Hf
  Hf10     1.0000 0.86643  0.26422  0.25308  Biso   1.000  Hf
  Hf11     1.0000 0.86583  0.48483  0.75181  Biso   1.000  Hf
  O17      1.0000 0.53581  0.18542  0.38602  Biso   1.000  O 
  O18      1.0000 0.53636  0.06695  0.88569  Biso   1.000  O 
  O19      1.0000 0.96508  0.43127  0.39048  Biso   1.000  O 
  O20      1.0000 0.96498  0.31666  0.89174  Biso   1.000  O 
  O21      1.0000 0.76818  0.11826  0.49781  Biso   1.000  O 
  O22      1.0000 0.77113  0.13499  0.99624  Biso   1.000  O 
  O23      1.0000 0.72973  0.38373  0.99974  Biso   1.000  O 
  O24      1.0000 0.72984  0.36852  0.49858  Biso   1.000  O 
  Hf12     1.0000 0.63458  0.51809  0.25114  Biso   1.000  Hf
  Hf13     1.0000 0.63479  0.73611  0.74843  Biso   1.000  Hf
  Hf14     1.0000 0.86866  0.76929  0.24781  Biso   1.000  Hf
  Hf15     1.0000 0.86989  0.98718  0.74501  Biso   1.000  Hf
  O25      1.0000 0.53653  0.68653  0.38492  Biso   1.000  O 
  O26      1.0000 0.53771  0.56722  0.88468  Biso   1.000  O 
  O27      1.0000 0.97089  0.93404  0.38729  Biso   1.000  O 
  O28      1.0000 0.96223  0.81760  0.88230  Biso   1.000  O 
  O29      1.0000 0.77115  0.61913  0.49849  Biso   1.000  O 
  O30      1.0000 0.77132  0.63490  0.99818  Biso   1.000  O 
  O31      1.0000 0.72969  0.88583  0.99181  Biso   1.000  O 
  O32      1.0000 0.73312  0.87010  0.49408  Biso   1.000  O 
