data_image0
_cell_length_a       9.99695
_cell_length_b       10.4355
_cell_length_c       10.0419
_cell_angle_alpha    90
_cell_angle_beta     90
_cell_angle_gamma    90

_symmetry_space_group_name_H-M    "P 1"
_symmetry_int_tables_number       1

loop_
  _symmetry_equiv_pos_as_xyz
  'x, y, z'

loop_
  _atom_site_label
  _atom_site_occupancy
  _atom_site_fract_x
  _atom_site_fract_y
  _atom_site_fract_z
  _atom_site_thermal_displace_type
  _atom_site_B_iso_or_equiv
  _atom_site_type_symbol
  Hf1      1.0000 0.13533  0.02383  0.11871  Biso   1.000  Hf
  Hf2      1.0000 0.13257  0.22942  0.38608  Biso   1.000  Hf
  Hf3      1.0000 0.36613  0.26115  0.11883  Biso   1.000  Hf
  Hf4      1.0000 0.36506  0.48315  0.37367  Biso   1.000  Hf
  O1       1.0000 0.00389  0.17491  0.22763  Biso   1.000  O 
  O2       1.0000 0.03446  0.06369  0.45368  Biso   1.000  O 
  O3       1.0000 0.46132  0.43251  0.19450  Biso   1.000  O 
  O4       1.0000 0.46261  0.31800  0.44713  Biso   1.000  O 
  O5       1.0000 0.26483  0.11240  0.25262  Biso   1.000  O 
  O6       1.0000 0.27141  0.13210  0.50169  Biso   1.000  O 
  O7       1.0000 0.22945  0.38459  0.50164  Biso   1.000  O 
  O8       1.0000 0.23281  0.35544  0.25559  Biso   1.000  O 
  Hf5      1.0000 0.13379  0.01478  0.62740  Biso   1.000  Hf
  Hf6      1.0000 0.14159  0.22526  0.86981  Biso   1.000  Hf
  Hf7      1.0000 0.36605  0.26830  0.62609  Biso   1.000  Hf
  Hf8      1.0000 0.36488  0.48886  0.87282  Biso   1.000  Hf
  O9       1.0000 0.03475  0.18238  0.69302  Biso   1.000  O 
  O10      1.0000 0.03703  0.06352  0.93735  Biso   1.000  O 
  O11      1.0000 0.46405  0.43520  0.69567  Biso   1.000  O 
  O12      1.0000 0.46170  0.31805  0.93979  Biso   1.000  O 
  O13      1.0000 0.27237  0.11514  0.74583  Biso   1.000  O 
  O14      1.0000 0.29010  0.12258  0.98880  Biso   1.000  O 
  O15      1.0000 0.23464  0.39782  0.00177  Biso   1.000  O 
  O16      1.0000 0.23021  0.36735  0.75035  Biso   1.000  O 
  Hf9      1.0000 0.12612  0.54294  0.11834  Biso   1.000  Hf
  Hf10     1.0000 0.13155  0.73700  0.37856  Biso   1.000  Hf
  Hf11     1.0000 0.36202  0.76882  0.12677  Biso   1.000  Hf
  Hf12     1.0000 0.36050  0.98368  0.37567  Biso   1.000  Hf
  O17      1.0000 0.02836  0.69406  0.20102  Biso   1.000  O 
  O18      1.0000 0.03178  0.56956  0.44669  Biso   1.000  O 
  O19      1.0000 0.45971  0.93352  0.19561  Biso   1.000  O 
  O20      1.0000 0.46065  0.81559  0.44316  Biso   1.000  O 
  O21      1.0000 0.26767  0.61959  0.24890  Biso   1.000  O 
  O22      1.0000 0.26789  0.63278  0.49819  Biso   1.000  O 
  O23      1.0000 0.22669  0.88298  0.50020  Biso   1.000  O 
  O24      1.0000 0.22625  0.86716  0.24993  Biso   1.000  O 
  Hf13     1.0000 0.13053  0.51647  0.62531  Biso   1.000  Hf
  Hf14     1.0000 0.12758  0.74193  0.87009  Biso   1.000  Hf
  Hf15     1.0000 0.36541  0.76494  0.62281  Biso   1.000  Hf
  Hf16     1.0000 0.36660  0.97960  0.87277  Biso   1.000  Hf
  O25      1.0000 0.03324  0.68592  0.69040  Biso   1.000  O 
  O26      1.0000 0.02846  0.57508  0.94119  Biso   1.000  O 
  O27      1.0000 0.46429  0.93185  0.69098  Biso   1.000  O 
  O28      1.0000 0.46374  0.81824  0.94788  Biso   1.000  O 
  O29      1.0000 0.26579  0.61735  0.74741  Biso   1.000  O 
  O30      1.0000 0.26464  0.64603  0.99414  Biso   1.000  O 
  O31      1.0000 0.22407  0.88683  0.99900  Biso   1.000  O 
  O32      1.0000 0.23078  0.86657  0.74728  Biso   1.000  O 
  Hf17     1.0000 0.62993  0.01332  0.12355  Biso   1.000  Hf
  Hf18     1.0000 0.62858  0.23188  0.37785  Biso   1.000  Hf
  Hf19     1.0000 0.84357  0.26358  0.12867  Biso   1.000  Hf
  Hf20     1.0000 0.86348  0.48603  0.37782  Biso   1.000  Hf
  O33      1.0000 0.53110  0.17981  0.19618  Biso   1.000  O 
  O34      1.0000 0.53354  0.06597  0.44638  Biso   1.000  O 
  O35      1.0000 0.95299  0.44705  0.19555  Biso   1.000  O 
  O36      1.0000 0.96616  0.32237  0.45136  Biso   1.000  O 
  O37      1.0000 0.75728  0.11405  0.25033  Biso   1.000  O 
  O38      1.0000 0.77039  0.13552  0.49778  Biso   1.000  O 
  O39      1.0000 0.72828  0.38358  0.50178  Biso   1.000  O 
  O40      1.0000 0.72120  0.36893  0.25392  Biso   1.000  O 
  Hf21     1.0000 0.63532  0.01693  0.62376  Biso   1.000  Hf
  Hf22     1.0000 0.62972  0.23361  0.87240  Biso   1.000  Hf
  Hf23     1.0000 0.86582  0.26789  0.62613  Biso   1.000  Hf
  Hf24     1.0000 0.86022  0.48511  0.87728  Biso   1.000  Hf
  O41      1.0000 0.53645  0.18502  0.69190  Biso   1.000  O 
  O42      1.0000 0.54078  0.06493  0.93870  Biso   1.000  O 
  O43      1.0000 0.96379  0.43394  0.70193  Biso   1.000  O 
  O44      1.0000 0.96587  0.31499  0.95166  Biso   1.000  O 
  O45      1.0000 0.77055  0.11774  0.74820  Biso   1.000  O 
  O46      1.0000 0.76770  0.13353  0.99867  Biso   1.000  O 
  O47      1.0000 0.72473  0.38186  0.00037  Biso   1.000  O 
  O48      1.0000 0.73002  0.36792  0.75138  Biso   1.000  O 
  Hf25     1.0000 0.62924  0.51807  0.12805  Biso   1.000  Hf
  Hf26     1.0000 0.63074  0.73480  0.37526  Biso   1.000  Hf
  Hf27     1.0000 0.85994  0.76962  0.12583  Biso   1.000  Hf
  Hf28     1.0000 0.86456  0.98712  0.37161  Biso   1.000  Hf
  O49      1.0000 0.53128  0.68362  0.19591  Biso   1.000  O 
  O50      1.0000 0.53187  0.56670  0.44567  Biso   1.000  O 
  O51      1.0000 0.95982  0.93757  0.19039  Biso   1.000  O 
  O52      1.0000 0.96068  0.81933  0.44433  Biso   1.000  O 
  O53      1.0000 0.76481  0.61927  0.25155  Biso   1.000  O 
  O54      1.0000 0.76544  0.63487  0.50059  Biso   1.000  O 
  O55      1.0000 0.72822  0.88584  0.49742  Biso   1.000  O 
  O56      1.0000 0.72525  0.86760  0.24864  Biso   1.000  O 
  Hf29     1.0000 0.63253  0.51679  0.62530  Biso   1.000  Hf
  Hf30     1.0000 0.63121  0.73487  0.87548  Biso   1.000  Hf
  Hf31     1.0000 0.86347  0.76831  0.62363  Biso   1.000  Hf
  Hf32     1.0000 0.86064  0.98404  0.87475  Biso   1.000  Hf
  O57      1.0000 0.53283  0.68313  0.69631  Biso   1.000  O 
  O58      1.0000 0.53135  0.56955  0.94647  Biso   1.000  O 
  O59      1.0000 0.96304  0.93126  0.69878  Biso   1.000  O 
  O60      1.0000 0.95805  0.81782  0.94524  Biso   1.000  O 
  O61      1.0000 0.76802  0.61721  0.75054  Biso   1.000  O 
  O62      1.0000 0.76793  0.63163  0.00060  Biso   1.000  O 
  O63      1.0000 0.72454  0.88421  0.99865  Biso   1.000  O 
  O64      1.0000 0.72733  0.86729  0.74831  Biso   1.000  O 
  Os1      1.0000 0.09745  0.30429  0.11151  Biso   1.000  Os
