data_image0
_cell_length_a       10.0328
_cell_length_b       10.6299
_cell_length_c       5.02424
_cell_angle_alpha    90
_cell_angle_beta     90
_cell_angle_gamma    90

_symmetry_space_group_name_H-M    "P 1"
_symmetry_int_tables_number       1

loop_
  _symmetry_equiv_pos_as_xyz
  'x, y, z'

loop_
  _atom_site_label
  _atom_site_occupancy
  _atom_site_fract_x
  _atom_site_fract_y
  _atom_site_fract_z
  _atom_site_thermal_displace_type
  _atom_site_B_iso_or_equiv
  _atom_site_type_symbol
  Hf1      1.0000 0.13626  0.00989  0.24121  Biso   1.000  Hf
  Hf2      1.0000 0.13680  0.20745  0.75316  Biso   1.000  Hf
  Hf3      1.0000 0.36809  0.26134  0.23276  Biso   1.000  Hf
  Hf4      1.0000 0.36392  0.48634  0.73956  Biso   1.000  Hf
  O1       1.0000 0.00947  0.17211  0.42474  Biso   1.000  O 
  O2       1.0000 0.02988  0.05851  0.90407  Biso   1.000  O 
  O3       1.0000 0.46777  0.42871  0.39991  Biso   1.000  O 
  O4       1.0000 0.46494  0.31798  0.89046  Biso   1.000  O 
  O5       1.0000 0.26350  0.09861  0.49338  Biso   1.000  O 
  O6       1.0000 0.28985  0.11720  0.97982  Biso   1.000  O 
  O7       1.0000 0.24896  0.41838  0.04666  Biso   1.000  O 
  O8       1.0000 0.24504  0.34219  0.54317  Biso   1.000  O 
  Hf5      1.0000 0.11767  0.54742  0.22640  Biso   1.000  Hf
  Hf6      1.0000 0.12200  0.74478  0.74169  Biso   1.000  Hf
  Hf7      1.0000 0.36204  0.76341  0.24404  Biso   1.000  Hf
  Hf8      1.0000 0.36107  0.97736  0.74266  Biso   1.000  Hf
  O9       1.0000 0.02001  0.69649  0.39336  Biso   1.000  O 
  O10      1.0000 0.02251  0.57727  0.87416  Biso   1.000  O 
  O11      1.0000 0.45897  0.92751  0.38074  Biso   1.000  O 
  O12      1.0000 0.45958  0.81536  0.88905  Biso   1.000  O 
  O13      1.0000 0.26101  0.61367  0.49091  Biso   1.000  O 
  O14      1.0000 0.25705  0.65206  0.98190  Biso   1.000  O 
  O15      1.0000 0.22021  0.88574  0.98947  Biso   1.000  O 
  O16      1.0000 0.22616  0.85968  0.48677  Biso   1.000  O 
  Hf9      1.0000 0.63148  0.01432  0.24461  Biso   1.000  Hf
  Hf10     1.0000 0.62584  0.22998  0.74491  Biso   1.000  Hf
  Hf11     1.0000 0.84935  0.26488  0.25088  Biso   1.000  Hf
  Hf12     1.0000 0.85778  0.48593  0.74993  Biso   1.000  Hf
  O17      1.0000 0.52942  0.17478  0.39589  Biso   1.000  O 
  O18      1.0000 0.53942  0.06272  0.88393  Biso   1.000  O 
  O19      1.0000 0.95215  0.44565  0.39718  Biso   1.000  O 
  O20      1.0000 0.97581  0.31724  0.91619  Biso   1.000  O 
  O21      1.0000 0.76176  0.11270  0.49493  Biso   1.000  O 
  O22      1.0000 0.76712  0.13663  0.99247  Biso   1.000  O 
  O23      1.0000 0.72803  0.38386  0.00105  Biso   1.000  O 
  O24      1.0000 0.72529  0.36351  0.50614  Biso   1.000  O 
  Hf13     1.0000 0.62776  0.51488  0.25167  Biso   1.000  Hf
  Hf14     1.0000 0.62583  0.73204  0.74999  Biso   1.000  Hf
  Hf15     1.0000 0.85294  0.77089  0.24717  Biso   1.000  Hf
  Hf16     1.0000 0.85262  0.98395  0.74460  Biso   1.000  Hf
  O25      1.0000 0.52629  0.67885  0.39674  Biso   1.000  O 
  O26      1.0000 0.52578  0.56865  0.90075  Biso   1.000  O 
  O27      1.0000 0.95718  0.93272  0.40038  Biso   1.000  O 
  O28      1.0000 0.95353  0.82034  0.89643  Biso   1.000  O 
  O29      1.0000 0.75921  0.61480  0.50502  Biso   1.000  O 
  O30      1.0000 0.76157  0.63495  0.00224  Biso   1.000  O 
  O31      1.0000 0.72057  0.88576  0.99707  Biso   1.000  O 
  O32      1.0000 0.72015  0.86469  0.49865  Biso   1.000  O 
  Os1      1.0000 0.11143  0.31092  0.23439  Biso   1.000  Os
