data_image0
_cell_length_a       4.97268
_cell_length_b       10.3268
_cell_length_c       9.97671
_cell_angle_alpha    90
_cell_angle_beta     90
_cell_angle_gamma    90

_symmetry_space_group_name_H-M    "P 1"
_symmetry_int_tables_number       1

loop_
  _symmetry_equiv_pos_as_xyz
  'x, y, z'

loop_
  _atom_site_label
  _atom_site_occupancy
  _atom_site_fract_x
  _atom_site_fract_y
  _atom_site_fract_z
  _atom_site_thermal_displace_type
  _atom_site_B_iso_or_equiv
  _atom_site_type_symbol
  Os1      1.0000 0.27520  0.02155  0.11929  Biso   1.000  Os
  Hf1      1.0000 0.26589  0.23364  0.37531  Biso   1.000  Hf
  Hf2      1.0000 0.73436  0.26599  0.12627  Biso   1.000  Hf
  Hf3      1.0000 0.73271  0.48603  0.37629  Biso   1.000  Hf
  O1       1.0000 0.06691  0.17784  0.19821  Biso   1.000  O 
  O2       1.0000 0.06867  0.06974  0.45058  Biso   1.000  O 
  O3       1.0000 0.93145  0.43229  0.19511  Biso   1.000  O 
  O4       1.0000 0.92937  0.31870  0.44550  Biso   1.000  O 
  O5       1.0000 0.53039  0.11800  0.24519  Biso   1.000  O 
  O6       1.0000 0.54333  0.13538  0.49747  Biso   1.000  O 
  O7       1.0000 0.45979  0.38476  0.50010  Biso   1.000  O 
  O8       1.0000 0.46173  0.36906  0.25030  Biso   1.000  O 
  Hf4      1.0000 0.27104  0.01863  0.62587  Biso   1.000  Hf
  Hf5      1.0000 0.27179  0.23691  0.87757  Biso   1.000  Hf
  Hf6      1.0000 0.73387  0.26841  0.62618  Biso   1.000  Hf
  Hf7      1.0000 0.73317  0.48710  0.87582  Biso   1.000  Hf
  O9       1.0000 0.07131  0.18497  0.70054  Biso   1.000  O 
  O10      1.0000 0.07384  0.06884  0.95774  Biso   1.000  O 
  O11      1.0000 0.92795  0.43680  0.69391  Biso   1.000  O 
  O12      1.0000 0.92682  0.31690  0.94399  Biso   1.000  O 
  O13      1.0000 0.54297  0.12041  0.75030  Biso   1.000  O 
  O14      1.0000 0.54343  0.12728  0.00045  Biso   1.000  O 
  O15      1.0000 0.45721  0.38028  0.00049  Biso   1.000  O 
  O16      1.0000 0.45966  0.36985  0.75039  Biso   1.000  O 
  Hf8      1.0000 0.27099  0.51767  0.12700  Biso   1.000  Hf
  Hf9      1.0000 0.26875  0.73831  0.37329  Biso   1.000  Hf
  Hf10     1.0000 0.73470  0.77089  0.12524  Biso   1.000  Hf
  Hf11     1.0000 0.73771  0.98728  0.37111  Biso   1.000  Hf
  O17      1.0000 0.07424  0.68415  0.19253  Biso   1.000  O 
  O18      1.0000 0.07374  0.56949  0.44311  Biso   1.000  O 
  O19      1.0000 0.94111  0.93403  0.19240  Biso   1.000  O 
  O20      1.0000 0.92805  0.81897  0.44321  Biso   1.000  O 
  O21      1.0000 0.54495  0.62183  0.24972  Biso   1.000  O 
  O22      1.0000 0.54096  0.63572  0.49898  Biso   1.000  O 
  O23      1.0000 0.46174  0.88606  0.49757  Biso   1.000  O 
  O24      1.0000 0.45677  0.87595  0.24542  Biso   1.000  O 
  Hf12     1.0000 0.26867  0.51933  0.62492  Biso   1.000  Hf
  Hf13     1.0000 0.26784  0.73592  0.87619  Biso   1.000  Hf
  Hf14     1.0000 0.73312  0.76948  0.62507  Biso   1.000  Hf
  Hf15     1.0000 0.73202  0.98539  0.87705  Biso   1.000  Hf
  O25      1.0000 0.07309  0.68703  0.69396  Biso   1.000  O 
  O26      1.0000 0.07639  0.56719  0.94398  Biso   1.000  O 
  O27      1.0000 0.93067  0.93663  0.69643  Biso   1.000  O 
  O28      1.0000 0.92157  0.81742  0.94134  Biso   1.000  O 
  O29      1.0000 0.54172  0.62038  0.74927  Biso   1.000  O 
  O30      1.0000 0.54544  0.63571  0.99955  Biso   1.000  O 
  O31      1.0000 0.44655  0.88253  0.00037  Biso   1.000  O 
  O32      1.0000 0.46124  0.87020  0.74996  Biso   1.000  O 
