data_image0
_cell_length_a       10.1564
_cell_length_b       10.2703
_cell_length_c       10.5316
_cell_angle_alpha    90
_cell_angle_beta     80
_cell_angle_gamma    90

_symmetry_space_group_name_H-M    "P 1"
_symmetry_int_tables_number       1

loop_
  _symmetry_equiv_pos_as_xyz
  'x, y, z'

loop_
  _atom_site_label
  _atom_site_occupancy
  _atom_site_fract_x
  _atom_site_fract_y
  _atom_site_fract_z
  _atom_site_thermal_displace_type
  _atom_site_B_iso_or_equiv
  _atom_site_type_symbol
  Hf1      1.0000 0.13645  0.02255  0.14659  Biso   1.000  Hf
  Hf2      1.0000 0.13784  0.23732  0.39449  Biso   1.000  Hf
  Hf3      1.0000 0.35427  0.27053  0.09574  Biso   1.000  Hf
  Hf4      1.0000 0.34543  0.48390  0.35453  Biso   1.000  Hf
  O1       1.0000 0.03419  0.16857  0.07687  Biso   1.000  O 
  O2       1.0000 0.03601  0.08687  0.32594  Biso   1.000  O 
  O3       1.0000 0.47169  0.38574  0.19587  Biso   1.000  O 
  O4       1.0000 0.48366  0.36632  0.44191  Biso   1.000  O 
  O5       1.0000 0.28243  0.12639  0.23778  Biso   1.000  O 
  O6       1.0000 0.29116  0.12413  0.47861  Biso   1.000  O 
  O7       1.0000 0.21921  0.38079  0.00404  Biso   1.000  O 
  O8       1.0000 0.20302  0.37999  0.24904  Biso   1.000  O 
  Hf5      1.0000 0.13757  0.02287  0.64610  Biso   1.000  Hf
  Hf6      1.0000 0.13502  0.23153  0.89295  Biso   1.000  Hf
  Hf7      1.0000 0.36003  0.27928  0.60468  Biso   1.000  Hf
  Hf8      1.0000 0.35650  0.48262  0.85444  Biso   1.000  Hf
  O9       1.0000 0.03986  0.16961  0.57625  Biso   1.000  O 
  O10      1.0000 0.03288  0.08505  0.82643  Biso   1.000  O 
  O11      1.0000 0.46579  0.41342  0.68274  Biso   1.000  O 
  O12      1.0000 0.46855  0.34664  0.93005  Biso   1.000  O 
  O13      1.0000 0.27431  0.13153  0.73705  Biso   1.000  O 
  O14      1.0000 0.27346  0.12498  0.98619  Biso   1.000  O 
  O15      1.0000 0.21457  0.38580  0.51655  Biso   1.000  O 
  O16      1.0000 0.22123  0.37486  0.75909  Biso   1.000  O 
  Hf9      1.0000 0.13217  0.52386  0.14220  Biso   1.000  Hf
  Hf10     1.0000 0.12878  0.73068  0.39677  Biso   1.000  Hf
  Hf11     1.0000 0.35381  0.77072  0.10263  Biso   1.000  Hf
  Hf12     1.0000 0.35805  0.96675  0.35425  Biso   1.000  Hf
  O17      1.0000 0.02639  0.67133  0.07765  Biso   1.000  O 
  O18      1.0000 0.02695  0.58924  0.32507  Biso   1.000  O 
  O19      1.0000 0.46149  0.90946  0.17429  Biso   1.000  O 
  O20      1.0000 0.45753  0.82620  0.42500  Biso   1.000  O 
  O21      1.0000 0.26926  0.62951  0.23961  Biso   1.000  O 
  O22      1.0000 0.26469  0.62623  0.49305  Biso   1.000  O 
  O23      1.0000 0.21703  0.87999  0.01039  Biso   1.000  O 
  O24      1.0000 0.21622  0.87018  0.25932  Biso   1.000  O 
  Hf13     1.0000 0.13136  0.52713  0.64836  Biso   1.000  Hf
  Hf14     1.0000 0.13057  0.73324  0.89686  Biso   1.000  Hf
  Hf15     1.0000 0.35531  0.77100  0.60588  Biso   1.000  Hf
  Hf16     1.0000 0.35393  0.98104  0.85296  Biso   1.000  Hf
  O25      1.0000 0.02417  0.66887  0.57809  Biso   1.000  O 
  O26      1.0000 0.02750  0.58744  0.83043  Biso   1.000  O 
  O27      1.0000 0.45900  0.91620  0.67291  Biso   1.000  O 
  O28      1.0000 0.46047  0.83913  0.92409  Biso   1.000  O 
  O29      1.0000 0.27015  0.63122  0.74175  Biso   1.000  O 
  O30      1.0000 0.26904  0.62632  0.98922  Biso   1.000  O 
  O31      1.0000 0.21752  0.88176  0.51116  Biso   1.000  O 
  O32      1.0000 0.21624  0.87415  0.76036  Biso   1.000  O 
  Hf17     1.0000 0.63957  0.02077  0.14572  Biso   1.000  Hf
  Hf18     1.0000 0.64336  0.23060  0.40116  Biso   1.000  Hf
  Hf19     1.0000 0.85940  0.27258  0.10486  Biso   1.000  Hf
  Hf20     1.0000 0.85815  0.47991  0.35461  Biso   1.000  Hf
  O33      1.0000 0.52793  0.15502  0.06935  Biso   1.000  O 
  O34      1.0000 0.55160  0.05990  0.33625  Biso   1.000  O 
  O35      1.0000 0.95854  0.42137  0.16931  Biso   1.000  O 
  O36      1.0000 0.96445  0.33887  0.42398  Biso   1.000  O 
  O37      1.0000 0.77839  0.12982  0.23865  Biso   1.000  O 
  O38      1.0000 0.78004  0.12133  0.49214  Biso   1.000  O 
  O39      1.0000 0.71998  0.37758  0.01293  Biso   1.000  O 
  O40      1.0000 0.72337  0.37214  0.26276  Biso   1.000  O 
  Hf21     1.0000 0.63805  0.02447  0.64466  Biso   1.000  Hf
  Hf22     1.0000 0.63686  0.22981  0.89705  Biso   1.000  Hf
  Hf23     1.0000 0.86231  0.27359  0.60642  Biso   1.000  Hf
  Hf24     1.0000 0.85545  0.48078  0.85680  Biso   1.000  Hf
  O41      1.0000 0.53327  0.16915  0.57855  Biso   1.000  O 
  O42      1.0000 0.53132  0.09034  0.82314  Biso   1.000  O 
  O43      1.0000 0.96137  0.41918  0.67547  Biso   1.000  O 
  O44      1.0000 0.96185  0.33543  0.92087  Biso   1.000  O 
  O45      1.0000 0.77554  0.13078  0.74059  Biso   1.000  O 
  O46      1.0000 0.77539  0.12442  0.98969  Biso   1.000  O 
  O47      1.0000 0.72677  0.37912  0.51449  Biso   1.000  O 
  O48      1.0000 0.72123  0.37354  0.76240  Biso   1.000  O 
  Hf25     1.0000 0.63319  0.51987  0.14993  Biso   1.000  Hf
  Hf26     1.0000 0.63227  0.72588  0.39524  Biso   1.000  Hf
  Hf27     1.0000 0.85341  0.77184  0.10407  Biso   1.000  Hf
  Hf28     1.0000 0.85303  0.98067  0.35345  Biso   1.000  Hf
  O49      1.0000 0.52159  0.65395  0.07322  Biso   1.000  O 
  O50      1.0000 0.52289  0.59019  0.32065  Biso   1.000  O 
  O51      1.0000 0.95869  0.91860  0.17099  Biso   1.000  O 
  O52      1.0000 0.95827  0.83814  0.42351  Biso   1.000  O 
  O53      1.0000 0.76836  0.62658  0.23932  Biso   1.000  O 
  O54      1.0000 0.77000  0.62252  0.48948  Biso   1.000  O 
  O55      1.0000 0.71513  0.87831  0.01096  Biso   1.000  O 
  O56      1.0000 0.72049  0.86784  0.25933  Biso   1.000  O 
  Hf29     1.0000 0.63548  0.52252  0.64721  Biso   1.000  Hf
  Hf30     1.0000 0.63173  0.72962  0.89658  Biso   1.000  Hf
  Hf31     1.0000 0.85226  0.77490  0.60426  Biso   1.000  Hf
  Hf32     1.0000 0.85158  0.98094  0.85436  Biso   1.000  Hf
  O57      1.0000 0.52700  0.66227  0.57640  Biso   1.000  O 
  O58      1.0000 0.52750  0.59124  0.82405  Biso   1.000  O 
  O59      1.0000 0.95804  0.91868  0.67285  Biso   1.000  O 
  O60      1.0000 0.95725  0.83763  0.92197  Biso   1.000  O 
  O61      1.0000 0.77052  0.63112  0.74089  Biso   1.000  O 
  O62      1.0000 0.76855  0.62418  0.99165  Biso   1.000  O 
  O63      1.0000 0.71505  0.87963  0.50958  Biso   1.000  O 
  O64      1.0000 0.71567  0.87380  0.76021  Biso   1.000  O 
  Os1      1.0000 0.40748  0.23738  0.33234  Biso   1.000  Os
