data_image0
_cell_length_a       5.0972
_cell_length_b       10.3744
_cell_length_c       10.2181
_cell_angle_alpha    90
_cell_angle_beta     90
_cell_angle_gamma    90

_symmetry_space_group_name_H-M    "P 1"
_symmetry_int_tables_number       1

loop_
  _symmetry_equiv_pos_as_xyz
  'x, y, z'

loop_
  _atom_site_label
  _atom_site_occupancy
  _atom_site_fract_x
  _atom_site_fract_y
  _atom_site_fract_z
  _atom_site_thermal_displace_type
  _atom_site_B_iso_or_equiv
  _atom_site_type_symbol
  Hf1      1.0000 0.14439  0.98992  0.14567  Biso   1.000  Hf
  Hf2      1.0000 0.16162  0.26573  0.36592  Biso   1.000  Hf
  Hf3      1.0000 0.56119  0.28307  0.12096  Biso   1.000  Hf
  Hf4      1.0000 0.70915  0.03171  0.40692  Biso   1.000  Hf
  O1       1.0000 0.91889  0.22582  0.95021  Biso   1.000  O 
  O2       1.0000 0.02407  0.08525  0.28783  Biso   1.000  O 
  O3       1.0000 0.85144  0.36321  0.26035  Biso   1.000  O 
  O4       1.0000 0.79815  0.41183  0.01318  Biso   1.000  O 
  O5       1.0000 0.48895  0.15404  0.26803  Biso   1.000  O 
  O6       1.0000 0.43852  0.16131  0.99240  Biso   1.000  O 
  O7       1.0000 0.27785  0.41858  0.97294  Biso   1.000  O 
  O8       1.0000 0.35890  0.41537  0.23607  Biso   1.000  O 
  Hf5      1.0000 0.06051  0.99745  0.63452  Biso   1.000  Hf
  Hf6      1.0000 0.22420  0.27452  0.83099  Biso   1.000  Hf
  Hf7      1.0000 0.67515  0.29146  0.60359  Biso   1.000  Hf
  Hf8      1.0000 0.73044  0.05570  0.88490  Biso   1.000  Hf
  O9       1.0000 0.91968  0.18140  0.50023  Biso   1.000  O 
  O10      1.0000 0.03195  0.10977  0.75646  Biso   1.000  O 
  O11      1.0000 0.95220  0.36827  0.72498  Biso   1.000  O 
  O12      1.0000 0.92366  0.42849  0.49081  Biso   1.000  O 
  O13      1.0000 0.53341  0.18109  0.75061  Biso   1.000  O 
  O14      1.0000 0.42678  0.12713  0.51257  Biso   1.000  O 
  O15      1.0000 0.43406  0.36869  0.47094  Biso   1.000  O 
  O16      1.0000 0.42246  0.43000  0.73013  Biso   1.000  O 
  Hf9      1.0000 0.08785  0.49783  0.10874  Biso   1.000  Hf
  Hf10     1.0000 0.16390  0.74526  0.36888  Biso   1.000  Hf
  Hf11     1.0000 0.65616  0.76067  0.13003  Biso   1.000  Hf
  Hf12     1.0000 0.64568  0.51304  0.37016  Biso   1.000  Hf
  O17      1.0000 0.81259  0.69644  0.98946  Biso   1.000  O 
  O18      1.0000 0.93000  0.60706  0.24961  Biso   1.000  O 
  O19      1.0000 0.93890  0.84298  0.23671  Biso   1.000  O 
  O20      1.0000 0.84884  0.95202  0.99534  Biso   1.000  O 
  O21      1.0000 0.44891  0.65935  0.26356  Biso   1.000  O 
  O22      1.0000 0.35454  0.62041  0.01112  Biso   1.000  O 
  O23      1.0000 0.39411  0.86878  0.01865  Biso   1.000  O 
  O24      1.0000 0.41754  0.89941  0.26541  Biso   1.000  O 
  Hf13     1.0000 0.10339  0.53321  0.63337  Biso   1.000  Hf
  Hf14     1.0000 0.10496  0.80556  0.89130  Biso   1.000  Hf
  Hf15     1.0000 0.61155  0.76110  0.61756  Biso   1.000  Hf
  Hf16     1.0000 0.54522  0.55896  0.87883  Biso   1.000  Hf
  O25      1.0000 0.87931  0.67182  0.49506  Biso   1.000  O 
  O26      1.0000 0.79814  0.60995  0.73306  Biso   1.000  O 
  O27      1.0000 0.84958  0.85291  0.74853  Biso   1.000  O 
  O28      1.0000 0.78247  0.91964  0.51671  Biso   1.000  O 
  O29      1.0000 0.30892  0.68233  0.75624  Biso   1.000  O 
  O30      1.0000 0.38495  0.61588  0.50487  Biso   1.000  O 
  O31      1.0000 0.30507  0.86703  0.51365  Biso   1.000  O 
  O32      1.0000 0.32970  0.93101  0.76895  Biso   1.000  O 
  P1       1.0000 0.99501  0.17361  0.11295  Biso   1.000  P 
