data_image0
_cell_length_a       9.93092
_cell_length_b       5.17721
_cell_length_c       9.99437
_cell_angle_alpha    90
_cell_angle_beta     90
_cell_angle_gamma    90

_symmetry_space_group_name_H-M    "P 1"
_symmetry_int_tables_number       1

loop_
  _symmetry_equiv_pos_as_xyz
  'x, y, z'

loop_
  _atom_site_label
  _atom_site_occupancy
  _atom_site_fract_x
  _atom_site_fract_y
  _atom_site_fract_z
  _atom_site_thermal_displace_type
  _atom_site_B_iso_or_equiv
  _atom_site_type_symbol
  P1       1.0000 0.09255  0.06607  0.10725  Biso   1.000  P 
  Hf1      1.0000 0.15245  0.46031  0.37873  Biso   1.000  Hf
  Hf2      1.0000 0.36237  0.53003  0.13049  Biso   1.000  Hf
  Hf3      1.0000 0.36842  0.96379  0.37310  Biso   1.000  Hf
  O1       1.0000 0.04493  0.34062  0.17919  Biso   1.000  O 
  O2       1.0000 0.04488  0.12922  0.44731  Biso   1.000  O 
  O3       1.0000 0.47324  0.86194  0.19772  Biso   1.000  O 
  O4       1.0000 0.47688  0.63518  0.45348  Biso   1.000  O 
  O5       1.0000 0.28807  0.24899  0.25985  Biso   1.000  O 
  O6       1.0000 0.28013  0.25899  0.50854  Biso   1.000  O 
  O7       1.0000 0.23691  0.75670  0.50619  Biso   1.000  O 
  O8       1.0000 0.24240  0.72313  0.26035  Biso   1.000  O 
  Hf4      1.0000 0.14468  0.03325  0.62952  Biso   1.000  Hf
  Hf5      1.0000 0.15007  0.47239  0.88142  Biso   1.000  Hf
  Hf6      1.0000 0.37578  0.53562  0.63088  Biso   1.000  Hf
  Hf7      1.0000 0.37212  0.96435  0.88642  Biso   1.000  Hf
  O9       1.0000 0.04278  0.35899  0.70208  Biso   1.000  O 
  O10      1.0000 0.04243  0.11855  0.95970  Biso   1.000  O 
  O11      1.0000 0.47220  0.86877  0.70024  Biso   1.000  O 
  O12      1.0000 0.47243  0.62592  0.94290  Biso   1.000  O 
  O13      1.0000 0.27982  0.23658  0.75705  Biso   1.000  O 
  O14      1.0000 0.26209  0.26392  0.00618  Biso   1.000  O 
  O15      1.0000 0.22342  0.76123  0.00684  Biso   1.000  O 
  O16      1.0000 0.23742  0.73902  0.75554  Biso   1.000  O 
  Hf8      1.0000 0.63523  0.03607  0.12745  Biso   1.000  Hf
  Hf9      1.0000 0.63992  0.46892  0.37311  Biso   1.000  Hf
  Hf10     1.0000 0.86502  0.52991  0.11700  Biso   1.000  Hf
  Hf11     1.0000 0.87662  0.97006  0.37642  Biso   1.000  Hf
  O17      1.0000 0.54649  0.37591  0.19153  Biso   1.000  O 
  O18      1.0000 0.54480  0.13128  0.43961  Biso   1.000  O 
  O19      1.0000 0.98119  0.88015  0.17646  Biso   1.000  O 
  O20      1.0000 0.97316  0.62656  0.43419  Biso   1.000  O 
  O21      1.0000 0.78220  0.23406  0.24527  Biso   1.000  O 
  O22      1.0000 0.77856  0.26302  0.49514  Biso   1.000  O 
  O23      1.0000 0.74196  0.76504  0.49713  Biso   1.000  O 
  O24      1.0000 0.74572  0.73863  0.24664  Biso   1.000  O 
  Hf12     1.0000 0.63706  0.02568  0.62031  Biso   1.000  Hf
  Hf13     1.0000 0.64004  0.45863  0.87391  Biso   1.000  Hf
  Hf14     1.0000 0.87759  0.52355  0.62066  Biso   1.000  Hf
  Hf15     1.0000 0.87020  0.95463  0.86752  Biso   1.000  Hf
  O25      1.0000 0.54527  0.36327  0.69386  Biso   1.000  O 
  O26      1.0000 0.54612  0.12616  0.94812  Biso   1.000  O 
  O27      1.0000 0.97384  0.86019  0.69172  Biso   1.000  O 
  O28      1.0000 0.97242  0.62370  0.93845  Biso   1.000  O 
  O29      1.0000 0.77695  0.22292  0.74418  Biso   1.000  O 
  O30      1.0000 0.78351  0.25847  0.99473  Biso   1.000  O 
  O31      1.0000 0.74043  0.75617  0.99755  Biso   1.000  O 
  O32      1.0000 0.73971  0.72307  0.74657  Biso   1.000  O 
