data_image0
_cell_length_a       4.97685
_cell_length_b       10.3593
_cell_length_c       10.0001
_cell_angle_alpha    90
_cell_angle_beta     90
_cell_angle_gamma    90

_symmetry_space_group_name_H-M    "P 1"
_symmetry_int_tables_number       1

loop_
  _symmetry_equiv_pos_as_xyz
  'x, y, z'

loop_
  _atom_site_label
  _atom_site_occupancy
  _atom_site_fract_x
  _atom_site_fract_y
  _atom_site_fract_z
  _atom_site_thermal_displace_type
  _atom_site_B_iso_or_equiv
  _atom_site_type_symbol
  P1       1.0000 0.17291  0.03649  0.10689  Biso   1.000  P 
  Hf1      1.0000 0.29826  0.22841  0.37644  Biso   1.000  Hf
  Hf2      1.0000 0.71980  0.26646  0.12379  Biso   1.000  Hf
  Hf3      1.0000 0.75249  0.48064  0.37586  Biso   1.000  Hf
  O1       1.0000 0.10243  0.17413  0.17775  Biso   1.000  O 
  O2       1.0000 0.09068  0.06516  0.44258  Biso   1.000  O 
  O3       1.0000 0.93634  0.42612  0.19470  Biso   1.000  O 
  O4       1.0000 0.95112  0.31262  0.44428  Biso   1.000  O 
  O5       1.0000 0.59580  0.13197  0.26020  Biso   1.000  O 
  O6       1.0000 0.55592  0.12863  0.50486  Biso   1.000  O 
  O7       1.0000 0.48141  0.37838  0.49923  Biso   1.000  O 
  O8       1.0000 0.45703  0.36906  0.24881  Biso   1.000  O 
  Hf4      1.0000 0.27755  0.01184  0.62597  Biso   1.000  Hf
  Hf5      1.0000 0.29775  0.23425  0.87433  Biso   1.000  Hf
  Hf6      1.0000 0.75664  0.26291  0.62524  Biso   1.000  Hf
  Hf7      1.0000 0.76078  0.48106  0.87434  Biso   1.000  Hf
  O9       1.0000 0.08759  0.17929  0.70019  Biso   1.000  O 
  O10      1.0000 0.08138  0.06082  0.95984  Biso   1.000  O 
  O11      1.0000 0.95275  0.43122  0.69308  Biso   1.000  O 
  O12      1.0000 0.95276  0.31103  0.94141  Biso   1.000  O 
  O13      1.0000 0.55266  0.11263  0.75099  Biso   1.000  O 
  O14      1.0000 0.55577  0.13003  0.99871  Biso   1.000  O 
  O15      1.0000 0.48718  0.37951  0.99974  Biso   1.000  O 
  O16      1.0000 0.48362  0.36467  0.74918  Biso   1.000  O 
  Hf8      1.0000 0.27130  0.51690  0.12898  Biso   1.000  Hf
  Hf9      1.0000 0.29582  0.73457  0.37559  Biso   1.000  Hf
  Hf10     1.0000 0.73784  0.76168  0.12083  Biso   1.000  Hf
  Hf11     1.0000 0.74517  0.98491  0.37566  Biso   1.000  Hf
  O17      1.0000 0.08462  0.68767  0.19586  Biso   1.000  O 
  O18      1.0000 0.09473  0.56358  0.44245  Biso   1.000  O 
  O19      1.0000 0.96103  0.94550  0.17732  Biso   1.000  O 
  O20      1.0000 0.96150  0.81917  0.44873  Biso   1.000  O 
  O21      1.0000 0.55509  0.61073  0.24799  Biso   1.000  O 
  O22      1.0000 0.56570  0.63113  0.49913  Biso   1.000  O 
  O23      1.0000 0.48403  0.88175  0.50303  Biso   1.000  O 
  O24      1.0000 0.52636  0.85550  0.26022  Biso   1.000  O 
  Hf12     1.0000 0.29066  0.51587  0.62373  Biso   1.000  Hf
  Hf13     1.0000 0.29225  0.73014  0.87866  Biso   1.000  Hf
  Hf14     1.0000 0.75849  0.76612  0.62597  Biso   1.000  Hf
  Hf15     1.0000 0.72755  0.97639  0.88050  Biso   1.000  Hf
  O25      1.0000 0.09550  0.68092  0.69445  Biso   1.000  O 
  O26      1.0000 0.09588  0.56286  0.94814  Biso   1.000  O 
  O27      1.0000 0.94417  0.93299  0.69969  Biso   1.000  O 
  O28      1.0000 0.94594  0.81287  0.93887  Biso   1.000  O 
  O29      1.0000 0.56465  0.61504  0.74979  Biso   1.000  O 
  O30      1.0000 0.56900  0.62616  0.99985  Biso   1.000  O 
  O31      1.0000 0.44587  0.87674  0.00300  Biso   1.000  O 
  O32      1.0000 0.47463  0.86497  0.75102  Biso   1.000  O 
