data_image0
_cell_length_a       5.00164
_cell_length_b       10.076
_cell_length_c       10.0747
_cell_angle_alpha    90
_cell_angle_beta     90
_cell_angle_gamma    90

_symmetry_space_group_name_H-M    "P 1"
_symmetry_int_tables_number       1

loop_
  _symmetry_equiv_pos_as_xyz
  'x, y, z'

loop_
  _atom_site_label
  _atom_site_occupancy
  _atom_site_fract_x
  _atom_site_fract_y
  _atom_site_fract_z
  _atom_site_thermal_displace_type
  _atom_site_B_iso_or_equiv
  _atom_site_type_symbol
  P1       1.0000 0.25024  0.00005  0.12528  Biso   1.000  P 
  Hf1      1.0000 0.27351  0.24716  0.37248  Biso   1.000  Hf
  Hf2      1.0000 0.75021  0.25695  0.12527  Biso   1.000  Hf
  Hf3      1.0000 0.75025  0.00006  0.38204  Biso   1.000  Hf
  O1       1.0000 0.91762  0.15344  0.97198  Biso   1.000  O 
  O2       1.0000 0.07276  0.09023  0.21550  Biso   1.000  O 
  O3       1.0000 0.00090  0.35031  0.26119  Biso   1.000  O 
  O4       1.0000 0.99184  0.39721  0.01141  Biso   1.000  O 
  O5       1.0000 0.58284  0.15346  0.27857  Biso   1.000  O 
  O6       1.0000 0.42769  0.09024  0.03505  Biso   1.000  O 
  O7       1.0000 0.49952  0.35031  0.98935  Biso   1.000  O 
  O8       1.0000 0.50858  0.39722  0.23912  Biso   1.000  O 
  Hf4      1.0000 0.25027  0.00004  0.62526  Biso   1.000  Hf
  Hf5      1.0000 0.22696  0.24710  0.87807  Biso   1.000  Hf
  Hf6      1.0000 0.75028  0.25345  0.62526  Biso   1.000  Hf
  Hf7      1.0000 0.75026  0.00004  0.86848  Biso   1.000  Hf
  O9       1.0000 0.00044  0.13619  0.47566  Biso   1.000  O 
  O10      1.0000 0.99206  0.11378  0.72823  Biso   1.000  O 
  O11      1.0000 0.99715  0.36303  0.76214  Biso   1.000  O 
  O12      1.0000 0.99309  0.38797  0.51303  Biso   1.000  O 
  O13      1.0000 0.50010  0.13620  0.77486  Biso   1.000  O 
  O14      1.0000 0.50847  0.11379  0.52230  Biso   1.000  O 
  O15      1.0000 0.50346  0.36305  0.48839  Biso   1.000  O 
  O16      1.0000 0.50753  0.38798  0.73748  Biso   1.000  O 
  Hf8      1.0000 0.25027  0.50005  0.12522  Biso   1.000  Hf
  Hf9      1.0000 0.22707  0.75296  0.37248  Biso   1.000  Hf
  Hf10     1.0000 0.75035  0.74315  0.12527  Biso   1.000  Hf
  Hf11     1.0000 0.75029  0.50006  0.37872  Biso   1.000  Hf
  O17      1.0000 0.00105  0.64977  0.98935  Biso   1.000  O 
  O18      1.0000 0.99197  0.60289  0.23912  Biso   1.000  O 
  O19      1.0000 0.91775  0.84665  0.27857  Biso   1.000  O 
  O20      1.0000 0.07289  0.90987  0.03505  Biso   1.000  O 
  O21      1.0000 0.49966  0.64980  0.26119  Biso   1.000  O 
  O22      1.0000 0.50870  0.60289  0.01141  Biso   1.000  O 
  O23      1.0000 0.58297  0.84665  0.97198  Biso   1.000  O 
  O24      1.0000 0.42781  0.90988  0.21550  Biso   1.000  O 
  Hf12     1.0000 0.25031  0.50004  0.62525  Biso   1.000  Hf
  Hf13     1.0000 0.27362  0.75297  0.87807  Biso   1.000  Hf
  Hf14     1.0000 0.75035  0.74664  0.62527  Biso   1.000  Hf
  Hf15     1.0000 0.75029  0.50004  0.87177  Biso   1.000  Hf
  O25      1.0000 0.99714  0.63704  0.48839  Biso   1.000  O 
  O26      1.0000 0.99307  0.61210  0.73749  Biso   1.000  O 
  O27      1.0000 0.00049  0.86388  0.77486  Biso   1.000  O 
  O28      1.0000 0.99212  0.88631  0.52230  Biso   1.000  O 
  O29      1.0000 0.50345  0.63705  0.76214  Biso   1.000  O 
  O30      1.0000 0.50752  0.61212  0.51304  Biso   1.000  O 
  O31      1.0000 0.50015  0.86392  0.47566  Biso   1.000  O 
  O32      1.0000 0.50855  0.88631  0.72823  Biso   1.000  O 
