data_image0
_cell_length_a       10.095
_cell_length_b       10.342
_cell_length_c       5.25264
_cell_angle_alpha    90
_cell_angle_beta     90
_cell_angle_gamma    90

_symmetry_space_group_name_H-M    "P 1"
_symmetry_int_tables_number       1

loop_
  _symmetry_equiv_pos_as_xyz
  'x, y, z'

loop_
  _atom_site_label
  _atom_site_occupancy
  _atom_site_fract_x
  _atom_site_fract_y
  _atom_site_fract_z
  _atom_site_thermal_displace_type
  _atom_site_B_iso_or_equiv
  _atom_site_type_symbol
  Hf1      1.0000 0.13037  0.01431  0.35539  Biso   1.000  Hf
  Hf2      1.0000 0.13133  0.22148  0.86380  Biso   1.000  Hf
  Hf3      1.0000 0.34393  0.25012  0.37575  Biso   1.000  Hf
  Hf4      1.0000 0.36291  0.47937  0.83584  Biso   1.000  Hf
  Hf5      1.0000 0.63834  0.01679  0.16551  Biso   1.000  Hf
  Hf6      1.0000 0.63629  0.22614  0.64947  Biso   1.000  Hf
  Hf7      1.0000 0.86164  0.27125  0.15402  Biso   1.000  Hf
  Hf8      1.0000 0.87064  0.47555  0.65293  Biso   1.000  Hf
  O1       1.0000 0.03274  0.16605  0.18068  Biso   1.000  O 
  O2       1.0000 0.02589  0.07846  0.67848  Biso   1.000  O 
  O3       1.0000 0.49305  0.43179  0.14762  Biso   1.000  O 
  O4       1.0000 0.47262  0.34148  0.62613  Biso   1.000  O 
  O5       1.0000 0.26456  0.11506  0.61426  Biso   1.000  O 
  O6       1.0000 0.26732  0.11114  0.11095  Biso   1.000  O 
  O7       1.0000 0.22145  0.36918  0.61076  Biso   1.000  O 
  O8       1.0000 0.23742  0.37283  0.10872  Biso   1.000  O 
  O9       1.0000 0.51620  0.11726  0.40501  Biso   1.000  O 
  O10      1.0000 0.51637  0.07909  0.86435  Biso   1.000  O 
  O11      1.0000 0.97398  0.41393  0.32968  Biso   1.000  O 
  O12      1.0000 0.96688  0.32808  0.83612  Biso   1.000  O 
  O13      1.0000 0.76754  0.11904  0.90455  Biso   1.000  O 
  O14      1.0000 0.77499  0.12505  0.40618  Biso   1.000  O 
  O15      1.0000 0.73542  0.38355  0.90017  Biso   1.000  O 
  O16      1.0000 0.73133  0.37798  0.40825  Biso   1.000  O 
  Hf9      1.0000 0.14632  0.51650  0.34175  Biso   1.000  Hf
  Hf10     1.0000 0.14417  0.72299  0.84356  Biso   1.000  Hf
  Hf11     1.0000 0.37533  0.76673  0.34431  Biso   1.000  Hf
  Hf12     1.0000 0.36977  0.96592  0.85745  Biso   1.000  Hf
  Hf13     1.0000 0.66553  0.53415  0.14440  Biso   1.000  Hf
  Hf14     1.0000 0.64878  0.72784  0.65193  Biso   1.000  Hf
  Hf15     1.0000 0.87989  0.77286  0.15729  Biso   1.000  Hf
  Hf16     1.0000 0.87263  0.97672  0.66351  Biso   1.000  Hf
  O17      1.0000 0.04886  0.66476  0.16773  Biso   1.000  O 
  O18      1.0000 0.04268  0.57909  0.66807  Biso   1.000  O 
  O19      1.0000 0.48833  0.89953  0.15760  Biso   1.000  O 
  O20      1.0000 0.47867  0.83352  0.65825  Biso   1.000  O 
  O21      1.0000 0.28510  0.61841  0.58464  Biso   1.000  O 
  O22      1.0000 0.28943  0.62102  0.08629  Biso   1.000  O 
  O23      1.0000 0.23423  0.86599  0.59684  Biso   1.000  O 
  O24      1.0000 0.24083  0.86949  0.09947  Biso   1.000  O 
  O25      1.0000 0.54785  0.66326  0.33177  Biso   1.000  O 
  O26      1.0000 0.53849  0.58699  0.82566  Biso   1.000  O 
  O27      1.0000 0.97987  0.91498  0.33626  Biso   1.000  O 
  O28      1.0000 0.97590  0.83031  0.83582  Biso   1.000  O 
  O29      1.0000 0.78508  0.62611  0.90050  Biso   1.000  O 
  O30      1.0000 0.79311  0.62870  0.40553  Biso   1.000  O 
  O31      1.0000 0.73368  0.87109  0.91249  Biso   1.000  O 
  O32      1.0000 0.74028  0.87315  0.41414  Biso   1.000  O 
  P1       1.0000 0.52193  0.27410  0.07184  Biso   1.000  P 
