data_image0
_cell_length_a       5.07117
_cell_length_b       10.2076
_cell_length_c       10.491
_cell_angle_alpha    90
_cell_angle_beta     80
_cell_angle_gamma    90

_symmetry_space_group_name_H-M    "P 1"
_symmetry_int_tables_number       1

loop_
  _symmetry_equiv_pos_as_xyz
  'x, y, z'

loop_
  _atom_site_label
  _atom_site_occupancy
  _atom_site_fract_x
  _atom_site_fract_y
  _atom_site_fract_z
  _atom_site_thermal_displace_type
  _atom_site_B_iso_or_equiv
  _atom_site_type_symbol
  P1       1.0000 0.16589  0.03192  0.16196  Biso   1.000  P 
  Hf1      1.0000 0.28905  0.22954  0.39524  Biso   1.000  Hf
  Hf2      1.0000 0.70852  0.26803  0.10597  Biso   1.000  Hf
  Hf3      1.0000 0.72671  0.47609  0.35194  Biso   1.000  Hf
  O1       1.0000 0.07908  0.15160  0.08185  Biso   1.000  O 
  O2       1.0000 0.07602  0.08116  0.31034  Biso   1.000  O 
  O3       1.0000 0.93524  0.41022  0.17294  Biso   1.000  O 
  O4       1.0000 0.93383  0.32978  0.42104  Biso   1.000  O 
  O5       1.0000 0.57072  0.13482  0.25022  Biso   1.000  O 
  O6       1.0000 0.54811  0.11719  0.49333  Biso   1.000  O 
  O7       1.0000 0.45289  0.37998  0.01045  Biso   1.000  O 
  O8       1.0000 0.44265  0.37218  0.25880  Biso   1.000  O 
  Hf4      1.0000 0.26749  0.01750  0.64841  Biso   1.000  Hf
  Hf5      1.0000 0.28508  0.22486  0.89361  Biso   1.000  Hf
  Hf6      1.0000 0.72680  0.26814  0.60346  Biso   1.000  Hf
  Hf7      1.0000 0.73137  0.47402  0.85684  Biso   1.000  Hf
  O9       1.0000 0.06163  0.15594  0.56797  Biso   1.000  O 
  O10      1.0000 0.06437  0.08370  0.82723  Biso   1.000  O 
  O11      1.0000 0.94205  0.40839  0.67569  Biso   1.000  O 
  O12      1.0000 0.93894  0.33205  0.93104  Biso   1.000  O 
  O13      1.0000 0.54751  0.12564  0.73656  Biso   1.000  O 
  O14      1.0000 0.56995  0.13111  0.97869  Biso   1.000  O 
  O15      1.0000 0.44987  0.37442  0.50941  Biso   1.000  O 
  O16      1.0000 0.45517  0.36824  0.76070  Biso   1.000  O 
  Hf8      1.0000 0.27559  0.52178  0.14482  Biso   1.000  Hf
  Hf9      1.0000 0.28439  0.72490  0.39551  Biso   1.000  Hf
  Hf10     1.0000 0.71977  0.77199  0.10141  Biso   1.000  Hf
  Hf11     1.0000 0.70994  0.97571  0.35859  Biso   1.000  Hf
  O17      1.0000 0.07471  0.67056  0.07972  Biso   1.000  O 
  O18      1.0000 0.06841  0.58272  0.32727  Biso   1.000  O 
  O19      1.0000 0.94665  0.92851  0.16822  Biso   1.000  O 
  O20      1.0000 0.94419  0.83686  0.42204  Biso   1.000  O 
  O21      1.0000 0.55466  0.62363  0.23813  Biso   1.000  O 
  O22      1.0000 0.55828  0.61818  0.49014  Biso   1.000  O 
  O23      1.0000 0.46560  0.87895  0.00530  Biso   1.000  O 
  O24      1.0000 0.48018  0.86184  0.26467  Biso   1.000  O 
  Hf12     1.0000 0.28324  0.51996  0.64819  Biso   1.000  Hf
  Hf13     1.0000 0.28185  0.73041  0.89802  Biso   1.000  Hf
  Hf14     1.0000 0.73031  0.76931  0.60518  Biso   1.000  Hf
  Hf15     1.0000 0.72461  0.97826  0.85787  Biso   1.000  Hf
  O25      1.0000 0.07281  0.66173  0.57754  Biso   1.000  O 
  O26      1.0000 0.07273  0.58190  0.82871  Biso   1.000  O 
  O27      1.0000 0.93828  0.91162  0.67567  Biso   1.000  O 
  O28      1.0000 0.93783  0.83467  0.92582  Biso   1.000  O 
  O29      1.0000 0.55930  0.62583  0.74099  Biso   1.000  O 
  O30      1.0000 0.55303  0.61873  0.99194  Biso   1.000  O 
  O31      1.0000 0.45173  0.87492  0.51196  Biso   1.000  O 
  O32      1.0000 0.45371  0.86908  0.75935  Biso   1.000  O 
