data_image0
_cell_length_a       10.1157
_cell_length_b       10.2096
_cell_length_c       5.23305
_cell_angle_alpha    90
_cell_angle_beta     80
_cell_angle_gamma    90

_symmetry_space_group_name_H-M    "P 1"
_symmetry_int_tables_number       1

loop_
  _symmetry_equiv_pos_as_xyz
  'x, y, z'

loop_
  _atom_site_label
  _atom_site_occupancy
  _atom_site_fract_x
  _atom_site_fract_y
  _atom_site_fract_z
  _atom_site_thermal_displace_type
  _atom_site_B_iso_or_equiv
  _atom_site_type_symbol
  P1       1.0000 0.08756  0.02695  0.32771  Biso   1.000  P 
  Hf1      1.0000 0.14898  0.22742  0.78499  Biso   1.000  Hf
  Hf2      1.0000 0.35997  0.26660  0.20784  Biso   1.000  Hf
  Hf3      1.0000 0.36237  0.47932  0.70866  Biso   1.000  Hf
  O1       1.0000 0.03953  0.14211  0.15151  Biso   1.000  O 
  O2       1.0000 0.03164  0.08413  0.62006  Biso   1.000  O 
  O3       1.0000 0.46692  0.41621  0.34381  Biso   1.000  O 
  O4       1.0000 0.46756  0.33681  0.84649  Biso   1.000  O 
  O5       1.0000 0.27433  0.13088  0.47940  Biso   1.000  O 
  O6       1.0000 0.28695  0.13270  0.95538  Biso   1.000  O 
  O7       1.0000 0.22535  0.37884  0.01716  Biso   1.000  O 
  O8       1.0000 0.22526  0.37210  0.51986  Biso   1.000  O 
  Hf4      1.0000 0.14447  0.52248  0.29273  Biso   1.000  Hf
  Hf5      1.0000 0.14493  0.73292  0.79031  Biso   1.000  Hf
  Hf6      1.0000 0.36177  0.77941  0.20656  Biso   1.000  Hf
  Hf7      1.0000 0.36085  0.98050  0.70668  Biso   1.000  Hf
  O9       1.0000 0.04022  0.66878  0.16135  Biso   1.000  O 
  O10      1.0000 0.03756  0.58167  0.66019  Biso   1.000  O 
  O11      1.0000 0.47342  0.91701  0.34563  Biso   1.000  O 
  O12      1.0000 0.47106  0.83627  0.84582  Biso   1.000  O 
  O13      1.0000 0.27998  0.62959  0.47880  Biso   1.000  O 
  O14      1.0000 0.27709  0.62096  0.98226  Biso   1.000  O 
  O15      1.0000 0.23267  0.88045  0.00492  Biso   1.000  O 
  O16      1.0000 0.22773  0.87017  0.51860  Biso   1.000  O 
  Hf8      1.0000 0.63440  0.02139  0.29749  Biso   1.000  Hf
  Hf9      1.0000 0.63536  0.22889  0.79396  Biso   1.000  Hf
  Hf10     1.0000 0.86141  0.27069  0.21298  Biso   1.000  Hf
  Hf11     1.0000 0.86698  0.47514  0.71157  Biso   1.000  Hf
  O17      1.0000 0.53899  0.16984  0.15958  Biso   1.000  O 
  O18      1.0000 0.53626  0.08056  0.66111  Biso   1.000  O 
  O19      1.0000 0.97302  0.40832  0.35051  Biso   1.000  O 
  O20      1.0000 0.96735  0.32563  0.85645  Biso   1.000  O 
  O21      1.0000 0.77778  0.12725  0.48247  Biso   1.000  O 
  O22      1.0000 0.77438  0.11957  0.98558  Biso   1.000  O 
  O23      1.0000 0.73102  0.37840  0.02293  Biso   1.000  O 
  O24      1.0000 0.72728  0.36977  0.52145  Biso   1.000  O 
  Hf12     1.0000 0.63877  0.52111  0.29332  Biso   1.000  Hf
  Hf13     1.0000 0.63777  0.72712  0.79660  Biso   1.000  Hf
  Hf14     1.0000 0.86627  0.76525  0.20590  Biso   1.000  Hf
  Hf15     1.0000 0.85708  0.97651  0.72219  Biso   1.000  Hf
  O25      1.0000 0.53937  0.66793  0.15599  Biso   1.000  O 
  O26      1.0000 0.53674  0.58279  0.65653  Biso   1.000  O 
  O27      1.0000 0.97515  0.92434  0.34149  Biso   1.000  O 
  O28      1.0000 0.96739  0.83505  0.84552  Biso   1.000  O 
  O29      1.0000 0.78048  0.62556  0.48215  Biso   1.000  O 
  O30      1.0000 0.77917  0.62066  0.98456  Biso   1.000  O 
  O31      1.0000 0.73009  0.87820  0.02377  Biso   1.000  O 
  O32      1.0000 0.73588  0.86876  0.52071  Biso   1.000  O 
