data_image0
_cell_length_a       9.94111
_cell_length_b       10.3449
_cell_length_c       4.99549
_cell_angle_alpha    90
_cell_angle_beta     90
_cell_angle_gamma    90

_symmetry_space_group_name_H-M    "P 1"
_symmetry_int_tables_number       1

loop_
  _symmetry_equiv_pos_as_xyz
  'x, y, z'

loop_
  _atom_site_label
  _atom_site_occupancy
  _atom_site_fract_x
  _atom_site_fract_y
  _atom_site_fract_z
  _atom_site_thermal_displace_type
  _atom_site_B_iso_or_equiv
  _atom_site_type_symbol
  P1       1.0000 0.09270  0.03233  0.21734  Biso   1.000  P 
  Hf1      1.0000 0.15200  0.23343  0.75491  Biso   1.000  Hf
  Hf2      1.0000 0.36822  0.26311  0.25920  Biso   1.000  Hf
  Hf3      1.0000 0.37504  0.48364  0.75450  Biso   1.000  Hf
  O1       1.0000 0.04508  0.16764  0.37294  Biso   1.000  O 
  O2       1.0000 0.03948  0.06223  0.92059  Biso   1.000  O 
  O3       1.0000 0.46757  0.43363  0.38918  Biso   1.000  O 
  O4       1.0000 0.47154  0.31488  0.88814  Biso   1.000  O 
  O5       1.0000 0.29217  0.13045  0.53216  Biso   1.000  O 
  O6       1.0000 0.26063  0.13113  0.02282  Biso   1.000  O 
  O7       1.0000 0.23148  0.38109  0.00170  Biso   1.000  O 
  O8       1.0000 0.23176  0.36981  0.50135  Biso   1.000  O 
  Hf4      1.0000 0.13981  0.51758  0.25469  Biso   1.000  Hf
  Hf5      1.0000 0.14710  0.73443  0.76237  Biso   1.000  Hf
  Hf6      1.0000 0.36657  0.77094  0.26261  Biso   1.000  Hf
  Hf7      1.0000 0.36536  0.98216  0.76679  Biso   1.000  Hf
  O9       1.0000 0.04240  0.68558  0.38637  Biso   1.000  O 
  O10      1.0000 0.04346  0.56379  0.89327  Biso   1.000  O 
  O11      1.0000 0.47506  0.93281  0.40612  Biso   1.000  O 
  O12      1.0000 0.47560  0.81771  0.90490  Biso   1.000  O 
  O13      1.0000 0.27552  0.61553  0.50513  Biso   1.000  O 
  O14      1.0000 0.27574  0.63076  0.00655  Biso   1.000  O 
  O15      1.0000 0.22444  0.88034  0.02254  Biso   1.000  O 
  O16      1.0000 0.24629  0.86164  0.53082  Biso   1.000  O 
  Hf8      1.0000 0.63153  0.01549  0.24597  Biso   1.000  Hf
  Hf9      1.0000 0.63797  0.23145  0.74779  Biso   1.000  Hf
  Hf10     1.0000 0.86488  0.26697  0.24165  Biso   1.000  Hf
  Hf11     1.0000 0.87553  0.48128  0.74590  Biso   1.000  Hf
  O17      1.0000 0.54651  0.18717  0.37995  Biso   1.000  O 
  O18      1.0000 0.54044  0.06612  0.89138  Biso   1.000  O 
  O19      1.0000 0.97128  0.42567  0.38442  Biso   1.000  O 
  O20      1.0000 0.97259  0.31003  0.87839  Biso   1.000  O 
  O21      1.0000 0.77751  0.11550  0.48816  Biso   1.000  O 
  O22      1.0000 0.77940  0.12947  0.98779  Biso   1.000  O 
  O23      1.0000 0.74031  0.37995  0.99839  Biso   1.000  O 
  O24      1.0000 0.73439  0.36711  0.49716  Biso   1.000  O 
  Hf12     1.0000 0.63641  0.51708  0.25200  Biso   1.000  Hf
  Hf13     1.0000 0.63943  0.73393  0.74634  Biso   1.000  Hf
  Hf14     1.0000 0.87453  0.76122  0.23430  Biso   1.000  Hf
  Hf15     1.0000 0.86919  0.98194  0.74491  Biso   1.000  Hf
  O25      1.0000 0.54131  0.68374  0.39274  Biso   1.000  O 
  O26      1.0000 0.54731  0.56445  0.88646  Biso   1.000  O 
  O27      1.0000 0.97940  0.94286  0.34800  Biso   1.000  O 
  O28      1.0000 0.97032  0.81636  0.86658  Biso   1.000  O 
  O29      1.0000 0.77901  0.61462  0.49141  Biso   1.000  O 
  O30      1.0000 0.77932  0.63221  0.99228  Biso   1.000  O 
  O31      1.0000 0.73940  0.88218  0.99019  Biso   1.000  O 
  O32      1.0000 0.74721  0.86574  0.48954  Biso   1.000  O 
