data_image0
_cell_length_a       10.2289
_cell_length_b       10.3881
_cell_length_c       5.25121
_cell_angle_alpha    90
_cell_angle_beta     80
_cell_angle_gamma    90

_symmetry_space_group_name_H-M    "P 1"
_symmetry_int_tables_number       1

loop_
  _symmetry_equiv_pos_as_xyz
  'x, y, z'

loop_
  _atom_site_label
  _atom_site_occupancy
  _atom_site_fract_x
  _atom_site_fract_y
  _atom_site_fract_z
  _atom_site_thermal_displace_type
  _atom_site_B_iso_or_equiv
  _atom_site_type_symbol
  Hf1      1.0000 0.13377  0.02053  0.28391  Biso   1.000  Hf
  Hf2      1.0000 0.14797  0.23060  0.78239  Biso   1.000  Hf
  Hf3      1.0000 0.37144  0.27553  0.21228  Biso   1.000  Hf
  Hf4      1.0000 0.37371  0.48550  0.71375  Biso   1.000  Hf
  O1       1.0000 0.03831  0.16976  0.15681  Biso   1.000  O 
  O2       1.0000 0.03365  0.08645  0.65710  Biso   1.000  O 
  O3       1.0000 0.47987  0.42235  0.36315  Biso   1.000  O 
  O4       1.0000 0.49676  0.38381  0.90027  Biso   1.000  O 
  O5       1.0000 0.26726  0.12261  0.46263  Biso   1.000  O 
  O6       1.0000 0.27459  0.11522  0.96749  Biso   1.000  O 
  O7       1.0000 0.23250  0.37496  0.01733  Biso   1.000  O 
  O8       1.0000 0.23322  0.37571  0.51788  Biso   1.000  O 
  Hf5      1.0000 0.15260  0.52073  0.29147  Biso   1.000  Hf
  Hf6      1.0000 0.15227  0.72925  0.79183  Biso   1.000  Hf
  Hf7      1.0000 0.37430  0.76994  0.20364  Biso   1.000  Hf
  Hf8      1.0000 0.36513  0.96819  0.69986  Biso   1.000  Hf
  O9       1.0000 0.04409  0.66563  0.15911  Biso   1.000  O 
  O10      1.0000 0.05092  0.58619  0.65549  Biso   1.000  O 
  O11      1.0000 0.47981  0.91378  0.33030  Biso   1.000  O 
  O12      1.0000 0.47828  0.83451  0.83622  Biso   1.000  O 
  O13      1.0000 0.28916  0.62995  0.47945  Biso   1.000  O 
  O14      1.0000 0.28919  0.62564  0.98137  Biso   1.000  O 
  O15      1.0000 0.23190  0.87116  0.01717  Biso   1.000  O 
  O16      1.0000 0.23470  0.86732  0.51137  Biso   1.000  O 
  Hf9      1.0000 0.63738  0.01721  0.28662  Biso   1.000  Hf
  Hf10     1.0000 0.67249  0.25277  0.82032  Biso   1.000  Hf
  Hf11     1.0000 0.87234  0.27525  0.22786  Biso   1.000  Hf
  Hf12     1.0000 0.87952  0.48864  0.71563  Biso   1.000  Hf
  O17      1.0000 0.53500  0.16057  0.12928  Biso   1.000  O 
  O18      1.0000 0.51983  0.06577  0.64621  Biso   1.000  O 
  O19      1.0000 0.98024  0.41969  0.34767  Biso   1.000  O 
  O20      1.0000 0.97439  0.33640  0.84643  Biso   1.000  O 
  O21      1.0000 0.77284  0.13487  0.49932  Biso   1.000  O 
  O22      1.0000 0.78370  0.11910  0.00295  Biso   1.000  O 
  O23      1.0000 0.73957  0.38542  0.04549  Biso   1.000  O 
  O24      1.0000 0.74497  0.38571  0.53550  Biso   1.000  O 
  Hf13     1.0000 0.64940  0.53053  0.30174  Biso   1.000  Hf
  Hf14     1.0000 0.65396  0.73480  0.78848  Biso   1.000  Hf
  Hf15     1.0000 0.87626  0.77408  0.20862  Biso   1.000  Hf
  Hf16     1.0000 0.88232  0.98490  0.70782  Biso   1.000  Hf
  O25      1.0000 0.54585  0.66703  0.14889  Biso   1.000  O 
  O26      1.0000 0.54517  0.59960  0.64672  Biso   1.000  O 
  O27      1.0000 0.97854  0.92057  0.34187  Biso   1.000  O 
  O28      1.0000 0.98262  0.83641  0.84041  Biso   1.000  O 
  O29      1.0000 0.79027  0.63599  0.48373  Biso   1.000  O 
  O30      1.0000 0.79185  0.63090  0.98158  Biso   1.000  O 
  O31      1.0000 0.73718  0.87978  0.01676  Biso   1.000  O 
  O32      1.0000 0.73993  0.87757  0.51819  Biso   1.000  O 
  P1       1.0000 0.48494  0.22323  0.61364  Biso   1.000  P 
