data_image0
_cell_length_a       10.0196
_cell_length_b       10.1878
_cell_length_c       5.22516
_cell_angle_alpha    90
_cell_angle_beta     90
_cell_angle_gamma    90

_symmetry_space_group_name_H-M    "P 1"
_symmetry_int_tables_number       1

loop_
  _symmetry_equiv_pos_as_xyz
  'x, y, z'

loop_
  _atom_site_label
  _atom_site_occupancy
  _atom_site_fract_x
  _atom_site_fract_y
  _atom_site_fract_z
  _atom_site_thermal_displace_type
  _atom_site_B_iso_or_equiv
  _atom_site_type_symbol
  P1       1.0000 0.08833  0.02790  0.37126  Biso   1.000  P 
  Hf1      1.0000 0.14893  0.23140  0.84202  Biso   1.000  Hf
  Hf2      1.0000 0.35920  0.26833  0.34059  Biso   1.000  Hf
  Hf3      1.0000 0.36109  0.48246  0.84487  Biso   1.000  Hf
  Hf4      1.0000 0.63427  0.02179  0.15687  Biso   1.000  Hf
  Hf5      1.0000 0.63617  0.23251  0.65915  Biso   1.000  Hf
  Hf6      1.0000 0.86275  0.27045  0.16455  Biso   1.000  Hf
  Hf7      1.0000 0.86681  0.47811  0.66368  Biso   1.000  Hf
  O1       1.0000 0.04244  0.14402  0.17407  Biso   1.000  O 
  O2       1.0000 0.03030  0.08638  0.63995  Biso   1.000  O 
  O3       1.0000 0.46917  0.41719  0.17089  Biso   1.000  O 
  O4       1.0000 0.46788  0.33766  0.66944  Biso   1.000  O 
  O5       1.0000 0.27156  0.12885  0.58286  Biso   1.000  O 
  O6       1.0000 0.29725  0.14057  0.06030  Biso   1.000  O 
  O7       1.0000 0.22488  0.37718  0.59464  Biso   1.000  O 
  O8       1.0000 0.22304  0.37828  0.09195  Biso   1.000  O 
  O9       1.0000 0.53624  0.16998  0.32998  Biso   1.000  O 
  O10      1.0000 0.53518  0.08389  0.82351  Biso   1.000  O 
  O11      1.0000 0.97354  0.40896  0.34350  Biso   1.000  O 
  O12      1.0000 0.96851  0.32990  0.84826  Biso   1.000  O 
  O13      1.0000 0.77686  0.12465  0.91660  Biso   1.000  O 
  O14      1.0000 0.77727  0.12684  0.41396  Biso   1.000  O 
  O15      1.0000 0.72524  0.37548  0.91719  Biso   1.000  O 
  O16      1.0000 0.72816  0.37683  0.41322  Biso   1.000  O 
  Hf8      1.0000 0.14343  0.52366  0.34567  Biso   1.000  Hf
  Hf9      1.0000 0.14407  0.73651  0.83904  Biso   1.000  Hf
  Hf10     1.0000 0.36055  0.77992  0.33535  Biso   1.000  Hf
  Hf11     1.0000 0.36117  0.98418  0.83382  Biso   1.000  Hf
  Hf12     1.0000 0.64058  0.52157  0.16192  Biso   1.000  Hf
  Hf13     1.0000 0.63759  0.72972  0.65366  Biso   1.000  Hf
  Hf14     1.0000 0.86689  0.76653  0.15461  Biso   1.000  Hf
  Hf15     1.0000 0.85584  0.97960  0.66857  Biso   1.000  Hf
  O17      1.0000 0.03894  0.66888  0.17220  Biso   1.000  O 
  O18      1.0000 0.03535  0.58556  0.67147  Biso   1.000  O 
  O19      1.0000 0.47657  0.91713  0.16268  Biso   1.000  O 
  O20      1.0000 0.47132  0.84042  0.65740  Biso   1.000  O 
  O21      1.0000 0.27953  0.62766  0.58798  Biso   1.000  O 
  O22      1.0000 0.28091  0.62585  0.09001  Biso   1.000  O 
  O23      1.0000 0.22289  0.87735  0.58054  Biso   1.000  O 
  O24      1.0000 0.23738  0.87506  0.06824  Biso   1.000  O 
  O25      1.0000 0.53686  0.66886  0.32857  Biso   1.000  O 
  O26      1.0000 0.53473  0.58622  0.83139  Biso   1.000  O 
  O27      1.0000 0.97680  0.92572  0.33484  Biso   1.000  O 
  O28      1.0000 0.96811  0.83993  0.83458  Biso   1.000  O 
  O29      1.0000 0.77857  0.62614  0.91540  Biso   1.000  O 
  O30      1.0000 0.78080  0.62527  0.41407  Biso   1.000  O 
  O31      1.0000 0.72372  0.87462  0.91171  Biso   1.000  O 
  O32      1.0000 0.73602  0.87624  0.41101  Biso   1.000  O 
