data_image0
_cell_length_a       10.0173
_cell_length_b       5.20167
_cell_length_c       10.1343
_cell_angle_alpha    90
_cell_angle_beta     90
_cell_angle_gamma    90

_symmetry_space_group_name_H-M    "P 1"
_symmetry_int_tables_number       1

loop_
  _symmetry_equiv_pos_as_xyz
  'x, y, z'

loop_
  _atom_site_label
  _atom_site_occupancy
  _atom_site_fract_x
  _atom_site_fract_y
  _atom_site_fract_z
  _atom_site_thermal_displace_type
  _atom_site_B_iso_or_equiv
  _atom_site_type_symbol
  Hf1      1.0000 0.13507  0.03212  0.11718  Biso   1.000  Hf
  Hf2      1.0000 0.13689  0.47075  0.39802  Biso   1.000  Hf
  Hf3      1.0000 0.36173  0.52123  0.12148  Biso   1.000  Hf
  Hf4      1.0000 0.36346  0.97323  0.37425  Biso   1.000  Hf
  O1       1.0000 0.01664  0.38422  0.22761  Biso   1.000  O 
  O2       1.0000 0.03882  0.13895  0.45185  Biso   1.000  O 
  O3       1.0000 0.45434  0.86609  0.19322  Biso   1.000  O 
  O4       1.0000 0.46245  0.63889  0.44605  Biso   1.000  O 
  O5       1.0000 0.26161  0.22880  0.25338  Biso   1.000  O 
  O6       1.0000 0.27759  0.26711  0.50386  Biso   1.000  O 
  O7       1.0000 0.23149  0.77301  0.50391  Biso   1.000  O 
  O8       1.0000 0.22614  0.72761  0.25954  Biso   1.000  O 
  Hf5      1.0000 0.13962  0.03376  0.62745  Biso   1.000  Hf
  Hf6      1.0000 0.13510  0.46530  0.86752  Biso   1.000  Hf
  Hf7      1.0000 0.37043  0.54124  0.62785  Biso   1.000  Hf
  Hf8      1.0000 0.37188  0.97867  0.87137  Biso   1.000  Hf
  O9       1.0000 0.04100  0.37792  0.68735  Biso   1.000  O 
  O10      1.0000 0.04148  0.12818  0.94075  Biso   1.000  O 
  O11      1.0000 0.46428  0.87656  0.69111  Biso   1.000  O 
  O12      1.0000 0.46895  0.64333  0.94360  Biso   1.000  O 
  O13      1.0000 0.27189  0.23994  0.74837  Biso   1.000  O 
  O14      1.0000 0.29047  0.25974  0.98996  Biso   1.000  O 
  O15      1.0000 0.23780  0.78564  0.99322  Biso   1.000  O 
  O16      1.0000 0.23099  0.73958  0.74927  Biso   1.000  O 
  Hf9      1.0000 0.63126  0.04077  0.12848  Biso   1.000  Hf
  Hf10     1.0000 0.63216  0.47545  0.37810  Biso   1.000  Hf
  Hf11     1.0000 0.84532  0.55237  0.12215  Biso   1.000  Hf
  Hf12     1.0000 0.86193  0.98336  0.37718  Biso   1.000  Hf
  O17      1.0000 0.52897  0.36393  0.19917  Biso   1.000  O 
  O18      1.0000 0.53921  0.13813  0.44545  Biso   1.000  O 
  O19      1.0000 0.94421  0.90723  0.19749  Biso   1.000  O 
  O20      1.0000 0.96643  0.65091  0.45252  Biso   1.000  O 
  O21      1.0000 0.76410  0.25368  0.25171  Biso   1.000  O 
  O22      1.0000 0.77233  0.28038  0.50034  Biso   1.000  O 
  O23      1.0000 0.72857  0.77452  0.49946  Biso   1.000  O 
  O24      1.0000 0.71785  0.75061  0.25088  Biso   1.000  O 
  Hf13     1.0000 0.64070  0.04375  0.62376  Biso   1.000  Hf
  Hf14     1.0000 0.63681  0.47916  0.87441  Biso   1.000  Hf
  Hf15     1.0000 0.86733  0.54917  0.62884  Biso   1.000  Hf
  Hf16     1.0000 0.86069  0.97956  0.87105  Biso   1.000  Hf
  O25      1.0000 0.53753  0.37305  0.69675  Biso   1.000  O 
  O26      1.0000 0.54644  0.14357  0.94427  Biso   1.000  O 
  O27      1.0000 0.95883  0.88766  0.69179  Biso   1.000  O 
  O28      1.0000 0.94695  0.62951  0.91154  Biso   1.000  O 
  O29      1.0000 0.77324  0.24943  0.74884  Biso   1.000  O 
  O30      1.0000 0.76854  0.26710  0.00223  Biso   1.000  O 
  O31      1.0000 0.72156  0.76881  0.00043  Biso   1.000  O 
  O32      1.0000 0.72424  0.75191  0.74725  Biso   1.000  O 
  P1       1.0000 0.09843  0.54713  0.11326  Biso   1.000  P 
