data_image0
_cell_length_a       10.0164
_cell_length_b       10.4083
_cell_length_c       5.07507
_cell_angle_alpha    90
_cell_angle_beta     90
_cell_angle_gamma    90

_symmetry_space_group_name_H-M    "P 1"
_symmetry_int_tables_number       1

loop_
  _symmetry_equiv_pos_as_xyz
  'x, y, z'

loop_
  _atom_site_label
  _atom_site_occupancy
  _atom_site_fract_x
  _atom_site_fract_y
  _atom_site_fract_z
  _atom_site_thermal_displace_type
  _atom_site_B_iso_or_equiv
  _atom_site_type_symbol
  Hf1      1.0000 0.14614  0.00834  0.24708  Biso   1.000  Hf
  Hf2      1.0000 0.13992  0.22360  0.78449  Biso   1.000  Hf
  Hf3      1.0000 0.36675  0.26232  0.24508  Biso   1.000  Hf
  Hf4      1.0000 0.36470  0.48883  0.74290  Biso   1.000  Hf
  O1       1.0000 0.02362  0.18113  0.44235  Biso   1.000  O 
  O2       1.0000 0.03894  0.06311  0.91027  Biso   1.000  O 
  O3       1.0000 0.45550  0.43224  0.38789  Biso   1.000  O 
  O4       1.0000 0.46369  0.31643  0.88503  Biso   1.000  O 
  O5       1.0000 0.26773  0.11098  0.50655  Biso   1.000  O 
  O6       1.0000 0.29386  0.11827  0.99157  Biso   1.000  O 
  O7       1.0000 0.23697  0.39169  0.99929  Biso   1.000  O 
  O8       1.0000 0.22633  0.35984  0.52513  Biso   1.000  O 
  Hf5      1.0000 0.11594  0.52246  0.24074  Biso   1.000  Hf
  Hf6      1.0000 0.12069  0.73500  0.74755  Biso   1.000  Hf
  Hf7      1.0000 0.35410  0.76133  0.24753  Biso   1.000  Hf
  Hf8      1.0000 0.35755  0.97859  0.74538  Biso   1.000  Hf
  O9       1.0000 0.02172  0.68845  0.39078  Biso   1.000  O 
  O10      1.0000 0.02471  0.56988  0.88880  Biso   1.000  O 
  O11      1.0000 0.45160  0.93004  0.38268  Biso   1.000  O 
  O12      1.0000 0.45458  0.81533  0.89251  Biso   1.000  O 
  O13      1.0000 0.25560  0.61360  0.49325  Biso   1.000  O 
  O14      1.0000 0.25922  0.63654  0.99089  Biso   1.000  O 
  O15      1.0000 0.21762  0.88018  0.99554  Biso   1.000  O 
  O16      1.0000 0.22045  0.86243  0.49453  Biso   1.000  O 
  Hf9      1.0000 0.63756  0.01704  0.24802  Biso   1.000  Hf
  Hf10     1.0000 0.63142  0.23293  0.74729  Biso   1.000  Hf
  Hf11     1.0000 0.84955  0.27778  0.23820  Biso   1.000  Hf
  Hf12     1.0000 0.85581  0.48681  0.74629  Biso   1.000  Hf
  O17      1.0000 0.53358  0.17919  0.38987  Biso   1.000  O 
  O18      1.0000 0.54573  0.06283  0.88243  Biso   1.000  O 
  O19      1.0000 0.93318  0.45478  0.38013  Biso   1.000  O 
  O20      1.0000 0.95031  0.31916  0.84903  Biso   1.000  O 
  O21      1.0000 0.77071  0.12119  0.49293  Biso   1.000  O 
  O22      1.0000 0.77287  0.13713  0.99480  Biso   1.000  O 
  O23      1.0000 0.72007  0.38529  0.99927  Biso   1.000  O 
  O24      1.0000 0.71425  0.37180  0.49679  Biso   1.000  O 
  Hf13     1.0000 0.62414  0.51967  0.25561  Biso   1.000  Hf
  Hf14     1.0000 0.62553  0.73643  0.75409  Biso   1.000  Hf
  Hf15     1.0000 0.85320  0.76968  0.25127  Biso   1.000  Hf
  Hf16     1.0000 0.85113  0.98785  0.74681  Biso   1.000  Hf
  O25      1.0000 0.51935  0.68073  0.40372  Biso   1.000  O 
  O26      1.0000 0.52752  0.56981  0.90050  Biso   1.000  O 
  O27      1.0000 0.95445  0.93577  0.39764  Biso   1.000  O 
  O28      1.0000 0.95235  0.81939  0.89031  Biso   1.000  O 
  O29      1.0000 0.75439  0.62476  0.50492  Biso   1.000  O 
  O30      1.0000 0.75667  0.63498  0.00475  Biso   1.000  O 
  O31      1.0000 0.72012  0.88645  0.99838  Biso   1.000  O 
  O32      1.0000 0.71717  0.87121  0.49799  Biso   1.000  O 
  P1       1.0000 0.10645  0.27895  0.24381  Biso   1.000  P 
