data_image0
_cell_length_a       5.10068
_cell_length_b       10.3773
_cell_length_c       10.5287
_cell_angle_alpha    90
_cell_angle_beta     80
_cell_angle_gamma    90

_symmetry_space_group_name_H-M    "P 1"
_symmetry_int_tables_number       1

loop_
  _symmetry_equiv_pos_as_xyz
  'x, y, z'

loop_
  _atom_site_label
  _atom_site_occupancy
  _atom_site_fract_x
  _atom_site_fract_y
  _atom_site_fract_z
  _atom_site_thermal_displace_type
  _atom_site_B_iso_or_equiv
  _atom_site_type_symbol
  Hf1      1.0000 0.26507  0.01454  0.14017  Biso   1.000  Hf
  Hf2      1.0000 0.35864  0.24808  0.40363  Biso   1.000  Hf
  Hf3      1.0000 0.72816  0.27235  0.11014  Biso   1.000  Hf
  Hf4      1.0000 0.75363  0.49197  0.35514  Biso   1.000  Hf
  O1       1.0000 0.05521  0.15460  0.07090  Biso   1.000  O 
  O2       1.0000 0.02202  0.07087  0.32345  Biso   1.000  O 
  O3       1.0000 0.95170  0.42584  0.17120  Biso   1.000  O 
  O4       1.0000 0.00282  0.38486  0.44748  Biso   1.000  O 
  O5       1.0000 0.51678  0.12131  0.24023  Biso   1.000  O 
  O6       1.0000 0.57259  0.11051  0.49509  Biso   1.000  O 
  O7       1.0000 0.45476  0.37729  0.01367  Biso   1.000  O 
  O8       1.0000 0.47480  0.38742  0.26148  Biso   1.000  O 
  Hf5      1.0000 0.28467  0.02802  0.64573  Biso   1.000  Hf
  Hf6      1.0000 0.29739  0.23684  0.89474  Biso   1.000  Hf
  Hf7      1.0000 0.76702  0.28247  0.60841  Biso   1.000  Hf
  Hf8      1.0000 0.75235  0.48460  0.85892  Biso   1.000  Hf
  O9       1.0000 0.09787  0.17315  0.56753  Biso   1.000  O 
  O10      1.0000 0.07560  0.09771  0.82179  Biso   1.000  O 
  O11      1.0000 0.97562  0.41296  0.68838  Biso   1.000  O 
  O12      1.0000 0.95830  0.34575  0.93180  Biso   1.000  O 
  O13      1.0000 0.56399  0.13857  0.73880  Biso   1.000  O 
  O14      1.0000 0.56122  0.13026  0.98898  Biso   1.000  O 
  O15      1.0000 0.49780  0.38656  0.51699  Biso   1.000  O 
  O16      1.0000 0.48359  0.38074  0.76375  Biso   1.000  O 
  Hf9      1.0000 0.29976  0.52497  0.14528  Biso   1.000  Hf
  Hf10     1.0000 0.29556  0.72922  0.39696  Biso   1.000  Hf
  Hf11     1.0000 0.74685  0.76983  0.10120  Biso   1.000  Hf
  Hf12     1.0000 0.71964  0.96581  0.35429  Biso   1.000  Hf
  O17      1.0000 0.09037  0.66731  0.07214  Biso   1.000  O 
  O18      1.0000 0.08542  0.60052  0.31744  Biso   1.000  O 
  O19      1.0000 0.94748  0.91033  0.17204  Biso   1.000  O 
  O20      1.0000 0.95001  0.83509  0.42454  Biso   1.000  O 
  O21      1.0000 0.57551  0.63469  0.24102  Biso   1.000  O 
  O22      1.0000 0.57069  0.62742  0.49138  Biso   1.000  O 
  O23      1.0000 0.47494  0.87754  0.00694  Biso   1.000  O 
  O24      1.0000 0.45409  0.86892  0.25826  Biso   1.000  O 
  Hf13     1.0000 0.30488  0.52941  0.64949  Biso   1.000  Hf
  Hf14     1.0000 0.31291  0.73669  0.89309  Biso   1.000  Hf
  Hf15     1.0000 0.75420  0.77880  0.60580  Biso   1.000  Hf
  Hf16     1.0000 0.77008  0.98903  0.85096  Biso   1.000  Hf
  O25      1.0000 0.08531  0.66525  0.57711  Biso   1.000  O 
  O26      1.0000 0.09608  0.59487  0.82663  Biso   1.000  O 
  O27      1.0000 0.97245  0.92335  0.67025  Biso   1.000  O 
  O28      1.0000 0.97469  0.84512  0.91880  Biso   1.000  O 
  O29      1.0000 0.58044  0.63567  0.73942  Biso   1.000  O 
  O30      1.0000 0.58701  0.63039  0.98869  Biso   1.000  O 
  O31      1.0000 0.46363  0.87654  0.51200  Biso   1.000  O 
  O32      1.0000 0.49133  0.88080  0.75930  Biso   1.000  O 
  P1       1.0000 0.95884  0.22806  0.31197  Biso   1.000  P 
