data_image0
_cell_length_a       10.1154
_cell_length_b       10.2959
_cell_length_c       10.4505
_cell_angle_alpha    90
_cell_angle_beta     80
_cell_angle_gamma    90

_symmetry_space_group_name_H-M    "P 1"
_symmetry_int_tables_number       1

loop_
  _symmetry_equiv_pos_as_xyz
  'x, y, z'

loop_
  _atom_site_label
  _atom_site_occupancy
  _atom_site_fract_x
  _atom_site_fract_y
  _atom_site_fract_z
  _atom_site_thermal_displace_type
  _atom_site_B_iso_or_equiv
  _atom_site_type_symbol
  Pb1      1.0000 0.13439  0.01779  0.14637  Biso   1.000  Pb
  Hf1      1.0000 0.13285  0.02132  0.64642  Biso   1.000  Hf
  Hf2      1.0000 0.13732  0.52143  0.14541  Biso   1.000  Hf
  Hf3      1.0000 0.13300  0.52135  0.64680  Biso   1.000  Hf
  Hf4      1.0000 0.63780  0.02117  0.14613  Biso   1.000  Hf
  Hf5      1.0000 0.63306  0.02192  0.64733  Biso   1.000  Hf
  Hf6      1.0000 0.63731  0.52024  0.14616  Biso   1.000  Hf
  Hf7      1.0000 0.63289  0.52123  0.64675  Biso   1.000  Hf
  Hf8      1.0000 0.13506  0.22948  0.39745  Biso   1.000  Hf
  Hf9      1.0000 0.13112  0.22966  0.89498  Biso   1.000  Hf
  Hf10     1.0000 0.13437  0.72762  0.39716  Biso   1.000  Hf
  Hf11     1.0000 0.13048  0.72829  0.89648  Biso   1.000  Hf
  Hf12     1.0000 0.63469  0.22921  0.39677  Biso   1.000  Hf
  Hf13     1.0000 0.63086  0.22874  0.89754  Biso   1.000  Hf
  Hf14     1.0000 0.63441  0.72745  0.39667  Biso   1.000  Hf
  Hf15     1.0000 0.63115  0.72870  0.89617  Biso   1.000  Hf
  Hf16     1.0000 0.36016  0.27145  0.10377  Biso   1.000  Hf
  Hf17     1.0000 0.35582  0.27150  0.60469  Biso   1.000  Hf
  Hf18     1.0000 0.36299  0.76981  0.10430  Biso   1.000  Hf
  Hf19     1.0000 0.35541  0.77127  0.60510  Biso   1.000  Hf
  Hf20     1.0000 0.85917  0.27185  0.10470  Biso   1.000  Hf
  Hf21     1.0000 0.85568  0.27177  0.60561  Biso   1.000  Hf
  Hf22     1.0000 0.85811  0.76875  0.10345  Biso   1.000  Hf
  Hf23     1.0000 0.85574  0.77144  0.60529  Biso   1.000  Hf
  Hf24     1.0000 0.35722  0.47849  0.35427  Biso   1.000  Hf
  Hf25     1.0000 0.35377  0.47889  0.85534  Biso   1.000  Hf
  Hf26     1.0000 0.35908  0.97850  0.35554  Biso   1.000  Hf
  Hf27     1.0000 0.35495  0.97909  0.85363  Biso   1.000  Hf
  Hf28     1.0000 0.85793  0.47866  0.35484  Biso   1.000  Hf
  Hf29     1.0000 0.85336  0.47833  0.85517  Biso   1.000  Hf
  Hf30     1.0000 0.85322  0.97827  0.35822  Biso   1.000  Hf
  Hf31     1.0000 0.85389  0.97881  0.85589  Biso   1.000  Hf
  O1       1.0000 0.03695  0.17827  0.07864  Biso   1.000  O 
  O2       1.0000 0.03147  0.17174  0.58334  Biso   1.000  O 
  O3       1.0000 0.03602  0.67145  0.08102  Biso   1.000  O 
  O4       1.0000 0.03078  0.67021  0.58231  Biso   1.000  O 
  O5       1.0000 0.53603  0.17004  0.08078  Biso   1.000  O 
  O6       1.0000 0.53068  0.17014  0.58168  Biso   1.000  O 
  O7       1.0000 0.53716  0.66947  0.08026  Biso   1.000  O 
  O8       1.0000 0.53052  0.66938  0.58167  Biso   1.000  O 
  O9       1.0000 0.02850  0.08064  0.33846  Biso   1.000  O 
  O10      1.0000 0.02948  0.07922  0.83233  Biso   1.000  O 
  O11      1.0000 0.03326  0.57965  0.33115  Biso   1.000  O 
  O12      1.0000 0.02867  0.57960  0.83201  Biso   1.000  O 
  O13      1.0000 0.53395  0.07940  0.33191  Biso   1.000  O 
  O14      1.0000 0.52959  0.08023  0.83138  Biso   1.000  O 
  O15      1.0000 0.53250  0.57964  0.33089  Biso   1.000  O 
  O16      1.0000 0.52889  0.58009  0.83170  Biso   1.000  O 
  O17      1.0000 0.46209  0.41964  0.16954  Biso   1.000  O 
  O18      1.0000 0.45788  0.41981  0.67035  Biso   1.000  O 
  O19      1.0000 0.46286  0.91991  0.16976  Biso   1.000  O 
  O20      1.0000 0.45829  0.91999  0.66946  Biso   1.000  O 
  O21      1.0000 0.96072  0.42203  0.16906  Biso   1.000  O 
  O22      1.0000 0.95743  0.42073  0.67017  Biso   1.000  O 
  O23      1.0000 0.95011  0.92043  0.17132  Biso   1.000  O 
  O24      1.0000 0.95740  0.92039  0.67029  Biso   1.000  O 
  O25      1.0000 0.45953  0.32987  0.41965  Biso   1.000  O 
  O26      1.0000 0.45617  0.33066  0.92071  Biso   1.000  O 
  O27      1.0000 0.45976  0.82919  0.42041  Biso   1.000  O 
  O28      1.0000 0.45625  0.82973  0.92002  Biso   1.000  O 
  O29      1.0000 0.95959  0.33067  0.42069  Biso   1.000  O 
  O30      1.0000 0.95440  0.32979  0.91993  Biso   1.000  O 
  O31      1.0000 0.95928  0.82977  0.42004  Biso   1.000  O 
  O32      1.0000 0.95538  0.82978  0.92093  Biso   1.000  O 
  O33      1.0000 0.27728  0.13063  0.24333  Biso   1.000  O 
  O34      1.0000 0.27005  0.12931  0.73992  Biso   1.000  O 
  O35      1.0000 0.27477  0.62755  0.24046  Biso   1.000  O 
  O36      1.0000 0.26974  0.62915  0.74147  Biso   1.000  O 
  O37      1.0000 0.77366  0.13003  0.24193  Biso   1.000  O 
  O38      1.0000 0.77041  0.12952  0.74221  Biso   1.000  O 
  O39      1.0000 0.77352  0.62849  0.24104  Biso   1.000  O 
  O40      1.0000 0.76987  0.62938  0.74136  Biso   1.000  O 
  O41      1.0000 0.27217  0.12079  0.49128  Biso   1.000  O 
  O42      1.0000 0.27160  0.12396  0.98625  Biso   1.000  O 
  O43      1.0000 0.27178  0.62055  0.49134  Biso   1.000  O 
  O44      1.0000 0.26756  0.62107  0.99164  Biso   1.000  O 
  O45      1.0000 0.77108  0.12122  0.49281  Biso   1.000  O 
  O46      1.0000 0.76758  0.12061  0.99252  Biso   1.000  O 
  O47      1.0000 0.77201  0.62073  0.49130  Biso   1.000  O 
  O48      1.0000 0.76734  0.61987  0.99145  Biso   1.000  O 
  O49      1.0000 0.22422  0.38055  0.00848  Biso   1.000  O 
  O50      1.0000 0.21858  0.37952  0.50996  Biso   1.000  O 
  O51      1.0000 0.22833  0.87672  0.00581  Biso   1.000  O 
  O52      1.0000 0.21878  0.87915  0.51047  Biso   1.000  O 
  O53      1.0000 0.72311  0.37913  0.00948  Biso   1.000  O 
  O54      1.0000 0.71847  0.37925  0.51036  Biso   1.000  O 
  O55      1.0000 0.72301  0.87884  0.00908  Biso   1.000  O 
  O56      1.0000 0.71762  0.87887  0.51123  Biso   1.000  O 
  O57      1.0000 0.22040  0.37047  0.25936  Biso   1.000  O 
  O58      1.0000 0.21688  0.37151  0.75972  Biso   1.000  O 
  O59      1.0000 0.22463  0.86580  0.26115  Biso   1.000  O 
  O60      1.0000 0.21678  0.87060  0.76000  Biso   1.000  O 
  O61      1.0000 0.72050  0.37102  0.26024  Biso   1.000  O 
  O62      1.0000 0.71649  0.37083  0.76061  Biso   1.000  O 
  O63      1.0000 0.71847  0.86974  0.26096  Biso   1.000  O 
  O64      1.0000 0.71693  0.87102  0.76058  Biso   1.000  O 
