data_image0
_cell_length_a       10.1727
_cell_length_b       10.4171
_cell_length_c       10.1158
_cell_angle_alpha    90
_cell_angle_beta     90
_cell_angle_gamma    90

_symmetry_space_group_name_H-M    "P 1"
_symmetry_int_tables_number       1

loop_
  _symmetry_equiv_pos_as_xyz
  'x, y, z'

loop_
  _atom_site_label
  _atom_site_occupancy
  _atom_site_fract_x
  _atom_site_fract_y
  _atom_site_fract_z
  _atom_site_thermal_displace_type
  _atom_site_B_iso_or_equiv
  _atom_site_type_symbol
  Hf1      1.0000 0.15567  0.96850  0.11540  Biso   1.000  Hf
  Hf2      1.0000 0.12802  0.28227  0.39327  Biso   1.000  Hf
  Hf3      1.0000 0.38909  0.23802  0.11674  Biso   1.000  Hf
  Hf4      1.0000 0.35205  0.04803  0.38152  Biso   1.000  Hf
  O1       1.0000 0.99874  0.16211  0.99069  Biso   1.000  O 
  O2       1.0000 0.98066  0.06972  0.23918  Biso   1.000  O 
  O3       1.0000 0.96778  0.33113  0.26362  Biso   1.000  O 
  O4       1.0000 0.96210  0.39216  0.95002  Biso   1.000  O 
  O5       1.0000 0.25982  0.19644  0.26961  Biso   1.000  O 
  O6       1.0000 0.25616  0.07741  0.01177  Biso   1.000  O 
  O7       1.0000 0.29667  0.38214  0.93550  Biso   1.000  O 
  O8       1.0000 0.21885  0.47758  0.29361  Biso   1.000  O 
  Hf5      1.0000 0.10094  0.03699  0.61740  Biso   1.000  Hf
  Hf6      1.0000 0.12971  0.27025  0.87922  Biso   1.000  Hf
  Hf7      1.0000 0.40389  0.31304  0.64362  Biso   1.000  Hf
  Hf8      1.0000 0.36862  0.06391  0.85793  Biso   1.000  Hf
  O9       1.0000 0.97680  0.17719  0.49874  Biso   1.000  O 
  O10      1.0000 0.00560  0.15720  0.74724  Biso   1.000  O 
  O11      1.0000 0.06637  0.39823  0.73029  Biso   1.000  O 
  O12      1.0000 0.01315  0.42980  0.49292  Biso   1.000  O 
  O13      1.0000 0.26823  0.20630  0.74585  Biso   1.000  O 
  O14      1.0000 0.21726  0.13566  0.49809  Biso   1.000  O 
  O15      1.0000 0.26506  0.37804  0.50496  Biso   1.000  O 
  O16      1.0000 0.31911  0.48401  0.70992  Biso   1.000  O 
  Hf9      1.0000 0.16988  0.62663  0.15202  Biso   1.000  Hf
  Hf10     1.0000 0.19161  0.79541  0.40102  Biso   1.000  Hf
  Hf11     1.0000 0.44219  0.73353  0.10685  Biso   1.000  Hf
  Hf12     1.0000 0.39915  0.51788  0.36376  Biso   1.000  Hf
  O17      1.0000 0.03691  0.70978  0.98301  Biso   1.000  O 
  O18      1.0000 0.98685  0.58252  0.22415  Biso   1.000  O 
  O19      1.0000 0.07533  0.80017  0.22589  Biso   1.000  O 
  O20      1.0000 0.00227  0.93792  0.99766  Biso   1.000  O 
  O21      1.0000 0.31656  0.69752  0.27319  Biso   1.000  O 
  O22      1.0000 0.31933  0.57601  0.02766  Biso   1.000  O 
  O23      1.0000 0.25759  0.80430  0.03865  Biso   1.000  O 
  O24      1.0000 0.27469  0.94150  0.28153  Biso   1.000  O 
  Hf13     1.0000 0.15526  0.52913  0.59956  Biso   1.000  Hf
  Hf14     1.0000 0.16009  0.81008  0.85571  Biso   1.000  Hf
  Hf15     1.0000 0.43236  0.76745  0.61330  Biso   1.000  Hf
  Hf16     1.0000 0.40819  0.54989  0.87356  Biso   1.000  Hf
  O25      1.0000 0.05491  0.67625  0.48830  Biso   1.000  O 
  O26      1.0000 0.06305  0.65565  0.73774  Biso   1.000  O 
  O27      1.0000 0.02107  0.90626  0.73486  Biso   1.000  O 
  O28      1.0000 0.04443  0.92281  0.48398  Biso   1.000  O 
  O29      1.0000 0.31929  0.72433  0.77906  Biso   1.000  O 
  O30      1.0000 0.29899  0.64840  0.51090  Biso   1.000  O 
  O31      1.0000 0.29204  0.89643  0.54199  Biso   1.000  O 
  O32      1.0000 0.25224  0.97580  0.79202  Biso   1.000  O 
  Hf17     1.0000 0.65857  0.97650  0.11795  Biso   1.000  Hf
  Hf18     1.0000 0.62595  0.27429  0.38388  Biso   1.000  Hf
  Hf19     1.0000 0.88699  0.21235  0.11731  Biso   1.000  Hf
  Hf20     1.0000 0.84689  0.03593  0.38492  Biso   1.000  Hf
  O33      1.0000 0.49836  0.18232  0.99455  Biso   1.000  O 
  O34      1.0000 0.48709  0.09282  0.23902  Biso   1.000  O 
  O35      1.0000 0.46806  0.34357  0.27012  Biso   1.000  O 
  O36      1.0000 0.51980  0.38068  0.01272  Biso   1.000  O 
  O37      1.0000 0.74529  0.16451  0.26087  Biso   1.000  O 
  O38      1.0000 0.75349  0.07761  0.01028  Biso   1.000  O 
  O39      1.0000 0.74524  0.32586  0.03519  Biso   1.000  O 
  O40      1.0000 0.71856  0.41726  0.27723  Biso   1.000  O 
  Hf21     1.0000 0.64481  0.03190  0.61152  Biso   1.000  Hf
  Hf22     1.0000 0.63311  0.28975  0.89646  Biso   1.000  Hf
  Hf23     1.0000 0.90329  0.31186  0.64356  Biso   1.000  Hf
  Hf24     1.0000 0.86476  0.05614  0.85963  Biso   1.000  Hf
  O41      1.0000 0.47492  0.17445  0.50126  Biso   1.000  O 
  O42      1.0000 0.51259  0.16135  0.74862  Biso   1.000  O 
  O43      1.0000 0.55133  0.40825  0.75587  Biso   1.000  O 
  O44      1.0000 0.52060  0.42282  0.50435  Biso   1.000  O 
  O45      1.0000 0.77654  0.22680  0.77393  Biso   1.000  O 
  O46      1.0000 0.72046  0.13365  0.50466  Biso   1.000  O 
  O47      1.0000 0.76206  0.37579  0.50890  Biso   1.000  O 
  O48      1.0000 0.81343  0.47714  0.73041  Biso   1.000  O 
  Hf25     1.0000 0.65818  0.49508  0.10658  Biso   1.000  Hf
  Hf26     1.0000 0.67990  0.77788  0.38009  Biso   1.000  Hf
  Hf27     1.0000 0.90075  0.73864  0.12149  Biso   1.000  Hf
  Hf28     1.0000 0.87460  0.50279  0.35832  Biso   1.000  Hf
  O49      1.0000 0.55103  0.68936  0.97531  Biso   1.000  O 
  O50      1.0000 0.51447  0.58073  0.21705  Biso   1.000  O 
  O51      1.0000 0.56042  0.83628  0.23158  Biso   1.000  O 
  O52      1.0000 0.51271  0.94081  0.98901  Biso   1.000  O 
  O53      1.0000 0.76081  0.65437  0.24938  Biso   1.000  O 
  O54      1.0000 0.81212  0.57665  0.00922  Biso   1.000  O 
  O55      1.0000 0.75485  0.82346  0.01620  Biso   1.000  O 
  O56      1.0000 0.80613  0.90414  0.25588  Biso   1.000  O 
  Hf29     1.0000 0.65686  0.52803  0.61066  Biso   1.000  Hf
  Hf30     1.0000 0.66050  0.80945  0.85120  Biso   1.000  Hf
  Hf31     1.0000 0.92991  0.77480  0.60595  Biso   1.000  Hf
  Hf32     1.0000 0.92718  0.56841  0.86661  Biso   1.000  Hf
  O57      1.0000 0.54739  0.66258  0.47913  Biso   1.000  O 
  O58      1.0000 0.56075  0.65799  0.73203  Biso   1.000  O 
  O59      1.0000 0.51795  0.90946  0.73634  Biso   1.000  O 
  O60      1.0000 0.53987  0.91558  0.48228  Biso   1.000  O 
  O61      1.0000 0.81716  0.72489  0.76456  Biso   1.000  O 
  O62      1.0000 0.79869  0.63684  0.50364  Biso   1.000  O 
  O63      1.0000 0.79144  0.88895  0.51262  Biso   1.000  O 
  O64      1.0000 0.75847  0.97359  0.76834  Biso   1.000  O 
  Pb1      1.0000 0.13169  0.37954  0.09747  Biso   1.000  Pb
