data_image0
_cell_length_a       5.18608
_cell_length_b       10.4141
_cell_length_c       10.1695
_cell_angle_alpha    90
_cell_angle_beta     90
_cell_angle_gamma    90

_symmetry_space_group_name_H-M    "P 1"
_symmetry_int_tables_number       1

loop_
  _symmetry_equiv_pos_as_xyz
  'x, y, z'

loop_
  _atom_site_label
  _atom_site_occupancy
  _atom_site_fract_x
  _atom_site_fract_y
  _atom_site_fract_z
  _atom_site_thermal_displace_type
  _atom_site_B_iso_or_equiv
  _atom_site_type_symbol
  Hf1      1.0000 0.23271  0.95543  0.10485  Biso   1.000  Hf
  Hf2      1.0000 0.01429  0.25933  0.39314  Biso   1.000  Hf
  Hf3      1.0000 0.73014  0.18262  0.12655  Biso   1.000  Hf
  Hf4      1.0000 0.64064  0.99816  0.38653  Biso   1.000  Hf
  O1       1.0000 0.03588  0.10786  0.01333  Biso   1.000  O 
  O2       1.0000 0.91470  0.09590  0.28451  Biso   1.000  O 
  O3       1.0000 0.72253  0.33363  0.27795  Biso   1.000  O 
  O4       1.0000 0.97742  0.38353  0.97230  Biso   1.000  O 
  O5       1.0000 0.42493  0.09594  0.23839  Biso   1.000  O 
  O6       1.0000 0.35700  0.02866  0.97699  Biso   1.000  O 
  O7       1.0000 0.51840  0.27100  0.96182  Biso   1.000  O 
  O8       1.0000 0.26510  0.44097  0.28363  Biso   1.000  O 
  Hf5      1.0000 0.14718  0.98180  0.61265  Biso   1.000  Hf
  Hf6      1.0000 0.16504  0.21562  0.86515  Biso   1.000  Hf
  Hf7      1.0000 0.57086  0.24869  0.61428  Biso   1.000  Hf
  Hf8      1.0000 0.65207  0.97666  0.84757  Biso   1.000  Hf
  O9       1.0000 0.84461  0.13435  0.52446  Biso   1.000  O 
  O10      1.0000 0.96092  0.06896  0.76653  Biso   1.000  O 
  O11      1.0000 0.86999  0.32064  0.74346  Biso   1.000  O 
  O12      1.0000 0.79616  0.39498  0.50937  Biso   1.000  O 
  O13      1.0000 0.43367  0.11675  0.74224  Biso   1.000  O 
  O14      1.0000 0.36176  0.09909  0.49513  Biso   1.000  O 
  O15      1.0000 0.27987  0.33859  0.51905  Biso   1.000  O 
  O16      1.0000 0.35649  0.36913  0.75550  Biso   1.000  O 
  Hf9      1.0000 0.22902  0.56345  0.12523  Biso   1.000  Hf
  Hf10     1.0000 0.09064  0.73322  0.38937  Biso   1.000  Hf
  Hf11     1.0000 0.71923  0.74573  0.11821  Biso   1.000  Hf
  Hf12     1.0000 0.60681  0.50896  0.36438  Biso   1.000  Hf
  O17      1.0000 0.81978  0.60844  0.98443  Biso   1.000  O 
  O18      1.0000 0.89413  0.60338  0.24952  Biso   1.000  O 
  O19      1.0000 0.03864  0.82736  0.21642  Biso   1.000  O 
  O20      1.0000 0.74447  0.83722  0.96906  Biso   1.000  O 
  O21      1.0000 0.42578  0.66599  0.26174  Biso   1.000  O 
  O22      1.0000 0.57493  0.56523  0.03641  Biso   1.000  O 
  O23      1.0000 0.40827  0.80565  0.00342  Biso   1.000  O 
  O24      1.0000 0.55369  0.89220  0.21848  Biso   1.000  O 
  Hf13     1.0000 0.08281  0.46837  0.64091  Biso   1.000  Hf
  Hf14     1.0000 0.00089  0.72570  0.84097  Biso   1.000  Hf
  Hf15     1.0000 0.52319  0.71114  0.62886  Biso   1.000  Hf
  Hf16     1.0000 0.63379  0.44264  0.89187  Biso   1.000  Hf
  O25      1.0000 0.79589  0.64696  0.49215  Biso   1.000  O 
  O26      1.0000 0.77515  0.57762  0.74008  Biso   1.000  O 
  O27      1.0000 0.78942  0.83760  0.71415  Biso   1.000  O 
  O28      1.0000 0.89666  0.89353  0.46403  Biso   1.000  O 
  O29      1.0000 0.26576  0.61412  0.74765  Biso   1.000  O 
  O30      1.0000 0.30728  0.58845  0.50177  Biso   1.000  O 
  O31      1.0000 0.37186  0.84332  0.49290  Biso   1.000  O 
  O32      1.0000 0.29371  0.86050  0.74520  Biso   1.000  O 
  Pb1      1.0000 0.23695  0.27366  0.14440  Biso   1.000  Pb
