data_image0
_cell_length_a       10.118
_cell_length_b       5.17655
_cell_length_c       10.6419
_cell_angle_alpha    90
_cell_angle_beta     90
_cell_angle_gamma    90

_symmetry_space_group_name_H-M    "P 1"
_symmetry_int_tables_number       1

loop_
  _symmetry_equiv_pos_as_xyz
  'x, y, z'

loop_
  _atom_site_label
  _atom_site_occupancy
  _atom_site_fract_x
  _atom_site_fract_y
  _atom_site_fract_z
  _atom_site_thermal_displace_type
  _atom_site_B_iso_or_equiv
  _atom_site_type_symbol
  Hf1      1.0000 0.12091  0.03820  0.17557  Biso   1.000  Hf
  Hf2      1.0000 0.11080  0.46206  0.42891  Biso   1.000  Hf
  Hf3      1.0000 0.33014  0.54103  0.19975  Biso   1.000  Hf
  Hf4      1.0000 0.33851  0.96910  0.43162  Biso   1.000  Hf
  Hf5      1.0000 0.65447  0.03824  0.06666  Biso   1.000  Hf
  Hf6      1.0000 0.61846  0.46860  0.33176  Biso   1.000  Hf
  Hf7      1.0000 0.85772  0.53814  0.07664  Biso   1.000  Hf
  Hf8      1.0000 0.84041  0.96641  0.32788  Biso   1.000  Hf
  O1       1.0000 0.02672  0.33319  0.08708  Biso   1.000  O 
  O2       1.0000 0.00914  0.17978  0.33524  Biso   1.000  O 
  O3       1.0000 0.46970  0.90087  0.09075  Biso   1.000  O 
  O4       1.0000 0.44761  0.69865  0.33665  Biso   1.000  O 
  O5       1.0000 0.24788  0.25619  0.30426  Biso   1.000  O 
  O6       1.0000 0.25773  0.21757  0.05156  Biso   1.000  O 
  O7       1.0000 0.19858  0.75990  0.31122  Biso   1.000  O 
  O8       1.0000 0.21311  0.74309  0.06449  Biso   1.000  O 
  O9       1.0000 0.50099  0.31654  0.20330  Biso   1.000  O 
  O10      1.0000 0.50605  0.19472  0.42908  Biso   1.000  O 
  O11      1.0000 0.94942  0.83453  0.16931  Biso   1.000  O 
  O12      1.0000 0.94450  0.68136  0.41962  Biso   1.000  O 
  O13      1.0000 0.75289  0.26025  0.45024  Biso   1.000  O 
  O14      1.0000 0.76202  0.25852  0.20026  Biso   1.000  O 
  O15      1.0000 0.70306  0.76499  0.45494  Biso   1.000  O 
  O16      1.0000 0.71038  0.75109  0.20406  Biso   1.000  O 
  Hf9      1.0000 0.11262  0.05350  0.67639  Biso   1.000  Hf
  Hf10     1.0000 0.09991  0.47743  0.92908  Biso   1.000  Hf
  Hf11     1.0000 0.33498  0.55175  0.67304  Biso   1.000  Hf
  Hf12     1.0000 0.31550  0.98203  0.92578  Biso   1.000  Hf
  Hf13     1.0000 0.61460  0.05274  0.57495  Biso   1.000  Hf
  Hf14     1.0000 0.61988  0.46712  0.80970  Biso   1.000  Hf
  Hf15     1.0000 0.83870  0.55590  0.57629  Biso   1.000  Hf
  Hf16     1.0000 0.83563  0.97271  0.82622  Biso   1.000  Hf
  O17      1.0000 0.00620  0.33629  0.58487  Biso   1.000  O 
  O18      1.0000 0.00496  0.18523  0.83364  Biso   1.000  O 
  O19      1.0000 0.44527  0.83216  0.58058  Biso   1.000  O 
  O20      1.0000 0.44671  0.69352  0.81420  Biso   1.000  O 
  O21      1.0000 0.24552  0.26820  0.79831  Biso   1.000  O 
  O22      1.0000 0.24855  0.25796  0.55011  Biso   1.000  O 
  O23      1.0000 0.19383  0.76142  0.80391  Biso   1.000  O 
  O24      1.0000 0.19999  0.75999  0.55435  Biso   1.000  O 
  O25      1.0000 0.50737  0.33920  0.66217  Biso   1.000  O 
  O26      1.0000 0.50043  0.13434  0.88939  Biso   1.000  O 
  O27      1.0000 0.94455  0.83631  0.66857  Biso   1.000  O 
  O28      1.0000 0.93098  0.68545  0.91933  Biso   1.000  O 
  O29      1.0000 0.74789  0.26685  0.94131  Biso   1.000  O 
  O30      1.0000 0.75346  0.25656  0.69505  Biso   1.000  O 
  O31      1.0000 0.69751  0.78822  0.94884  Biso   1.000  O 
  O32      1.0000 0.70368  0.75819  0.70080  Biso   1.000  O 
  Pb1      1.0000 0.50352  0.49153  0.01023  Biso   1.000  Pb
