data_image0
_cell_length_a       10.4103
_cell_length_b       5.33053
_cell_length_c       10.326
_cell_angle_alpha    90
_cell_angle_beta     90
_cell_angle_gamma    90

_symmetry_space_group_name_H-M    "P 1"
_symmetry_int_tables_number       1

loop_
  _symmetry_equiv_pos_as_xyz
  'x, y, z'

loop_
  _atom_site_label
  _atom_site_occupancy
  _atom_site_fract_x
  _atom_site_fract_y
  _atom_site_fract_z
  _atom_site_thermal_displace_type
  _atom_site_B_iso_or_equiv
  _atom_site_type_symbol
  Hf1      1.0000 0.13379  0.97229  0.10185  Biso   1.000  Hf
  Hf2      1.0000 0.07415  0.22778  0.41536  Biso   1.000  Hf
  Hf3      1.0000 0.38742  0.56390  0.08088  Biso   1.000  Hf
  Hf4      1.0000 0.39110  0.86597  0.36537  Biso   1.000  Hf
  O1       1.0000 0.00791  0.27504  0.03549  Biso   1.000  O 
  O2       1.0000 0.02750  0.93731  0.28315  Biso   1.000  O 
  O3       1.0000 0.95144  0.44978  0.28050  Biso   1.000  O 
  O4       1.0000 0.00461  0.76858  0.01151  Biso   1.000  O 
  O5       1.0000 0.37505  0.24478  0.36905  Biso   1.000  O 
  O6       1.0000 0.22887  0.86365  0.96609  Biso   1.000  O 
  O7       1.0000 0.22682  0.36930  0.93164  Biso   1.000  O 
  O8       1.0000 0.31336  0.88291  0.19439  Biso   1.000  O 
  Hf5      1.0000 0.11551  0.75885  0.60181  Biso   1.000  Hf
  Hf6      1.0000 0.08438  0.10363  0.85879  Biso   1.000  Hf
  Hf7      1.0000 0.33987  0.29075  0.57480  Biso   1.000  Hf
  Hf8      1.0000 0.38117  0.62572  0.85449  Biso   1.000  Hf
  O9       1.0000 0.96240  0.00494  0.52590  Biso   1.000  O 
  O10      1.0000 0.01407  0.77045  0.77372  Biso   1.000  O 
  O11      1.0000 0.93961  0.27090  0.75742  Biso   1.000  O 
  O12      1.0000 0.97412  0.51801  0.52179  Biso   1.000  O 
  O13      1.0000 0.18769  0.10231  0.69542  Biso   1.000  O 
  O14      1.0000 0.22039  0.98317  0.47244  Biso   1.000  O 
  O15      1.0000 0.20307  0.49760  0.46858  Biso   1.000  O 
  O16      1.0000 0.27823  0.60463  0.69187  Biso   1.000  O 
  Hf9      1.0000 0.65163  0.01292  0.10235  Biso   1.000  Hf
  Hf10     1.0000 0.57454  0.31813  0.36550  Biso   1.000  Hf
  Hf11     1.0000 0.84880  0.49382  0.10187  Biso   1.000  Hf
  Hf12     1.0000 0.88303  0.77316  0.38312  Biso   1.000  Hf
  O17      1.0000 0.50922  0.29457  0.00997  Biso   1.000  O 
  O18      1.0000 0.54755  0.99662  0.26480  Biso   1.000  O 
  O19      1.0000 0.48344  0.56202  0.24420  Biso   1.000  O 
  O20      1.0000 0.51759  0.80267  0.00673  Biso   1.000  O 
  O21      1.0000 0.70876  0.32658  0.20375  Biso   1.000  O 
  O22      1.0000 0.73092  0.83162  0.94685  Biso   1.000  O 
  O23      1.0000 0.72258  0.33127  0.94718  Biso   1.000  O 
  O24      1.0000 0.79888  0.81264  0.20632  Biso   1.000  O 
  Hf13     1.0000 0.61882  0.78826  0.58814  Biso   1.000  Hf
  Hf14     1.0000 0.58077  0.10895  0.85133  Biso   1.000  Hf
  Hf15     1.0000 0.82363  0.27861  0.59432  Biso   1.000  Hf
  Hf16     1.0000 0.87883  0.59252  0.85701  Biso   1.000  Hf
  O25      1.0000 0.49617  0.06049  0.52518  Biso   1.000  O 
  O26      1.0000 0.51049  0.78866  0.75566  Biso   1.000  O 
  O27      1.0000 0.44402  0.29411  0.75440  Biso   1.000  O 
  O28      1.0000 0.48294  0.58284  0.50273  Biso   1.000  O 
  O29      1.0000 0.69765  0.08388  0.70065  Biso   1.000  O 
  O30      1.0000 0.73378  0.02758  0.45819  Biso   1.000  O 
  O31      1.0000 0.72891  0.52995  0.45800  Biso   1.000  O 
  O32      1.0000 0.76415  0.58613  0.70046  Biso   1.000  O 
  Pb1      1.0000 0.14957  0.47642  0.19979  Biso   1.000  Pb
