data_image0
_cell_length_a       9.969
_cell_length_b       10.38
_cell_length_c       10.0136
_cell_angle_alpha    90
_cell_angle_beta     90
_cell_angle_gamma    90

_symmetry_space_group_name_H-M    "P 1"
_symmetry_int_tables_number       1

loop_
  _symmetry_equiv_pos_as_xyz
  'x, y, z'

loop_
  _atom_site_label
  _atom_site_occupancy
  _atom_site_fract_x
  _atom_site_fract_y
  _atom_site_fract_z
  _atom_site_thermal_displace_type
  _atom_site_B_iso_or_equiv
  _atom_site_type_symbol
  Pb1      1.0000 0.12998  0.01581  0.12253  Biso   1.000  Pb
  Hf1      1.0000 0.13388  0.01630  0.62718  Biso   1.000  Hf
  Hf2      1.0000 0.13430  0.51634  0.12664  Biso   1.000  Hf
  Hf3      1.0000 0.13458  0.51640  0.62623  Biso   1.000  Hf
  Hf4      1.0000 0.63444  0.01592  0.12691  Biso   1.000  Hf
  Hf5      1.0000 0.63412  0.01651  0.62609  Biso   1.000  Hf
  Hf6      1.0000 0.63444  0.51605  0.12673  Biso   1.000  Hf
  Hf7      1.0000 0.63451  0.51608  0.62615  Biso   1.000  Hf
  Hf8      1.0000 0.13526  0.23353  0.37819  Biso   1.000  Hf
  Hf9      1.0000 0.13485  0.23583  0.87362  Biso   1.000  Hf
  Hf10     1.0000 0.13457  0.73312  0.37702  Biso   1.000  Hf
  Hf11     1.0000 0.13448  0.73260  0.87629  Biso   1.000  Hf
  Hf12     1.0000 0.63405  0.23331  0.37601  Biso   1.000  Hf
  Hf13     1.0000 0.63505  0.23297  0.87637  Biso   1.000  Hf
  Hf14     1.0000 0.63480  0.73333  0.37698  Biso   1.000  Hf
  Hf15     1.0000 0.63436  0.73248  0.87608  Biso   1.000  Hf
  Hf16     1.0000 0.36669  0.26750  0.12665  Biso   1.000  Hf
  Hf17     1.0000 0.36711  0.26608  0.62598  Biso   1.000  Hf
  Hf18     1.0000 0.36850  0.76455  0.12670  Biso   1.000  Hf
  Hf19     1.0000 0.36638  0.76623  0.62663  Biso   1.000  Hf
  Hf20     1.0000 0.86408  0.26728  0.12616  Biso   1.000  Hf
  Hf21     1.0000 0.86653  0.26667  0.62583  Biso   1.000  Hf
  Hf22     1.0000 0.86536  0.76408  0.12589  Biso   1.000  Hf
  Hf23     1.0000 0.86683  0.76577  0.62592  Biso   1.000  Hf
  Hf24     1.0000 0.36634  0.48345  0.37655  Biso   1.000  Hf
  Hf25     1.0000 0.36707  0.48345  0.87624  Biso   1.000  Hf
  Hf26     1.0000 0.36707  0.98281  0.37691  Biso   1.000  Hf
  Hf27     1.0000 0.36910  0.98426  0.87478  Biso   1.000  Hf
  Hf28     1.0000 0.86677  0.48325  0.37645  Biso   1.000  Hf
  Hf29     1.0000 0.86678  0.48293  0.87618  Biso   1.000  Hf
  Hf30     1.0000 0.86594  0.98406  0.37874  Biso   1.000  Hf
  Hf31     1.0000 0.86452  0.98157  0.87475  Biso   1.000  Hf
  O1       1.0000 0.03407  0.18933  0.19803  Biso   1.000  O 
  O2       1.0000 0.03852  0.18650  0.69072  Biso   1.000  O 
  O3       1.0000 0.03711  0.68485  0.19464  Biso   1.000  O 
  O4       1.0000 0.03698  0.68403  0.69479  Biso   1.000  O 
  O5       1.0000 0.53747  0.18483  0.19327  Biso   1.000  O 
  O6       1.0000 0.53702  0.18403  0.69484  Biso   1.000  O 
  O7       1.0000 0.53816  0.68369  0.19548  Biso   1.000  O 
  O8       1.0000 0.53660  0.68357  0.69486  Biso   1.000  O 
  O9       1.0000 0.03678  0.06516  0.44435  Biso   1.000  O 
  O10      1.0000 0.03593  0.06683  0.92996  Biso   1.000  O 
  O11      1.0000 0.03686  0.56506  0.44500  Biso   1.000  O 
  O12      1.0000 0.03657  0.56568  0.94483  Biso   1.000  O 
  O13      1.0000 0.53698  0.06552  0.44451  Biso   1.000  O 
  O14      1.0000 0.53876  0.06468  0.94362  Biso   1.000  O 
  O15      1.0000 0.53690  0.56538  0.44473  Biso   1.000  O 
  O16      1.0000 0.53654  0.56559  0.94572  Biso   1.000  O 
  O17      1.0000 0.46436  0.43440  0.19497  Biso   1.000  O 
  O18      1.0000 0.46478  0.43388  0.69463  Biso   1.000  O 
  O19      1.0000 0.46541  0.93389  0.19454  Biso   1.000  O 
  O20      1.0000 0.46470  0.93409  0.69384  Biso   1.000  O 
  O21      1.0000 0.96324  0.43497  0.19431  Biso   1.000  O 
  O22      1.0000 0.96462  0.43423  0.69516  Biso   1.000  O 
  O23      1.0000 0.95585  0.93289  0.19561  Biso   1.000  O 
  O24      1.0000 0.96302  0.93393  0.69252  Biso   1.000  O 
  O25      1.0000 0.46386  0.31527  0.44428  Biso   1.000  O 
  O26      1.0000 0.46485  0.31553  0.94413  Biso   1.000  O 
  O27      1.0000 0.46505  0.81544  0.44577  Biso   1.000  O 
  O28      1.0000 0.46425  0.81513  0.94353  Biso   1.000  O 
  O29      1.0000 0.96394  0.31605  0.44469  Biso   1.000  O 
  O30      1.0000 0.96458  0.31582  0.94502  Biso   1.000  O 
  O31      1.0000 0.96431  0.81533  0.44494  Biso   1.000  O 
  O32      1.0000 0.96521  0.81615  0.94568  Biso   1.000  O 
  O33      1.0000 0.27456  0.12079  0.25257  Biso   1.000  O 
  O34      1.0000 0.27200  0.11795  0.74893  Biso   1.000  O 
  O35      1.0000 0.27116  0.61590  0.25019  Biso   1.000  O 
  O36      1.0000 0.27107  0.61727  0.75025  Biso   1.000  O 
  O37      1.0000 0.76959  0.11766  0.25128  Biso   1.000  O 
  O38      1.0000 0.77109  0.11747  0.74976  Biso   1.000  O 
  O39      1.0000 0.77120  0.61703  0.25021  Biso   1.000  O 
  O40      1.0000 0.77108  0.61709  0.75002  Biso   1.000  O 
  O41      1.0000 0.27137  0.13163  0.50075  Biso   1.000  O 
  O42      1.0000 0.27382  0.13443  0.99639  Biso   1.000  O 
  O43      1.0000 0.27121  0.63221  0.50046  Biso   1.000  O 
  O44      1.0000 0.27070  0.63226  0.00021  Biso   1.000  O 
  O45      1.0000 0.77054  0.13252  0.50061  Biso   1.000  O 
  O46      1.0000 0.77182  0.13154  0.00041  Biso   1.000  O 
  O47      1.0000 0.77118  0.63202  0.50005  Biso   1.000  O 
  O48      1.0000 0.77095  0.63076  0.99963  Biso   1.000  O 
  O49      1.0000 0.23018  0.38225  0.50048  Biso   1.000  O 
  O50      1.0000 0.23056  0.38280  0.99987  Biso   1.000  O 
  O51      1.0000 0.23006  0.88233  0.50131  Biso   1.000  O 
  O52      1.0000 0.23404  0.87924  0.99908  Biso   1.000  O 
  O53      1.0000 0.72983  0.38215  0.50009  Biso   1.000  O 
  O54      1.0000 0.72922  0.38216  0.00002  Biso   1.000  O 
  O55      1.0000 0.72991  0.88201  0.50083  Biso   1.000  O 
  O56      1.0000 0.72865  0.88062  0.00045  Biso   1.000  O 
  O57      1.0000 0.22964  0.36814  0.25063  Biso   1.000  O 
  O58      1.0000 0.23093  0.36829  0.74931  Biso   1.000  O 
  O59      1.0000 0.23580  0.86182  0.25363  Biso   1.000  O 
  O60      1.0000 0.23035  0.86743  0.75071  Biso   1.000  O 
  O61      1.0000 0.72925  0.36794  0.25038  Biso   1.000  O 
  O62      1.0000 0.73025  0.36726  0.75023  Biso   1.000  O 
  O63      1.0000 0.73017  0.86706  0.25098  Biso   1.000  O 
  O64      1.0000 0.72963  0.86683  0.74995  Biso   1.000  O 
