data_image0
_cell_length_a       10.0549
_cell_length_b       5.13232
_cell_length_c       10.4706
_cell_angle_alpha    90
_cell_angle_beta     90
_cell_angle_gamma    90

_symmetry_space_group_name_H-M    "P 1"
_symmetry_int_tables_number       1

loop_
  _symmetry_equiv_pos_as_xyz
  'x, y, z'

loop_
  _atom_site_label
  _atom_site_occupancy
  _atom_site_fract_x
  _atom_site_fract_y
  _atom_site_fract_z
  _atom_site_thermal_displace_type
  _atom_site_B_iso_or_equiv
  _atom_site_type_symbol
  Pb1      1.0000 0.13491  0.03605  0.17026  Biso   1.000  Pb
  Hf1      1.0000 0.13687  0.04381  0.67076  Biso   1.000  Hf
  Hf2      1.0000 0.13654  0.45921  0.42269  Biso   1.000  Hf
  Hf3      1.0000 0.13679  0.46225  0.91800  Biso   1.000  Hf
  Hf4      1.0000 0.36287  0.54028  0.16992  Biso   1.000  Hf
  Hf5      1.0000 0.35959  0.54360  0.67045  Biso   1.000  Hf
  Hf6      1.0000 0.36128  0.95913  0.42178  Biso   1.000  Hf
  Hf7      1.0000 0.36072  0.96125  0.91906  Biso   1.000  Hf
  Hf8      1.0000 0.63881  0.04067  0.07891  Biso   1.000  Hf
  Hf9      1.0000 0.63683  0.04413  0.58000  Biso   1.000  Hf
  Hf10     1.0000 0.63711  0.45886  0.32941  Biso   1.000  Hf
  Hf11     1.0000 0.63670  0.46039  0.82823  Biso   1.000  Hf
  Hf12     1.0000 0.85813  0.53879  0.07793  Biso   1.000  Hf
  Hf13     1.0000 0.85998  0.54483  0.57955  Biso   1.000  Hf
  Hf14     1.0000 0.85582  0.95994  0.33207  Biso   1.000  Hf
  Hf15     1.0000 0.85974  0.96018  0.82900  Biso   1.000  Hf
  O1       1.0000 0.03509  0.35132  0.08264  Biso   1.000  O 
  O2       1.0000 0.03277  0.34031  0.58752  Biso   1.000  O 
  O3       1.0000 0.02761  0.16940  0.34198  Biso   1.000  O 
  O4       1.0000 0.03253  0.16552  0.83520  Biso   1.000  O 
  O5       1.0000 0.46775  0.83174  0.08323  Biso   1.000  O 
  O6       1.0000 0.46535  0.83452  0.58492  Biso   1.000  O 
  O7       1.0000 0.46577  0.66810  0.33424  Biso   1.000  O 
  O8       1.0000 0.46487  0.66929  0.83307  Biso   1.000  O 
  O9       1.0000 0.27897  0.25059  0.29817  Biso   1.000  O 
  O10      1.0000 0.27458  0.25003  0.79284  Biso   1.000  O 
  O11      1.0000 0.28039  0.25687  0.03963  Biso   1.000  O 
  O12      1.0000 0.27458  0.25331  0.54490  Biso   1.000  O 
  O13      1.0000 0.22524  0.74113  0.29492  Biso   1.000  O 
  O14      1.0000 0.22229  0.75032  0.79258  Biso   1.000  O 
  O15      1.0000 0.22873  0.74643  0.03993  Biso   1.000  O 
  O16      1.0000 0.22259  0.75436  0.54418  Biso   1.000  O 
  O17      1.0000 0.53384  0.33102  0.16612  Biso   1.000  O 
  O18      1.0000 0.53178  0.33454  0.66569  Biso   1.000  O 
  O19      1.0000 0.53281  0.16774  0.41656  Biso   1.000  O 
  O20      1.0000 0.53182  0.17058  0.91543  Biso   1.000  O 
  O21      1.0000 0.95237  0.83938  0.16394  Biso   1.000  O 
  O22      1.0000 0.96399  0.83833  0.66492  Biso   1.000  O 
  O23      1.0000 0.96407  0.66913  0.41593  Biso   1.000  O 
  O24      1.0000 0.96290  0.66738  0.91439  Biso   1.000  O 
  O25      1.0000 0.77340  0.24845  0.95516  Biso   1.000  O 
  O26      1.0000 0.77407  0.25011  0.45697  Biso   1.000  O 
  O27      1.0000 0.77478  0.25402  0.20638  Biso   1.000  O 
  O28      1.0000 0.77457  0.25500  0.70587  Biso   1.000  O 
  O29      1.0000 0.72028  0.74962  0.95525  Biso   1.000  O 
  O30      1.0000 0.72108  0.74893  0.45678  Biso   1.000  O 
  O31      1.0000 0.72013  0.75247  0.20675  Biso   1.000  O 
  O32      1.0000 0.72234  0.75456  0.70580  Biso   1.000  O 
