data_image0
_cell_length_a       10.1695
_cell_length_b       10.4141
_cell_length_c       5.18608
_cell_angle_alpha    90
_cell_angle_beta     90
_cell_angle_gamma    90

_symmetry_space_group_name_H-M    "P 1"
_symmetry_int_tables_number       1

loop_
  _symmetry_equiv_pos_as_xyz
  'x, y, z'

loop_
  _atom_site_label
  _atom_site_occupancy
  _atom_site_fract_x
  _atom_site_fract_y
  _atom_site_fract_z
  _atom_site_thermal_displace_type
  _atom_site_B_iso_or_equiv
  _atom_site_type_symbol
  Hf1      1.0000 0.05403  0.95428  0.30426  Biso   1.000  Hf
  Hf2      1.0000 0.08378  0.17543  0.76023  Biso   1.000  Hf
  Hf3      1.0000 0.37985  0.27298  0.10146  Biso   1.000  Hf
  Hf4      1.0000 0.35424  0.00208  0.70899  Biso   1.000  Hf
  O1       1.0000 0.00724  0.10745  0.04420  Biso   1.000  O 
  O2       1.0000 0.95387  0.05853  0.53756  Biso   1.000  O 
  O3       1.0000 0.92116  0.29749  0.70894  Biso   1.000  O 
  O4       1.0000 0.95265  0.41873  0.17878  Biso   1.000  O 
  O5       1.0000 0.21311  0.09770  0.47234  Biso   1.000  O 
  O6       1.0000 0.23573  0.09171  0.96827  Biso   1.000  O 
  O7       1.0000 0.22854  0.33192  0.78911  Biso   1.000  O 
  O8       1.0000 0.25152  0.44646  0.34090  Biso   1.000  O 
  Hf5      1.0000 0.09062  0.56359  0.28253  Biso   1.000  Hf
  Hf6      1.0000 0.05285  0.73773  0.77922  Biso   1.000  Hf
  Hf7      1.0000 0.35301  0.74497  0.20310  Biso   1.000  Hf
  Hf8      1.0000 0.31282  0.51200  0.69967  Biso   1.000  Hf
  O9       1.0000 0.96298  0.64628  0.03664  Biso   1.000  O 
  O10      1.0000 0.98577  0.55670  0.61046  Biso   1.000  O 
  O11      1.0000 0.95097  0.79824  0.45189  Biso   1.000  O 
  O12      1.0000 0.89433  0.85976  0.96679  Biso   1.000  O 
  O13      1.0000 0.21287  0.66792  0.50931  Biso   1.000  O 
  O14      1.0000 0.18103  0.59761  0.96964  Biso   1.000  O 
  O15      1.0000 0.17954  0.83349  0.12463  Biso   1.000  O 
  O16      1.0000 0.15444  0.89029  0.64120  Biso   1.000  O 
  Hf9      1.0000 0.60334  0.00173  0.25884  Biso   1.000  Hf
  Hf10     1.0000 0.57382  0.26171  0.69563  Biso   1.000  Hf
  Hf11     1.0000 0.84404  0.24420  0.33633  Biso   1.000  Hf
  Hf12     1.0000 0.81326  0.99724  0.80440  Biso   1.000  Hf
  O17      1.0000 0.47618  0.13995  0.94510  Biso   1.000  O 
  O18      1.0000 0.47139  0.11122  0.45716  Biso   1.000  O 
  O19      1.0000 0.48923  0.35258  0.39346  Biso   1.000  O 
  O20      1.0000 0.45275  0.40048  0.90861  Biso   1.000  O 
  O21      1.0000 0.71306  0.13673  0.57537  Biso   1.000  O 
  O22      1.0000 0.76170  0.09730  0.10676  Biso   1.000  O 
  O23      1.0000 0.73270  0.34926  0.02605  Biso   1.000  O 
  O24      1.0000 0.71956  0.39050  0.51512  Biso   1.000  O 
  Hf13     1.0000 0.61449  0.48973  0.22712  Biso   1.000  Hf
  Hf14     1.0000 0.57160  0.72490  0.67663  Biso   1.000  Hf
  Hf15     1.0000 0.80683  0.75534  0.19690  Biso   1.000  Hf
  Hf16     1.0000 0.83904  0.46458  0.82038  Biso   1.000  Hf
  O25      1.0000 0.42527  0.65155  0.91910  Biso   1.000  O 
  O26      1.0000 0.46047  0.60109  0.43138  Biso   1.000  O 
  O27      1.0000 0.43811  0.85432  0.50825  Biso   1.000  O 
  O28      1.0000 0.42990  0.91085  0.03283  Biso   1.000  O 
  O29      1.0000 0.70602  0.63633  0.43706  Biso   1.000  O 
  O30      1.0000 0.67576  0.59164  0.94053  Biso   1.000  O 
  O31      1.0000 0.63861  0.85016  0.96436  Biso   1.000  O 
  O32      1.0000 0.69212  0.88190  0.47805  Biso   1.000  O 
  Pb1      1.0000 0.12120  0.27472  0.27778  Biso   1.000  Pb
