data_image0
_cell_length_a       10.0715
_cell_length_b       10.2911
_cell_length_c       10.5208
_cell_angle_alpha    90
_cell_angle_beta     90
_cell_angle_gamma    90

_symmetry_space_group_name_H-M    "P 1"
_symmetry_int_tables_number       1

loop_
  _symmetry_equiv_pos_as_xyz
  'x, y, z'

loop_
  _atom_site_label
  _atom_site_occupancy
  _atom_site_fract_x
  _atom_site_fract_y
  _atom_site_fract_z
  _atom_site_thermal_displace_type
  _atom_site_B_iso_or_equiv
  _atom_site_type_symbol
  Hf1      1.0000 0.12948  0.01812  0.17451  Biso   1.000  Hf
  Hf2      1.0000 0.12674  0.22788  0.42830  Biso   1.000  Hf
  Hf3      1.0000 0.33563  0.26895  0.19238  Biso   1.000  Hf
  Hf4      1.0000 0.35210  0.48135  0.42339  Biso   1.000  Hf
  Hf5      1.0000 0.64225  0.01426  0.07383  Biso   1.000  Hf
  Hf6      1.0000 0.62845  0.22667  0.32931  Biso   1.000  Hf
  Hf7      1.0000 0.85806  0.27158  0.07524  Biso   1.000  Hf
  Hf8      1.0000 0.85266  0.47914  0.32723  Biso   1.000  Hf
  O1       1.0000 0.02953  0.16802  0.08750  Biso   1.000  O 
  O2       1.0000 0.02163  0.08616  0.33544  Biso   1.000  O 
  O3       1.0000 0.45874  0.44562  0.10671  Biso   1.000  O 
  O4       1.0000 0.45532  0.33399  0.33645  Biso   1.000  O 
  O5       1.0000 0.26032  0.12424  0.30432  Biso   1.000  O 
  O6       1.0000 0.26316  0.11233  0.05301  Biso   1.000  O 
  O7       1.0000 0.20782  0.37807  0.30555  Biso   1.000  O 
  O8       1.0000 0.21387  0.37930  0.05580  Biso   1.000  O 
  O9       1.0000 0.51128  0.14324  0.19111  Biso   1.000  O 
  O10      1.0000 0.52072  0.08757  0.42635  Biso   1.000  O 
  O11      1.0000 0.95841  0.41740  0.16742  Biso   1.000  O 
  O12      1.0000 0.95866  0.33667  0.41739  Biso   1.000  O 
  O13      1.0000 0.76519  0.12545  0.45167  Biso   1.000  O 
  O14      1.0000 0.76658  0.12721  0.20116  Biso   1.000  O 
  O15      1.0000 0.71483  0.37604  0.45244  Biso   1.000  O 
  O16      1.0000 0.71448  0.37512  0.20356  Biso   1.000  O 
  Hf9      1.0000 0.12731  0.02259  0.67511  Biso   1.000  Hf
  Hf10     1.0000 0.12192  0.23015  0.92711  Biso   1.000  Hf
  Hf11     1.0000 0.35153  0.27507  0.67303  Biso   1.000  Hf
  Hf12     1.0000 0.33772  0.48747  0.92851  Biso   1.000  Hf
  Hf13     1.0000 0.62788  0.02039  0.57896  Biso   1.000  Hf
  Hf14     1.0000 0.64436  0.23280  0.80995  Biso   1.000  Hf
  Hf15     1.0000 0.85325  0.27385  0.57404  Biso   1.000  Hf
  Hf16     1.0000 0.85049  0.48362  0.82784  Biso   1.000  Hf
  O17      1.0000 0.02132  0.16507  0.58494  Biso   1.000  O 
  O18      1.0000 0.02156  0.08434  0.83492  Biso   1.000  O 
  O19      1.0000 0.45926  0.41416  0.57599  Biso   1.000  O 
  O20      1.0000 0.46871  0.35852  0.81121  Biso   1.000  O 
  O21      1.0000 0.26550  0.12661  0.79878  Biso   1.000  O 
  O22      1.0000 0.26515  0.12570  0.54990  Biso   1.000  O 
  O23      1.0000 0.21340  0.37452  0.80117  Biso   1.000  O 
  O24      1.0000 0.21479  0.37629  0.55067  Biso   1.000  O 
  O25      1.0000 0.52465  0.16775  0.66591  Biso   1.000  O 
  O26      1.0000 0.52123  0.05607  0.89563  Biso   1.000  O 
  O27      1.0000 0.95835  0.41557  0.66690  Biso   1.000  O 
  O28      1.0000 0.95044  0.33371  0.91484  Biso   1.000  O 
  O29      1.0000 0.76609  0.12244  0.94654  Biso   1.000  O 
  O30      1.0000 0.77216  0.12366  0.69679  Biso   1.000  O 
  O31      1.0000 0.71681  0.38940  0.94933  Biso   1.000  O 
  O32      1.0000 0.71966  0.37749  0.69802  Biso   1.000  O 
  Hf17     1.0000 0.13107  0.52332  0.17367  Biso   1.000  Hf
  Hf18     1.0000 0.12838  0.72987  0.42267  Biso   1.000  Hf
  Hf19     1.0000 0.35814  0.77322  0.17491  Biso   1.000  Hf
  Hf20     1.0000 0.35222  0.97855  0.42755  Biso   1.000  Hf
  Hf21     1.0000 0.63893  0.52813  0.08079  Biso   1.000  Hf
  Hf22     1.0000 0.63190  0.73244  0.32936  Biso   1.000  Hf
  Hf23     1.0000 0.86063  0.76973  0.07938  Biso   1.000  Hf
  Hf24     1.0000 0.85291  0.98072  0.32929  Biso   1.000  Hf
  O33      1.0000 0.03131  0.66582  0.08344  Biso   1.000  O 
  O34      1.0000 0.02322  0.58661  0.33489  Biso   1.000  O 
  O35      1.0000 0.46705  0.91451  0.08304  Biso   1.000  O 
  O36      1.0000 0.46064  0.83813  0.33649  Biso   1.000  O 
  O37      1.0000 0.26793  0.62653  0.29540  Biso   1.000  O 
  O38      1.0000 0.27365  0.62719  0.04595  Biso   1.000  O 
  O39      1.0000 0.21736  0.87517  0.29881  Biso   1.000  O 
  O40      1.0000 0.22267  0.87140  0.04943  Biso   1.000  O 
  O41      1.0000 0.53447  0.67719  0.16609  Biso   1.000  O 
  O42      1.0000 0.52314  0.58800  0.41488  Biso   1.000  O 
  O43      1.0000 0.95966  0.91622  0.16742  Biso   1.000  O 
  O44      1.0000 0.95719  0.83564  0.41754  Biso   1.000  O 
  O45      1.0000 0.76661  0.62557  0.45444  Biso   1.000  O 
  O46      1.0000 0.77294  0.62787  0.20570  Biso   1.000  O 
  O47      1.0000 0.71551  0.87641  0.45662  Biso   1.000  O 
  O48      1.0000 0.72011  0.87645  0.20591  Biso   1.000  O 
  Hf25     1.0000 0.12710  0.52102  0.67305  Biso   1.000  Hf
  Hf26     1.0000 0.11936  0.73200  0.92296  Biso   1.000  Hf
  Hf27     1.0000 0.34809  0.76930  0.67298  Biso   1.000  Hf
  Hf28     1.0000 0.34105  0.97359  0.92155  Biso   1.000  Hf
  Hf29     1.0000 0.62778  0.52320  0.57479  Biso   1.000  Hf
  Hf30     1.0000 0.62184  0.72851  0.82743  Biso   1.000  Hf
  Hf31     1.0000 0.85161  0.77187  0.57968  Biso   1.000  Hf
  Hf32     1.0000 0.84893  0.97841  0.82867  Biso   1.000  Hf
  O49      1.0000 0.02280  0.66610  0.58480  Biso   1.000  O 
  O50      1.0000 0.02033  0.58552  0.83492  Biso   1.000  O 
  O51      1.0000 0.45685  0.91375  0.58747  Biso   1.000  O 
  O52      1.0000 0.44551  0.82453  0.83627  Biso   1.000  O 
  O53      1.0000 0.25988  0.62528  0.79643  Biso   1.000  O 
  O54      1.0000 0.26450  0.62533  0.54572  Biso   1.000  O 
  O55      1.0000 0.20705  0.87385  0.79664  Biso   1.000  O 
  O56      1.0000 0.21338  0.87616  0.54790  Biso   1.000  O 
  O57      1.0000 0.51935  0.66360  0.66586  Biso   1.000  O 
  O58      1.0000 0.51294  0.58723  0.91932  Biso   1.000  O 
  O59      1.0000 0.95677  0.91513  0.66745  Biso   1.000  O 
  O60      1.0000 0.94869  0.83591  0.91891  Biso   1.000  O 
  O61      1.0000 0.75733  0.63033  0.95292  Biso   1.000  O 
  O62      1.0000 0.76263  0.62657  0.70353  Biso   1.000  O 
  O63      1.0000 0.70634  0.87454  0.95640  Biso   1.000  O 
  O64      1.0000 0.71205  0.87521  0.70694  Biso   1.000  O 
  Pb1      1.0000 0.50139  0.24999  0.00127  Biso   1.000  Pb
