data_image0
_cell_length_a       10.2097
_cell_length_b       10.3119
_cell_length_c       10.5313
_cell_angle_alpha    90
_cell_angle_beta     80
_cell_angle_gamma    90

_symmetry_space_group_name_H-M    "P 1"
_symmetry_int_tables_number       1

loop_
  _symmetry_equiv_pos_as_xyz
  'x, y, z'

loop_
  _atom_site_label
  _atom_site_occupancy
  _atom_site_fract_x
  _atom_site_fract_y
  _atom_site_fract_z
  _atom_site_thermal_displace_type
  _atom_site_B_iso_or_equiv
  _atom_site_type_symbol
  Hf1      1.0000 0.13167  0.01898  0.14427  Biso   1.000  Hf
  Hf2      1.0000 0.14569  0.22629  0.39029  Biso   1.000  Hf
  Hf3      1.0000 0.33640  0.26742  0.08824  Biso   1.000  Hf
  Hf4      1.0000 0.36022  0.48450  0.35021  Biso   1.000  Hf
  O1       1.0000 0.03153  0.16839  0.07779  Biso   1.000  O 
  O2       1.0000 0.03490  0.08005  0.33089  Biso   1.000  O 
  O3       1.0000 0.45636  0.44564  0.15282  Biso   1.000  O 
  O4       1.0000 0.48765  0.35699  0.44269  Biso   1.000  O 
  O5       1.0000 0.26473  0.12066  0.23114  Biso   1.000  O 
  O6       1.0000 0.28675  0.12168  0.48349  Biso   1.000  O 
  O7       1.0000 0.21195  0.38431  0.00126  Biso   1.000  O 
  O8       1.0000 0.21599  0.37348  0.25266  Biso   1.000  O 
  Hf5      1.0000 0.14698  0.02044  0.64312  Biso   1.000  Hf
  Hf6      1.0000 0.14110  0.22851  0.88846  Biso   1.000  Hf
  Hf7      1.0000 0.37068  0.27406  0.60321  Biso   1.000  Hf
  Hf8      1.0000 0.37054  0.47892  0.85289  Biso   1.000  Hf
  O9       1.0000 0.04717  0.16712  0.57715  Biso   1.000  O 
  O10      1.0000 0.04046  0.08283  0.82454  Biso   1.000  O 
  O11      1.0000 0.47622  0.41375  0.67954  Biso   1.000  O 
  O12      1.0000 0.47138  0.33070  0.92010  Biso   1.000  O 
  O13      1.0000 0.28230  0.12735  0.73437  Biso   1.000  O 
  O14      1.0000 0.27658  0.12080  0.97918  Biso   1.000  O 
  O15      1.0000 0.23351  0.37720  0.50413  Biso   1.000  O 
  O16      1.0000 0.23293  0.37053  0.75448  Biso   1.000  O 
  Hf9      1.0000 0.13987  0.52434  0.14488  Biso   1.000  Hf
  Hf10     1.0000 0.14335  0.72974  0.39653  Biso   1.000  Hf
  Hf11     1.0000 0.36130  0.77462  0.10436  Biso   1.000  Hf
  Hf12     1.0000 0.36685  0.97077  0.35623  Biso   1.000  Hf
  O17      1.0000 0.03372  0.66808  0.07747  Biso   1.000  O 
  O18      1.0000 0.04018  0.58718  0.32627  Biso   1.000  O 
  O19      1.0000 0.46790  0.91646  0.17466  Biso   1.000  O 
  O20      1.0000 0.46499  0.82028  0.42125  Biso   1.000  O 
  O21      1.0000 0.27828  0.63135  0.24160  Biso   1.000  O 
  O22      1.0000 0.27932  0.62015  0.49010  Biso   1.000  O 
  O23      1.0000 0.22384  0.87963  0.00976  Biso   1.000  O 
  O24      1.0000 0.22557  0.86941  0.25949  Biso   1.000  O 
  Hf13     1.0000 0.14667  0.52083  0.64500  Biso   1.000  Hf
  Hf14     1.0000 0.14843  0.72757  0.89489  Biso   1.000  Hf
  Hf15     1.0000 0.36915  0.76849  0.60420  Biso   1.000  Hf
  Hf16     1.0000 0.37053  0.97756  0.84952  Biso   1.000  Hf
  O25      1.0000 0.03964  0.66438  0.57842  Biso   1.000  O 
  O26      1.0000 0.04367  0.58271  0.82732  Biso   1.000  O 
  O27      1.0000 0.47381  0.91449  0.66842  Biso   1.000  O 
  O28      1.0000 0.47679  0.83574  0.91933  Biso   1.000  O 
  O29      1.0000 0.28411  0.62642  0.73915  Biso   1.000  O 
  O30      1.0000 0.28874  0.62354  0.98919  Biso   1.000  O 
  O31      1.0000 0.22994  0.87731  0.51051  Biso   1.000  O 
  O32      1.0000 0.23309  0.86996  0.75865  Biso   1.000  O 
  Hf17     1.0000 0.64361  0.01501  0.15126  Biso   1.000  Hf
  Hf18     1.0000 0.66743  0.23207  0.41322  Biso   1.000  Hf
  Hf19     1.0000 0.85815  0.27321  0.11117  Biso   1.000  Hf
  Hf20     1.0000 0.87216  0.48052  0.35720  Biso   1.000  Hf
  O33      1.0000 0.51618  0.14251  0.05877  Biso   1.000  O 
  O34      1.0000 0.54749  0.05387  0.34866  Biso   1.000  O 
  O35      1.0000 0.96893  0.41945  0.17058  Biso   1.000  O 
  O36      1.0000 0.97231  0.33111  0.42367  Biso   1.000  O 
  O37      1.0000 0.78785  0.12602  0.24880  Biso   1.000  O 
  O38      1.0000 0.79187  0.11519  0.50020  Biso   1.000  O 
  O39      1.0000 0.71708  0.37782  0.01797  Biso   1.000  O 
  O40      1.0000 0.73911  0.37884  0.27033  Biso   1.000  O 
  Hf21     1.0000 0.64598  0.01958  0.64637  Biso   1.000  Hf
  Hf22     1.0000 0.64584  0.22444  0.89604  Biso   1.000  Hf
  Hf23     1.0000 0.87542  0.26999  0.61079  Biso   1.000  Hf
  Hf24     1.0000 0.86954  0.47806  0.85613  Biso   1.000  Hf
  O41      1.0000 0.54514  0.16781  0.57916  Biso   1.000  O 
  O42      1.0000 0.54029  0.08475  0.81972  Biso   1.000  O 
  O43      1.0000 0.97606  0.41566  0.67471  Biso   1.000  O 
  O44      1.0000 0.96935  0.33138  0.92211  Biso   1.000  O 
  O45      1.0000 0.78358  0.12796  0.74477  Biso   1.000  O 
  O46      1.0000 0.78301  0.12129  0.99513  Biso   1.000  O 
  O47      1.0000 0.73994  0.37770  0.52008  Biso   1.000  O 
  O48      1.0000 0.73422  0.37114  0.76489  Biso   1.000  O 
  Hf25     1.0000 0.63764  0.52872  0.14523  Biso   1.000  Hf
  Hf26     1.0000 0.64317  0.72488  0.39711  Biso   1.000  Hf
  Hf27     1.0000 0.86113  0.76975  0.10493  Biso   1.000  Hf
  Hf28     1.0000 0.86461  0.97515  0.35659  Biso   1.000  Hf
  O49      1.0000 0.53949  0.67922  0.08022  Biso   1.000  O 
  O50      1.0000 0.53658  0.58303  0.32682  Biso   1.000  O 
  O51      1.0000 0.96429  0.91231  0.17520  Biso   1.000  O 
  O52      1.0000 0.97075  0.83141  0.42399  Biso   1.000  O 
  O53      1.0000 0.77891  0.63009  0.24198  Biso   1.000  O 
  O54      1.0000 0.78064  0.61987  0.49171  Biso   1.000  O 
  O55      1.0000 0.72516  0.87935  0.01136  Biso   1.000  O 
  O56      1.0000 0.72620  0.86815  0.25986  Biso   1.000  O 
  Hf29     1.0000 0.64663  0.52093  0.64974  Biso   1.000  Hf
  Hf30     1.0000 0.64801  0.73000  0.89506  Biso   1.000  Hf
  Hf31     1.0000 0.86873  0.77092  0.60437  Biso   1.000  Hf
  Hf32     1.0000 0.87049  0.97766  0.85426  Biso   1.000  Hf
  O57      1.0000 0.54038  0.66277  0.57993  Biso   1.000  O 
  O58      1.0000 0.54335  0.58401  0.83084  Biso   1.000  O 
  O59      1.0000 0.97349  0.91579  0.67194  Biso   1.000  O 
  O60      1.0000 0.97753  0.83412  0.92083  Biso   1.000  O 
  O61      1.0000 0.78407  0.62853  0.74061  Biso   1.000  O 
  O62      1.0000 0.78722  0.62119  0.98875  Biso   1.000  O 
  O63      1.0000 0.72843  0.87495  0.51006  Biso   1.000  O 
  O64      1.0000 0.73305  0.87208  0.76011  Biso   1.000  O 
  Pb1      1.0000 0.50192  0.24975  0.25073  Biso   1.000  Pb
