data_image0
_cell_length_a       10.1281
_cell_length_b       10.312
_cell_length_c       5.23107
_cell_angle_alpha    90
_cell_angle_beta     80
_cell_angle_gamma    90

_symmetry_space_group_name_H-M    "P 1"
_symmetry_int_tables_number       1

loop_
  _symmetry_equiv_pos_as_xyz
  'x, y, z'

loop_
  _atom_site_label
  _atom_site_occupancy
  _atom_site_fract_x
  _atom_site_fract_y
  _atom_site_fract_z
  _atom_site_thermal_displace_type
  _atom_site_B_iso_or_equiv
  _atom_site_type_symbol
  Pb1      1.0000 0.13383  0.01758  0.29194  Biso   1.000  Pb
  Hf1      1.0000 0.13725  0.52131  0.29079  Biso   1.000  Hf
  Hf2      1.0000 0.63768  0.02168  0.29346  Biso   1.000  Hf
  Hf3      1.0000 0.63706  0.52001  0.29230  Biso   1.000  Hf
  Hf4      1.0000 0.13484  0.23040  0.79062  Biso   1.000  Hf
  Hf5      1.0000 0.13361  0.72717  0.79313  Biso   1.000  Hf
  Hf6      1.0000 0.63422  0.22925  0.79449  Biso   1.000  Hf
  Hf7      1.0000 0.63418  0.72749  0.79158  Biso   1.000  Hf
  Hf8      1.0000 0.36032  0.27149  0.20650  Biso   1.000  Hf
  Hf9      1.0000 0.36283  0.76964  0.20889  Biso   1.000  Hf
  Hf10     1.0000 0.85918  0.27219  0.21048  Biso   1.000  Hf
  Hf11     1.0000 0.85822  0.76864  0.20732  Biso   1.000  Hf
  Hf12     1.0000 0.35715  0.47867  0.70837  Biso   1.000  Hf
  Hf13     1.0000 0.36016  0.97897  0.70764  Biso   1.000  Hf
  Hf14     1.0000 0.85747  0.47830  0.70929  Biso   1.000  Hf
  Hf15     1.0000 0.85329  0.97832  0.71780  Biso   1.000  Hf
  O1       1.0000 0.03769  0.18015  0.16090  Biso   1.000  O 
  O2       1.0000 0.03586  0.67151  0.16336  Biso   1.000  O 
  O3       1.0000 0.53577  0.17012  0.16156  Biso   1.000  O 
  O4       1.0000 0.53676  0.66879  0.16057  Biso   1.000  O 
  O5       1.0000 0.02867  0.07985  0.67807  Biso   1.000  O 
  O6       1.0000 0.03278  0.57921  0.66241  Biso   1.000  O 
  O7       1.0000 0.53430  0.07966  0.66260  Biso   1.000  O 
  O8       1.0000 0.53219  0.57977  0.66123  Biso   1.000  O 
  O9       1.0000 0.46220  0.41934  0.33938  Biso   1.000  O 
  O10      1.0000 0.46341  0.91977  0.33824  Biso   1.000  O 
  O11      1.0000 0.96039  0.42258  0.33812  Biso   1.000  O 
  O12      1.0000 0.94961  0.92068  0.34298  Biso   1.000  O 
  O13      1.0000 0.45977  0.33059  0.83969  Biso   1.000  O 
  O14      1.0000 0.45991  0.82894  0.84013  Biso   1.000  O 
  O15      1.0000 0.95799  0.33045  0.84035  Biso   1.000  O 
  O16      1.0000 0.95867  0.82942  0.84105  Biso   1.000  O 
  O17      1.0000 0.27683  0.13045  0.48240  Biso   1.000  O 
  O18      1.0000 0.27425  0.62729  0.48046  Biso   1.000  O 
  O19      1.0000 0.77376  0.13028  0.48501  Biso   1.000  O 
  O20      1.0000 0.77309  0.62858  0.48150  Biso   1.000  O 
  O21      1.0000 0.27552  0.12410  0.97064  Biso   1.000  O 
  O22      1.0000 0.27084  0.62078  0.98202  Biso   1.000  O 
  O23      1.0000 0.77013  0.12092  0.98680  Biso   1.000  O 
  O24      1.0000 0.77081  0.61970  0.98156  Biso   1.000  O 
  O25      1.0000 0.22441  0.38095  0.01627  Biso   1.000  O 
  O26      1.0000 0.22864  0.87676  0.01254  Biso   1.000  O 
  O27      1.0000 0.72319  0.37916  0.01941  Biso   1.000  O 
  O28      1.0000 0.72228  0.87853  0.02029  Biso   1.000  O 
  O29      1.0000 0.22064  0.37100  0.51710  Biso   1.000  O 
  O30      1.0000 0.22486  0.86531  0.52171  Biso   1.000  O 
  O31      1.0000 0.72034  0.37101  0.52079  Biso   1.000  O 
  O32      1.0000 0.71876  0.86990  0.52225  Biso   1.000  O 
