data_image0
_cell_length_a       9.98296
_cell_length_b       10.3964
_cell_length_c       5.01537
_cell_angle_alpha    90
_cell_angle_beta     90
_cell_angle_gamma    90

_symmetry_space_group_name_H-M    "P 1"
_symmetry_int_tables_number       1

loop_
  _symmetry_equiv_pos_as_xyz
  'x, y, z'

loop_
  _atom_site_label
  _atom_site_occupancy
  _atom_site_fract_x
  _atom_site_fract_y
  _atom_site_fract_z
  _atom_site_thermal_displace_type
  _atom_site_B_iso_or_equiv
  _atom_site_type_symbol
  Pb1      1.0000 0.12955  0.01552  0.24586  Biso   1.000  Pb
  Hf1      1.0000 0.13462  0.51636  0.25239  Biso   1.000  Hf
  Hf2      1.0000 0.63428  0.01610  0.25271  Biso   1.000  Hf
  Hf3      1.0000 0.63468  0.51573  0.25244  Biso   1.000  Hf
  Hf4      1.0000 0.13582  0.23570  0.75023  Biso   1.000  Hf
  Hf5      1.0000 0.13470  0.73217  0.75334  Biso   1.000  Hf
  Hf6      1.0000 0.63474  0.23279  0.75133  Biso   1.000  Hf
  Hf7      1.0000 0.63482  0.73226  0.75300  Biso   1.000  Hf
  Hf8      1.0000 0.36752  0.26720  0.25162  Biso   1.000  Hf
  Hf9      1.0000 0.36876  0.76430  0.25329  Biso   1.000  Hf
  Hf10     1.0000 0.86441  0.26756  0.25050  Biso   1.000  Hf
  Hf11     1.0000 0.86591  0.76348  0.25061  Biso   1.000  Hf
  Hf12     1.0000 0.36711  0.48334  0.75222  Biso   1.000  Hf
  Hf13     1.0000 0.36981  0.98351  0.74980  Biso   1.000  Hf
  Hf14     1.0000 0.86729  0.48263  0.75194  Biso   1.000  Hf
  Hf15     1.0000 0.86392  0.98214  0.75387  Biso   1.000  Hf
  O1       1.0000 0.03590  0.19149  0.38854  Biso   1.000  O 
  O2       1.0000 0.03724  0.68449  0.38978  Biso   1.000  O 
  O3       1.0000 0.53758  0.18445  0.38703  Biso   1.000  O 
  O4       1.0000 0.53798  0.68286  0.39155  Biso   1.000  O 
  O5       1.0000 0.03517  0.06693  0.86105  Biso   1.000  O 
  O6       1.0000 0.03656  0.56522  0.89050  Biso   1.000  O 
  O7       1.0000 0.53895  0.06457  0.88683  Biso   1.000  O 
  O8       1.0000 0.53657  0.56544  0.89174  Biso   1.000  O 
  O9       1.0000 0.46540  0.43390  0.38991  Biso   1.000  O 
  O10      1.0000 0.46632  0.93362  0.38749  Biso   1.000  O 
  O11      1.0000 0.96415  0.43481  0.38959  Biso   1.000  O 
  O12      1.0000 0.95509  0.93249  0.38821  Biso   1.000  O 
  O13      1.0000 0.46501  0.31533  0.88761  Biso   1.000  O 
  O14      1.0000 0.46556  0.81504  0.88950  Biso   1.000  O 
  O15      1.0000 0.96474  0.31642  0.89006  Biso   1.000  O 
  O16      1.0000 0.96582  0.81605  0.89257  Biso   1.000  O 
  O17      1.0000 0.27536  0.12076  0.50118  Biso   1.000  O 
  O18      1.0000 0.27125  0.61533  0.49984  Biso   1.000  O 
  O19      1.0000 0.76977  0.11746  0.50108  Biso   1.000  O 
  O20      1.0000 0.77131  0.61642  0.49953  Biso   1.000  O 
  O21      1.0000 0.27443  0.13394  0.99249  Biso   1.000  O 
  O22      1.0000 0.27097  0.63235  0.00030  Biso   1.000  O 
  O23      1.0000 0.77120  0.13205  0.00114  Biso   1.000  O 
  O24      1.0000 0.77113  0.63054  0.99848  Biso   1.000  O 
  O25      1.0000 0.23109  0.38281  0.99972  Biso   1.000  O 
  O26      1.0000 0.23445  0.87930  0.99964  Biso   1.000  O 
  O27      1.0000 0.72998  0.38159  0.99910  Biso   1.000  O 
  O28      1.0000 0.72900  0.88048  0.00195  Biso   1.000  O 
  O29      1.0000 0.23100  0.36857  0.49901  Biso   1.000  O 
  O30      1.0000 0.23676  0.86117  0.50782  Biso   1.000  O 
  O31      1.0000 0.72994  0.36746  0.50004  Biso   1.000  O 
  O32      1.0000 0.73013  0.86623  0.50121  Biso   1.000  O 
