data_image0
_cell_length_a       10.0381
_cell_length_b       10.254
_cell_length_c       5.01839
_cell_angle_alpha    90
_cell_angle_beta     90
_cell_angle_gamma    90

_symmetry_space_group_name_H-M    "P 1"
_symmetry_int_tables_number       1

loop_
  _symmetry_equiv_pos_as_xyz
  'x, y, z'

loop_
  _atom_site_label
  _atom_site_occupancy
  _atom_site_fract_x
  _atom_site_fract_y
  _atom_site_fract_z
  _atom_site_thermal_displace_type
  _atom_site_B_iso_or_equiv
  _atom_site_type_symbol
  Pb1      1.0000 0.12517  0.99998  0.25032  Biso   1.000  Pb
  Hf1      1.0000 0.12512  0.49997  0.25031  Biso   1.000  Hf
  Hf2      1.0000 0.62517  0.99998  0.25032  Biso   1.000  Hf
  Hf3      1.0000 0.62511  0.49997  0.25031  Biso   1.000  Hf
  Hf4      1.0000 0.12507  0.25333  0.75038  Biso   1.000  Hf
  Hf5      1.0000 0.12513  0.74660  0.75037  Biso   1.000  Hf
  Hf6      1.0000 0.62507  0.24900  0.75038  Biso   1.000  Hf
  Hf7      1.0000 0.62514  0.75093  0.75038  Biso   1.000  Hf
  Hf8      1.0000 0.37572  0.25177  0.25223  Biso   1.000  Hf
  Hf9      1.0000 0.37578  0.74817  0.24851  Biso   1.000  Hf
  Hf10     1.0000 0.87444  0.25178  0.24852  Biso   1.000  Hf
  Hf11     1.0000 0.87450  0.74816  0.25222  Biso   1.000  Hf
  Hf12     1.0000 0.37789  0.99996  0.75032  Biso   1.000  Hf
  Hf13     1.0000 0.37614  0.49997  0.75031  Biso   1.000  Hf
  Hf14     1.0000 0.87243  0.99996  0.75032  Biso   1.000  Hf
  Hf15     1.0000 0.87407  0.49997  0.75031  Biso   1.000  Hf
  O1       1.0000 0.99023  0.15296  0.97976  Biso   1.000  O 
  O2       1.0000 0.99987  0.64769  0.00327  Biso   1.000  O 
  O3       1.0000 0.49628  0.14898  0.99543  Biso   1.000  O 
  O4       1.0000 0.50025  0.64775  0.99650  Biso   1.000  O 
  O5       1.0000 0.99893  0.10555  0.49696  Biso   1.000  O 
  O6       1.0000 0.00072  0.60007  0.50214  Biso   1.000  O 
  O7       1.0000 0.50451  0.10138  0.49933  Biso   1.000  O 
  O8       1.0000 0.49992  0.60155  0.49708  Biso   1.000  O 
  O9       1.0000 0.99985  0.35225  0.49738  Biso   1.000  O 
  O10      1.0000 0.99031  0.84698  0.52096  Biso   1.000  O 
  O11      1.0000 0.50023  0.35219  0.50416  Biso   1.000  O 
  O12      1.0000 0.49636  0.85096  0.50529  Biso   1.000  O 
  O13      1.0000 0.00070  0.39986  0.99851  Biso   1.000  O 
  O14      1.0000 0.99903  0.89438  0.00377  Biso   1.000  O 
  O15      1.0000 0.49991  0.39838  0.00359  Biso   1.000  O 
  O16      1.0000 0.50461  0.89855  0.00140  Biso   1.000  O 
  O17      1.0000 0.25989  0.15296  0.52095  Biso   1.000  O 
  O18      1.0000 0.25036  0.64770  0.49735  Biso   1.000  O 
  O19      1.0000 0.75384  0.14898  0.50524  Biso   1.000  O 
  O20      1.0000 0.74998  0.64775  0.50413  Biso   1.000  O 
  O21      1.0000 0.25120  0.10556  0.00375  Biso   1.000  O 
  O22      1.0000 0.24948  0.60008  0.99847  Biso   1.000  O 
  O23      1.0000 0.74561  0.10139  0.00136  Biso   1.000  O 
  O24      1.0000 0.75030  0.60155  0.00355  Biso   1.000  O 
  O25      1.0000 0.25033  0.35225  0.00332  Biso   1.000  O 
  O26      1.0000 0.25997  0.84698  0.97974  Biso   1.000  O 
  O27      1.0000 0.74994  0.35219  0.99652  Biso   1.000  O 
  O28      1.0000 0.75392  0.85096  0.99543  Biso   1.000  O 
  O29      1.0000 0.24948  0.39986  0.50220  Biso   1.000  O 
  O30      1.0000 0.25128  0.89438  0.49694  Biso   1.000  O 
  O31      1.0000 0.75029  0.39838  0.49708  Biso   1.000  O 
  O32      1.0000 0.74569  0.89855  0.49932  Biso   1.000  O 
