data_image0
_cell_length_a       5.0184
_cell_length_b       10.2539
_cell_length_c       10.038
_cell_angle_alpha    90
_cell_angle_beta     90
_cell_angle_gamma    90

_symmetry_space_group_name_H-M    "P 1"
_symmetry_int_tables_number       1

loop_
  _symmetry_equiv_pos_as_xyz
  'x, y, z'

loop_
  _atom_site_label
  _atom_site_occupancy
  _atom_site_fract_x
  _atom_site_fract_y
  _atom_site_fract_z
  _atom_site_thermal_displace_type
  _atom_site_B_iso_or_equiv
  _atom_site_type_symbol
  Pb1      1.0000 0.25031  0.00005  0.12501  Biso   1.000  Pb
  Hf1      1.0000 0.25028  0.00012  0.62501  Biso   1.000  Hf
  Hf2      1.0000 0.25036  0.50003  0.12500  Biso   1.000  Hf
  Hf3      1.0000 0.25032  0.50012  0.62500  Biso   1.000  Hf
  Hf4      1.0000 0.25226  0.25188  0.37566  Biso   1.000  Hf
  Hf5      1.0000 0.24851  0.25197  0.87438  Biso   1.000  Hf
  Hf6      1.0000 0.24861  0.74828  0.37566  Biso   1.000  Hf
  Hf7      1.0000 0.25231  0.74836  0.87439  Biso   1.000  Hf
  Hf8      1.0000 0.75041  0.25341  0.12502  Biso   1.000  Hf
  Hf9      1.0000 0.75039  0.24915  0.62502  Biso   1.000  Hf
  Hf10     1.0000 0.75048  0.74667  0.12503  Biso   1.000  Hf
  Hf11     1.0000 0.75046  0.75109  0.62503  Biso   1.000  Hf
  Hf12     1.0000 0.75030  0.00007  0.37774  Biso   1.000  Hf
  Hf13     1.0000 0.75029  0.00016  0.87228  Biso   1.000  Hf
  Hf14     1.0000 0.75034  0.50009  0.37605  Biso   1.000  Hf
  Hf15     1.0000 0.75031  0.50017  0.87397  Biso   1.000  Hf
  O1       1.0000 0.97973  0.15316  0.99019  Biso   1.000  O 
  O2       1.0000 0.99544  0.14910  0.49625  Biso   1.000  O 
  O3       1.0000 0.00337  0.64790  0.99978  Biso   1.000  O 
  O4       1.0000 0.99660  0.64787  0.50016  Biso   1.000  O 
  O5       1.0000 0.00377  0.10565  0.25116  Biso   1.000  O 
  O6       1.0000 0.00137  0.10156  0.74557  Biso   1.000  O 
  O7       1.0000 0.99860  0.60017  0.24942  Biso   1.000  O 
  O8       1.0000 0.00363  0.60173  0.75022  Biso   1.000  O 
  O9       1.0000 0.00336  0.35234  0.25026  Biso   1.000  O 
  O10      1.0000 0.99648  0.35237  0.74989  Biso   1.000  O 
  O11      1.0000 0.97985  0.84707  0.25985  Biso   1.000  O 
  O12      1.0000 0.99553  0.85114  0.75379  Biso   1.000  O 
  O13      1.0000 0.99851  0.39991  0.00064  Biso   1.000  O 
  O14      1.0000 0.00357  0.39851  0.49984  Biso   1.000  O 
  O15      1.0000 0.00388  0.89459  0.99887  Biso   1.000  O 
  O16      1.0000 0.00148  0.89867  0.50446  Biso   1.000  O 
  O17      1.0000 0.52097  0.15305  0.25986  Biso   1.000  O 
  O18      1.0000 0.50524  0.14915  0.75380  Biso   1.000  O 
  O19      1.0000 0.49748  0.64779  0.25027  Biso   1.000  O 
  O20      1.0000 0.50422  0.64792  0.74989  Biso   1.000  O 
  O21      1.0000 0.49694  0.10576  0.99889  Biso   1.000  O 
  O22      1.0000 0.49933  0.10152  0.50447  Biso   1.000  O 
  O23      1.0000 0.50227  0.60013  0.00064  Biso   1.000  O 
  O24      1.0000 0.49716  0.60168  0.49983  Biso   1.000  O 
  O25      1.0000 0.49732  0.35246  0.99980  Biso   1.000  O 
  O26      1.0000 0.50413  0.35232  0.50018  Biso   1.000  O 
  O27      1.0000 0.52106  0.84718  0.99017  Biso   1.000  O 
  O28      1.0000 0.50538  0.85109  0.49622  Biso   1.000  O 
  O29      1.0000 0.50222  0.39995  0.24942  Biso   1.000  O 
  O30      1.0000 0.49704  0.39856  0.75024  Biso   1.000  O 
  O31      1.0000 0.49705  0.89447  0.25114  Biso   1.000  O 
  O32      1.0000 0.49943  0.89873  0.74556  Biso   1.000  O 
