data_image0
_cell_length_a       5.06207
_cell_length_b       10.4876
_cell_length_c       10.226
_cell_angle_alpha    90
_cell_angle_beta     90
_cell_angle_gamma    90

_symmetry_space_group_name_H-M    "P 1"
_symmetry_int_tables_number       1

loop_
  _symmetry_equiv_pos_as_xyz
  'x, y, z'

loop_
  _atom_site_label
  _atom_site_occupancy
  _atom_site_fract_x
  _atom_site_fract_y
  _atom_site_fract_z
  _atom_site_thermal_displace_type
  _atom_site_B_iso_or_equiv
  _atom_site_type_symbol
  Hf1      1.0000 0.17782  0.00366  0.10432  Biso   1.000  Hf
  Hf2      1.0000 0.16604  0.25465  0.40587  Biso   1.000  Hf
  Hf3      1.0000 0.56106  0.28112  0.15891  Biso   1.000  Hf
  Hf4      1.0000 0.64305  0.51889  0.39018  Biso   1.000  Hf
  O1       1.0000 0.85391  0.19900  0.27102  Biso   1.000  O 
  O2       1.0000 0.02355  0.08033  0.45856  Biso   1.000  O 
  O3       1.0000 0.77112  0.45966  0.21370  Biso   1.000  O 
  O4       1.0000 0.85858  0.36016  0.46111  Biso   1.000  O 
  O5       1.0000 0.38841  0.12547  0.25833  Biso   1.000  O 
  O6       1.0000 0.49681  0.16831  0.50083  Biso   1.000  O 
  O7       1.0000 0.37383  0.41630  0.49662  Biso   1.000  O 
  O8       1.0000 0.27635  0.38310  0.25042  Biso   1.000  O 
  Hf5      1.0000 0.24190  0.04026  0.62018  Biso   1.000  Hf
  Hf6      1.0000 0.22009  0.26149  0.84578  Biso   1.000  Hf
  Hf7      1.0000 0.68467  0.30290  0.62997  Biso   1.000  Hf
  Hf8      1.0000 0.61758  0.51221  0.85662  Biso   1.000  Hf
  O9       1.0000 0.04746  0.21542  0.65742  Biso   1.000  O 
  O10      1.0000 0.02252  0.09774  0.91264  Biso   1.000  O 
  O11      1.0000 0.80366  0.49095  0.67043  Biso   1.000  O 
  O12      1.0000 0.83437  0.33846  0.84089  Biso   1.000  O 
  O13      1.0000 0.49337  0.14760  0.74743  Biso   1.000  O 
  O14      1.0000 0.59556  0.12273  0.00908  Biso   1.000  O 
  O15      1.0000 0.34240  0.42448  0.97774  Biso   1.000  O 
  O16      1.0000 0.36044  0.40316  0.73188  Biso   1.000  O 
  Hf9      1.0000 0.14111  0.54353  0.14572  Biso   1.000  Hf
  Hf10     1.0000 0.15822  0.76801  0.38311  Biso   1.000  Hf
  Hf11     1.0000 0.62630  0.77156  0.13236  Biso   1.000  Hf
  Hf12     1.0000 0.71116  0.02415  0.35646  Biso   1.000  Hf
  O17      1.0000 0.95878  0.70086  0.20978  Biso   1.000  O 
  O18      1.0000 0.97237  0.60433  0.44882  Biso   1.000  O 
  O19      1.0000 0.82314  0.95559  0.18368  Biso   1.000  O 
  O20      1.0000 0.81001  0.84607  0.44393  Biso   1.000  O 
  O21      1.0000 0.42048  0.63970  0.26673  Biso   1.000  O 
  O22      1.0000 0.42357  0.66964  0.50908  Biso   1.000  O 
  O23      1.0000 0.34458  0.91803  0.49325  Biso   1.000  O 
  O24      1.0000 0.36312  0.88129  0.24348  Biso   1.000  O 
  Hf13     1.0000 0.16793  0.55056  0.62220  Biso   1.000  Hf
  Hf14     1.0000 0.10216  0.77651  0.87326  Biso   1.000  Hf
  Hf15     1.0000 0.61825  0.80361  0.62260  Biso   1.000  Hf
  Hf16     1.0000 0.57598  0.01502  0.87024  Biso   1.000  Hf
  O25      1.0000 0.94283  0.71879  0.69655  Biso   1.000  O 
  O26      1.0000 0.88588  0.61334  0.95436  Biso   1.000  O 
  O27      1.0000 0.80141  0.96306  0.70189  Biso   1.000  O 
  O28      1.0000 0.76706  0.85808  0.95646  Biso   1.000  O 
  O29      1.0000 0.40131  0.65064  0.76261  Biso   1.000  O 
  O30      1.0000 0.42830  0.63859  0.02371  Biso   1.000  O 
  O31      1.0000 0.28603  0.93116  0.98931  Biso   1.000  O 
  O32      1.0000 0.33153  0.89636  0.74562  Biso   1.000  O 
  Pb1      1.0000 0.02913  0.25894  0.06284  Biso   1.000  Pb
