data_image0
_cell_length_a       10.3241
_cell_length_b       10.479
_cell_length_c       5.25894
_cell_angle_alpha    90
_cell_angle_beta     80
_cell_angle_gamma    90

_symmetry_space_group_name_H-M    "P 1"
_symmetry_int_tables_number       1

loop_
  _symmetry_equiv_pos_as_xyz
  'x, y, z'

loop_
  _atom_site_label
  _atom_site_occupancy
  _atom_site_fract_x
  _atom_site_fract_y
  _atom_site_fract_z
  _atom_site_thermal_displace_type
  _atom_site_B_iso_or_equiv
  _atom_site_type_symbol
  Hf1      1.0000 0.13437  0.01711  0.28318  Biso   1.000  Hf
  Hf2      1.0000 0.14673  0.23250  0.76368  Biso   1.000  Hf
  Hf3      1.0000 0.33827  0.26031  0.16921  Biso   1.000  Hf
  Hf4      1.0000 0.38355  0.49712  0.70904  Biso   1.000  Hf
  O1       1.0000 0.04429  0.17400  0.16150  Biso   1.000  O 
  O2       1.0000 0.04004  0.08369  0.66021  Biso   1.000  O 
  O3       1.0000 0.47952  0.45956  0.34701  Biso   1.000  O 
  O4       1.0000 0.49299  0.36263  0.89619  Biso   1.000  O 
  O5       1.0000 0.26841  0.11931  0.45311  Biso   1.000  O 
  O6       1.0000 0.28549  0.12622  0.94371  Biso   1.000  O 
  O7       1.0000 0.23810  0.39147  0.97974  Biso   1.000  O 
  O8       1.0000 0.22724  0.36919  0.48371  Biso   1.000  O 
  Hf5      1.0000 0.15362  0.52286  0.29211  Biso   1.000  Hf
  Hf6      1.0000 0.16156  0.73437  0.79105  Biso   1.000  Hf
  Hf7      1.0000 0.37686  0.77013  0.20552  Biso   1.000  Hf
  Hf8      1.0000 0.38479  0.97245  0.69087  Biso   1.000  Hf
  O9       1.0000 0.04740  0.66952  0.16361  Biso   1.000  O 
  O10      1.0000 0.05848  0.58833  0.65830  Biso   1.000  O 
  O11      1.0000 0.48142  0.91782  0.32069  Biso   1.000  O 
  O12      1.0000 0.48547  0.82582  0.82765  Biso   1.000  O 
  O13      1.0000 0.29199  0.63213  0.48554  Biso   1.000  O 
  O14      1.0000 0.30114  0.63181  0.98368  Biso   1.000  O 
  O15      1.0000 0.23661  0.87587  0.01549  Biso   1.000  O 
  O16      1.0000 0.24378  0.86940  0.50954  Biso   1.000  O 
  Hf9      1.0000 0.63731  0.01208  0.29504  Biso   1.000  Hf
  Hf10     1.0000 0.68257  0.24887  0.83483  Biso   1.000  Hf
  Hf11     1.0000 0.87412  0.27670  0.24036  Biso   1.000  Hf
  Hf12     1.0000 0.88648  0.49208  0.72088  Biso   1.000  Hf
  O17      1.0000 0.52786  0.14656  0.10787  Biso   1.000  O 
  O18      1.0000 0.54132  0.04967  0.65705  Biso   1.000  O 
  O19      1.0000 0.98079  0.42551  0.34384  Biso   1.000  O 
  O20      1.0000 0.97655  0.33520  0.84256  Biso   1.000  O 
  O21      1.0000 0.79359  0.13998  0.52031  Biso   1.000  O 
  O22      1.0000 0.78275  0.11773  0.02428  Biso   1.000  O 
  O23      1.0000 0.73534  0.38296  0.06036  Biso   1.000  O 
  O24      1.0000 0.75245  0.38988  0.55097  Biso   1.000  O 
  Hf13     1.0000 0.65682  0.53654  0.31319  Biso   1.000  Hf
  Hf14     1.0000 0.66477  0.73885  0.79853  Biso   1.000  Hf
  Hf15     1.0000 0.88006  0.77462  0.21301  Biso   1.000  Hf
  Hf16     1.0000 0.88800  0.98613  0.71195  Biso   1.000  Hf
  O25      1.0000 0.55616  0.68318  0.17640  Biso   1.000  O 
  O26      1.0000 0.56019  0.59117  0.68340  Biso   1.000  O 
  O27      1.0000 0.98314  0.92065  0.34575  Biso   1.000  O 
  O28      1.0000 0.99421  0.83946  0.84043  Biso   1.000  O 
  O29      1.0000 0.79783  0.63959  0.49451  Biso   1.000  O 
  O30      1.0000 0.80502  0.63312  0.98859  Biso   1.000  O 
  O31      1.0000 0.74047  0.87717  0.02039  Biso   1.000  O 
  O32      1.0000 0.74962  0.87686  0.51853  Biso   1.000  O 
  Pb1      1.0000 0.51043  0.25462  0.50199  Biso   1.000  Pb
