data_image0
_cell_length_a       10.3078
_cell_length_b       5.18068
_cell_length_c       10.64
_cell_angle_alpha    90
_cell_angle_beta     80
_cell_angle_gamma    90

_symmetry_space_group_name_H-M    "P 1"
_symmetry_int_tables_number       1

loop_
  _symmetry_equiv_pos_as_xyz
  'x, y, z'

loop_
  _atom_site_label
  _atom_site_occupancy
  _atom_site_fract_x
  _atom_site_fract_y
  _atom_site_fract_z
  _atom_site_thermal_displace_type
  _atom_site_B_iso_or_equiv
  _atom_site_type_symbol
  Hf1      1.0000 0.13374  0.04548  0.14130  Biso   1.000  Hf
  Hf2      1.0000 0.15383  0.45597  0.39046  Biso   1.000  Hf
  Hf3      1.0000 0.34332  0.54590  0.08884  Biso   1.000  Hf
  Hf4      1.0000 0.35645  0.95468  0.34434  Biso   1.000  Hf
  O1       1.0000 0.02825  0.33382  0.07496  Biso   1.000  O 
  O2       1.0000 0.04241  0.17511  0.32499  Biso   1.000  O 
  O3       1.0000 0.45855  0.87601  0.14537  Biso   1.000  O 
  O4       1.0000 0.50019  0.69022  0.45251  Biso   1.000  O 
  O5       1.0000 0.27078  0.23860  0.23171  Biso   1.000  O 
  O6       1.0000 0.29269  0.23876  0.48245  Biso   1.000  O 
  O7       1.0000 0.21396  0.76812  0.00124  Biso   1.000  O 
  O8       1.0000 0.21496  0.74135  0.24872  Biso   1.000  O 
  Hf5      1.0000 0.16209  0.03873  0.64079  Biso   1.000  Hf
  Hf6      1.0000 0.16009  0.45309  0.88725  Biso   1.000  Hf
  Hf7      1.0000 0.38551  0.54059  0.60411  Biso   1.000  Hf
  Hf8      1.0000 0.38756  0.95345  0.84677  Biso   1.000  Hf
  O9       1.0000 0.05671  0.32371  0.57417  Biso   1.000  O 
  O10      1.0000 0.05693  0.16866  0.82037  Biso   1.000  O 
  O11      1.0000 0.49390  0.81457  0.67949  Biso   1.000  O 
  O12      1.0000 0.49164  0.66240  0.91282  Biso   1.000  O 
  O13      1.0000 0.29759  0.24542  0.73297  Biso   1.000  O 
  O14      1.0000 0.29869  0.24666  0.97789  Biso   1.000  O 
  O15      1.0000 0.24400  0.74874  0.50290  Biso   1.000  O 
  O16      1.0000 0.24950  0.73704  0.75172  Biso   1.000  O 
  Hf9      1.0000 0.63995  0.03853  0.14766  Biso   1.000  Hf
  Hf10     1.0000 0.67673  0.46426  0.41655  Biso   1.000  Hf
  Hf11     1.0000 0.85817  0.54270  0.11298  Biso   1.000  Hf
  Hf12     1.0000 0.87917  0.95721  0.35743  Biso   1.000  Hf
  O17      1.0000 0.52008  0.31999  0.06333  Biso   1.000  O 
  O18      1.0000 0.53907  0.09371  0.33096  Biso   1.000  O 
  O19      1.0000 0.97046  0.82759  0.17396  Biso   1.000  O 
  O20      1.0000 0.98338  0.66575  0.42678  Biso   1.000  O 
  O21      1.0000 0.78916  0.25690  0.25268  Biso   1.000  O 
  O22      1.0000 0.80175  0.23005  0.50124  Biso   1.000  O 
  O23      1.0000 0.71940  0.75233  0.01917  Biso   1.000  O 
  O24      1.0000 0.74403  0.75649  0.27070  Biso   1.000  O 
  Hf13     1.0000 0.66120  0.03666  0.65111  Biso   1.000  Hf
  Hf14     1.0000 0.66427  0.45208  0.89268  Biso   1.000  Hf
  Hf15     1.0000 0.89037  0.53904  0.60962  Biso   1.000  Hf
  Hf16     1.0000 0.88855  0.95275  0.85515  Biso   1.000  Hf
  O25      1.0000 0.55553  0.31011  0.57686  Biso   1.000  O 
  O26      1.0000 0.55711  0.16943  0.82231  Biso   1.000  O 
  O27      1.0000 0.99294  0.82456  0.67526  Biso   1.000  O 
  O28      1.0000 0.99200  0.66768  0.92182  Biso   1.000  O 
  O29      1.0000 0.79913  0.25457  0.74387  Biso   1.000  O 
  O30      1.0000 0.80261  0.23801  0.99225  Biso   1.000  O 
  O31      1.0000 0.75099  0.74836  0.51980  Biso   1.000  O 
  O32      1.0000 0.75302  0.74324  0.76417  Biso   1.000  O 
  Pb1      1.0000 0.50179  0.50392  0.26275  Biso   1.000  Pb
