data_image0
_cell_length_a       9.98275
_cell_length_b       5.19753
_cell_length_c       10.0303
_cell_angle_alpha    90
_cell_angle_beta     90
_cell_angle_gamma    90

_symmetry_space_group_name_H-M    "P 1"
_symmetry_int_tables_number       1

loop_
  _symmetry_equiv_pos_as_xyz
  'x, y, z'

loop_
  _atom_site_label
  _atom_site_occupancy
  _atom_site_fract_x
  _atom_site_fract_y
  _atom_site_fract_z
  _atom_site_thermal_displace_type
  _atom_site_B_iso_or_equiv
  _atom_site_type_symbol
  Pb1      1.0000 0.12991  0.03135  0.12251  Biso   1.000  Pb
  Hf1      1.0000 0.13425  0.03247  0.62647  Biso   1.000  Hf
  Hf2      1.0000 0.63457  0.03106  0.12679  Biso   1.000  Hf
  Hf3      1.0000 0.63443  0.03225  0.62548  Biso   1.000  Hf
  Hf4      1.0000 0.13557  0.46621  0.37831  Biso   1.000  Hf
  Hf5      1.0000 0.13513  0.46968  0.87313  Biso   1.000  Hf
  Hf6      1.0000 0.63456  0.46608  0.37619  Biso   1.000  Hf
  Hf7      1.0000 0.63515  0.46375  0.87560  Biso   1.000  Hf
  Hf8      1.0000 0.36885  0.53110  0.12650  Biso   1.000  Hf
  Hf9      1.0000 0.36723  0.53165  0.62584  Biso   1.000  Hf
  Hf10     1.0000 0.86304  0.52995  0.12524  Biso   1.000  Hf
  Hf11     1.0000 0.86720  0.53205  0.62493  Biso   1.000  Hf
  Hf12     1.0000 0.36723  0.96521  0.37673  Biso   1.000  Hf
  Hf13     1.0000 0.36986  0.96830  0.87422  Biso   1.000  Hf
  Hf14     1.0000 0.86626  0.96760  0.37836  Biso   1.000  Hf
  Hf15     1.0000 0.86508  0.96184  0.87415  Biso   1.000  Hf
  O1       1.0000 0.03444  0.38042  0.19761  Biso   1.000  O 
  O2       1.0000 0.03879  0.37216  0.69059  Biso   1.000  O 
  O3       1.0000 0.53867  0.36799  0.19401  Biso   1.000  O 
  O4       1.0000 0.53687  0.36630  0.69486  Biso   1.000  O 
  O5       1.0000 0.03690  0.12916  0.44430  Biso   1.000  O 
  O6       1.0000 0.03583  0.13373  0.93017  Biso   1.000  O 
  O7       1.0000 0.53726  0.13047  0.44443  Biso   1.000  O 
  O8       1.0000 0.53860  0.12931  0.94445  Biso   1.000  O 
  O9       1.0000 0.46596  0.86758  0.19464  Biso   1.000  O 
  O10      1.0000 0.46570  0.86706  0.69361  Biso   1.000  O 
  O11      1.0000 0.95464  0.86773  0.19448  Biso   1.000  O 
  O12      1.0000 0.96386  0.86761  0.69276  Biso   1.000  O 
  O13      1.0000 0.46516  0.63007  0.44527  Biso   1.000  O 
  O14      1.0000 0.46534  0.63018  0.94283  Biso   1.000  O 
  O15      1.0000 0.96445  0.63169  0.44457  Biso   1.000  O 
  O16      1.0000 0.96588  0.63248  0.94561  Biso   1.000  O 
  O17      1.0000 0.27457  0.23723  0.25207  Biso   1.000  O 
  O18      1.0000 0.27212  0.23488  0.74844  Biso   1.000  O 
  O19      1.0000 0.76979  0.23416  0.25088  Biso   1.000  O 
  O20      1.0000 0.77129  0.23362  0.74915  Biso   1.000  O 
  O21      1.0000 0.27172  0.26312  0.50046  Biso   1.000  O 
  O22      1.0000 0.27438  0.26779  0.99579  Biso   1.000  O 
  O23      1.0000 0.77084  0.26454  0.50002  Biso   1.000  O 
  O24      1.0000 0.77239  0.25909  0.99940  Biso   1.000  O 
  O25      1.0000 0.23064  0.76446  0.50116  Biso   1.000  O 
  O26      1.0000 0.23495  0.75943  0.99833  Biso   1.000  O 
  O27      1.0000 0.73016  0.76379  0.50027  Biso   1.000  O 
  O28      1.0000 0.72933  0.75901  0.99977  Biso   1.000  O 
  O29      1.0000 0.23600  0.72429  0.25377  Biso   1.000  O 
  O30      1.0000 0.23163  0.73594  0.74938  Biso   1.000  O 
  O31      1.0000 0.72963  0.73459  0.25070  Biso   1.000  O 
  O32      1.0000 0.73033  0.73268  0.74949  Biso   1.000  O 
