data_image0
_cell_length_a       10.0441
_cell_length_b       10.6358
_cell_length_c       5.11429
_cell_angle_alpha    90
_cell_angle_beta     90
_cell_angle_gamma    90

_symmetry_space_group_name_H-M    "P 1"
_symmetry_int_tables_number       1

loop_
  _symmetry_equiv_pos_as_xyz
  'x, y, z'

loop_
  _atom_site_label
  _atom_site_occupancy
  _atom_site_fract_x
  _atom_site_fract_y
  _atom_site_fract_z
  _atom_site_thermal_displace_type
  _atom_site_B_iso_or_equiv
  _atom_site_type_symbol
  Hf1      1.0000 0.09118  0.97722  0.22149  Biso   1.000  Hf
  Hf2      1.0000 0.12440  0.19444  0.63969  Biso   1.000  Hf
  Hf3      1.0000 0.36165  0.26593  0.20800  Biso   1.000  Hf
  Hf4      1.0000 0.35304  0.48230  0.71871  Biso   1.000  Hf
  O1       1.0000 0.00165  0.14032  0.34202  Biso   1.000  O 
  O2       1.0000 0.01538  0.07111  0.87014  Biso   1.000  O 
  O3       1.0000 0.45444  0.42791  0.38725  Biso   1.000  O 
  O4       1.0000 0.45515  0.32924  0.90155  Biso   1.000  O 
  O5       1.0000 0.25332  0.09477  0.40361  Biso   1.000  O 
  O6       1.0000 0.28341  0.15234  0.88525  Biso   1.000  O 
  O7       1.0000 0.26454  0.43516  0.03641  Biso   1.000  O 
  O8       1.0000 0.21439  0.35427  0.49754  Biso   1.000  O 
  Hf5      1.0000 0.11091  0.54239  0.27299  Biso   1.000  Hf
  Hf6      1.0000 0.09893  0.75630  0.75695  Biso   1.000  Hf
  Hf7      1.0000 0.35778  0.77731  0.24394  Biso   1.000  Hf
  Hf8      1.0000 0.34479  0.99452  0.72124  Biso   1.000  Hf
  O9       1.0000 0.00592  0.69035  0.42498  Biso   1.000  O 
  O10      1.0000 0.99297  0.58820  0.90290  Biso   1.000  O 
  O11      1.0000 0.45455  0.93352  0.39528  Biso   1.000  O 
  O12      1.0000 0.43445  0.82911  0.89766  Biso   1.000  O 
  O13      1.0000 0.23589  0.61708  0.56003  Biso   1.000  O 
  O14      1.0000 0.22538  0.67088  0.06330  Biso   1.000  O 
  O15      1.0000 0.20511  0.91201  0.97052  Biso   1.000  O 
  O16      1.0000 0.21281  0.86061  0.48317  Biso   1.000  O 
  Hf9      1.0000 0.63079  0.02252  0.26146  Biso   1.000  Hf
  Hf10     1.0000 0.61542  0.23899  0.77264  Biso   1.000  Hf
  Hf11     1.0000 0.83968  0.27785  0.32886  Biso   1.000  Hf
  Hf12     1.0000 0.84000  0.49445  0.75226  Biso   1.000  Hf
  O17      1.0000 0.51677  0.18054  0.40452  Biso   1.000  O 
  O18      1.0000 0.52402  0.07220  0.89739  Biso   1.000  O 
  O19      1.0000 0.92182  0.47209  0.38862  Biso   1.000  O 
  O20      1.0000 0.93328  0.30389  0.69103  Biso   1.000  O 
  O21      1.0000 0.74945  0.12008  0.53652  Biso   1.000  O 
  O22      1.0000 0.77334  0.14060  0.04115  Biso   1.000  O 
  O23      1.0000 0.74014  0.38303  0.02403  Biso   1.000  O 
  O24      1.0000 0.69369  0.37756  0.52391  Biso   1.000  O 
  Hf13     1.0000 0.61970  0.51704  0.25529  Biso   1.000  Hf
  Hf14     1.0000 0.59726  0.74039  0.76020  Biso   1.000  Hf
  Hf15     1.0000 0.83753  0.76649  0.28660  Biso   1.000  Hf
  Hf16     1.0000 0.82701  0.98948  0.77460  Biso   1.000  Hf
  O25      1.0000 0.50746  0.67778  0.40783  Biso   1.000  O 
  O26      1.0000 0.49573  0.58065  0.90587  Biso   1.000  O 
  O27      1.0000 0.94609  0.91438  0.47611  Biso   1.000  O 
  O28      1.0000 0.94726  0.84564  0.98929  Biso   1.000  O 
  O29      1.0000 0.73700  0.62523  0.52705  Biso   1.000  O 
  O30      1.0000 0.75313  0.64016  0.02162  Biso   1.000  O 
  O31      1.0000 0.72449  0.88588  0.02867  Biso   1.000  O 
  O32      1.0000 0.70475  0.87113  0.52587  Biso   1.000  O 
  Pb1      1.0000 0.07753  0.30211  0.06496  Biso   1.000  Pb
