data_image0
_cell_length_a       10.0378
_cell_length_b       5.12574
_cell_length_c       10.0377
_cell_angle_alpha    90
_cell_angle_beta     90
_cell_angle_gamma    90

_symmetry_space_group_name_H-M    "P 1"
_symmetry_int_tables_number       1

loop_
  _symmetry_equiv_pos_as_xyz
  'x, y, z'

loop_
  _atom_site_label
  _atom_site_occupancy
  _atom_site_fract_x
  _atom_site_fract_y
  _atom_site_fract_z
  _atom_site_thermal_displace_type
  _atom_site_B_iso_or_equiv
  _atom_site_type_symbol
  Pb1      1.0000 0.12481  0.00053  0.12483  Biso   1.000  Pb
  Hf1      1.0000 0.12484  0.00054  0.62484  Biso   1.000  Hf
  Hf2      1.0000 0.62481  0.00054  0.12484  Biso   1.000  Hf
  Hf3      1.0000 0.62484  0.00054  0.62483  Biso   1.000  Hf
  Hf4      1.0000 0.12481  0.50056  0.37685  Biso   1.000  Hf
  Hf5      1.0000 0.12483  0.50056  0.87278  Biso   1.000  Hf
  Hf6      1.0000 0.62480  0.50056  0.37423  Biso   1.000  Hf
  Hf7      1.0000 0.62484  0.50056  0.87540  Biso   1.000  Hf
  Hf8      1.0000 0.37682  0.50056  0.12481  Biso   1.000  Hf
  Hf9      1.0000 0.37423  0.50056  0.62482  Biso   1.000  Hf
  Hf10     1.0000 0.87275  0.50056  0.12481  Biso   1.000  Hf
  Hf11     1.0000 0.87540  0.50057  0.62481  Biso   1.000  Hf
  Hf12     1.0000 0.37654  0.00532  0.37655  Biso   1.000  Hf
  Hf13     1.0000 0.37653  0.99580  0.87312  Biso   1.000  Hf
  Hf14     1.0000 0.87307  0.99581  0.37655  Biso   1.000  Hf
  Hf15     1.0000 0.87313  0.00532  0.87312  Biso   1.000  Hf
  O1       1.0000 0.99137  0.30575  0.99135  Biso   1.000  O 
  O2       1.0000 0.99730  0.29615  0.49798  Biso   1.000  O 
  O3       1.0000 0.49800  0.29614  0.99729  Biso   1.000  O 
  O4       1.0000 0.49738  0.29848  0.49738  Biso   1.000  O 
  O5       1.0000 0.99867  0.20834  0.25093  Biso   1.000  O 
  O6       1.0000 0.00063  0.20416  0.74689  Biso   1.000  O 
  O7       1.0000 0.50272  0.20417  0.24900  Biso   1.000  O 
  O8       1.0000 0.50150  0.20326  0.74811  Biso   1.000  O 
  O9       1.0000 0.99135  0.69537  0.25826  Biso   1.000  O 
  O10      1.0000 0.99732  0.70496  0.75162  Biso   1.000  O 
  O11      1.0000 0.49799  0.70497  0.25231  Biso   1.000  O 
  O12      1.0000 0.49741  0.70265  0.75223  Biso   1.000  O 
  O13      1.0000 0.99870  0.79280  0.99868  Biso   1.000  O 
  O14      1.0000 0.00060  0.79696  0.50273  Biso   1.000  O 
  O15      1.0000 0.50269  0.79696  0.00061  Biso   1.000  O 
  O16      1.0000 0.50149  0.79787  0.50149  Biso   1.000  O 
  O17      1.0000 0.25826  0.30575  0.25827  Biso   1.000  O 
  O18      1.0000 0.25233  0.29614  0.75163  Biso   1.000  O 
  O19      1.0000 0.75162  0.29615  0.25232  Biso   1.000  O 
  O20      1.0000 0.75224  0.29847  0.75223  Biso   1.000  O 
  O21      1.0000 0.25096  0.20831  0.99869  Biso   1.000  O 
  O22      1.0000 0.24900  0.20417  0.50273  Biso   1.000  O 
  O23      1.0000 0.74686  0.20416  0.00062  Biso   1.000  O 
  O24      1.0000 0.74813  0.20326  0.50150  Biso   1.000  O 
  O25      1.0000 0.25829  0.69535  0.99135  Biso   1.000  O 
  O26      1.0000 0.25232  0.70497  0.49799  Biso   1.000  O 
  O27      1.0000 0.75166  0.70496  0.99730  Biso   1.000  O 
  O28      1.0000 0.75223  0.70263  0.49739  Biso   1.000  O 
  O29      1.0000 0.25093  0.79279  0.25093  Biso   1.000  O 
  O30      1.0000 0.24902  0.79695  0.74689  Biso   1.000  O 
  O31      1.0000 0.74690  0.79695  0.24900  Biso   1.000  O 
  O32      1.0000 0.74814  0.79786  0.74812  Biso   1.000  O 
