data_image0
_cell_length_a       5.06366
_cell_length_b       10.3117
_cell_length_c       10.4653
_cell_angle_alpha    90
_cell_angle_beta     80
_cell_angle_gamma    90

_symmetry_space_group_name_H-M    "P 1"
_symmetry_int_tables_number       1

loop_
  _symmetry_equiv_pos_as_xyz
  'x, y, z'

loop_
  _atom_site_label
  _atom_site_occupancy
  _atom_site_fract_x
  _atom_site_fract_y
  _atom_site_fract_z
  _atom_site_thermal_displace_type
  _atom_site_B_iso_or_equiv
  _atom_site_type_symbol
  Pb1      1.0000 0.26875  0.01768  0.14643  Biso   1.000  Pb
  Hf1      1.0000 0.26337  0.02183  0.64712  Biso   1.000  Hf
  Hf2      1.0000 0.27344  0.52025  0.14556  Biso   1.000  Hf
  Hf3      1.0000 0.26326  0.52115  0.64694  Biso   1.000  Hf
  Hf4      1.0000 0.26734  0.23000  0.39799  Biso   1.000  Hf
  Hf5      1.0000 0.25910  0.22977  0.89552  Biso   1.000  Hf
  Hf6      1.0000 0.26534  0.72641  0.39754  Biso   1.000  Hf
  Hf7      1.0000 0.25849  0.72835  0.89577  Biso   1.000  Hf
  Hf8      1.0000 0.71780  0.27201  0.10413  Biso   1.000  Hf
  Hf9      1.0000 0.70943  0.27184  0.60542  Biso   1.000  Hf
  Hf10     1.0000 0.72132  0.76707  0.10344  Biso   1.000  Hf
  Hf11     1.0000 0.70870  0.77128  0.60550  Biso   1.000  Hf
  Hf12     1.0000 0.71303  0.47847  0.35454  Biso   1.000  Hf
  Hf13     1.0000 0.70433  0.47858  0.85528  Biso   1.000  Hf
  Hf14     1.0000 0.70757  0.97809  0.35918  Biso   1.000  Hf
  Hf15     1.0000 0.70770  0.97912  0.85433  Biso   1.000  Hf
  O1       1.0000 0.07420  0.17825  0.07832  Biso   1.000  O 
  O2       1.0000 0.06009  0.17179  0.58360  Biso   1.000  O 
  O3       1.0000 0.07475  0.67062  0.08025  Biso   1.000  O 
  O4       1.0000 0.05830  0.66939  0.58240  Biso   1.000  O 
  O5       1.0000 0.05713  0.08006  0.33948  Biso   1.000  O 
  O6       1.0000 0.05749  0.07956  0.83181  Biso   1.000  O 
  O7       1.0000 0.06350  0.57943  0.33077  Biso   1.000  O 
  O8       1.0000 0.05442  0.57979  0.83182  Biso   1.000  O 
  O9       1.0000 0.92060  0.42146  0.16929  Biso   1.000  O 
  O10      1.0000 0.91280  0.42038  0.67056  Biso   1.000  O 
  O11      1.0000 0.90149  0.91966  0.17209  Biso   1.000  O 
  O12      1.0000 0.91361  0.92014  0.66986  Biso   1.000  O 
  O13      1.0000 0.91683  0.33066  0.42071  Biso   1.000  O 
  O14      1.0000 0.90695  0.33058  0.92036  Biso   1.000  O 
  O15      1.0000 0.91675  0.82911  0.42097  Biso   1.000  O 
  O16      1.0000 0.90945  0.82972  0.92078  Biso   1.000  O 
  O17      1.0000 0.55194  0.13134  0.24423  Biso   1.000  O 
  O18      1.0000 0.53812  0.12956  0.74059  Biso   1.000  O 
  O19      1.0000 0.54643  0.62676  0.24056  Biso   1.000  O 
  O20      1.0000 0.53636  0.62926  0.74131  Biso   1.000  O 
  O21      1.0000 0.54005  0.12121  0.49283  Biso   1.000  O 
  O22      1.0000 0.53898  0.12367  0.98692  Biso   1.000  O 
  O23      1.0000 0.54105  0.62046  0.49139  Biso   1.000  O 
  O24      1.0000 0.53069  0.62007  0.99127  Biso   1.000  O 
  O25      1.0000 0.44819  0.38048  0.00857  Biso   1.000  O 
  O26      1.0000 0.43490  0.37954  0.51036  Biso   1.000  O 
  O27      1.0000 0.45652  0.87624  0.00538  Biso   1.000  O 
  O28      1.0000 0.43373  0.87883  0.51162  Biso   1.000  O 
  O29      1.0000 0.43892  0.37062  0.25993  Biso   1.000  O 
  O30      1.0000 0.43114  0.37151  0.76004  Biso   1.000  O 
  O31      1.0000 0.44367  0.86464  0.26223  Biso   1.000  O 
  O32      1.0000 0.43182  0.87076  0.76024  Biso   1.000  O 
