data_image0
_cell_length_a       10.0217
_cell_length_b       10.2153
_cell_length_c       10.4412
_cell_angle_alpha    90
_cell_angle_beta     90
_cell_angle_gamma    90

_symmetry_space_group_name_H-M    "P 1"
_symmetry_int_tables_number       1

loop_
  _symmetry_equiv_pos_as_xyz
  'x, y, z'

loop_
  _atom_site_label
  _atom_site_occupancy
  _atom_site_fract_x
  _atom_site_fract_y
  _atom_site_fract_z
  _atom_site_thermal_displace_type
  _atom_site_B_iso_or_equiv
  _atom_site_type_symbol
  Pd1      1.0000 0.12421  0.00970  0.19074  Biso   1.000  Pd
  Hf1      1.0000 0.13485  0.02044  0.66860  Biso   1.000  Hf
  Hf2      1.0000 0.14052  0.52299  0.17121  Biso   1.000  Hf
  Hf3      1.0000 0.13887  0.52031  0.67325  Biso   1.000  Hf
  Hf4      1.0000 0.14002  0.23180  0.41803  Biso   1.000  Hf
  Hf5      1.0000 0.14110  0.22449  0.92245  Biso   1.000  Hf
  Hf6      1.0000 0.13762  0.72680  0.42339  Biso   1.000  Hf
  Hf7      1.0000 0.13824  0.73214  0.92213  Biso   1.000  Hf
  Hf8      1.0000 0.35975  0.27022  0.16700  Biso   1.000  Hf
  Hf9      1.0000 0.36000  0.27123  0.67060  Biso   1.000  Hf
  Hf10     1.0000 0.36233  0.77543  0.16929  Biso   1.000  Hf
  Hf11     1.0000 0.36201  0.77122  0.67228  Biso   1.000  Hf
  Hf12     1.0000 0.36148  0.47919  0.42093  Biso   1.000  Hf
  Hf13     1.0000 0.35935  0.47885  0.92151  Biso   1.000  Hf
  Hf14     1.0000 0.36335  0.97962  0.42058  Biso   1.000  Hf
  Hf15     1.0000 0.36154  0.98237  0.92194  Biso   1.000  Hf
  Hf16     1.0000 0.63916  0.02190  0.07723  Biso   1.000  Hf
  Hf17     1.0000 0.63474  0.02076  0.57965  Biso   1.000  Hf
  Hf18     1.0000 0.64093  0.51961  0.07862  Biso   1.000  Hf
  Hf19     1.0000 0.63898  0.52022  0.57977  Biso   1.000  Hf
  Hf20     1.0000 0.63686  0.22913  0.32817  Biso   1.000  Hf
  Hf21     1.0000 0.63752  0.22921  0.82942  Biso   1.000  Hf
  Hf22     1.0000 0.63806  0.72703  0.32801  Biso   1.000  Hf
  Hf23     1.0000 0.63833  0.72856  0.82898  Biso   1.000  Hf
  Hf24     1.0000 0.86851  0.26636  0.08245  Biso   1.000  Hf
  Hf25     1.0000 0.86018  0.27017  0.57898  Biso   1.000  Hf
  Hf26     1.0000 0.86331  0.76897  0.07734  Biso   1.000  Hf
  Hf27     1.0000 0.86055  0.76989  0.58005  Biso   1.000  Hf
  Hf28     1.0000 0.86132  0.47841  0.32906  Biso   1.000  Hf
  Hf29     1.0000 0.86268  0.47599  0.83159  Biso   1.000  Hf
  Hf30     1.0000 0.85740  0.97653  0.33087  Biso   1.000  Hf
  Hf31     1.0000 0.86341  0.97924  0.82903  Biso   1.000  Hf
  O1       1.0000 0.04410  0.15762  0.08872  Biso   1.000  O 
  O2       1.0000 0.03108  0.16290  0.57793  Biso   1.000  O 
  O3       1.0000 0.03704  0.66875  0.08548  Biso   1.000  O 
  O4       1.0000 0.03226  0.66398  0.58515  Biso   1.000  O 
  O5       1.0000 0.02964  0.08409  0.33430  Biso   1.000  O 
  O6       1.0000 0.03069  0.08453  0.83143  Biso   1.000  O 
  O7       1.0000 0.03352  0.58325  0.33528  Biso   1.000  O 
  O8       1.0000 0.03390  0.58370  0.83659  Biso   1.000  O 
  O9       1.0000 0.46789  0.41751  0.08493  Biso   1.000  O 
  O10      1.0000 0.46527  0.41791  0.58496  Biso   1.000  O 
  O11      1.0000 0.47206  0.91700  0.08337  Biso   1.000  O 
  O12      1.0000 0.46683  0.91761  0.58494  Biso   1.000  O 
  O13      1.0000 0.46406  0.33046  0.33629  Biso   1.000  O 
  O14      1.0000 0.46564  0.33395  0.83381  Biso   1.000  O 
  O15      1.0000 0.46464  0.83215  0.33462  Biso   1.000  O 
  O16      1.0000 0.46663  0.83292  0.83457  Biso   1.000  O 
  O17      1.0000 0.27200  0.11810  0.28508  Biso   1.000  O 
  O18      1.0000 0.27318  0.12150  0.78706  Biso   1.000  O 
  O19      1.0000 0.27712  0.62587  0.29512  Biso   1.000  O 
  O20      1.0000 0.27605  0.62370  0.79504  Biso   1.000  O 
  O21      1.0000 0.29955  0.14467  0.02674  Biso   1.000  O 
  O22      1.0000 0.27529  0.12797  0.53915  Biso   1.000  O 
  O23      1.0000 0.28057  0.63220  0.04413  Biso   1.000  O 
  O24      1.0000 0.27611  0.62540  0.54581  Biso   1.000  O 
  O25      1.0000 0.22391  0.37427  0.29419  Biso   1.000  O 
  O26      1.0000 0.22331  0.37251  0.79522  Biso   1.000  O 
  O27      1.0000 0.21917  0.87290  0.29468  Biso   1.000  O 
  O28      1.0000 0.22395  0.87357  0.79589  Biso   1.000  O 
  O29      1.0000 0.22259  0.38288  0.04459  Biso   1.000  O 
  O30      1.0000 0.22208  0.37603  0.54407  Biso   1.000  O 
  O31      1.0000 0.22421  0.88847  0.04807  Biso   1.000  O 
  O32      1.0000 0.22520  0.87573  0.54424  Biso   1.000  O 
  O33      1.0000 0.53568  0.16832  0.16383  Biso   1.000  O 
  O34      1.0000 0.53252  0.16821  0.66389  Biso   1.000  O 
  O35      1.0000 0.53477  0.66736  0.16431  Biso   1.000  O 
  O36      1.0000 0.53451  0.66721  0.66437  Biso   1.000  O 
  O37      1.0000 0.53171  0.08139  0.41369  Biso   1.000  O 
  O38      1.0000 0.53475  0.08025  0.91134  Biso   1.000  O 
  O39      1.0000 0.53437  0.58175  0.41456  Biso   1.000  O 
  O40      1.0000 0.53335  0.58217  0.91486  Biso   1.000  O 
  O41      1.0000 0.96879  0.41601  0.16739  Biso   1.000  O 
  O42      1.0000 0.96785  0.41206  0.66943  Biso   1.000  O 
  O43      1.0000 0.96246  0.91832  0.16501  Biso   1.000  O 
  O44      1.0000 0.96782  0.91437  0.66618  Biso   1.000  O 
  O45      1.0000 0.96613  0.33338  0.41624  Biso   1.000  O 
  O46      1.0000 0.96749  0.33079  0.92204  Biso   1.000  O 
  O47      1.0000 0.96678  0.83430  0.41708  Biso   1.000  O 
  O48      1.0000 0.96522  0.83280  0.91585  Biso   1.000  O 
  O49      1.0000 0.77558  0.12308  0.95627  Biso   1.000  O 
  O50      1.0000 0.77417  0.12238  0.45569  Biso   1.000  O 
  O51      1.0000 0.77613  0.62209  0.95607  Biso   1.000  O 
  O52      1.0000 0.77641  0.62315  0.45565  Biso   1.000  O 
  O53      1.0000 0.77655  0.12480  0.20643  Biso   1.000  O 
  O54      1.0000 0.77455  0.12601  0.70503  Biso   1.000  O 
  O55      1.0000 0.77727  0.62525  0.20547  Biso   1.000  O 
  O56      1.0000 0.77731  0.62470  0.70665  Biso   1.000  O 
  O57      1.0000 0.72405  0.37175  0.95723  Biso   1.000  O 
  O58      1.0000 0.72329  0.37291  0.45617  Biso   1.000  O 
  O59      1.0000 0.72336  0.87256  0.95505  Biso   1.000  O 
  O60      1.0000 0.72218  0.87202  0.45555  Biso   1.000  O 
  O61      1.0000 0.72585  0.37436  0.20595  Biso   1.000  O 
  O62      1.0000 0.72371  0.37610  0.70637  Biso   1.000  O 
  O63      1.0000 0.72641  0.87519  0.20576  Biso   1.000  O 
  O64      1.0000 0.72439  0.87610  0.70550  Biso   1.000  O 
