data_image0
_cell_length_a       4.97184
_cell_length_b       10.3774
_cell_length_c       10.0041
_cell_angle_alpha    90
_cell_angle_beta     90
_cell_angle_gamma    90

_symmetry_space_group_name_H-M    "P 1"
_symmetry_int_tables_number       1

loop_
  _symmetry_equiv_pos_as_xyz
  'x, y, z'

loop_
  _atom_site_label
  _atom_site_occupancy
  _atom_site_fract_x
  _atom_site_fract_y
  _atom_site_fract_z
  _atom_site_thermal_displace_type
  _atom_site_B_iso_or_equiv
  _atom_site_type_symbol
  Pd1      1.0000 0.25445  0.03771  0.10350  Biso   1.000  Pd
  Hf1      1.0000 0.28413  0.01147  0.62474  Biso   1.000  Hf
  Hf2      1.0000 0.26718  0.51552  0.12881  Biso   1.000  Hf
  Hf3      1.0000 0.28056  0.51382  0.62522  Biso   1.000  Hf
  Hf4      1.0000 0.28001  0.22640  0.37638  Biso   1.000  Hf
  Hf5      1.0000 0.28418  0.23358  0.87122  Biso   1.000  Hf
  Hf6      1.0000 0.28081  0.73192  0.37676  Biso   1.000  Hf
  Hf7      1.0000 0.27893  0.72909  0.87931  Biso   1.000  Hf
  Hf8      1.0000 0.72539  0.26612  0.12541  Biso   1.000  Hf
  Hf9      1.0000 0.74717  0.26188  0.62384  Biso   1.000  Hf
  Hf10     1.0000 0.74104  0.76510  0.12569  Biso   1.000  Hf
  Hf11     1.0000 0.74503  0.76349  0.62640  Biso   1.000  Hf
  Hf12     1.0000 0.74061  0.48020  0.37670  Biso   1.000  Hf
  Hf13     1.0000 0.74933  0.48140  0.87503  Biso   1.000  Hf
  Hf14     1.0000 0.73878  0.97934  0.37150  Biso   1.000  Hf
  Hf15     1.0000 0.72857  0.97625  0.87540  Biso   1.000  Hf
  O1       1.0000 0.07334  0.18433  0.19016  Biso   1.000  O 
  O2       1.0000 0.08946  0.18126  0.69405  Biso   1.000  O 
  O3       1.0000 0.07576  0.68234  0.19806  Biso   1.000  O 
  O4       1.0000 0.08206  0.67888  0.69848  Biso   1.000  O 
  O5       1.0000 0.08669  0.06292  0.44786  Biso   1.000  O 
  O6       1.0000 0.09040  0.05916  0.93461  Biso   1.000  O 
  O7       1.0000 0.08190  0.56126  0.44572  Biso   1.000  O 
  O8       1.0000 0.08731  0.56099  0.94900  Biso   1.000  O 
  O9       1.0000 0.93051  0.42842  0.19506  Biso   1.000  O 
  O10      1.0000 0.94352  0.42926  0.69505  Biso   1.000  O 
  O11      1.0000 0.95097  0.93671  0.19189  Biso   1.000  O 
  O12      1.0000 0.93330  0.93062  0.69610  Biso   1.000  O 
  O13      1.0000 0.93828  0.31083  0.44214  Biso   1.000  O 
  O14      1.0000 0.94211  0.30923  0.94270  Biso   1.000  O 
  O15      1.0000 0.94500  0.81433  0.45029  Biso   1.000  O 
  O16      1.0000 0.93194  0.81140  0.93973  Biso   1.000  O 
  O17      1.0000 0.53370  0.10768  0.24688  Biso   1.000  O 
  O18      1.0000 0.55866  0.11379  0.74896  Biso   1.000  O 
  O19      1.0000 0.54560  0.60723  0.24936  Biso   1.000  O 
  O20      1.0000 0.55190  0.61353  0.75126  Biso   1.000  O 
  O21      1.0000 0.55921  0.12876  0.49737  Biso   1.000  O 
  O22      1.0000 0.55650  0.12919  0.99724  Biso   1.000  O 
  O23      1.0000 0.55230  0.62941  0.50056  Biso   1.000  O 
  O24      1.0000 0.52782  0.63615  0.00089  Biso   1.000  O 
  O25      1.0000 0.47003  0.37771  0.50010  Biso   1.000  O 
  O26      1.0000 0.48097  0.37791  0.99932  Biso   1.000  O 
  O27      1.0000 0.47052  0.87999  0.50374  Biso   1.000  O 
  O28      1.0000 0.43455  0.88964  0.00991  Biso   1.000  O 
  O29      1.0000 0.46132  0.36218  0.25015  Biso   1.000  O 
  O30      1.0000 0.47559  0.36447  0.74873  Biso   1.000  O 
  O31      1.0000 0.50916  0.84922  0.26130  Biso   1.000  O 
  O32      1.0000 0.46555  0.86234  0.75337  Biso   1.000  O 
