data_image0
_cell_length_a       10.0665
_cell_length_b       10.5559
_cell_length_c       5.03214
_cell_angle_alpha    90
_cell_angle_beta     90
_cell_angle_gamma    90

_symmetry_space_group_name_H-M    "P 1"
_symmetry_int_tables_number       1

loop_
  _symmetry_equiv_pos_as_xyz
  'x, y, z'

loop_
  _atom_site_label
  _atom_site_occupancy
  _atom_site_fract_x
  _atom_site_fract_y
  _atom_site_fract_z
  _atom_site_thermal_displace_type
  _atom_site_B_iso_or_equiv
  _atom_site_type_symbol
  Hf1      1.0000 0.13672  0.00628  0.23243  Biso   1.000  Hf
  Hf2      1.0000 0.13593  0.21294  0.72036  Biso   1.000  Hf
  Hf3      1.0000 0.37440  0.26842  0.26330  Biso   1.000  Hf
  Hf4      1.0000 0.37608  0.49251  0.75450  Biso   1.000  Hf
  O1       1.0000 0.01800  0.16490  0.39050  Biso   1.000  O 
  O2       1.0000 0.03754  0.06043  0.89157  Biso   1.000  O 
  O3       1.0000 0.48027  0.42900  0.42174  Biso   1.000  O 
  O4       1.0000 0.48264  0.32333  0.92058  Biso   1.000  O 
  O5       1.0000 0.26655  0.10339  0.47858  Biso   1.000  O 
  O6       1.0000 0.28671  0.13116  0.97511  Biso   1.000  O 
  O7       1.0000 0.26674  0.41982  0.08342  Biso   1.000  O 
  O8       1.0000 0.26279  0.34971  0.59403  Biso   1.000  O 
  Hf5      1.0000 0.12568  0.54265  0.23656  Biso   1.000  Hf
  Hf6      1.0000 0.13721  0.74509  0.74017  Biso   1.000  Hf
  Hf7      1.0000 0.37213  0.76484  0.24463  Biso   1.000  Hf
  Hf8      1.0000 0.37597  0.98716  0.74225  Biso   1.000  Hf
  O9       1.0000 0.03052  0.69404  0.39370  Biso   1.000  O 
  O10      1.0000 0.04159  0.57374  0.87734  Biso   1.000  O 
  O11      1.0000 0.46839  0.93029  0.38419  Biso   1.000  O 
  O12      1.0000 0.47433  0.82266  0.89000  Biso   1.000  O 
  O13      1.0000 0.26989  0.61635  0.49549  Biso   1.000  O 
  O14      1.0000 0.27046  0.65493  0.98899  Biso   1.000  O 
  O15      1.0000 0.23809  0.88992  0.97903  Biso   1.000  O 
  O16      1.0000 0.23515  0.86309  0.47995  Biso   1.000  O 
  Hf9      1.0000 0.63488  0.01597  0.25003  Biso   1.000  Hf
  Hf10     1.0000 0.63588  0.23640  0.75287  Biso   1.000  Hf
  Hf11     1.0000 0.85417  0.26656  0.24337  Biso   1.000  Hf
  Hf12     1.0000 0.87312  0.48539  0.74432  Biso   1.000  Hf
  O17      1.0000 0.53375  0.17624  0.41264  Biso   1.000  O 
  O18      1.0000 0.54421  0.06851  0.89619  Biso   1.000  O 
  O19      1.0000 0.96024  0.44341  0.37534  Biso   1.000  O 
  O20      1.0000 0.96362  0.31594  0.85132  Biso   1.000  O 
  O21      1.0000 0.76933  0.11602  0.49537  Biso   1.000  O 
  O22      1.0000 0.77384  0.13960  0.99675  Biso   1.000  O 
  O23      1.0000 0.73056  0.38548  0.00089  Biso   1.000  O 
  O24      1.0000 0.73328  0.36625  0.50055  Biso   1.000  O 
  Hf13     1.0000 0.63612  0.51658  0.25628  Biso   1.000  Hf
  Hf14     1.0000 0.63922  0.73474  0.75420  Biso   1.000  Hf
  Hf15     1.0000 0.86098  0.76867  0.24687  Biso   1.000  Hf
  Hf16     1.0000 0.86756  0.98508  0.74105  Biso   1.000  Hf
  O25      1.0000 0.53412  0.68106  0.40684  Biso   1.000  O 
  O26      1.0000 0.53960  0.57566  0.91602  Biso   1.000  O 
  O27      1.0000 0.96634  0.92966  0.39442  Biso   1.000  O 
  O28      1.0000 0.96965  0.82091  0.89423  Biso   1.000  O 
  O29      1.0000 0.76932  0.61773  0.50066  Biso   1.000  O 
  O30      1.0000 0.77710  0.63891  0.99859  Biso   1.000  O 
  O31      1.0000 0.73697  0.88842  0.99830  Biso   1.000  O 
  O32      1.0000 0.73057  0.86743  0.49872  Biso   1.000  O 
  Pd1      1.0000 0.11787  0.30060  0.18387  Biso   1.000  Pd
