data_image0
_cell_length_a       9.94131
_cell_length_b       5.19443
_cell_length_c       10.0083
_cell_angle_alpha    90
_cell_angle_beta     90
_cell_angle_gamma    90

_symmetry_space_group_name_H-M    "P 1"
_symmetry_int_tables_number       1

loop_
  _symmetry_equiv_pos_as_xyz
  'x, y, z'

loop_
  _atom_site_label
  _atom_site_occupancy
  _atom_site_fract_x
  _atom_site_fract_y
  _atom_site_fract_z
  _atom_site_thermal_displace_type
  _atom_site_B_iso_or_equiv
  _atom_site_type_symbol
  Pd1      1.0000 0.12622  0.07527  0.10301  Biso   1.000  Pd
  Hf1      1.0000 0.14402  0.02195  0.62929  Biso   1.000  Hf
  Hf2      1.0000 0.63874  0.03480  0.12841  Biso   1.000  Hf
  Hf3      1.0000 0.63945  0.01671  0.62055  Biso   1.000  Hf
  Hf4      1.0000 0.14028  0.44446  0.37711  Biso   1.000  Hf
  Hf5      1.0000 0.14087  0.46313  0.87611  Biso   1.000  Hf
  Hf6      1.0000 0.64049  0.45994  0.37770  Biso   1.000  Hf
  Hf7      1.0000 0.64240  0.44685  0.87355  Biso   1.000  Hf
  Hf8      1.0000 0.37191  0.52628  0.12594  Biso   1.000  Hf
  Hf9      1.0000 0.37305  0.52117  0.62842  Biso   1.000  Hf
  Hf10     1.0000 0.86747  0.53917  0.12185  Biso   1.000  Hf
  Hf11     1.0000 0.87466  0.51895  0.62132  Biso   1.000  Hf
  Hf12     1.0000 0.36644  0.94541  0.37501  Biso   1.000  Hf
  Hf13     1.0000 0.37238  0.95316  0.87951  Biso   1.000  Hf
  Hf14     1.0000 0.87376  0.96271  0.37255  Biso   1.000  Hf
  Hf15     1.0000 0.86727  0.94750  0.87026  Biso   1.000  Hf
  O1       1.0000 0.03971  0.37367  0.18764  Biso   1.000  O 
  O2       1.0000 0.04481  0.35944  0.69561  Biso   1.000  O 
  O3       1.0000 0.53630  0.36080  0.20142  Biso   1.000  O 
  O4       1.0000 0.54303  0.35087  0.69519  Biso   1.000  O 
  O5       1.0000 0.04112  0.11855  0.45248  Biso   1.000  O 
  O6       1.0000 0.04602  0.10896  0.92988  Biso   1.000  O 
  O7       1.0000 0.54332  0.12119  0.44236  Biso   1.000  O 
  O8       1.0000 0.54374  0.11996  0.95171  Biso   1.000  O 
  O9       1.0000 0.47055  0.85858  0.19463  Biso   1.000  O 
  O10      1.0000 0.46969  0.85511  0.69935  Biso   1.000  O 
  O11      1.0000 0.97231  0.87396  0.18905  Biso   1.000  O 
  O12      1.0000 0.96951  0.85359  0.69169  Biso   1.000  O 
  O13      1.0000 0.47496  0.62626  0.45433  Biso   1.000  O 
  O14      1.0000 0.46787  0.61217  0.94024  Biso   1.000  O 
  O15      1.0000 0.96852  0.61795  0.43818  Biso   1.000  O 
  O16      1.0000 0.96905  0.61536  0.93944  Biso   1.000  O 
  O17      1.0000 0.25477  0.17345  0.25063  Biso   1.000  O 
  O18      1.0000 0.28032  0.22570  0.75369  Biso   1.000  O 
  O19      1.0000 0.77672  0.23501  0.24848  Biso   1.000  O 
  O20      1.0000 0.77652  0.21622  0.74678  Biso   1.000  O 
  O21      1.0000 0.28090  0.25001  0.49996  Biso   1.000  O 
  O22      1.0000 0.26149  0.27530  0.00217  Biso   1.000  O 
  O23      1.0000 0.77653  0.25516  0.49792  Biso   1.000  O 
  O24      1.0000 0.78282  0.24644  0.99732  Biso   1.000  O 
  O25      1.0000 0.23253  0.74899  0.50614  Biso   1.000  O 
  O26      1.0000 0.22302  0.78318  0.01148  Biso   1.000  O 
  O27      1.0000 0.73892  0.75686  0.49742  Biso   1.000  O 
  O28      1.0000 0.73527  0.74352  0.99747  Biso   1.000  O 
  O29      1.0000 0.25701  0.67029  0.26614  Biso   1.000  O 
  O30      1.0000 0.23603  0.72553  0.75519  Biso   1.000  O 
  O31      1.0000 0.73584  0.73373  0.24759  Biso   1.000  O 
  O32      1.0000 0.73565  0.71492  0.74631  Biso   1.000  O 
