data_image0
_cell_length_a       10.0468
_cell_length_b       5.19861
_cell_length_c       10.2469
_cell_angle_alpha    90
_cell_angle_beta     90
_cell_angle_gamma    90

_symmetry_space_group_name_H-M    "P 1"
_symmetry_int_tables_number       1

loop_
  _symmetry_equiv_pos_as_xyz
  'x, y, z'

loop_
  _atom_site_label
  _atom_site_occupancy
  _atom_site_fract_x
  _atom_site_fract_y
  _atom_site_fract_z
  _atom_site_thermal_displace_type
  _atom_site_B_iso_or_equiv
  _atom_site_type_symbol
  Hf1      1.0000 0.13059  0.05780  0.10437  Biso   1.000  Hf
  Hf2      1.0000 0.10643  0.47080  0.35828  Biso   1.000  Hf
  Hf3      1.0000 0.35413  0.54160  0.12340  Biso   1.000  Hf
  Hf4      1.0000 0.33233  0.97391  0.37261  Biso   1.000  Hf
  O1       1.0000 0.00598  0.31735  0.19783  Biso   1.000  O 
  O2       1.0000 0.99578  0.16689  0.43048  Biso   1.000  O 
  O3       1.0000 0.44380  0.87712  0.19897  Biso   1.000  O 
  O4       1.0000 0.42057  0.63978  0.44821  Biso   1.000  O 
  O5       1.0000 0.25234  0.26057  0.24409  Biso   1.000  O 
  O6       1.0000 0.23059  0.26603  0.49239  Biso   1.000  O 
  O7       1.0000 0.18493  0.77074  0.48430  Biso   1.000  O 
  O8       1.0000 0.20941  0.75840  0.23918  Biso   1.000  O 
  Hf5      1.0000 0.08445  0.04486  0.60222  Biso   1.000  Hf
  Hf6      1.0000 0.06746  0.46300  0.84151  Biso   1.000  Hf
  Hf7      1.0000 0.31285  0.54728  0.62096  Biso   1.000  Hf
  Hf8      1.0000 0.29062  0.97690  0.87069  Biso   1.000  Hf
  O9       1.0000 0.97399  0.35123  0.67200  Biso   1.000  O 
  O10      1.0000 0.95294  0.15293  0.91657  Biso   1.000  O 
  O11      1.0000 0.40134  0.87966  0.69649  Biso   1.000  O 
  O12      1.0000 0.37616  0.64383  0.94592  Biso   1.000  O 
  O13      1.0000 0.21116  0.24801  0.73763  Biso   1.000  O 
  O14      1.0000 0.19225  0.26867  0.98695  Biso   1.000  O 
  O15      1.0000 0.14419  0.78529  0.98122  Biso   1.000  O 
  O16      1.0000 0.16492  0.74673  0.73111  Biso   1.000  O 
  Hf9      1.0000 0.61914  0.04128  0.14774  Biso   1.000  Hf
  Hf10     1.0000 0.59488  0.46940  0.39924  Biso   1.000  Hf
  Hf11     1.0000 0.83136  0.54271  0.17883  Biso   1.000  Hf
  Hf12     1.0000 0.82221  0.96806  0.42129  Biso   1.000  Hf
  O17      1.0000 0.51888  0.37542  0.20634  Biso   1.000  O 
  O18      1.0000 0.49566  0.13875  0.45691  Biso   1.000  O 
  O19      1.0000 0.93343  0.89520  0.11633  Biso   1.000  O 
  O20      1.0000 0.92928  0.66323  0.35303  Biso   1.000  O 
  O21      1.0000 0.74078  0.24244  0.28932  Biso   1.000  O 
  O22      1.0000 0.72234  0.27424  0.53630  Biso   1.000  O 
  O23      1.0000 0.67499  0.75407  0.53002  Biso   1.000  O 
  O24      1.0000 0.69316  0.76430  0.28326  Biso   1.000  O 
  Hf13     1.0000 0.57596  0.04806  0.64660  Biso   1.000  Hf
  Hf14     1.0000 0.55071  0.48151  0.89454  Biso   1.000  Hf
  Hf15     1.0000 0.79876  0.55092  0.66943  Biso   1.000  Hf
  Hf16     1.0000 0.77294  0.97968  0.91947  Biso   1.000  Hf
  O25      1.0000 0.47487  0.38147  0.70299  Biso   1.000  O 
  O26      1.0000 0.45206  0.14494  0.95105  Biso   1.000  O 
  O27      1.0000 0.90852  0.85243  0.59967  Biso   1.000  O 
  O28      1.0000 0.88865  0.67138  0.84449  Biso   1.000  O 
  O29      1.0000 0.69984  0.24891  0.78523  Biso   1.000  O 
  O30      1.0000 0.76655  0.26805  0.03782  Biso   1.000  O 
  O31      1.0000 0.71827  0.74271  0.03154  Biso   1.000  O 
  O32      1.0000 0.65379  0.76739  0.77872  Biso   1.000  O 
  Pd1      1.0000 0.05635  0.57956  0.05775  Biso   1.000  Pd
