data_image0
_cell_length_a       10.1299
_cell_length_b       10.3417
_cell_length_c       5.07302
_cell_angle_alpha    90
_cell_angle_beta     90
_cell_angle_gamma    90

_symmetry_space_group_name_H-M    "P 1"
_symmetry_int_tables_number       1

loop_
  _symmetry_equiv_pos_as_xyz
  'x, y, z'

loop_
  _atom_site_label
  _atom_site_occupancy
  _atom_site_fract_x
  _atom_site_fract_y
  _atom_site_fract_z
  _atom_site_thermal_displace_type
  _atom_site_B_iso_or_equiv
  _atom_site_type_symbol
  Hf1      1.0000 0.09185  0.95541  0.27075  Biso   1.000  Hf
  Hf2      1.0000 0.13594  0.29131  0.77241  Biso   1.000  Hf
  Hf3      1.0000 0.37483  0.25438  0.29874  Biso   1.000  Hf
  Hf4      1.0000 0.37372  0.01022  0.80281  Biso   1.000  Hf
  O1       1.0000 0.99647  0.15329  0.87222  Biso   1.000  O 
  O2       1.0000 0.95393  0.06501  0.37754  Biso   1.000  O 
  O3       1.0000 0.00522  0.34316  0.47317  Biso   1.000  O 
  O4       1.0000 0.01294  0.41077  0.99466  Biso   1.000  O 
  O5       1.0000 0.29259  0.17960  0.66159  Biso   1.000  O 
  O6       1.0000 0.26552  0.08898  0.14721  Biso   1.000  O 
  O7       1.0000 0.25552  0.37591  0.03032  Biso   1.000  O 
  O8       1.0000 0.25857  0.41958  0.52324  Biso   1.000  O 
  Hf5      1.0000 0.12615  0.51829  0.25591  Biso   1.000  Hf
  Hf6      1.0000 0.12293  0.74318  0.75648  Biso   1.000  Hf
  Hf7      1.0000 0.37314  0.74060  0.20444  Biso   1.000  Hf
  Hf8      1.0000 0.40208  0.48682  0.77737  Biso   1.000  Hf
  O9       1.0000 0.01077  0.66345  0.08496  Biso   1.000  O 
  O10      1.0000 0.02135  0.58433  0.58157  Biso   1.000  O 
  O11      1.0000 0.97629  0.82963  0.50040  Biso   1.000  O 
  O12      1.0000 0.99180  0.88666  0.97377  Biso   1.000  O 
  O13      1.0000 0.23384  0.67437  0.44493  Biso   1.000  O 
  O14      1.0000 0.26881  0.60812  0.95457  Biso   1.000  O 
  O15      1.0000 0.22665  0.85227  0.03561  Biso   1.000  O 
  O16      1.0000 0.20650  0.91949  0.58508  Biso   1.000  O 
  Hf9      1.0000 0.61666  0.00241  0.24849  Biso   1.000  Hf
  Hf10     1.0000 0.62697  0.22992  0.75366  Biso   1.000  Hf
  Hf11     1.0000 0.86122  0.24067  0.20414  Biso   1.000  Hf
  Hf12     1.0000 0.86421  0.98808  0.73108  Biso   1.000  Hf
  O17      1.0000 0.49367  0.14468  0.03289  Biso   1.000  O 
  O18      1.0000 0.50109  0.09349  0.52507  Biso   1.000  O 
  O19      1.0000 0.51229  0.35402  0.53008  Biso   1.000  O 
  O20      1.0000 0.49917  0.38838  0.03243  Biso   1.000  O 
  O21      1.0000 0.72841  0.15290  0.44640  Biso   1.000  O 
  O22      1.0000 0.75762  0.08839  0.96048  Biso   1.000  O 
  O23      1.0000 0.76811  0.33695  0.93799  Biso   1.000  O 
  O24      1.0000 0.76476  0.39517  0.43441  Biso   1.000  O 
  Hf13     1.0000 0.62535  0.49988  0.25103  Biso   1.000  Hf
  Hf14     1.0000 0.61016  0.76032  0.69847  Biso   1.000  Hf
  Hf15     1.0000 0.84569  0.75119  0.21767  Biso   1.000  Hf
  Hf16     1.0000 0.87088  0.48408  0.72363  Biso   1.000  Hf
  O25      1.0000 0.52614  0.63214  0.97405  Biso   1.000  O 
  O26      1.0000 0.49262  0.60421  0.47661  Biso   1.000  O 
  O27      1.0000 0.48006  0.85132  0.45600  Biso   1.000  O 
  O28      1.0000 0.49666  0.88859  0.96154  Biso   1.000  O 
  O29      1.0000 0.74743  0.64106  0.50989  Biso   1.000  O 
  O30      1.0000 0.76089  0.59097  0.01925  Biso   1.000  O 
  O31      1.0000 0.74665  0.83814  0.95747  Biso   1.000  O 
  O32      1.0000 0.72601  0.89477  0.46734  Biso   1.000  O 
  Pd1      1.0000 0.11942  0.20321  0.28443  Biso   1.000  Pd
