data_image0
_cell_length_a       10.142
_cell_length_b       10.3037
_cell_length_c       10.4761
_cell_angle_alpha    90
_cell_angle_beta     80
_cell_angle_gamma    90

_symmetry_space_group_name_H-M    "P 1"
_symmetry_int_tables_number       1

loop_
  _symmetry_equiv_pos_as_xyz
  'x, y, z'

loop_
  _atom_site_label
  _atom_site_occupancy
  _atom_site_fract_x
  _atom_site_fract_y
  _atom_site_fract_z
  _atom_site_thermal_displace_type
  _atom_site_B_iso_or_equiv
  _atom_site_type_symbol
  Hf1      1.0000 0.13516  0.02198  0.14622  Biso   1.000  Hf
  Hf2      1.0000 0.13805  0.22746  0.39578  Biso   1.000  Hf
  Hf3      1.0000 0.35574  0.27618  0.09697  Biso   1.000  Hf
  Hf4      1.0000 0.35784  0.47790  0.34976  Biso   1.000  Hf
  O1       1.0000 0.03399  0.16955  0.07888  Biso   1.000  O 
  O2       1.0000 0.03280  0.07974  0.33024  Biso   1.000  O 
  O3       1.0000 0.45886  0.42886  0.16055  Biso   1.000  O 
  O4       1.0000 0.48091  0.35639  0.43632  Biso   1.000  O 
  O5       1.0000 0.27122  0.12870  0.23790  Biso   1.000  O 
  O6       1.0000 0.26942  0.10968  0.49486  Biso   1.000  O 
  O7       1.0000 0.21965  0.38269  0.00502  Biso   1.000  O 
  O8       1.0000 0.21248  0.37516  0.25493  Biso   1.000  O 
  Hf5      1.0000 0.13585  0.01659  0.64759  Biso   1.000  Hf
  Hf6      1.0000 0.13457  0.22480  0.89454  Biso   1.000  Hf
  Hf7      1.0000 0.35962  0.27081  0.60568  Biso   1.000  Hf
  Hf8      1.0000 0.35779  0.47616  0.85452  Biso   1.000  Hf
  O9       1.0000 0.03487  0.16644  0.58115  Biso   1.000  O 
  O10      1.0000 0.03177  0.07739  0.83027  Biso   1.000  O 
  O11      1.0000 0.46368  0.41330  0.67660  Biso   1.000  O 
  O12      1.0000 0.46178  0.32799  0.91922  Biso   1.000  O 
  O13      1.0000 0.27386  0.12633  0.74082  Biso   1.000  O 
  O14      1.0000 0.27175  0.11854  0.98908  Biso   1.000  O 
  O15      1.0000 0.22380  0.37444  0.50900  Biso   1.000  O 
  O16      1.0000 0.22122  0.36781  0.75816  Biso   1.000  O 
  Hf9      1.0000 0.13661  0.52303  0.14497  Biso   1.000  Hf
  Hf10     1.0000 0.13613  0.72632  0.39706  Biso   1.000  Hf
  Hf11     1.0000 0.35918  0.77254  0.10440  Biso   1.000  Hf
  Hf12     1.0000 0.36037  0.96679  0.35964  Biso   1.000  Hf
  O17      1.0000 0.03324  0.67092  0.07955  Biso   1.000  O 
  O18      1.0000 0.03265  0.58187  0.32890  Biso   1.000  O 
  O19      1.0000 0.46188  0.91982  0.17301  Biso   1.000  O 
  O20      1.0000 0.45978  0.82017  0.42206  Biso   1.000  O 
  O21      1.0000 0.27389  0.63021  0.24083  Biso   1.000  O 
  O22      1.0000 0.27223  0.61603  0.49099  Biso   1.000  O 
  O23      1.0000 0.22193  0.88087  0.01067  Biso   1.000  O 
  O24      1.0000 0.22136  0.86986  0.26158  Biso   1.000  O 
  Hf13     1.0000 0.13629  0.51851  0.64576  Biso   1.000  Hf
  Hf14     1.0000 0.13457  0.72557  0.89711  Biso   1.000  Hf
  Hf15     1.0000 0.35910  0.76543  0.60637  Biso   1.000  Hf
  Hf16     1.0000 0.35738  0.97576  0.85455  Biso   1.000  Hf
  O25      1.0000 0.03147  0.66497  0.58022  Biso   1.000  O 
  O26      1.0000 0.03285  0.57816  0.83017  Biso   1.000  O 
  O27      1.0000 0.46122  0.91488  0.67007  Biso   1.000  O 
  O28      1.0000 0.46095  0.82941  0.92114  Biso   1.000  O 
  O29      1.0000 0.27339  0.62471  0.74130  Biso   1.000  O 
  O30      1.0000 0.27314  0.61919  0.99117  Biso   1.000  O 
  O31      1.0000 0.22088  0.87138  0.51259  Biso   1.000  O 
  O32      1.0000 0.22059  0.86729  0.76125  Biso   1.000  O 
  Hf17     1.0000 0.63839  0.01992  0.14810  Biso   1.000  Hf
  Hf18     1.0000 0.65012  0.22902  0.40258  Biso   1.000  Hf
  Hf19     1.0000 0.85954  0.27244  0.10462  Biso   1.000  Hf
  Hf20     1.0000 0.86162  0.47725  0.35403  Biso   1.000  Hf
  O33      1.0000 0.53116  0.16653  0.07934  Biso   1.000  O 
  O34      1.0000 0.55269  0.05450  0.34496  Biso   1.000  O 
  O35      1.0000 0.96241  0.42039  0.16854  Biso   1.000  O 
  O36      1.0000 0.96357  0.32923  0.42094  Biso   1.000  O 
  O37      1.0000 0.77746  0.12969  0.24120  Biso   1.000  O 
  O38      1.0000 0.77935  0.11702  0.49422  Biso   1.000  O 
  O39      1.0000 0.72184  0.37953  0.01088  Biso   1.000  O 
  O40      1.0000 0.72363  0.37118  0.26109  Biso   1.000  O 
  Hf21     1.0000 0.63573  0.01841  0.64624  Biso   1.000  Hf
  Hf22     1.0000 0.63601  0.22439  0.89740  Biso   1.000  Hf
  Hf23     1.0000 0.86236  0.26802  0.60766  Biso   1.000  Hf
  Hf24     1.0000 0.85827  0.47534  0.85554  Biso   1.000  Hf
  O41      1.0000 0.53405  0.16687  0.57957  Biso   1.000  O 
  O42      1.0000 0.53214  0.07857  0.82907  Biso   1.000  O 
  O43      1.0000 0.96293  0.41634  0.67158  Biso   1.000  O 
  O44      1.0000 0.96040  0.32717  0.91981  Biso   1.000  O 
  O45      1.0000 0.77329  0.12572  0.74249  Biso   1.000  O 
  O46      1.0000 0.77249  0.11724  0.99230  Biso   1.000  O 
  O47      1.0000 0.72684  0.37573  0.51344  Biso   1.000  O 
  O48      1.0000 0.72199  0.36759  0.76217  Biso   1.000  O 
  Hf25     1.0000 0.63643  0.52320  0.14505  Biso   1.000  Hf
  Hf26     1.0000 0.63812  0.72412  0.39582  Biso   1.000  Hf
  Hf27     1.0000 0.85872  0.77084  0.10425  Biso   1.000  Hf
  Hf28     1.0000 0.85885  0.97557  0.35466  Biso   1.000  Hf
  O49      1.0000 0.53532  0.67337  0.07955  Biso   1.000  O 
  O50      1.0000 0.53218  0.58351  0.32514  Biso   1.000  O 
  O51      1.0000 0.96217  0.91838  0.17032  Biso   1.000  O 
  O52      1.0000 0.96195  0.82946  0.42132  Biso   1.000  O 
  O53      1.0000 0.77560  0.62736  0.24064  Biso   1.000  O 
  O54      1.0000 0.77386  0.61746  0.49081  Biso   1.000  O 
  O55      1.0000 0.72168  0.88070  0.01067  Biso   1.000  O 
  O56      1.0000 0.72355  0.86684  0.25894  Biso   1.000  O 
  Hf29     1.0000 0.63688  0.51783  0.64801  Biso   1.000  Hf
  Hf30     1.0000 0.63476  0.72597  0.89651  Biso   1.000  Hf
  Hf31     1.0000 0.85777  0.76860  0.60468  Biso   1.000  Hf
  Hf32     1.0000 0.85674  0.97505  0.85522  Biso   1.000  Hf
  O57      1.0000 0.53328  0.66274  0.58032  Biso   1.000  O 
  O58      1.0000 0.53208  0.57920  0.83100  Biso   1.000  O 
  O59      1.0000 0.96029  0.91530  0.67102  Biso   1.000  O 
  O60      1.0000 0.96032  0.82790  0.92054  Biso   1.000  O 
  O61      1.0000 0.77333  0.62589  0.74109  Biso   1.000  O 
  O62      1.0000 0.77250  0.61755  0.99069  Biso   1.000  O 
  O63      1.0000 0.72030  0.87557  0.51020  Biso   1.000  O 
  O64      1.0000 0.71961  0.86824  0.76038  Biso   1.000  O 
  Pd1      1.0000 0.42796  0.21707  0.31655  Biso   1.000  Pd
