data_image0
_cell_length_a       9.94181
_cell_length_b       10.3782
_cell_length_c       5.0042
_cell_angle_alpha    90
_cell_angle_beta     90
_cell_angle_gamma    90

_symmetry_space_group_name_H-M    "P 1"
_symmetry_int_tables_number       1

loop_
  _symmetry_equiv_pos_as_xyz
  'x, y, z'

loop_
  _atom_site_label
  _atom_site_occupancy
  _atom_site_fract_x
  _atom_site_fract_y
  _atom_site_fract_z
  _atom_site_thermal_displace_type
  _atom_site_B_iso_or_equiv
  _atom_site_type_symbol
  Pd1      1.0000 0.12897  0.03770  0.21232  Biso   1.000  Pd
  Hf1      1.0000 0.13293  0.51429  0.25425  Biso   1.000  Hf
  Hf2      1.0000 0.63469  0.01396  0.24827  Biso   1.000  Hf
  Hf3      1.0000 0.63409  0.51756  0.25817  Biso   1.000  Hf
  Hf4      1.0000 0.13766  0.23307  0.74681  Biso   1.000  Hf
  Hf5      1.0000 0.13501  0.73049  0.75992  Biso   1.000  Hf
  Hf6      1.0000 0.63668  0.22966  0.75328  Biso   1.000  Hf
  Hf7      1.0000 0.63595  0.73204  0.75647  Biso   1.000  Hf
  Hf8      1.0000 0.36830  0.26488  0.25639  Biso   1.000  Hf
  Hf9      1.0000 0.36400  0.76442  0.26416  Biso   1.000  Hf
  Hf10     1.0000 0.86184  0.26603  0.24763  Biso   1.000  Hf
  Hf11     1.0000 0.87134  0.76804  0.24631  Biso   1.000  Hf
  Hf12     1.0000 0.36939  0.48229  0.75536  Biso   1.000  Hf
  Hf13     1.0000 0.36253  0.97707  0.75764  Biso   1.000  Hf
  Hf14     1.0000 0.86750  0.48196  0.75266  Biso   1.000  Hf
  Hf15     1.0000 0.86505  0.98109  0.74080  Biso   1.000  Hf
  O1       1.0000 0.03835  0.18665  0.37878  Biso   1.000  O 
  O2       1.0000 0.03664  0.68253  0.39365  Biso   1.000  O 
  O3       1.0000 0.53631  0.18182  0.39444  Biso   1.000  O 
  O4       1.0000 0.53440  0.68104  0.40308  Biso   1.000  O 
  O5       1.0000 0.04180  0.06075  0.87337  Biso   1.000  O 
  O6       1.0000 0.03730  0.56079  0.89645  Biso   1.000  O 
  O7       1.0000 0.53919  0.06433  0.89705  Biso   1.000  O 
  O8       1.0000 0.53969  0.56317  0.89704  Biso   1.000  O 
  O9       1.0000 0.46545  0.43113  0.39290  Biso   1.000  O 
  O10      1.0000 0.46784  0.93003  0.40421  Biso   1.000  O 
  O11      1.0000 0.96448  0.42948  0.39204  Biso   1.000  O 
  O12      1.0000 0.96947  0.93916  0.37828  Biso   1.000  O 
  O13      1.0000 0.46565  0.31126  0.89074  Biso   1.000  O 
  O14      1.0000 0.46731  0.81466  0.90507  Biso   1.000  O 
  O15      1.0000 0.96620  0.31119  0.88311  Biso   1.000  O 
  O16      1.0000 0.96398  0.81383  0.88150  Biso   1.000  O 
  O17      1.0000 0.26849  0.10922  0.50231  Biso   1.000  O 
  O18      1.0000 0.26901  0.60788  0.50298  Biso   1.000  O 
  O19      1.0000 0.77131  0.11610  0.49498  Biso   1.000  O 
  O20      1.0000 0.77224  0.61572  0.50294  Biso   1.000  O 
  O21      1.0000 0.26601  0.13413  0.00225  Biso   1.000  O 
  O22      1.0000 0.26667  0.63461  0.00416  Biso   1.000  O 
  O23      1.0000 0.77712  0.12915  0.99350  Biso   1.000  O 
  O24      1.0000 0.76683  0.63406  0.00403  Biso   1.000  O 
  O25      1.0000 0.22666  0.38247  0.00029  Biso   1.000  O 
  O26      1.0000 0.22151  0.88980  0.03411  Biso   1.000  O 
  O27      1.0000 0.72634  0.38206  0.00258  Biso   1.000  O 
  O28      1.0000 0.73198  0.88019  0.99420  Biso   1.000  O 
  O29      1.0000 0.23227  0.36320  0.50020  Biso   1.000  O 
  O30      1.0000 0.24554  0.84953  0.53882  Biso   1.000  O 
  O31      1.0000 0.72911  0.36620  0.50168  Biso   1.000  O 
  O32      1.0000 0.73502  0.86469  0.49359  Biso   1.000  O 
