data_image0
_cell_length_a       10.0656
_cell_length_b       5.1493
_cell_length_c       10.5155
_cell_angle_alpha    90
_cell_angle_beta     90
_cell_angle_gamma    90

_symmetry_space_group_name_H-M    "P 1"
_symmetry_int_tables_number       1

loop_
  _symmetry_equiv_pos_as_xyz
  'x, y, z'

loop_
  _atom_site_label
  _atom_site_occupancy
  _atom_site_fract_x
  _atom_site_fract_y
  _atom_site_fract_z
  _atom_site_thermal_displace_type
  _atom_site_B_iso_or_equiv
  _atom_site_type_symbol
  Hf1      1.0000 0.13608  0.04481  0.17165  Biso   1.000  Hf
  Hf2      1.0000 0.13437  0.46291  0.42450  Biso   1.000  Hf
  Hf3      1.0000 0.34960  0.54653  0.18014  Biso   1.000  Hf
  Hf4      1.0000 0.35927  0.96459  0.42418  Biso   1.000  Hf
  Hf5      1.0000 0.64147  0.05884  0.07894  Biso   1.000  Hf
  Hf6      1.0000 0.63750  0.46574  0.33207  Biso   1.000  Hf
  Hf7      1.0000 0.86138  0.54404  0.07887  Biso   1.000  Hf
  Hf8      1.0000 0.86042  0.96591  0.33078  Biso   1.000  Hf
  O1       1.0000 0.03201  0.32947  0.08317  Biso   1.000  O 
  O2       1.0000 0.03025  0.17918  0.33259  Biso   1.000  O 
  O3       1.0000 0.44839  0.88240  0.09876  Biso   1.000  O 
  O4       1.0000 0.46436  0.67679  0.33513  Biso   1.000  O 
  O5       1.0000 0.27031  0.25556  0.29840  Biso   1.000  O 
  O6       1.0000 0.27387  0.25370  0.04545  Biso   1.000  O 
  O7       1.0000 0.21899  0.75647  0.29948  Biso   1.000  O 
  O8       1.0000 0.21976  0.74978  0.04683  Biso   1.000  O 
  O9       1.0000 0.52030  0.30507  0.18610  Biso   1.000  O 
  O10      1.0000 0.52943  0.18032  0.42204  Biso   1.000  O 
  O11      1.0000 0.96632  0.83192  0.16879  Biso   1.000  O 
  O12      1.0000 0.96441  0.67751  0.41917  Biso   1.000  O 
  O13      1.0000 0.77287  0.25609  0.45499  Biso   1.000  O 
  O14      1.0000 0.77501  0.26381  0.20705  Biso   1.000  O 
  O15      1.0000 0.72143  0.75555  0.45792  Biso   1.000  O 
  O16      1.0000 0.72659  0.77030  0.21173  Biso   1.000  O 
  Hf9      1.0000 0.13558  0.04978  0.67267  Biso   1.000  Hf
  Hf10     1.0000 0.13102  0.47193  0.92239  Biso   1.000  Hf
  Hf11     1.0000 0.35687  0.55022  0.67349  Biso   1.000  Hf
  Hf12     1.0000 0.35220  0.97436  0.92272  Biso   1.000  Hf
  Hf13     1.0000 0.63567  0.04693  0.57823  Biso   1.000  Hf
  Hf14     1.0000 0.63618  0.45778  0.82045  Biso   1.000  Hf
  Hf15     1.0000 0.85907  0.55039  0.57922  Biso   1.000  Hf
  Hf16     1.0000 0.85877  0.96884  0.82814  Biso   1.000  Hf
  O17      1.0000 0.02896  0.33516  0.58358  Biso   1.000  O 
  O18      1.0000 0.02929  0.18127  0.83215  Biso   1.000  O 
  O19      1.0000 0.46427  0.83476  0.58404  Biso   1.000  O 
  O20      1.0000 0.46188  0.67578  0.83309  Biso   1.000  O 
  O21      1.0000 0.27125  0.25835  0.79618  Biso   1.000  O 
  O22      1.0000 0.27231  0.25783  0.54684  Biso   1.000  O 
  O23      1.0000 0.21917  0.75788  0.79660  Biso   1.000  O 
  O24      1.0000 0.22130  0.75836  0.54724  Biso   1.000  O 
  O25      1.0000 0.52798  0.33544  0.66587  Biso   1.000  O 
  O26      1.0000 0.53014  0.15601  0.90843  Biso   1.000  O 
  O27      1.0000 0.96486  0.83679  0.66702  Biso   1.000  O 
  O28      1.0000 0.96159  0.68447  0.91777  Biso   1.000  O 
  O29      1.0000 0.77774  0.25864  0.94970  Biso   1.000  O 
  O30      1.0000 0.77331  0.25394  0.70098  Biso   1.000  O 
  O31      1.0000 0.72181  0.77014  0.95489  Biso   1.000  O 
  O32      1.0000 0.72177  0.75531  0.70546  Biso   1.000  O 
  Pd1      1.0000 0.57126  0.56334  0.04753  Biso   1.000  Pd
