data_image0
_cell_length_a       10.1741
_cell_length_b       5.16986
_cell_length_c       10.5151
_cell_angle_alpha    90
_cell_angle_beta     80
_cell_angle_gamma    90

_symmetry_space_group_name_H-M    "P 1"
_symmetry_int_tables_number       1

loop_
  _symmetry_equiv_pos_as_xyz
  'x, y, z'

loop_
  _atom_site_label
  _atom_site_occupancy
  _atom_site_fract_x
  _atom_site_fract_y
  _atom_site_fract_z
  _atom_site_thermal_displace_type
  _atom_site_B_iso_or_equiv
  _atom_site_type_symbol
  Hf1      1.0000 0.13407  0.04673  0.14520  Biso   1.000  Hf
  Hf2      1.0000 0.13805  0.45067  0.39633  Biso   1.000  Hf
  Hf3      1.0000 0.35512  0.55610  0.09726  Biso   1.000  Hf
  Hf4      1.0000 0.35836  0.93120  0.35495  Biso   1.000  Hf
  O1       1.0000 0.03213  0.34134  0.07764  Biso   1.000  O 
  O2       1.0000 0.03150  0.16311  0.32828  Biso   1.000  O 
  O3       1.0000 0.45790  0.85985  0.16434  Biso   1.000  O 
  O4       1.0000 0.47928  0.69020  0.43980  Biso   1.000  O 
  O5       1.0000 0.26963  0.25945  0.23707  Biso   1.000  O 
  O6       1.0000 0.26823  0.20964  0.49419  Biso   1.000  O 
  O7       1.0000 0.21889  0.76916  0.00636  Biso   1.000  O 
  O8       1.0000 0.21188  0.75050  0.25685  Biso   1.000  O 
  Hf5      1.0000 0.13708  0.02755  0.64695  Biso   1.000  Hf
  Hf6      1.0000 0.13581  0.44327  0.89512  Biso   1.000  Hf
  Hf7      1.0000 0.36111  0.53008  0.60852  Biso   1.000  Hf
  Hf8      1.0000 0.35932  0.94691  0.85430  Biso   1.000  Hf
  O9       1.0000 0.03394  0.32342  0.58002  Biso   1.000  O 
  O10      1.0000 0.03366  0.15079  0.82899  Biso   1.000  O 
  O11      1.0000 0.46535  0.81687  0.67703  Biso   1.000  O 
  O12      1.0000 0.46470  0.65488  0.92030  Biso   1.000  O 
  O13      1.0000 0.27509  0.24330  0.74083  Biso   1.000  O 
  O14      1.0000 0.27451  0.23410  0.98855  Biso   1.000  O 
  O15      1.0000 0.22435  0.73329  0.51240  Biso   1.000  O 
  O16      1.0000 0.22327  0.72843  0.75969  Biso   1.000  O 
  Hf9      1.0000 0.63769  0.04296  0.14630  Biso   1.000  Hf
  Hf10     1.0000 0.65086  0.44817  0.40182  Biso   1.000  Hf
  Hf11     1.0000 0.85829  0.54336  0.10475  Biso   1.000  Hf
  Hf12     1.0000 0.86173  0.94833  0.35418  Biso   1.000  Hf
  O17      1.0000 0.53200  0.34207  0.07847  Biso   1.000  O 
  O18      1.0000 0.55310  0.11290  0.33861  Biso   1.000  O 
  O19      1.0000 0.96196  0.83758  0.16946  Biso   1.000  O 
  O20      1.0000 0.96452  0.65754  0.42260  Biso   1.000  O 
  O21      1.0000 0.77882  0.25576  0.24038  Biso   1.000  O 
  O22      1.0000 0.77943  0.22768  0.49370  Biso   1.000  O 
  O23      1.0000 0.72101  0.76181  0.01199  Biso   1.000  O 
  O24      1.0000 0.72556  0.73361  0.26072  Biso   1.000  O 
  Hf13     1.0000 0.63811  0.02978  0.64790  Biso   1.000  Hf
  Hf14     1.0000 0.63764  0.44346  0.89702  Biso   1.000  Hf
  Hf15     1.0000 0.86274  0.53044  0.60722  Biso   1.000  Hf
  Hf16     1.0000 0.85935  0.94315  0.85572  Biso   1.000  Hf
  O25      1.0000 0.53461  0.31838  0.57886  Biso   1.000  O 
  O26      1.0000 0.53341  0.15523  0.82883  Biso   1.000  O 
  O27      1.0000 0.96345  0.82348  0.67257  Biso   1.000  O 
  O28      1.0000 0.96274  0.64986  0.92016  Biso   1.000  O 
  O29      1.0000 0.77469  0.24488  0.74201  Biso   1.000  O 
  O30      1.0000 0.77468  0.22765  0.99095  Biso   1.000  O 
  O31      1.0000 0.72656  0.74417  0.51349  Biso   1.000  O 
  O32      1.0000 0.72316  0.72972  0.76237  Biso   1.000  O 
  Pd1      1.0000 0.42530  0.42825  0.31561  Biso   1.000  Pd
