data_image0
_cell_length_a       10.016
_cell_length_b       10.2168
_cell_length_c       10.016
_cell_angle_alpha    90
_cell_angle_beta     90
_cell_angle_gamma    90

_symmetry_space_group_name_H-M    "P 1"
_symmetry_int_tables_number       1

loop_
  _symmetry_equiv_pos_as_xyz
  'x, y, z'

loop_
  _atom_site_label
  _atom_site_occupancy
  _atom_site_fract_x
  _atom_site_fract_y
  _atom_site_fract_z
  _atom_site_thermal_displace_type
  _atom_site_B_iso_or_equiv
  _atom_site_type_symbol
  Pd1      1.0000 0.12704  0.96358  0.12512  Biso   1.000  Pd
  Hf1      1.0000 0.13466  0.99248  0.62506  Biso   1.000  Hf
  Hf2      1.0000 0.12704  0.50763  0.12515  Biso   1.000  Hf
  Hf3      1.0000 0.13463  0.49928  0.62510  Biso   1.000  Hf
  Hf4      1.0000 0.62705  0.99249  0.12514  Biso   1.000  Hf
  Hf5      1.0000 0.63460  0.00516  0.62506  Biso   1.000  Hf
  Hf6      1.0000 0.62704  0.49926  0.12513  Biso   1.000  Hf
  Hf7      1.0000 0.63463  0.49500  0.62507  Biso   1.000  Hf
  Hf8      1.0000 0.13450  0.25235  0.37121  Biso   1.000  Hf
  Hf9      1.0000 0.13478  0.25234  0.87902  Biso   1.000  Hf
  Hf10     1.0000 0.13476  0.74950  0.38088  Biso   1.000  Hf
  Hf11     1.0000 0.13452  0.74952  0.86929  Biso   1.000  Hf
  Hf12     1.0000 0.63479  0.24846  0.37194  Biso   1.000  Hf
  Hf13     1.0000 0.63445  0.24846  0.87823  Biso   1.000  Hf
  Hf14     1.0000 0.63304  0.74990  0.37912  Biso   1.000  Hf
  Hf15     1.0000 0.63625  0.74991  0.87104  Biso   1.000  Hf
  Hf16     1.0000 0.37316  0.25233  0.12889  Biso   1.000  Hf
  Hf17     1.0000 0.38152  0.24845  0.62911  Biso   1.000  Hf
  Hf18     1.0000 0.38288  0.74950  0.12898  Biso   1.000  Hf
  Hf19     1.0000 0.38868  0.74990  0.62723  Biso   1.000  Hf
  Hf20     1.0000 0.88092  0.25233  0.12144  Biso   1.000  Hf
  Hf21     1.0000 0.88774  0.24846  0.62106  Biso   1.000  Hf
  Hf22     1.0000 0.87121  0.74949  0.12130  Biso   1.000  Hf
  Hf23     1.0000 0.88059  0.74990  0.62295  Biso   1.000  Hf
  Hf24     1.0000 0.38707  0.00734  0.38129  Biso   1.000  Hf
  Hf25     1.0000 0.38083  0.00382  0.88273  Biso   1.000  Hf
  Hf26     1.0000 0.38216  0.49719  0.37642  Biso   1.000  Hf
  Hf27     1.0000 0.38921  0.49740  0.87426  Biso   1.000  Hf
  Hf28     1.0000 0.88837  0.00382  0.36740  Biso   1.000  Hf
  Hf29     1.0000 0.88211  0.00736  0.86883  Biso   1.000  Hf
  Hf30     1.0000 0.88006  0.49740  0.37590  Biso   1.000  Hf
  Hf31     1.0000 0.88710  0.49714  0.87374  Biso   1.000  Hf
  O1       1.0000 0.98631  0.16033  0.97147  Biso   1.000  O 
  O2       1.0000 0.00482  0.14801  0.48377  Biso   1.000  O 
  O3       1.0000 0.00423  0.65296  0.00420  Biso   1.000  O 
  O4       1.0000 0.00863  0.64716  0.50377  Biso   1.000  O 
  O5       1.0000 0.49895  0.14803  0.99737  Biso   1.000  O 
  O6       1.0000 0.51090  0.15023  0.50323  Biso   1.000  O 
  O7       1.0000 0.50382  0.64715  0.00100  Biso   1.000  O 
  O8       1.0000 0.50731  0.64594  0.49967  Biso   1.000  O 
  O9       1.0000 0.02197  0.09405  0.23169  Biso   1.000  O 
  O10      1.0000 0.00573  0.10065  0.73237  Biso   1.000  O 
  O11      1.0000 0.00089  0.60165  0.25334  Biso   1.000  O 
  O12      1.0000 0.01350  0.60169  0.75446  Biso   1.000  O 
  O13      1.0000 0.52162  0.10067  0.25557  Biso   1.000  O 
  O14      1.0000 0.50898  0.10064  0.75259  Biso   1.000  O 
  O15      1.0000 0.49960  0.60171  0.24827  Biso   1.000  O 
  O16      1.0000 0.51217  0.60217  0.74946  Biso   1.000  O 
  O17      1.0000 0.00402  0.34957  0.25006  Biso   1.000  O 
  O18      1.0000 0.01205  0.35149  0.74860  Biso   1.000  O 
  O19      1.0000 0.01494  0.84633  0.23895  Biso   1.000  O 
  O20      1.0000 0.00663  0.85046  0.74614  Biso   1.000  O 
  O21      1.0000 0.50541  0.35151  0.24957  Biso   1.000  O 
  O22      1.0000 0.51188  0.35129  0.74969  Biso   1.000  O 
  O23      1.0000 0.50793  0.85047  0.25498  Biso   1.000  O 
  O24      1.0000 0.50389  0.85251  0.75783  Biso   1.000  O 
  O25      1.0000 0.00153  0.40370  0.00154  Biso   1.000  O 
  O26      1.0000 0.00708  0.39808  0.50076  Biso   1.000  O 
  O27      1.0000 0.00706  0.90884  0.99184  Biso   1.000  O 
  O28      1.0000 0.01448  0.89728  0.49164  Biso   1.000  O 
  O29      1.0000 0.51599  0.39809  0.99937  Biso   1.000  O 
  O30      1.0000 0.50752  0.39716  0.49987  Biso   1.000  O 
  O31      1.0000 0.49181  0.89727  0.00702  Biso   1.000  O 
  O32      1.0000 0.51300  0.89662  0.50528  Biso   1.000  O 
  O33      1.0000 0.28285  0.16030  0.27864  Biso   1.000  O 
  O34      1.0000 0.26437  0.14801  0.76633  Biso   1.000  O 
  O35      1.0000 0.24994  0.65295  0.24618  Biso   1.000  O 
  O36      1.0000 0.26069  0.64716  0.74646  Biso   1.000  O 
  O37      1.0000 0.77020  0.14800  0.25271  Biso   1.000  O 
  O38      1.0000 0.75828  0.15024  0.74686  Biso   1.000  O 
  O39      1.0000 0.75033  0.64715  0.24933  Biso   1.000  O 
  O40      1.0000 0.76200  0.64594  0.75052  Biso   1.000  O 
  O41      1.0000 0.23197  0.09405  0.01850  Biso   1.000  O 
  O42      1.0000 0.26343  0.10067  0.51774  Biso   1.000  O 
  O43      1.0000 0.26850  0.60166  0.99692  Biso   1.000  O 
  O44      1.0000 0.25581  0.60170  0.49578  Biso   1.000  O 
  O45      1.0000 0.74753  0.10064  0.99450  Biso   1.000  O 
  O46      1.0000 0.76020  0.10064  0.49750  Biso   1.000  O 
  O47      1.0000 0.75456  0.60167  0.00206  Biso   1.000  O 
  O48      1.0000 0.75713  0.60216  0.50073  Biso   1.000  O 
  O49      1.0000 0.25005  0.34956  0.00026  Biso   1.000  O 
  O50      1.0000 0.25720  0.35151  0.50159  Biso   1.000  O 
  O51      1.0000 0.23916  0.84632  0.01131  Biso   1.000  O 
  O52      1.0000 0.26266  0.85046  0.50400  Biso   1.000  O 
  O53      1.0000 0.74866  0.35147  0.00069  Biso   1.000  O 
  O54      1.0000 0.75737  0.35128  0.50044  Biso   1.000  O 
  O55      1.0000 0.76137  0.85046  0.99518  Biso   1.000  O 
  O56      1.0000 0.76538  0.85251  0.49234  Biso   1.000  O 
  O57      1.0000 0.25255  0.40371  0.24877  Biso   1.000  O 
  O58      1.0000 0.26218  0.39808  0.74945  Biso   1.000  O 
  O59      1.0000 0.26224  0.90883  0.25829  Biso   1.000  O 
  O60      1.0000 0.25481  0.89728  0.75849  Biso   1.000  O 
  O61      1.0000 0.75332  0.39807  0.25078  Biso   1.000  O 
  O62      1.0000 0.76175  0.39716  0.75027  Biso   1.000  O 
  O63      1.0000 0.76228  0.89727  0.24326  Biso   1.000  O 
  O64      1.0000 0.75628  0.89662  0.74488  Biso   1.000  O 
