data_image0
_cell_length_a       5.08828
_cell_length_b       10.3275
_cell_length_c       10.511
_cell_angle_alpha    90
_cell_angle_beta     80
_cell_angle_gamma    90

_symmetry_space_group_name_H-M    "P 1"
_symmetry_int_tables_number       1

loop_
  _symmetry_equiv_pos_as_xyz
  'x, y, z'

loop_
  _atom_site_label
  _atom_site_occupancy
  _atom_site_fract_x
  _atom_site_fract_y
  _atom_site_fract_z
  _atom_site_thermal_displace_type
  _atom_site_B_iso_or_equiv
  _atom_site_type_symbol
  Hf1      1.0000 0.27169  0.02022  0.14791  Biso   1.000  Hf
  Hf2      1.0000 0.30422  0.22809  0.40245  Biso   1.000  Hf
  Hf3      1.0000 0.70914  0.27748  0.09736  Biso   1.000  Hf
  Hf4      1.0000 0.72040  0.47649  0.34883  Biso   1.000  Hf
  O1       1.0000 0.05976  0.16695  0.07809  Biso   1.000  O 
  O2       1.0000 0.10316  0.05394  0.34383  Biso   1.000  O 
  O3       1.0000 0.91658  0.42969  0.15914  Biso   1.000  O 
  O4       1.0000 0.96640  0.35335  0.43632  Biso   1.000  O 
  O5       1.0000 0.54667  0.12943  0.23763  Biso   1.000  O 
  O6       1.0000 0.55109  0.10625  0.49849  Biso   1.000  O 
  O7       1.0000 0.43631  0.38309  0.00605  Biso   1.000  O 
  O8       1.0000 0.42719  0.37626  0.25542  Biso   1.000  O 
  Hf5      1.0000 0.27466  0.01372  0.64754  Biso   1.000  Hf
  Hf6      1.0000 0.27546  0.22088  0.89513  Biso   1.000  Hf
  Hf7      1.0000 0.72977  0.26718  0.60850  Biso   1.000  Hf
  Hf8      1.0000 0.72096  0.47307  0.85472  Biso   1.000  Hf
  O9       1.0000 0.07451  0.16391  0.57991  Biso   1.000  O 
  O10      1.0000 0.06731  0.07554  0.82826  Biso   1.000  O 
  O11      1.0000 0.93407  0.41036  0.67722  Biso   1.000  O 
  O12      1.0000 0.92824  0.32475  0.91820  Biso   1.000  O 
  O13      1.0000 0.55130  0.12301  0.74223  Biso   1.000  O 
  O14      1.0000 0.54850  0.11507  0.98959  Biso   1.000  O 
  O15      1.0000 0.46194  0.37162  0.51243  Biso   1.000  O 
  O16      1.0000 0.44991  0.36462  0.75980  Biso   1.000  O 
  Hf9      1.0000 0.27025  0.52428  0.14434  Biso   1.000  Hf
  Hf10     1.0000 0.27520  0.72172  0.39668  Biso   1.000  Hf
  Hf11     1.0000 0.71465  0.77189  0.10461  Biso   1.000  Hf
  Hf12     1.0000 0.72014  0.96424  0.36005  Biso   1.000  Hf
  O17      1.0000 0.06585  0.67480  0.07910  Biso   1.000  O 
  O18      1.0000 0.06143  0.58427  0.32405  Biso   1.000  O 
  O19      1.0000 0.92124  0.91902  0.17345  Biso   1.000  O 
  O20      1.0000 0.92054  0.81956  0.42331  Biso   1.000  O 
  O21      1.0000 0.54841  0.62836  0.24087  Biso   1.000  O 
  O22      1.0000 0.54490  0.61285  0.49060  Biso   1.000  O 
  O23      1.0000 0.44024  0.88223  0.01201  Biso   1.000  O 
  O24      1.0000 0.44619  0.86589  0.26108  Biso   1.000  O 
  Hf13     1.0000 0.27713  0.51516  0.64703  Biso   1.000  Hf
  Hf14     1.0000 0.27245  0.72293  0.89697  Biso   1.000  Hf
  Hf15     1.0000 0.71905  0.76282  0.60625  Biso   1.000  Hf
  Hf16     1.0000 0.71711  0.97230  0.85477  Biso   1.000  Hf
  O25      1.0000 0.06490  0.65852  0.57966  Biso   1.000  O 
  O26      1.0000 0.06877  0.57698  0.82978  Biso   1.000  O 
  O27      1.0000 0.92349  0.91076  0.67085  Biso   1.000  O 
  O28      1.0000 0.92654  0.82691  0.92120  Biso   1.000  O 
  O29      1.0000 0.54988  0.62156  0.74098  Biso   1.000  O 
  O30      1.0000 0.55106  0.61592  0.99028  Biso   1.000  O 
  O31      1.0000 0.44170  0.86817  0.51265  Biso   1.000  O 
  O32      1.0000 0.44348  0.86473  0.76144  Biso   1.000  O 
  Pd1      1.0000 0.85791  0.21716  0.31530  Biso   1.000  Pd
