data_image0
_cell_length_a       5.03641
_cell_length_b       10.2188
_cell_length_c       10.043
_cell_angle_alpha    90
_cell_angle_beta     90
_cell_angle_gamma    90

_symmetry_space_group_name_H-M    "P 1"
_symmetry_int_tables_number       1

loop_
  _symmetry_equiv_pos_as_xyz
  'x, y, z'

loop_
  _atom_site_label
  _atom_site_occupancy
  _atom_site_fract_x
  _atom_site_fract_y
  _atom_site_fract_z
  _atom_site_thermal_displace_type
  _atom_site_B_iso_or_equiv
  _atom_site_type_symbol
  Pd1      1.0000 0.31653  0.96048  0.11402  Biso   1.000  Pd
  Hf1      1.0000 0.30954  0.00638  0.60539  Biso   1.000  Hf
  Hf2      1.0000 0.29862  0.49899  0.12247  Biso   1.000  Hf
  Hf3      1.0000 0.31652  0.48618  0.62685  Biso   1.000  Hf
  Hf4      1.0000 0.33080  0.25662  0.36876  Biso   1.000  Hf
  Hf5      1.0000 0.34853  0.25156  0.88263  Biso   1.000  Hf
  Hf6      1.0000 0.31605  0.73910  0.39391  Biso   1.000  Hf
  Hf7      1.0000 0.35364  0.75354  0.86578  Biso   1.000  Hf
  Hf8      1.0000 0.80608  0.26002  0.12446  Biso   1.000  Hf
  Hf9      1.0000 0.82167  0.24395  0.61959  Biso   1.000  Hf
  Hf10     1.0000 0.80415  0.75769  0.12256  Biso   1.000  Hf
  Hf11     1.0000 0.81609  0.76196  0.62325  Biso   1.000  Hf
  Hf12     1.0000 0.81924  0.00949  0.35670  Biso   1.000  Hf
  Hf13     1.0000 0.80536  0.00430  0.86672  Biso   1.000  Hf
  Hf14     1.0000 0.81315  0.50729  0.38288  Biso   1.000  Hf
  Hf15     1.0000 0.85279  0.49059  0.86996  Biso   1.000  Hf
  O1       1.0000 0.01695  0.16334  0.95724  Biso   1.000  O 
  O2       1.0000 0.07101  0.14661  0.47606  Biso   1.000  O 
  O3       1.0000 0.11853  0.66316  0.03564  Biso   1.000  O 
  O4       1.0000 0.07601  0.64128  0.52768  Biso   1.000  O 
  O5       1.0000 0.07739  0.09670  0.22028  Biso   1.000  O 
  O6       1.0000 0.01636  0.08710  0.71489  Biso   1.000  O 
  O7       1.0000 0.13183  0.58842  0.28477  Biso   1.000  O 
  O8       1.0000 0.16143  0.58772  0.78352  Biso   1.000  O 
  O9       1.0000 0.08054  0.34889  0.24191  Biso   1.000  O 
  O10      1.0000 0.08601  0.34205  0.74656  Biso   1.000  O 
  O11      1.0000 0.11827  0.84601  0.24582  Biso   1.000  O 
  O12      1.0000 0.06453  0.84083  0.76029  Biso   1.000  O 
  O13      1.0000 0.13680  0.40567  0.99849  Biso   1.000  O 
  O14      1.0000 0.06138  0.39281  0.50169  Biso   1.000  O 
  O15      1.0000 0.12471  0.91056  0.99455  Biso   1.000  O 
  O16      1.0000 0.08928  0.89164  0.49874  Biso   1.000  O 
  O17      1.0000 0.60682  0.16540  0.26329  Biso   1.000  O 
  O18      1.0000 0.54101  0.14759  0.74157  Biso   1.000  O 
  O19      1.0000 0.63787  0.67349  0.28362  Biso   1.000  O 
  O20      1.0000 0.65411  0.65019  0.77334  Biso   1.000  O 
  O21      1.0000 0.52463  0.09045  0.99161  Biso   1.000  O 
  O22      1.0000 0.57710  0.10726  0.49739  Biso   1.000  O 
  O23      1.0000 0.61712  0.59190  0.03240  Biso   1.000  O 
  O24      1.0000 0.57062  0.60692  0.51904  Biso   1.000  O 
  O25      1.0000 0.51635  0.34760  0.00209  Biso   1.000  O 
  O26      1.0000 0.56377  0.35815  0.49872  Biso   1.000  O 
  O27      1.0000 0.63547  0.84331  0.99265  Biso   1.000  O 
  O28      1.0000 0.58725  0.86050  0.48939  Biso   1.000  O 
  O29      1.0000 0.58027  0.41283  0.24885  Biso   1.000  O 
  O30      1.0000 0.59180  0.39378  0.74935  Biso   1.000  O 
  O31      1.0000 0.63603  0.92478  0.22304  Biso   1.000  O 
  O32      1.0000 0.57239  0.89791  0.74335  Biso   1.000  O 
