data_image0
_cell_length_a       10.021
_cell_length_b       10.2247
_cell_length_c       10.021
_cell_angle_alpha    90
_cell_angle_beta     90
_cell_angle_gamma    90

_symmetry_space_group_name_H-M    "P 1"
_symmetry_int_tables_number       1

loop_
  _symmetry_equiv_pos_as_xyz
  'x, y, z'

loop_
  _atom_site_label
  _atom_site_occupancy
  _atom_site_fract_x
  _atom_site_fract_y
  _atom_site_fract_z
  _atom_site_thermal_displace_type
  _atom_site_B_iso_or_equiv
  _atom_site_type_symbol
  Pt1      1.0000 0.12302  0.03712  0.12486  Biso   1.000  Pt
  Hf1      1.0000 0.11564  0.25092  0.38164  Biso   1.000  Hf
  Hf2      1.0000 0.37989  0.25089  0.12132  Biso   1.000  Hf
  Hf3      1.0000 0.36235  0.99588  0.36773  Biso   1.000  Hf
  O1       1.0000 0.01059  0.15466  0.01074  Biso   1.000  O 
  O2       1.0000 0.98680  0.08865  0.25898  Biso   1.000  O 
  O3       1.0000 0.00087  0.34539  0.24528  Biso   1.000  O 
  O4       1.0000 0.98151  0.39895  0.99626  Biso   1.000  O 
  O5       1.0000 0.23543  0.15469  0.23896  Biso   1.000  O 
  O6       1.0000 0.24419  0.08872  0.99055  Biso   1.000  O 
  O7       1.0000 0.24527  0.34537  0.00451  Biso   1.000  O 
  O8       1.0000 0.24969  0.39889  0.25342  Biso   1.000  O 
  Hf4      1.0000 0.11557  0.00753  0.62478  Biso   1.000  Hf
  Hf5      1.0000 0.11561  0.25088  0.86806  Biso   1.000  Hf
  Hf6      1.0000 0.36986  0.24994  0.62277  Biso   1.000  Hf
  Hf7      1.0000 0.36873  0.99189  0.86802  Biso   1.000  Hf
  O9       1.0000 0.98795  0.14987  0.50454  Biso   1.000  O 
  O10      1.0000 0.99547  0.10247  0.75853  Biso   1.000  O 
  O11      1.0000 0.98954  0.35289  0.74557  Biso   1.000  O 
  O12      1.0000 0.99484  0.39859  0.49493  Biso   1.000  O 
  O13      1.0000 0.24326  0.14985  0.74508  Biso   1.000  O 
  O14      1.0000 0.23573  0.10248  0.49108  Biso   1.000  O 
  O15      1.0000 0.24174  0.35288  0.50411  Biso   1.000  O 
  O16      1.0000 0.23643  0.39858  0.75474  Biso   1.000  O 
  Hf8      1.0000 0.12307  0.49158  0.12488  Biso   1.000  Hf
  Hf9      1.0000 0.11601  0.74737  0.37094  Biso   1.000  Hf
  Hf10     1.0000 0.36922  0.74734  0.12148  Biso   1.000  Hf
  Hf11     1.0000 0.37027  0.50269  0.37581  Biso   1.000  Hf
  O17      1.0000 0.00009  0.65037  0.00003  Biso   1.000  O 
  O18      1.0000 0.99768  0.59534  0.24850  Biso   1.000  O 
  O19      1.0000 0.96696  0.83831  0.27874  Biso   1.000  O 
  O20      1.0000 0.01753  0.90638  0.01772  Biso   1.000  O 
  O21      1.0000 0.24616  0.65041  0.24981  Biso   1.000  O 
  O22      1.0000 0.24857  0.59532  0.00134  Biso   1.000  O 
  O23      1.0000 0.26432  0.83837  0.97094  Biso   1.000  O 
  O24      1.0000 0.22869  0.90639  0.23204  Biso   1.000  O 
  Hf12     1.0000 0.11560  0.50090  0.62487  Biso   1.000  Hf
  Hf13     1.0000 0.11523  0.74745  0.87876  Biso   1.000  Hf
  Hf14     1.0000 0.36230  0.75133  0.62084  Biso   1.000  Hf
  Hf15     1.0000 0.36317  0.50287  0.87354  Biso   1.000  Hf
  O25      1.0000 0.99324  0.64848  0.50151  Biso   1.000  O 
  O26      1.0000 0.98793  0.60182  0.74919  Biso   1.000  O 
  O27      1.0000 0.98590  0.85170  0.76585  Biso   1.000  O 
  O28      1.0000 0.98646  0.89941  0.51773  Biso   1.000  O 
  O29      1.0000 0.23796  0.64849  0.74820  Biso   1.000  O 
  O30      1.0000 0.24328  0.60179  0.50052  Biso   1.000  O 
  O31      1.0000 0.24529  0.85170  0.48385  Biso   1.000  O 
  O32      1.0000 0.24475  0.89939  0.73196  Biso   1.000  O 
  Hf16     1.0000 0.62297  0.00748  0.12491  Biso   1.000  Hf
  Hf17     1.0000 0.61719  0.24992  0.37912  Biso   1.000  Hf
  Hf18     1.0000 0.86625  0.25081  0.12857  Biso   1.000  Hf
  Hf19     1.0000 0.86250  0.99185  0.38160  Biso   1.000  Hf
  O33      1.0000 0.48971  0.14991  0.99538  Biso   1.000  O 
  O34      1.0000 0.48750  0.10245  0.24304  Biso   1.000  O 
  O35      1.0000 0.50046  0.35285  0.24922  Biso   1.000  O 
  O36      1.0000 0.49499  0.39854  0.00221  Biso   1.000  O 
  O37      1.0000 0.74137  0.14980  0.25437  Biso   1.000  O 
  O38      1.0000 0.75852  0.10240  0.00681  Biso   1.000  O 
  O39      1.0000 0.74567  0.35282  0.00066  Biso   1.000  O 
  O40      1.0000 0.75115  0.39853  0.24766  Biso   1.000  O 
  Hf20     1.0000 0.61558  0.99444  0.62477  Biso   1.000  Hf
  Hf21     1.0000 0.61403  0.24991  0.87066  Biso   1.000  Hf
  Hf22     1.0000 0.86140  0.24989  0.62697  Biso   1.000  Hf
  Hf23     1.0000 0.86886  0.99595  0.88186  Biso   1.000  Hf
  O41      1.0000 0.48496  0.14730  0.49225  Biso   1.000  O 
  O42      1.0000 0.49407  0.10316  0.74464  Biso   1.000  O 
  O43      1.0000 0.48808  0.35378  0.75053  Biso   1.000  O 
  O44      1.0000 0.49321  0.39776  0.50060  Biso   1.000  O 
  O45      1.0000 0.74634  0.14735  0.75758  Biso   1.000  O 
  O46      1.0000 0.73717  0.10314  0.50514  Biso   1.000  O 
  O47      1.0000 0.74317  0.35376  0.49922  Biso   1.000  O 
  O48      1.0000 0.73804  0.39777  0.74913  Biso   1.000  O 
  Hf24     1.0000 0.62311  0.50085  0.12489  Biso   1.000  Hf
  Hf25     1.0000 0.61543  0.75131  0.37148  Biso   1.000  Hf
  Hf26     1.0000 0.87701  0.74738  0.12830  Biso   1.000  Hf
  Hf27     1.0000 0.86806  0.50283  0.37615  Biso   1.000  Hf
  O49      1.0000 0.50162  0.64844  0.00068  Biso   1.000  O 
  O50      1.0000 0.49687  0.60176  0.25068  Biso   1.000  O 
  O51      1.0000 0.48021  0.85168  0.25241  Biso   1.000  O 
  O52      1.0000 0.50300  0.89945  0.99401  Biso   1.000  O 
  O53      1.0000 0.74461  0.64844  0.24907  Biso   1.000  O 
  O54      1.0000 0.73438  0.60185  0.99897  Biso   1.000  O 
  O55      1.0000 0.75110  0.85173  0.99717  Biso   1.000  O 
  O56      1.0000 0.72830  0.89935  0.25559  Biso   1.000  O 
  Hf28     1.0000 0.61563  0.50507  0.62486  Biso   1.000  Hf
  Hf29     1.0000 0.61584  0.75139  0.87815  Biso   1.000  Hf
  Hf30     1.0000 0.86891  0.75137  0.62884  Biso   1.000  Hf
  Hf31     1.0000 0.86095  0.50271  0.87388  Biso   1.000  Hf
  O57      1.0000 0.49299  0.64871  0.50036  Biso   1.000  O 
  O58      1.0000 0.48838  0.60249  0.75013  Biso   1.000  O 
  O59      1.0000 0.49226  0.84924  0.74632  Biso   1.000  O 
  O60      1.0000 0.49002  0.89917  0.49732  Biso   1.000  O 
  O61      1.0000 0.73819  0.64873  0.74926  Biso   1.000  O 
  O62      1.0000 0.74279  0.60247  0.49949  Biso   1.000  O 
  O63      1.0000 0.73895  0.84922  0.50329  Biso   1.000  O 
  O64      1.0000 0.74119  0.89922  0.75228  Biso   1.000  O 
