data_image0
_cell_length_a       5.0173
_cell_length_b       10.4255
_cell_length_c       10.1767
_cell_angle_alpha    90
_cell_angle_beta     90
_cell_angle_gamma    90

_symmetry_space_group_name_H-M    "P 1"
_symmetry_int_tables_number       1

loop_
  _symmetry_equiv_pos_as_xyz
  'x, y, z'

loop_
  _atom_site_label
  _atom_site_occupancy
  _atom_site_fract_x
  _atom_site_fract_y
  _atom_site_fract_z
  _atom_site_thermal_displace_type
  _atom_site_B_iso_or_equiv
  _atom_site_type_symbol
  Hf1      1.0000 0.25136  0.01246  0.11970  Biso   1.000  Hf
  Hf2      1.0000 0.23064  0.23558  0.39435  Biso   1.000  Hf
  Hf3      1.0000 0.64265  0.26394  0.15032  Biso   1.000  Hf
  Hf4      1.0000 0.70475  0.48971  0.38497  Biso   1.000  Hf
  O1       1.0000 0.01159  0.18414  0.22360  Biso   1.000  O 
  O2       1.0000 0.04510  0.06482  0.44917  Biso   1.000  O 
  O3       1.0000 0.88764  0.44374  0.21008  Biso   1.000  O 
  O4       1.0000 0.89110  0.32025  0.44937  Biso   1.000  O 
  O5       1.0000 0.47883  0.11505  0.25731  Biso   1.000  O 
  O6       1.0000 0.52218  0.13561  0.50185  Biso   1.000  O 
  O7       1.0000 0.42415  0.38563  0.50812  Biso   1.000  O 
  O8       1.0000 0.41318  0.37635  0.26974  Biso   1.000  O 
  Hf5      1.0000 0.24041  0.01482  0.62353  Biso   1.000  Hf
  Hf6      1.0000 0.25590  0.22854  0.85196  Biso   1.000  Hf
  Hf7      1.0000 0.70907  0.27652  0.62741  Biso   1.000  Hf
  Hf8      1.0000 0.68812  0.49941  0.87073  Biso   1.000  Hf
  O9       1.0000 0.06194  0.18800  0.67511  Biso   1.000  O 
  O10      1.0000 0.03841  0.06710  0.92945  Biso   1.000  O 
  O11      1.0000 0.87406  0.45389  0.67088  Biso   1.000  O 
  O12      1.0000 0.93269  0.34199  0.87537  Biso   1.000  O 
  O13      1.0000 0.52582  0.11869  0.74494  Biso   1.000  O 
  O14      1.0000 0.57236  0.12504  0.00155  Biso   1.000  O 
  O15      1.0000 0.51711  0.38885  0.00533  Biso   1.000  O 
  O16      1.0000 0.42890  0.37698  0.74994  Biso   1.000  O 
  Hf9      1.0000 0.24504  0.52250  0.13219  Biso   1.000  Hf
  Hf10     1.0000 0.24120  0.73874  0.37697  Biso   1.000  Hf
  Hf11     1.0000 0.71240  0.76586  0.13057  Biso   1.000  Hf
  Hf12     1.0000 0.70335  0.98724  0.37624  Biso   1.000  Hf
  O17      1.0000 0.05252  0.68713  0.19936  Biso   1.000  O 
  O18      1.0000 0.04729  0.57475  0.44575  Biso   1.000  O 
  O19      1.0000 0.90658  0.93868  0.19443  Biso   1.000  O 
  O20      1.0000 0.89937  0.82125  0.44697  Biso   1.000  O 
  O21      1.0000 0.51829  0.62341  0.25627  Biso   1.000  O 
  O22      1.0000 0.50714  0.63965  0.50398  Biso   1.000  O 
  O23      1.0000 0.43228  0.88728  0.49891  Biso   1.000  O 
  O24      1.0000 0.43819  0.86984  0.24901  Biso   1.000  O 
  Hf13     1.0000 0.23280  0.52458  0.62498  Biso   1.000  Hf
  Hf14     1.0000 0.21235  0.74510  0.87802  Biso   1.000  Hf
  Hf15     1.0000 0.69841  0.77276  0.62797  Biso   1.000  Hf
  Hf16     1.0000 0.68431  0.98694  0.87889  Biso   1.000  Hf
  O25      1.0000 0.02819  0.68991  0.70090  Biso   1.000  O 
  O26      1.0000 0.01161  0.58158  0.95160  Biso   1.000  O 
  O27      1.0000 0.89709  0.93644  0.69856  Biso   1.000  O 
  O28      1.0000 0.87256  0.82480  0.95310  Biso   1.000  O 
  O29      1.0000 0.49340  0.62847  0.75258  Biso   1.000  O 
  O30      1.0000 0.53407  0.63563  0.00420  Biso   1.000  O 
  O31      1.0000 0.45679  0.88128  0.00213  Biso   1.000  O 
  O32      1.0000 0.42447  0.87252  0.75118  Biso   1.000  O 
  Pt1      1.0000 0.09402  0.28929  0.06121  Biso   1.000  Pt
