data_image0
_cell_length_a       10.3104
_cell_length_b       5.32433
_cell_length_c       10.3929
_cell_angle_alpha    90
_cell_angle_beta     90
_cell_angle_gamma    90

_symmetry_space_group_name_H-M    "P 1"
_symmetry_int_tables_number       1

loop_
  _symmetry_equiv_pos_as_xyz
  'x, y, z'

loop_
  _atom_site_label
  _atom_site_occupancy
  _atom_site_fract_x
  _atom_site_fract_y
  _atom_site_fract_z
  _atom_site_thermal_displace_type
  _atom_site_B_iso_or_equiv
  _atom_site_type_symbol
  Hf1      1.0000 0.11164  0.01915  0.16418  Biso   1.000  Hf
  Hf2      1.0000 0.04499  0.51969  0.36297  Biso   1.000  Hf
  Hf3      1.0000 0.34272  0.47326  0.10153  Biso   1.000  Hf
  Hf4      1.0000 0.29185  0.94812  0.39903  Biso   1.000  Hf
  O1       1.0000 0.93955  0.35228  0.93997  Biso   1.000  O 
  O2       1.0000 0.97122  0.19288  0.27287  Biso   1.000  O 
  O3       1.0000 0.89323  0.69767  0.26572  Biso   1.000  O 
  O4       1.0000 0.88029  0.89333  0.03300  Biso   1.000  O 
  O5       1.0000 0.18258  0.39311  0.22316  Biso   1.000  O 
  O6       1.0000 0.25507  0.10988  0.02972  Biso   1.000  O 
  O7       1.0000 0.25529  0.52338  0.94847  Biso   1.000  O 
  O8       1.0000 0.13434  0.85506  0.29161  Biso   1.000  O 
  Hf5      1.0000 0.07476  0.87133  0.64346  Biso   1.000  Hf
  Hf6      1.0000 0.11500  0.37479  0.82838  Biso   1.000  Hf
  Hf7      1.0000 0.33439  0.43632  0.60211  Biso   1.000  Hf
  Hf8      1.0000 0.30595  0.88485  0.89884  Biso   1.000  Hf
  O9       1.0000 0.97069  0.27796  0.49930  Biso   1.000  O 
  O10      1.0000 0.04070  0.03124  0.77558  Biso   1.000  O 
  O11      1.0000 0.99174  0.54030  0.71056  Biso   1.000  O 
  O12      1.0000 0.93240  0.76005  0.50560  Biso   1.000  O 
  O13      1.0000 0.27118  0.18673  0.74736  Biso   1.000  O 
  O14      1.0000 0.24842  0.13249  0.51006  Biso   1.000  O 
  O15      1.0000 0.19207  0.62789  0.49594  Biso   1.000  O 
  O16      1.0000 0.22334  0.68734  0.73669  Biso   1.000  O 
  Hf9      1.0000 0.60575  0.05220  0.15373  Biso   1.000  Hf
  Hf10     1.0000 0.54755  0.53187  0.35681  Biso   1.000  Hf
  Hf11     1.0000 0.79880  0.54638  0.09955  Biso   1.000  Hf
  Hf12     1.0000 0.79002  0.95156  0.40360  Biso   1.000  Hf
  O17      1.0000 0.49632  0.23345  0.99033  Biso   1.000  O 
  O18      1.0000 0.44859  0.21996  0.24611  Biso   1.000  O 
  O19      1.0000 0.40084  0.71145  0.25880  Biso   1.000  O 
  O20      1.0000 0.42069  0.81065  0.02386  Biso   1.000  O 
  O21      1.0000 0.67749  0.38800  0.23214  Biso   1.000  O 
  O22      1.0000 0.72373  0.20686  0.01071  Biso   1.000  O 
  O23      1.0000 0.68620  0.62645  0.97884  Biso   1.000  O 
  O24      1.0000 0.63659  0.86850  0.27273  Biso   1.000  O 
  Hf13     1.0000 0.57279  0.86408  0.64538  Biso   1.000  Hf
  Hf14     1.0000 0.61643  0.36975  0.84790  Biso   1.000  Hf
  Hf15     1.0000 0.82993  0.44476  0.60332  Biso   1.000  Hf
  Hf16     1.0000 0.87821  0.95959  0.89154  Biso   1.000  Hf
  O25      1.0000 0.47373  0.27981  0.48535  Biso   1.000  O 
  O26      1.0000 0.54282  0.02903  0.77221  Biso   1.000  O 
  O27      1.0000 0.49056  0.52490  0.72484  Biso   1.000  O 
  O28      1.0000 0.43336  0.75926  0.50813  Biso   1.000  O 
  O29      1.0000 0.76994  0.19761  0.75378  Biso   1.000  O 
  O30      1.0000 0.74424  0.13111  0.51614  Biso   1.000  O 
  O31      1.0000 0.68710  0.63097  0.49532  Biso   1.000  O 
  O32      1.0000 0.72440  0.69037  0.74252  Biso   1.000  O 
  Pt1      1.0000 0.05075  0.47089  0.07760  Biso   1.000  Pt
