data_image0
_cell_length_a       10.1932
_cell_length_b       10.3249
_cell_length_c       10.0675
_cell_angle_alpha    90
_cell_angle_beta     90
_cell_angle_gamma    90

_symmetry_space_group_name_H-M    "P 1"
_symmetry_int_tables_number       1

loop_
  _symmetry_equiv_pos_as_xyz
  'x, y, z'

loop_
  _atom_site_label
  _atom_site_occupancy
  _atom_site_fract_x
  _atom_site_fract_y
  _atom_site_fract_z
  _atom_site_thermal_displace_type
  _atom_site_B_iso_or_equiv
  _atom_site_type_symbol
  Hf1      1.0000 0.12860  0.94221  0.12824  Biso   1.000  Hf
  Hf2      1.0000 0.08018  0.25343  0.36104  Biso   1.000  Hf
  Hf3      1.0000 0.35022  0.21366  0.12752  Biso   1.000  Hf
  Hf4      1.0000 0.36641  0.96285  0.39541  Biso   1.000  Hf
  O1       1.0000 0.94268  0.14828  0.95826  Biso   1.000  O 
  O2       1.0000 0.92863  0.13645  0.29100  Biso   1.000  O 
  O3       1.0000 0.96318  0.37722  0.23181  Biso   1.000  O 
  O4       1.0000 0.04445  0.36698  0.96650  Biso   1.000  O 
  O5       1.0000 0.19824  0.12324  0.24478  Biso   1.000  O 
  O6       1.0000 0.28059  0.05188  0.01786  Biso   1.000  O 
  O7       1.0000 0.28627  0.25962  0.96864  Biso   1.000  O 
  O8       1.0000 0.21298  0.38010  0.25002  Biso   1.000  O 
  Hf5      1.0000 0.14700  0.96792  0.62780  Biso   1.000  Hf
  Hf6      1.0000 0.12312  0.21132  0.85325  Biso   1.000  Hf
  Hf7      1.0000 0.35562  0.22471  0.60852  Biso   1.000  Hf
  Hf8      1.0000 0.39427  0.95349  0.86159  Biso   1.000  Hf
  O9       1.0000 0.01396  0.12396  0.52016  Biso   1.000  O 
  O10      1.0000 0.03499  0.04674  0.77040  Biso   1.000  O 
  O11      1.0000 0.99354  0.31226  0.73229  Biso   1.000  O 
  O12      1.0000 0.96386  0.37723  0.48744  Biso   1.000  O 
  O13      1.0000 0.27483  0.10103  0.75072  Biso   1.000  O 
  O14      1.0000 0.26687  0.06879  0.50266  Biso   1.000  O 
  O15      1.0000 0.21523  0.32047  0.49993  Biso   1.000  O 
  O16      1.0000 0.24179  0.35384  0.74169  Biso   1.000  O 
  Hf9      1.0000 0.11156  0.50999  0.13528  Biso   1.000  Hf
  Hf10     1.0000 0.10824  0.72846  0.38809  Biso   1.000  Hf
  Hf11     1.0000 0.36468  0.72645  0.12686  Biso   1.000  Hf
  Hf12     1.0000 0.35495  0.48034  0.36610  Biso   1.000  Hf
  O17      1.0000 0.99198  0.65387  0.00725  Biso   1.000  O 
  O18      1.0000 0.99240  0.61209  0.25819  Biso   1.000  O 
  O19      1.0000 0.99176  0.85086  0.25146  Biso   1.000  O 
  O20      1.0000 0.96891  0.84635  0.99513  Biso   1.000  O 
  O21      1.0000 0.24213  0.62916  0.26149  Biso   1.000  O 
  O22      1.0000 0.27195  0.56631  0.02731  Biso   1.000  O 
  O23      1.0000 0.21131  0.80226  0.01761  Biso   1.000  O 
  O24      1.0000 0.25070  0.86469  0.26378  Biso   1.000  O 
  Hf13     1.0000 0.10518  0.45851  0.62801  Biso   1.000  Hf
  Hf14     1.0000 0.08007  0.70633  0.86095  Biso   1.000  Hf
  Hf15     1.0000 0.33867  0.69178  0.64057  Biso   1.000  Hf
  Hf16     1.0000 0.37810  0.42370  0.88581  Biso   1.000  Hf
  O25      1.0000 0.96824  0.62703  0.49991  Biso   1.000  O 
  O26      1.0000 0.96067  0.56351  0.74611  Biso   1.000  O 
  O27      1.0000 0.96224  0.81264  0.74321  Biso   1.000  O 
  O28      1.0000 0.00661  0.87401  0.49424  Biso   1.000  O 
  O29      1.0000 0.20425  0.59597  0.75154  Biso   1.000  O 
  O30      1.0000 0.21535  0.56940  0.49992  Biso   1.000  O 
  O31      1.0000 0.24820  0.82017  0.51399  Biso   1.000  O 
  O32      1.0000 0.21816  0.84599  0.76641  Biso   1.000  O 
  Hf17     1.0000 0.59119  0.98957  0.12663  Biso   1.000  Hf
  Hf18     1.0000 0.58743  0.24210  0.37218  Biso   1.000  Hf
  Hf19     1.0000 0.82882  0.24358  0.14146  Biso   1.000  Hf
  Hf20     1.0000 0.86690  0.96973  0.38844  Biso   1.000  Hf
  O33      1.0000 0.50213  0.14858  0.00458  Biso   1.000  O 
  O34      1.0000 0.46017  0.07310  0.24628  Biso   1.000  O 
  O35      1.0000 0.45156  0.32809  0.25946  Biso   1.000  O 
  O36      1.0000 0.52280  0.33929  0.99051  Biso   1.000  O 
  O37      1.0000 0.68596  0.14741  0.23457  Biso   1.000  O 
  O38      1.0000 0.73828  0.04576  0.99781  Biso   1.000  O 
  O39      1.0000 0.76124  0.37380  0.00533  Biso   1.000  O 
  O40      1.0000 0.71512  0.39101  0.25866  Biso   1.000  O 
  Hf21     1.0000 0.64632  0.97096  0.62058  Biso   1.000  Hf
  Hf22     1.0000 0.62395  0.19707  0.87635  Biso   1.000  Hf
  Hf23     1.0000 0.85769  0.22496  0.60726  Biso   1.000  Hf
  Hf24     1.0000 0.87979  0.96513  0.86920  Biso   1.000  Hf
  O41      1.0000 0.50456  0.11902  0.50708  Biso   1.000  O 
  O42      1.0000 0.53498  0.05110  0.76191  Biso   1.000  O 
  O43      1.0000 0.49774  0.29726  0.74423  Biso   1.000  O 
  O44      1.0000 0.46606  0.37547  0.50426  Biso   1.000  O 
  O45      1.0000 0.77358  0.11012  0.74973  Biso   1.000  O 
  O46      1.0000 0.76269  0.07248  0.49917  Biso   1.000  O 
  O47      1.0000 0.71081  0.31694  0.51058  Biso   1.000  O 
  O48      1.0000 0.74438  0.36020  0.75349  Biso   1.000  O 
  Hf25     1.0000 0.63286  0.51128  0.11109  Biso   1.000  Hf
  Hf26     1.0000 0.59820  0.71717  0.38330  Biso   1.000  Hf
  Hf27     1.0000 0.84869  0.76655  0.11660  Biso   1.000  Hf
  Hf28     1.0000 0.85961  0.50417  0.36249  Biso   1.000  Hf
  O49      1.0000 0.50134  0.58462  0.99810  Biso   1.000  O 
  O50      1.0000 0.49088  0.57778  0.24754  Biso   1.000  O 
  O51      1.0000 0.50503  0.82698  0.24081  Biso   1.000  O 
  O52      1.0000 0.46123  0.83044  0.99430  Biso   1.000  O 
  O53      1.0000 0.74190  0.64703  0.24641  Biso   1.000  O 
  O54      1.0000 0.75165  0.55951  0.99152  Biso   1.000  O 
  O55      1.0000 0.71324  0.80069  0.99617  Biso   1.000  O 
  O56      1.0000 0.75089  0.91028  0.23436  Biso   1.000  O 
  Hf29     1.0000 0.61015  0.45331  0.63492  Biso   1.000  Hf
  Hf30     1.0000 0.59140  0.70752  0.86880  Biso   1.000  Hf
  Hf31     1.0000 0.83694  0.70735  0.63009  Biso   1.000  Hf
  Hf32     1.0000 0.88101  0.44158  0.88536  Biso   1.000  Hf
  O57      1.0000 0.45839  0.62560  0.49078  Biso   1.000  O 
  O58      1.0000 0.46053  0.55014  0.74467  Biso   1.000  O 
  O59      1.0000 0.46815  0.80563  0.74288  Biso   1.000  O 
  O60      1.0000 0.50890  0.87002  0.49066  Biso   1.000  O 
  O61      1.0000 0.70202  0.60991  0.73517  Biso   1.000  O 
  O62      1.0000 0.71356  0.56850  0.49214  Biso   1.000  O 
  O63      1.0000 0.74858  0.82017  0.48859  Biso   1.000  O 
  O64      1.0000 0.72225  0.85765  0.74751  Biso   1.000  O 
  Pt1      1.0000 0.07371  0.17350  0.09583  Biso   1.000  Pt
