data_image0
_cell_length_a       10.1339
_cell_length_b       10.4754
_cell_length_c       5.08568
_cell_angle_alpha    90
_cell_angle_beta     90
_cell_angle_gamma    90

_symmetry_space_group_name_H-M    "P 1"
_symmetry_int_tables_number       1

loop_
  _symmetry_equiv_pos_as_xyz
  'x, y, z'

loop_
  _atom_site_label
  _atom_site_occupancy
  _atom_site_fract_x
  _atom_site_fract_y
  _atom_site_fract_z
  _atom_site_thermal_displace_type
  _atom_site_B_iso_or_equiv
  _atom_site_type_symbol
  Hf1      1.0000 0.17542  0.93544  0.27823  Biso   1.000  Hf
  Hf2      1.0000 0.13474  0.26725  0.73461  Biso   1.000  Hf
  Hf3      1.0000 0.37116  0.21719  0.31986  Biso   1.000  Hf
  Hf4      1.0000 0.40807  0.98791  0.78845  Biso   1.000  Hf
  O1       1.0000 0.98116  0.15494  0.87669  Biso   1.000  O 
  O2       1.0000 0.00353  0.05740  0.41932  Biso   1.000  O 
  O3       1.0000 0.99825  0.36392  0.49514  Biso   1.000  O 
  O4       1.0000 0.02628  0.40362  0.98693  Biso   1.000  O 
  O5       1.0000 0.29023  0.13825  0.66366  Biso   1.000  O 
  O6       1.0000 0.30348  0.04258  0.15343  Biso   1.000  O 
  O7       1.0000 0.22908  0.31646  0.06852  Biso   1.000  O 
  O8       1.0000 0.27035  0.38455  0.52567  Biso   1.000  O 
  Hf5      1.0000 0.14444  0.49838  0.25109  Biso   1.000  Hf
  Hf6      1.0000 0.17342  0.71645  0.77302  Biso   1.000  Hf
  Hf7      1.0000 0.43100  0.75525  0.30260  Biso   1.000  Hf
  Hf8      1.0000 0.41686  0.49459  0.69560  Biso   1.000  Hf
  O9       1.0000 0.03672  0.65664  0.08268  Biso   1.000  O 
  O10      1.0000 0.06122  0.58132  0.57910  Biso   1.000  O 
  O11      1.0000 0.04580  0.82169  0.50762  Biso   1.000  O 
  O12      1.0000 0.06535  0.87789  0.98358  Biso   1.000  O 
  O13      1.0000 0.29855  0.63059  0.47021  Biso   1.000  O 
  O14      1.0000 0.27792  0.54698  0.94850  Biso   1.000  O 
  O15      1.0000 0.28188  0.80644  0.05473  Biso   1.000  O 
  O16      1.0000 0.29979  0.87254  0.57327  Biso   1.000  O 
  Hf9      1.0000 0.64787  0.02122  0.21362  Biso   1.000  Hf
  Hf10     1.0000 0.63311  0.23434  0.72754  Biso   1.000  Hf
  Hf11     1.0000 0.87459  0.28990  0.20601  Biso   1.000  Hf
  Hf12     1.0000 0.93880  0.98176  0.73425  Biso   1.000  Hf
  O17      1.0000 0.49988  0.15463  0.01207  Biso   1.000  O 
  O18      1.0000 0.51880  0.09439  0.51080  Biso   1.000  O 
  O19      1.0000 0.51846  0.35010  0.44103  Biso   1.000  O 
  O20      1.0000 0.52714  0.38094  0.93079  Biso   1.000  O 
  O21      1.0000 0.74440  0.17942  0.39457  Biso   1.000  O 
  O22      1.0000 0.74944  0.08460  0.88624  Biso   1.000  O 
  O23      1.0000 0.77300  0.35115  0.92793  Biso   1.000  O 
  O24      1.0000 0.77238  0.43118  0.42760  Biso   1.000  O 
  Hf13     1.0000 0.62454  0.49020  0.18719  Biso   1.000  Hf
  Hf14     1.0000 0.66756  0.73826  0.78643  Biso   1.000  Hf
  Hf15     1.0000 0.89557  0.76492  0.24295  Biso   1.000  Hf
  Hf16     1.0000 0.89492  0.50244  0.71696  Biso   1.000  Hf
  O25      1.0000 0.53465  0.62533  0.99325  Biso   1.000  O 
  O26      1.0000 0.55313  0.60644  0.48904  Biso   1.000  O 
  O27      1.0000 0.54833  0.84896  0.56379  Biso   1.000  O 
  O28      1.0000 0.54100  0.89099  0.05496  Biso   1.000  O 
  O29      1.0000 0.81418  0.67056  0.54858  Biso   1.000  O 
  O30      1.0000 0.76316  0.61878  0.02804  Biso   1.000  O 
  O31      1.0000 0.81188  0.84897  0.96443  Biso   1.000  O 
  O32      1.0000 0.80714  0.92172  0.44658  Biso   1.000  O 
  Pt1      1.0000 0.10922  0.18338  0.22705  Biso   1.000  Pt
