data_image0
_cell_length_a       10.1294
_cell_length_b       5.1072
_cell_length_c       10.4829
_cell_angle_alpha    90
_cell_angle_beta     80
_cell_angle_gamma    90

_symmetry_space_group_name_H-M    "P 1"
_symmetry_int_tables_number       1

loop_
  _symmetry_equiv_pos_as_xyz
  'x, y, z'

loop_
  _atom_site_label
  _atom_site_occupancy
  _atom_site_fract_x
  _atom_site_fract_y
  _atom_site_fract_z
  _atom_site_thermal_displace_type
  _atom_site_B_iso_or_equiv
  _atom_site_type_symbol
  Pt1      1.0000 0.12384  0.01996  0.16899  Biso   1.000  Pt
  Hf1      1.0000 0.13517  0.45643  0.39680  Biso   1.000  Hf
  Hf2      1.0000 0.36034  0.54679  0.09876  Biso   1.000  Hf
  Hf3      1.0000 0.36332  0.95714  0.35247  Biso   1.000  Hf
  O1       1.0000 0.04400  0.31325  0.07981  Biso   1.000  O 
  O2       1.0000 0.02401  0.17401  0.32821  Biso   1.000  O 
  O3       1.0000 0.46756  0.82964  0.17404  Biso   1.000  O 
  O4       1.0000 0.46227  0.66347  0.42231  Biso   1.000  O 
  O5       1.0000 0.27023  0.24765  0.23206  Biso   1.000  O 
  O6       1.0000 0.27145  0.24210  0.48640  Biso   1.000  O 
  O7       1.0000 0.22930  0.79997  0.01438  Biso   1.000  O 
  O8       1.0000 0.21885  0.73800  0.25973  Biso   1.000  O 
  Hf4      1.0000 0.13019  0.03735  0.64598  Biso   1.000  Hf
  Hf5      1.0000 0.13237  0.45115  0.89649  Biso   1.000  Hf
  Hf6      1.0000 0.35708  0.54364  0.60619  Biso   1.000  Hf
  Hf7      1.0000 0.35668  0.96972  0.85695  Biso   1.000  Hf
  O9       1.0000 0.02687  0.32196  0.57448  Biso   1.000  O 
  O10      1.0000 0.02586  0.16511  0.82796  Biso   1.000  O 
  O11      1.0000 0.46252  0.83323  0.67330  Biso   1.000  O 
  O12      1.0000 0.46247  0.68376  0.92613  Biso   1.000  O 
  O13      1.0000 0.26608  0.25302  0.73381  Biso   1.000  O 
  O14      1.0000 0.28461  0.28822  0.97074  Biso   1.000  O 
  O15      1.0000 0.22090  0.75456  0.50950  Biso   1.000  O 
  O16      1.0000 0.22106  0.73991  0.76328  Biso   1.000  O 
  Hf8      1.0000 0.63504  0.03792  0.14444  Biso   1.000  Hf
  Hf9      1.0000 0.63441  0.45284  0.39644  Biso   1.000  Hf
  Hf10     1.0000 0.86712  0.52594  0.10528  Biso   1.000  Hf
  Hf11     1.0000 0.85471  0.95021  0.35759  Biso   1.000  Hf
  O17      1.0000 0.53594  0.33413  0.07714  Biso   1.000  O 
  O18      1.0000 0.53024  0.16262  0.32858  Biso   1.000  O 
  O19      1.0000 0.96242  0.82794  0.17385  Biso   1.000  O 
  O20      1.0000 0.96401  0.67193  0.42628  Biso   1.000  O 
  O21      1.0000 0.77172  0.24901  0.24125  Biso   1.000  O 
  O22      1.0000 0.77092  0.23870  0.49184  Biso   1.000  O 
  O23      1.0000 0.73102  0.75341  0.01165  Biso   1.000  O 
  O24      1.0000 0.72572  0.73399  0.26104  Biso   1.000  O 
  Hf12     1.0000 0.63018  0.04158  0.64913  Biso   1.000  Hf
  Hf13     1.0000 0.63028  0.45894  0.89889  Biso   1.000  Hf
  Hf14     1.0000 0.85578  0.53950  0.60745  Biso   1.000  Hf
  Hf15     1.0000 0.85914  0.95127  0.85845  Biso   1.000  Hf
  O25      1.0000 0.52911  0.33187  0.57812  Biso   1.000  O 
  O26      1.0000 0.52740  0.17265  0.82708  Biso   1.000  O 
  O27      1.0000 0.96419  0.81989  0.67768  Biso   1.000  O 
  O28      1.0000 0.95926  0.65919  0.93045  Biso   1.000  O 
  O29      1.0000 0.77041  0.25507  0.74220  Biso   1.000  O 
  O30      1.0000 0.76583  0.23656  0.99284  Biso   1.000  O 
  O31      1.0000 0.71951  0.75247  0.51194  Biso   1.000  O 
  O32      1.0000 0.72049  0.74240  0.76290  Biso   1.000  O 
