data_image0
_cell_length_a       10.1442
_cell_length_b       5.05839
_cell_length_c       10.1442
_cell_angle_alpha    90
_cell_angle_beta     80
_cell_angle_gamma    90

_symmetry_space_group_name_H-M    "P 1"
_symmetry_int_tables_number       1

loop_
  _symmetry_equiv_pos_as_xyz
  'x, y, z'

loop_
  _atom_site_label
  _atom_site_occupancy
  _atom_site_fract_x
  _atom_site_fract_y
  _atom_site_fract_z
  _atom_site_thermal_displace_type
  _atom_site_B_iso_or_equiv
  _atom_site_type_symbol
  Pt1      1.0000 0.12322  0.99689  0.12676  Biso   1.000  Pt
  Hf1      1.0000 0.09624  0.52732  0.36282  Biso   1.000  Hf
  Hf2      1.0000 0.35618  0.52378  0.11399  Biso   1.000  Hf
  Hf3      1.0000 0.35142  0.00435  0.36956  Biso   1.000  Hf
  O1       1.0000 0.02312  0.26734  0.02341  Biso   1.000  O 
  O2       1.0000 0.02126  0.20283  0.27674  Biso   1.000  O 
  O3       1.0000 0.98668  0.72390  0.22684  Biso   1.000  O 
  O4       1.0000 0.92216  0.75933  0.97792  Biso   1.000  O 
  O5       1.0000 0.27169  0.33505  0.28762  Biso   1.000  O 
  O6       1.0000 0.27359  0.19938  0.03522  Biso   1.000  O 
  O7       1.0000 0.17546  0.73496  0.00336  Biso   1.000  O 
  O8       1.0000 0.23106  0.81412  0.24231  Biso   1.000  O 
  Hf4      1.0000 0.08094  0.99038  0.61231  Biso   1.000  Hf
  Hf5      1.0000 0.06080  0.51766  0.86818  Biso   1.000  Hf
  Hf6      1.0000 0.33089  0.52534  0.61873  Biso   1.000  Hf
  Hf7      1.0000 0.31355  0.99993  0.86879  Biso   1.000  Hf
  O9       1.0000 0.00136  0.32185  0.52486  Biso   1.000  O 
  O10      1.0000 0.98343  0.19191  0.77750  Biso   1.000  O 
  O11      1.0000 0.95623  0.70212  0.73086  Biso   1.000  O 
  O12      1.0000 0.96758  0.81012  0.48329  Biso   1.000  O 
  O13      1.0000 0.23848  0.33408  0.79025  Biso   1.000  O 
  O14      1.0000 0.25180  0.19104  0.53900  Biso   1.000  O 
  O15      1.0000 0.21723  0.70710  0.49145  Biso   1.000  O 
  O16      1.0000 0.19953  0.81349  0.74543  Biso   1.000  O 
  Hf8      1.0000 0.60584  0.98321  0.10988  Biso   1.000  Hf
  Hf9      1.0000 0.59699  0.52170  0.36402  Biso   1.000  Hf
  Hf10     1.0000 0.85804  0.50677  0.10505  Biso   1.000  Hf
  Hf11     1.0000 0.84736  0.99265  0.35783  Biso   1.000  Hf
  O17      1.0000 0.52065  0.31478  0.02781  Biso   1.000  O 
  O18      1.0000 0.52083  0.18737  0.28147  Biso   1.000  O 
  O19      1.0000 0.47784  0.70355  0.24200  Biso   1.000  O 
  O20      1.0000 0.43057  0.81745  0.99734  Biso   1.000  O 
  O21      1.0000 0.77076  0.32683  0.28075  Biso   1.000  O 
  O22      1.0000 0.77102  0.18113  0.02362  Biso   1.000  O 
  O23      1.0000 0.67566  0.70594  0.99944  Biso   1.000  O 
  O24      1.0000 0.73053  0.80625  0.23716  Biso   1.000  O 
  Hf12     1.0000 0.58432  0.99838  0.61741  Biso   1.000  Hf
  Hf13     1.0000 0.56512  0.52185  0.86768  Biso   1.000  Hf
  Hf14     1.0000 0.83092  0.51821  0.61324  Biso   1.000  Hf
  Hf15     1.0000 0.81898  0.99132  0.86713  Biso   1.000  Hf
  O25      1.0000 0.50143  0.32823  0.53213  Biso   1.000  O 
  O26      1.0000 0.48457  0.19053  0.78493  Biso   1.000  O 
  O27      1.0000 0.44960  0.70923  0.74570  Biso   1.000  O 
  O28      1.0000 0.46778  0.81312  0.49421  Biso   1.000  O 
  O29      1.0000 0.73404  0.32824  0.77963  Biso   1.000  O 
  O30      1.0000 0.75187  0.18689  0.52906  Biso   1.000  O 
  O31      1.0000 0.71712  0.70558  0.48962  Biso   1.000  O 
  O32      1.0000 0.70230  0.81225  0.74376  Biso   1.000  O 
