data_image0
_cell_length_a       5.08569
_cell_length_b       10.4754
_cell_length_c       10.1339
_cell_angle_alpha    90
_cell_angle_beta     90
_cell_angle_gamma    90

_symmetry_space_group_name_H-M    "P 1"
_symmetry_int_tables_number       1

loop_
  _symmetry_equiv_pos_as_xyz
  'x, y, z'

loop_
  _atom_site_label
  _atom_site_occupancy
  _atom_site_fract_x
  _atom_site_fract_y
  _atom_site_fract_z
  _atom_site_thermal_displace_type
  _atom_site_B_iso_or_equiv
  _atom_site_type_symbol
  Hf1      1.0000 0.22590  0.94448  0.13921  Biso   1.000  Hf
  Hf2      1.0000 0.34019  0.23374  0.35585  Biso   1.000  Hf
  Hf3      1.0000 0.72714  0.28343  0.10776  Biso   1.000  Hf
  Hf4      1.0000 0.82860  0.01370  0.38791  Biso   1.000  Hf
  O1       1.0000 0.96076  0.19965  0.95260  Biso   1.000  O 
  O2       1.0000 0.18040  0.05446  0.29792  Biso   1.000  O 
  O3       1.0000 0.06793  0.32430  0.21731  Biso   1.000  O 
  O4       1.0000 0.05675  0.45132  0.98713  Biso   1.000  O 
  O5       1.0000 0.68126  0.15815  0.26878  Biso   1.000  O 
  O6       1.0000 0.51370  0.09525  0.98955  Biso   1.000  O 
  O7       1.0000 0.56607  0.40254  0.97285  Biso   1.000  O 
  O8       1.0000 0.52323  0.40127  0.24479  Biso   1.000  O 
  Hf5      1.0000 0.27601  0.04471  0.64086  Biso   1.000  Hf
  Hf6      1.0000 0.27081  0.31993  0.85904  Biso   1.000  Hf
  Hf7      1.0000 0.77166  0.26576  0.60647  Biso   1.000  Hf
  Hf8      1.0000 0.75291  0.02189  0.88827  Biso   1.000  Hf
  O9       1.0000 0.05034  0.17003  0.49411  Biso   1.000  O 
  O10      1.0000 0.95267  0.12243  0.72323  Biso   1.000  O 
  O11      1.0000 0.97679  0.39011  0.73742  Biso   1.000  O 
  O12      1.0000 0.95315  0.41237  0.49099  Biso   1.000  O 
  O13      1.0000 0.45436  0.20874  0.72772  Biso   1.000  O 
  O14      1.0000 0.55448  0.11882  0.50219  Biso   1.000  O 
  O15      1.0000 0.46575  0.37306  0.49569  Biso   1.000  O 
  O16      1.0000 0.47140  0.46162  0.74699  Biso   1.000  O 
  Hf9      1.0000 0.22828  0.50648  0.12254  Biso   1.000  Hf
  Hf10     1.0000 0.28884  0.77275  0.39933  Biso   1.000  Hf
  Hf11     1.0000 0.73586  0.73397  0.13146  Biso   1.000  Hf
  Hf12     1.0000 0.69909  0.51855  0.38334  Biso   1.000  Hf
  O17      1.0000 0.03783  0.65843  0.01438  Biso   1.000  O 
  O18      1.0000 0.93392  0.57085  0.23660  Biso   1.000  O 
  O19      1.0000 0.02288  0.81516  0.25519  Biso   1.000  O 
  O20      1.0000 0.92336  0.89543  0.01323  Biso   1.000  O 
  O21      1.0000 0.45232  0.64697  0.26671  Biso   1.000  O 
  O22      1.0000 0.54132  0.59229  0.02857  Biso   1.000  O 
  O23      1.0000 0.45056  0.83071  0.00752  Biso   1.000  O 
  O24      1.0000 0.53730  0.89042  0.25783  Biso   1.000  O 
  Hf13     1.0000 0.21244  0.51200  0.60369  Biso   1.000  Hf
  Hf14     1.0000 0.27440  0.79570  0.86431  Biso   1.000  Hf
  Hf15     1.0000 0.79635  0.77119  0.62375  Biso   1.000  Hf
  Hf16     1.0000 0.76699  0.54144  0.85977  Biso   1.000  Hf
  O25      1.0000 0.99807  0.65777  0.48931  Biso   1.000  O 
  O26      1.0000 0.05770  0.64202  0.74212  Biso   1.000  O 
  O27      1.0000 0.98003  0.88918  0.75985  Biso   1.000  O 
  O28      1.0000 0.04243  0.90757  0.51121  Biso   1.000  O 
  O29      1.0000 0.57843  0.70406  0.77822  Biso   1.000  O 
  O30      1.0000 0.49802  0.63098  0.52113  Biso   1.000  O 
  O31      1.0000 0.55417  0.87433  0.50691  Biso   1.000  O 
  O32      1.0000 0.45730  0.95301  0.76598  Biso   1.000  O 
  Pt1      1.0000 0.22427  0.19036  0.09777  Biso   1.000  Pt
