data_image0
_cell_length_a       9.97746
_cell_length_b       10.435
_cell_length_c       10.0555
_cell_angle_alpha    90
_cell_angle_beta     90
_cell_angle_gamma    90

_symmetry_space_group_name_H-M    "P 1"
_symmetry_int_tables_number       1

loop_
  _symmetry_equiv_pos_as_xyz
  'x, y, z'

loop_
  _atom_site_label
  _atom_site_occupancy
  _atom_site_fract_x
  _atom_site_fract_y
  _atom_site_fract_z
  _atom_site_thermal_displace_type
  _atom_site_B_iso_or_equiv
  _atom_site_type_symbol
  Hf1      1.0000 0.13724  0.01477  0.12113  Biso   1.000  Hf
  Hf2      1.0000 0.13363  0.23491  0.38599  Biso   1.000  Hf
  Hf3      1.0000 0.37117  0.26740  0.12556  Biso   1.000  Hf
  Hf4      1.0000 0.36414  0.48590  0.37932  Biso   1.000  Hf
  O1       1.0000 0.01097  0.17233  0.20839  Biso   1.000  O 
  O2       1.0000 0.04099  0.06111  0.43627  Biso   1.000  O 
  O3       1.0000 0.46433  0.43597  0.19830  Biso   1.000  O 
  O4       1.0000 0.46130  0.31984  0.45101  Biso   1.000  O 
  O5       1.0000 0.26371  0.11982  0.24897  Biso   1.000  O 
  O6       1.0000 0.27327  0.13439  0.49869  Biso   1.000  O 
  O7       1.0000 0.22628  0.38483  0.50637  Biso   1.000  O 
  O8       1.0000 0.23489  0.37116  0.26281  Biso   1.000  O 
  Hf5      1.0000 0.13225  0.01035  0.61854  Biso   1.000  Hf
  Hf6      1.0000 0.12023  0.22212  0.84760  Biso   1.000  Hf
  Hf7      1.0000 0.36341  0.27021  0.62925  Biso   1.000  Hf
  Hf8      1.0000 0.36439  0.49254  0.87443  Biso   1.000  Hf
  O9       1.0000 0.04071  0.18206  0.66169  Biso   1.000  O 
  O10      1.0000 0.03609  0.06093  0.93565  Biso   1.000  O 
  O11      1.0000 0.45529  0.44045  0.69362  Biso   1.000  O 
  O12      1.0000 0.46597  0.32457  0.94663  Biso   1.000  O 
  O13      1.0000 0.26602  0.11439  0.74266  Biso   1.000  O 
  O14      1.0000 0.28377  0.13200  0.99274  Biso   1.000  O 
  O15      1.0000 0.24073  0.40077  0.00868  Biso   1.000  O 
  O16      1.0000 0.22342  0.37072  0.75496  Biso   1.000  O 
  Hf9      1.0000 0.12954  0.53053  0.13216  Biso   1.000  Hf
  Hf10     1.0000 0.13286  0.73888  0.37697  Biso   1.000  Hf
  Hf11     1.0000 0.36455  0.76796  0.12677  Biso   1.000  Hf
  Hf12     1.0000 0.36360  0.98778  0.37436  Biso   1.000  Hf
  O17      1.0000 0.03435  0.69216  0.19596  Biso   1.000  O 
  O18      1.0000 0.03880  0.57148  0.43938  Biso   1.000  O 
  O19      1.0000 0.46073  0.93664  0.19543  Biso   1.000  O 
  O20      1.0000 0.46181  0.81980  0.44468  Biso   1.000  O 
  O21      1.0000 0.27123  0.62323  0.25325  Biso   1.000  O 
  O22      1.0000 0.26834  0.63608  0.50224  Biso   1.000  O 
  O23      1.0000 0.23015  0.88380  0.49691  Biso   1.000  O 
  O24      1.0000 0.22732  0.87088  0.24806  Biso   1.000  O 
  Hf13     1.0000 0.13134  0.52324  0.62448  Biso   1.000  Hf
  Hf14     1.0000 0.12789  0.74097  0.87533  Biso   1.000  Hf
  Hf15     1.0000 0.36504  0.77022  0.62684  Biso   1.000  Hf
  Hf16     1.0000 0.36408  0.98865  0.87558  Biso   1.000  Hf
  O25      1.0000 0.03346  0.69131  0.69471  Biso   1.000  O 
  O26      1.0000 0.02971  0.56767  0.94544  Biso   1.000  O 
  O27      1.0000 0.46220  0.93663  0.69435  Biso   1.000  O 
  O28      1.0000 0.46059  0.82342  0.94788  Biso   1.000  O 
  O29      1.0000 0.26536  0.62240  0.75206  Biso   1.000  O 
  O30      1.0000 0.26611  0.63925  0.00162  Biso   1.000  O 
  O31      1.0000 0.22386  0.88927  0.99874  Biso   1.000  O 
  O32      1.0000 0.22763  0.86901  0.74898  Biso   1.000  O 
  Hf17     1.0000 0.63289  0.01628  0.12781  Biso   1.000  Hf
  Hf18     1.0000 0.63059  0.23519  0.38779  Biso   1.000  Hf
  Hf19     1.0000 0.84155  0.26785  0.14379  Biso   1.000  Hf
  Hf20     1.0000 0.86528  0.48674  0.38562  Biso   1.000  Hf
  O33      1.0000 0.53500  0.18411  0.19978  Biso   1.000  O 
  O34      1.0000 0.53475  0.06855  0.44904  Biso   1.000  O 
  O35      1.0000 0.95193  0.44394  0.20268  Biso   1.000  O 
  O36      1.0000 0.96036  0.31726  0.44327  Biso   1.000  O 
  O37      1.0000 0.76122  0.11893  0.25920  Biso   1.000  O 
  O38      1.0000 0.77197  0.13622  0.50688  Biso   1.000  O 
  O39      1.0000 0.72577  0.38358  0.50641  Biso   1.000  O 
  O40      1.0000 0.71786  0.37315  0.26067  Biso   1.000  O 
  Hf21     1.0000 0.63480  0.02057  0.62868  Biso   1.000  Hf
  Hf22     1.0000 0.63436  0.23948  0.87772  Biso   1.000  Hf
  Hf23     1.0000 0.86443  0.27672  0.63657  Biso   1.000  Hf
  Hf24     1.0000 0.86238  0.48966  0.86741  Biso   1.000  Hf
  O41      1.0000 0.53285  0.18769  0.69797  Biso   1.000  O 
  O42      1.0000 0.53997  0.07088  0.94404  Biso   1.000  O 
  O43      1.0000 0.94774  0.45808  0.66633  Biso   1.000  O 
  O44      1.0000 0.93621  0.30709  0.84755  Biso   1.000  O 
  O45      1.0000 0.76693  0.12174  0.75487  Biso   1.000  O 
  O46      1.0000 0.77415  0.13380  0.00790  Biso   1.000  O 
  O47      1.0000 0.74004  0.38274  0.00516  Biso   1.000  O 
  O48      1.0000 0.71197  0.38002  0.75207  Biso   1.000  O 
  Hf25     1.0000 0.63345  0.52039  0.12996  Biso   1.000  Hf
  Hf26     1.0000 0.63187  0.73670  0.37795  Biso   1.000  Hf
  Hf27     1.0000 0.86111  0.76751  0.12791  Biso   1.000  Hf
  Hf28     1.0000 0.86377  0.98575  0.37686  Biso   1.000  Hf
  O49      1.0000 0.53550  0.68676  0.19567  Biso   1.000  O 
  O50      1.0000 0.53430  0.57024  0.44595  Biso   1.000  O 
  O51      1.0000 0.96053  0.93496  0.19218  Biso   1.000  O 
  O52      1.0000 0.96256  0.81944  0.44828  Biso   1.000  O 
  O53      1.0000 0.76830  0.62131  0.25502  Biso   1.000  O 
  O54      1.0000 0.76688  0.63720  0.50367  Biso   1.000  O 
  O55      1.0000 0.72732  0.88645  0.50202  Biso   1.000  O 
  O56      1.0000 0.72694  0.87052  0.25210  Biso   1.000  O 
  Hf29     1.0000 0.62894  0.52151  0.62737  Biso   1.000  Hf
  Hf30     1.0000 0.62945  0.73947  0.87933  Biso   1.000  Hf
  Hf31     1.0000 0.86184  0.77101  0.62835  Biso   1.000  Hf
  Hf32     1.0000 0.85791  0.98664  0.87800  Biso   1.000  Hf
  O57      1.0000 0.53085  0.68694  0.69975  Biso   1.000  O 
  O58      1.0000 0.53051  0.57366  0.94920  Biso   1.000  O 
  O59      1.0000 0.95864  0.93839  0.69656  Biso   1.000  O 
  O60      1.0000 0.95578  0.81800  0.94475  Biso   1.000  O 
  O61      1.0000 0.76517  0.62498  0.75255  Biso   1.000  O 
  O62      1.0000 0.76754  0.63287  0.00276  Biso   1.000  O 
  O63      1.0000 0.72705  0.88193  0.00305  Biso   1.000  O 
  O64      1.0000 0.72517  0.87190  0.75233  Biso   1.000  O 
  Pt1      1.0000 0.09932  0.28767  0.08339  Biso   1.000  Pt
