data_image0
_cell_length_a       10.127
_cell_length_b       10.2168
_cell_length_c       5.23403
_cell_angle_alpha    90
_cell_angle_beta     80
_cell_angle_gamma    90

_symmetry_space_group_name_H-M    "P 1"
_symmetry_int_tables_number       1

loop_
  _symmetry_equiv_pos_as_xyz
  'x, y, z'

loop_
  _atom_site_label
  _atom_site_occupancy
  _atom_site_fract_x
  _atom_site_fract_y
  _atom_site_fract_z
  _atom_site_thermal_displace_type
  _atom_site_B_iso_or_equiv
  _atom_site_type_symbol
  Pt1      1.0000 0.12195  0.00772  0.33348  Biso   1.000  Pt
  Hf1      1.0000 0.14050  0.22638  0.78738  Biso   1.000  Hf
  Hf2      1.0000 0.36147  0.26981  0.19934  Biso   1.000  Hf
  Hf3      1.0000 0.36262  0.47944  0.70860  Biso   1.000  Hf
  O1       1.0000 0.04409  0.15402  0.15069  Biso   1.000  O 
  O2       1.0000 0.02465  0.08706  0.65112  Biso   1.000  O 
  O3       1.0000 0.46775  0.41612  0.34460  Biso   1.000  O 
  O4       1.0000 0.46992  0.33996  0.84911  Biso   1.000  O 
  O5       1.0000 0.26830  0.11923  0.44897  Biso   1.000  O 
  O6       1.0000 0.29313  0.14139  0.92859  Biso   1.000  O 
  O7       1.0000 0.22799  0.38387  0.01611  Biso   1.000  O 
  O8       1.0000 0.22837  0.36838  0.51855  Biso   1.000  O 
  Hf4      1.0000 0.14456  0.52216  0.29515  Biso   1.000  Hf
  Hf5      1.0000 0.13947  0.72895  0.79927  Biso   1.000  Hf
  Hf6      1.0000 0.36799  0.77560  0.20761  Biso   1.000  Hf
  Hf7      1.0000 0.36927  0.98406  0.70743  Biso   1.000  Hf
  O9       1.0000 0.04051  0.66690  0.16016  Biso   1.000  O 
  O10      1.0000 0.03849  0.58217  0.66323  Biso   1.000  O 
  O11      1.0000 0.47331  0.91793  0.34443  Biso   1.000  O 
  O12      1.0000 0.46440  0.83096  0.84230  Biso   1.000  O 
  O13      1.0000 0.28000  0.63152  0.48345  Biso   1.000  O 
  O14      1.0000 0.27662  0.62487  0.98513  Biso   1.000  O 
  O15      1.0000 0.23355  0.89471  0.02601  Biso   1.000  O 
  O16      1.0000 0.22321  0.87045  0.52265  Biso   1.000  O 
  Hf8      1.0000 0.63640  0.02174  0.29252  Biso   1.000  Hf
  Hf9      1.0000 0.63765  0.22971  0.79600  Biso   1.000  Hf
  Hf10     1.0000 0.87023  0.26619  0.21542  Biso   1.000  Hf
  Hf11     1.0000 0.86450  0.47562  0.71464  Biso   1.000  Hf
  O17      1.0000 0.53689  0.16820  0.15672  Biso   1.000  O 
  O18      1.0000 0.53524  0.08176  0.65846  Biso   1.000  O 
  O19      1.0000 0.97293  0.41221  0.35446  Biso   1.000  O 
  O20      1.0000 0.96729  0.33152  0.86051  Biso   1.000  O 
  O21      1.0000 0.77459  0.12709  0.48292  Biso   1.000  O 
  O22      1.0000 0.77255  0.11904  0.98542  Biso   1.000  O 
  O23      1.0000 0.73276  0.37616  0.02485  Biso   1.000  O 
  O24      1.0000 0.72894  0.36964  0.52365  Biso   1.000  O 
  Hf12     1.0000 0.64172  0.51836  0.29251  Biso   1.000  Hf
  Hf13     1.0000 0.63897  0.72638  0.79271  Biso   1.000  Hf
  Hf14     1.0000 0.86472  0.76726  0.20815  Biso   1.000  Hf
  Hf15     1.0000 0.86097  0.97567  0.71498  Biso   1.000  Hf
  O25      1.0000 0.54107  0.66733  0.15595  Biso   1.000  O 
  O26      1.0000 0.53686  0.58260  0.65511  Biso   1.000  O 
  O27      1.0000 0.96420  0.91503  0.34273  Biso   1.000  O 
  O28      1.0000 0.96660  0.83218  0.84692  Biso   1.000  O 
  O29      1.0000 0.78009  0.62586  0.48261  Biso   1.000  O 
  O30      1.0000 0.77606  0.61875  0.98256  Biso   1.000  O 
  O31      1.0000 0.72963  0.87769  0.01896  Biso   1.000  O 
  O32      1.0000 0.72871  0.86865  0.52133  Biso   1.000  O 
