data_image0
_cell_length_a       5.06408
_cell_length_b       10.2174
_cell_length_c       10.4708
_cell_angle_alpha    90
_cell_angle_beta     80
_cell_angle_gamma    90

_symmetry_space_group_name_H-M    "P 1"
_symmetry_int_tables_number       1

loop_
  _symmetry_equiv_pos_as_xyz
  'x, y, z'

loop_
  _atom_site_label
  _atom_site_occupancy
  _atom_site_fract_x
  _atom_site_fract_y
  _atom_site_fract_z
  _atom_site_thermal_displace_type
  _atom_site_B_iso_or_equiv
  _atom_site_type_symbol
  Pt1      1.0000 0.24271  0.00826  0.16915  Biso   1.000  Pt
  Hf1      1.0000 0.27322  0.23113  0.39397  Biso   1.000  Hf
  Hf2      1.0000 0.73542  0.26428  0.10252  Biso   1.000  Hf
  Hf3      1.0000 0.72409  0.47798  0.35358  Biso   1.000  Hf
  O1       1.0000 0.09019  0.15668  0.08016  Biso   1.000  O 
  O2       1.0000 0.04536  0.08741  0.32790  Biso   1.000  O 
  O3       1.0000 0.94004  0.41496  0.17341  Biso   1.000  O 
  O4       1.0000 0.92744  0.33400  0.42434  Biso   1.000  O 
  O5       1.0000 0.53517  0.11938  0.23247  Biso   1.000  O 
  O6       1.0000 0.54284  0.12107  0.48560  Biso   1.000  O 
  O7       1.0000 0.46705  0.38205  0.01100  Biso   1.000  O 
  O8       1.0000 0.45738  0.36751  0.25944  Biso   1.000  O 
  Hf4      1.0000 0.25727  0.02002  0.64573  Biso   1.000  Hf
  Hf5      1.0000 0.26982  0.22362  0.89887  Biso   1.000  Hf
  Hf6      1.0000 0.71388  0.27089  0.60560  Biso   1.000  Hf
  Hf7      1.0000 0.71694  0.47607  0.85901  Biso   1.000  Hf
  O9       1.0000 0.05738  0.16423  0.57400  Biso   1.000  O 
  O10      1.0000 0.05730  0.08185  0.82671  Biso   1.000  O 
  O11      1.0000 0.92806  0.41232  0.67726  Biso   1.000  O 
  O12      1.0000 0.93282  0.33634  0.93127  Biso   1.000  O 
  O13      1.0000 0.53620  0.12618  0.73386  Biso   1.000  O 
  O14      1.0000 0.57301  0.13699  0.97303  Biso   1.000  O 
  O15      1.0000 0.44073  0.37709  0.51064  Biso   1.000  O 
  O16      1.0000 0.44382  0.36955  0.76299  Biso   1.000  O 
  Hf8      1.0000 0.28386  0.52044  0.14498  Biso   1.000  Hf
  Hf9      1.0000 0.27642  0.72350  0.39925  Biso   1.000  Hf
  Hf10     1.0000 0.72955  0.77155  0.10121  Biso   1.000  Hf
  Hf11     1.0000 0.72119  0.97525  0.35634  Biso   1.000  Hf
  O17      1.0000 0.08275  0.66949  0.07892  Biso   1.000  O 
  O18      1.0000 0.07445  0.57980  0.32958  Biso   1.000  O 
  O19      1.0000 0.92834  0.91567  0.17226  Biso   1.000  O 
  O20      1.0000 0.93480  0.83241  0.42297  Biso   1.000  O 
  O21      1.0000 0.55838  0.62898  0.24111  Biso   1.000  O 
  O22      1.0000 0.55340  0.61900  0.49284  Biso   1.000  O 
  O23      1.0000 0.46232  0.89476  0.01408  Biso   1.000  O 
  O24      1.0000 0.44300  0.86777  0.26111  Biso   1.000  O 
  Hf12     1.0000 0.27479  0.51913  0.65002  Biso   1.000  Hf
  Hf13     1.0000 0.26642  0.73089  0.89812  Biso   1.000  Hf
  Hf14     1.0000 0.72200  0.77007  0.60816  Biso   1.000  Hf
  Hf15     1.0000 0.72492  0.98314  0.85617  Biso   1.000  Hf
  O25      1.0000 0.06676  0.66357  0.58015  Biso   1.000  O 
  O26      1.0000 0.06250  0.58416  0.83066  Biso   1.000  O 
  O27      1.0000 0.93408  0.91533  0.67238  Biso   1.000  O 
  O28      1.0000 0.91467  0.83053  0.92327  Biso   1.000  O 
  O29      1.0000 0.54789  0.62733  0.74298  Biso   1.000  O 
  O30      1.0000 0.53826  0.62345  0.99188  Biso   1.000  O 
  O31      1.0000 0.45050  0.87645  0.51041  Biso   1.000  O 
  O32      1.0000 0.44839  0.87019  0.76266  Biso   1.000  O 
