data_image0
_cell_length_a       4.9742
_cell_length_b       10.3835
_cell_length_c       10.0163
_cell_angle_alpha    90
_cell_angle_beta     90
_cell_angle_gamma    90

_symmetry_space_group_name_H-M    "P 1"
_symmetry_int_tables_number       1

loop_
  _symmetry_equiv_pos_as_xyz
  'x, y, z'

loop_
  _atom_site_label
  _atom_site_occupancy
  _atom_site_fract_x
  _atom_site_fract_y
  _atom_site_fract_z
  _atom_site_thermal_displace_type
  _atom_site_B_iso_or_equiv
  _atom_site_type_symbol
  Pt1      1.0000 0.25493  0.04017  0.10276  Biso   1.000  Pt
  Hf1      1.0000 0.27812  0.22655  0.37779  Biso   1.000  Hf
  Hf2      1.0000 0.72534  0.26783  0.12562  Biso   1.000  Hf
  Hf3      1.0000 0.73915  0.48050  0.37695  Biso   1.000  Hf
  O1       1.0000 0.06783  0.18486  0.19258  Biso   1.000  O 
  O2       1.0000 0.08548  0.06290  0.44850  Biso   1.000  O 
  O3       1.0000 0.92883  0.42985  0.19525  Biso   1.000  O 
  O4       1.0000 0.93691  0.31126  0.44238  Biso   1.000  O 
  O5       1.0000 0.52484  0.10438  0.24755  Biso   1.000  O 
  O6       1.0000 0.55919  0.12893  0.49705  Biso   1.000  O 
  O7       1.0000 0.46894  0.37793  0.50050  Biso   1.000  O 
  O8       1.0000 0.45994  0.36122  0.25047  Biso   1.000  O 
  Hf4      1.0000 0.28393  0.01151  0.62455  Biso   1.000  Hf
  Hf5      1.0000 0.28351  0.23375  0.87031  Biso   1.000  Hf
  Hf6      1.0000 0.74670  0.26189  0.62372  Biso   1.000  Hf
  Hf7      1.0000 0.74857  0.48181  0.87521  Biso   1.000  Hf
  O9       1.0000 0.09000  0.18201  0.69298  Biso   1.000  O 
  O10      1.0000 0.09249  0.05712  0.93024  Biso   1.000  O 
  O11      1.0000 0.94329  0.42910  0.69600  Biso   1.000  O 
  O12      1.0000 0.94395  0.30981  0.94408  Biso   1.000  O 
  O13      1.0000 0.55878  0.11384  0.74820  Biso   1.000  O 
  O14      1.0000 0.56067  0.13038  0.99635  Biso   1.000  O 
  O15      1.0000 0.48055  0.37873  0.99934  Biso   1.000  O 
  O16      1.0000 0.47560  0.36445  0.74890  Biso   1.000  O 
  Hf8      1.0000 0.26609  0.51574  0.12859  Biso   1.000  Hf
  Hf9      1.0000 0.27962  0.73167  0.37690  Biso   1.000  Hf
  Hf10     1.0000 0.74119  0.76535  0.12568  Biso   1.000  Hf
  Hf11     1.0000 0.73783  0.97868  0.37160  Biso   1.000  Hf
  O17      1.0000 0.07490  0.68264  0.19834  Biso   1.000  O 
  O18      1.0000 0.07986  0.56129  0.44654  Biso   1.000  O 
  O19      1.0000 0.95014  0.93767  0.19205  Biso   1.000  O 
  O20      1.0000 0.94374  0.81400  0.45032  Biso   1.000  O 
  O21      1.0000 0.54343  0.60646  0.24955  Biso   1.000  O 
  O22      1.0000 0.55069  0.62931  0.50072  Biso   1.000  O 
  O23      1.0000 0.46895  0.87992  0.50389  Biso   1.000  O 
  O24      1.0000 0.51029  0.84756  0.26221  Biso   1.000  O 
  Hf12     1.0000 0.27928  0.51388  0.62558  Biso   1.000  Hf
  Hf13     1.0000 0.27769  0.72953  0.87930  Biso   1.000  Hf
  Hf14     1.0000 0.74403  0.76319  0.62612  Biso   1.000  Hf
  Hf15     1.0000 0.72839  0.97619  0.87383  Biso   1.000  Hf
  O25      1.0000 0.08064  0.67878  0.69898  Biso   1.000  O 
  O26      1.0000 0.08577  0.56167  0.94931  Biso   1.000  O 
  O27      1.0000 0.93202  0.93032  0.69496  Biso   1.000  O 
  O28      1.0000 0.93111  0.81161  0.93988  Biso   1.000  O 
  O29      1.0000 0.55066  0.61333  0.75144  Biso   1.000  O 
  O30      1.0000 0.52705  0.63683  0.00105  Biso   1.000  O 
  O31      1.0000 0.43531  0.89137  0.01019  Biso   1.000  O 
  O32      1.0000 0.46488  0.86197  0.75312  Biso   1.000  O 
