data_image0
_cell_length_a       10.0622
_cell_length_b       5.25031
_cell_length_c       10.1223
_cell_angle_alpha    90
_cell_angle_beta     90
_cell_angle_gamma    90

_symmetry_space_group_name_H-M    "P 1"
_symmetry_int_tables_number       1

loop_
  _symmetry_equiv_pos_as_xyz
  'x, y, z'

loop_
  _atom_site_label
  _atom_site_occupancy
  _atom_site_fract_x
  _atom_site_fract_y
  _atom_site_fract_z
  _atom_site_thermal_displace_type
  _atom_site_B_iso_or_equiv
  _atom_site_type_symbol
  Hf1      1.0000 0.11877  0.08532  0.10815  Biso   1.000  Hf
  Hf2      1.0000 0.14604  0.41826  0.39277  Biso   1.000  Hf
  Hf3      1.0000 0.38923  0.51558  0.11003  Biso   1.000  Hf
  Hf4      1.0000 0.37189  0.92373  0.37573  Biso   1.000  Hf
  O1       1.0000 0.00351  0.34379  0.22830  Biso   1.000  O 
  O2       1.0000 0.04041  0.10265  0.45918  Biso   1.000  O 
  O3       1.0000 0.46699  0.85988  0.18886  Biso   1.000  O 
  O4       1.0000 0.48395  0.61609  0.46325  Biso   1.000  O 
  O5       1.0000 0.23918  0.11721  0.26390  Biso   1.000  O 
  O6       1.0000 0.28616  0.22665  0.50574  Biso   1.000  O 
  O7       1.0000 0.23712  0.73062  0.50793  Biso   1.000  O 
  O8       1.0000 0.29514  0.59671  0.28445  Biso   1.000  O 
  Hf5      1.0000 0.14675  0.99726  0.62931  Biso   1.000  Hf
  Hf6      1.0000 0.14043  0.43260  0.86887  Biso   1.000  Hf
  Hf7      1.0000 0.37712  0.50272  0.62979  Biso   1.000  Hf
  Hf8      1.0000 0.37869  0.93427  0.87483  Biso   1.000  Hf
  O9       1.0000 0.04917  0.34303  0.68822  Biso   1.000  O 
  O10      1.0000 0.04372  0.09578  0.92798  Biso   1.000  O 
  O11      1.0000 0.47302  0.83996  0.69771  Biso   1.000  O 
  O12      1.0000 0.48236  0.60585  0.93490  Biso   1.000  O 
  O13      1.0000 0.27890  0.20109  0.75124  Biso   1.000  O 
  O14      1.0000 0.29108  0.21791  0.99026  Biso   1.000  O 
  O15      1.0000 0.22945  0.78733  0.00956  Biso   1.000  O 
  O16      1.0000 0.24093  0.70263  0.75617  Biso   1.000  O 
  Hf9      1.0000 0.63673  0.02874  0.12570  Biso   1.000  Hf
  Hf10     1.0000 0.64193  0.44649  0.37776  Biso   1.000  Hf
  Hf11     1.0000 0.85327  0.53613  0.11443  Biso   1.000  Hf
  Hf12     1.0000 0.87188  0.95528  0.37304  Biso   1.000  Hf
  O17      1.0000 0.53673  0.35158  0.20290  Biso   1.000  O 
  O18      1.0000 0.54526  0.10704  0.44153  Biso   1.000  O 
  O19      1.0000 0.94994  0.88296  0.18381  Biso   1.000  O 
  O20      1.0000 0.97667  0.61800  0.44491  Biso   1.000  O 
  O21      1.0000 0.76683  0.21809  0.24806  Biso   1.000  O 
  O22      1.0000 0.77792  0.24695  0.49587  Biso   1.000  O 
  O23      1.0000 0.74424  0.74707  0.49462  Biso   1.000  O 
  O24      1.0000 0.72801  0.71882  0.24692  Biso   1.000  O 
  Hf13     1.0000 0.64113  0.99780  0.61624  Biso   1.000  Hf
  Hf14     1.0000 0.64923  0.42248  0.86637  Biso   1.000  Hf
  Hf15     1.0000 0.88053  0.50742  0.61806  Biso   1.000  Hf
  Hf16     1.0000 0.86802  0.92315  0.86501  Biso   1.000  Hf
  O25      1.0000 0.54307  0.32714  0.69623  Biso   1.000  O 
  O26      1.0000 0.54511  0.11146  0.95313  Biso   1.000  O 
  O27      1.0000 0.97234  0.83799  0.69219  Biso   1.000  O 
  O28      1.0000 0.95878  0.58810  0.91996  Biso   1.000  O 
  O29      1.0000 0.77758  0.19304  0.74224  Biso   1.000  O 
  O30      1.0000 0.78173  0.21554  0.99407  Biso   1.000  O 
  O31      1.0000 0.73576  0.71715  0.99474  Biso   1.000  O 
  O32      1.0000 0.73671  0.69591  0.74074  Biso   1.000  O 
  Pt1      1.0000 0.11770  0.58813  0.13898  Biso   1.000  Pt
