data_image0
_cell_length_a       9.95018
_cell_length_b       10.3759
_cell_length_c       10.0062
_cell_angle_alpha    90
_cell_angle_beta     90
_cell_angle_gamma    90

_symmetry_space_group_name_H-M    "P 1"
_symmetry_int_tables_number       1

loop_
  _symmetry_equiv_pos_as_xyz
  'x, y, z'

loop_
  _atom_site_label
  _atom_site_occupancy
  _atom_site_fract_x
  _atom_site_fract_y
  _atom_site_fract_z
  _atom_site_thermal_displace_type
  _atom_site_B_iso_or_equiv
  _atom_site_type_symbol
  Pt1      1.0000 0.12717  0.04055  0.10206  Biso   1.000  Pt
  Hf1      1.0000 0.13705  0.22899  0.37671  Biso   1.000  Hf
  Hf2      1.0000 0.36864  0.26706  0.12654  Biso   1.000  Hf
  Hf3      1.0000 0.36796  0.48148  0.37666  Biso   1.000  Hf
  O1       1.0000 0.03622  0.18795  0.18957  Biso   1.000  O 
  O2       1.0000 0.03984  0.06472  0.44906  Biso   1.000  O 
  O3       1.0000 0.46517  0.43260  0.19406  Biso   1.000  O 
  O4       1.0000 0.46651  0.31441  0.44525  Biso   1.000  O 
  O5       1.0000 0.26056  0.10361  0.24881  Biso   1.000  O 
  O6       1.0000 0.27584  0.12999  0.49898  Biso   1.000  O 
  O7       1.0000 0.23118  0.37940  0.50002  Biso   1.000  O 
  O8       1.0000 0.23230  0.36092  0.25006  Biso   1.000  O 
  Hf4      1.0000 0.13899  0.01485  0.62904  Biso   1.000  Hf
  Hf5      1.0000 0.13724  0.23646  0.87206  Biso   1.000  Hf
  Hf6      1.0000 0.37006  0.26406  0.62569  Biso   1.000  Hf
  Hf7      1.0000 0.37049  0.48312  0.87601  Biso   1.000  Hf
  O9       1.0000 0.04061  0.18416  0.69359  Biso   1.000  O 
  O10      1.0000 0.04198  0.05823  0.92692  Biso   1.000  O 
  O11      1.0000 0.46730  0.43170  0.69555  Biso   1.000  O 
  O12      1.0000 0.46706  0.31204  0.94382  Biso   1.000  O 
  O13      1.0000 0.27660  0.11711  0.75111  Biso   1.000  O 
  O14      1.0000 0.27344  0.13281  0.99919  Biso   1.000  O 
  O15      1.0000 0.23536  0.38126  0.99921  Biso   1.000  O 
  O16      1.0000 0.23332  0.36685  0.74918  Biso   1.000  O 
  Hf8      1.0000 0.13246  0.51427  0.12605  Biso   1.000  Hf
  Hf9      1.0000 0.13649  0.73072  0.37699  Biso   1.000  Hf
  Hf10     1.0000 0.36545  0.76375  0.12823  Biso   1.000  Hf
  Hf11     1.0000 0.36335  0.97741  0.37510  Biso   1.000  Hf
  O17      1.0000 0.03746  0.68353  0.19427  Biso   1.000  O 
  O18      1.0000 0.03731  0.56208  0.44632  Biso   1.000  O 
  O19      1.0000 0.46861  0.93081  0.19689  Biso   1.000  O 
  O20      1.0000 0.46954  0.81529  0.45224  Biso   1.000  O 
  O21      1.0000 0.26942  0.60694  0.24899  Biso   1.000  O 
  O22      1.0000 0.27410  0.63011  0.50066  Biso   1.000  O 
  O23      1.0000 0.22972  0.88003  0.50623  Biso   1.000  O 
  O24      1.0000 0.24811  0.84770  0.26395  Biso   1.000  O 
  Hf12     1.0000 0.13690  0.51507  0.62600  Biso   1.000  Hf
  Hf13     1.0000 0.13606  0.73245  0.87834  Biso   1.000  Hf
  Hf14     1.0000 0.36808  0.76484  0.62861  Biso   1.000  Hf
  Hf15     1.0000 0.36891  0.98070  0.87813  Biso   1.000  Hf
  O25      1.0000 0.03912  0.68274  0.69549  Biso   1.000  O 
  O26      1.0000 0.03955  0.56308  0.94501  Biso   1.000  O 
  O27      1.0000 0.46548  0.93230  0.69735  Biso   1.000  O 
  O28      1.0000 0.46368  0.81314  0.94280  Biso   1.000  O 
  O29      1.0000 0.27266  0.61571  0.75120  Biso   1.000  O 
  O30      1.0000 0.26618  0.63559  0.00011  Biso   1.000  O 
  O31      1.0000 0.22380  0.89191  0.01105  Biso   1.000  O 
  O32      1.0000 0.23167  0.86603  0.75551  Biso   1.000  O 
  Hf16     1.0000 0.63586  0.01581  0.12704  Biso   1.000  Hf
  Hf17     1.0000 0.63588  0.23116  0.37735  Biso   1.000  Hf
  Hf18     1.0000 0.86121  0.26772  0.12487  Biso   1.000  Hf
  Hf19     1.0000 0.86733  0.48242  0.37630  Biso   1.000  Hf
  O33      1.0000 0.53431  0.18214  0.19744  Biso   1.000  O 
  O34      1.0000 0.53915  0.06367  0.44356  Biso   1.000  O 
  O35      1.0000 0.96320  0.43198  0.19517  Biso   1.000  O 
  O36      1.0000 0.96530  0.31243  0.44159  Biso   1.000  O 
  O37      1.0000 0.77156  0.11847  0.24903  Biso   1.000  O 
  O38      1.0000 0.77421  0.13084  0.49830  Biso   1.000  O 
  O39      1.0000 0.73238  0.38062  0.50039  Biso   1.000  O 
  O40      1.0000 0.72786  0.36783  0.25034  Biso   1.000  O 
  Hf20     1.0000 0.63652  0.01293  0.62188  Biso   1.000  Hf
  Hf21     1.0000 0.63832  0.23044  0.87442  Biso   1.000  Hf
  Hf22     1.0000 0.86898  0.26405  0.62420  Biso   1.000  Hf
  Hf23     1.0000 0.86937  0.48201  0.87522  Biso   1.000  Hf
  O41      1.0000 0.54062  0.18202  0.69354  Biso   1.000  O 
  O42      1.0000 0.54057  0.06458  0.94755  Biso   1.000  O 
  O43      1.0000 0.96733  0.43171  0.69450  Biso   1.000  O 
  O44      1.0000 0.96780  0.31315  0.94404  Biso   1.000  O 
  O45      1.0000 0.77315  0.11420  0.74738  Biso   1.000  O 
  O46      1.0000 0.77740  0.12908  0.99751  Biso   1.000  O 
  O47      1.0000 0.73355  0.37933  0.99980  Biso   1.000  O 
  O48      1.0000 0.73332  0.36497  0.74964  Biso   1.000  O 
  Hf24     1.0000 0.63511  0.51810  0.12838  Biso   1.000  Hf
  Hf25     1.0000 0.63677  0.73402  0.37626  Biso   1.000  Hf
  Hf26     1.0000 0.87103  0.76861  0.12435  Biso   1.000  Hf
  Hf27     1.0000 0.87156  0.98435  0.37286  Biso   1.000  Hf
  O49      1.0000 0.53652  0.68343  0.19789  Biso   1.000  O 
  O50      1.0000 0.53894  0.56439  0.44430  Biso   1.000  O 
  O51      1.0000 0.97169  0.94081  0.18928  Biso   1.000  O 
  O52      1.0000 0.96551  0.81427  0.44203  Biso   1.000  O 
  O53      1.0000 0.77313  0.61738  0.25034  Biso   1.000  O 
  O54      1.0000 0.77173  0.63126  0.50010  Biso   1.000  O 
  O55      1.0000 0.73393  0.88210  0.49751  Biso   1.000  O 
  O56      1.0000 0.73680  0.86756  0.24798  Biso   1.000  O 
  Hf28     1.0000 0.63641  0.51486  0.62567  Biso   1.000  Hf
  Hf29     1.0000 0.63645  0.73010  0.87692  Biso   1.000  Hf
  Hf30     1.0000 0.86956  0.76458  0.62373  Biso   1.000  Hf
  Hf31     1.0000 0.86196  0.97838  0.87181  Biso   1.000  Hf
  O57      1.0000 0.53744  0.68028  0.69727  Biso   1.000  O 
  O58      1.0000 0.53985  0.56351  0.94788  Biso   1.000  O 
  O59      1.0000 0.96431  0.93211  0.69183  Biso   1.000  O 
  O60      1.0000 0.96451  0.81326  0.94126  Biso   1.000  O 
  O61      1.0000 0.77299  0.61508  0.75014  Biso   1.000  O 
  O62      1.0000 0.76873  0.63361  0.00080  Biso   1.000  O 
  O63      1.0000 0.72997  0.87860  0.99858  Biso   1.000  O 
  O64      1.0000 0.73024  0.86345  0.74755  Biso   1.000  O 
