data_image0
_cell_length_a       10.0721
_cell_length_b       10.3194
_cell_length_c       5.25544
_cell_angle_alpha    90
_cell_angle_beta     90
_cell_angle_gamma    90

_symmetry_space_group_name_H-M    "P 1"
_symmetry_int_tables_number       1

loop_
  _symmetry_equiv_pos_as_xyz
  'x, y, z'

loop_
  _atom_site_label
  _atom_site_occupancy
  _atom_site_fract_x
  _atom_site_fract_y
  _atom_site_fract_z
  _atom_site_thermal_displace_type
  _atom_site_B_iso_or_equiv
  _atom_site_type_symbol
  Hf1      1.0000 0.13913  0.02160  0.34468  Biso   1.000  Hf
  Hf2      1.0000 0.13412  0.23161  0.84901  Biso   1.000  Hf
  Hf3      1.0000 0.34739  0.27380  0.35847  Biso   1.000  Hf
  Hf4      1.0000 0.36020  0.48635  0.84409  Biso   1.000  Hf
  Hf5      1.0000 0.64375  0.01873  0.14298  Biso   1.000  Hf
  Hf6      1.0000 0.63930  0.22352  0.64482  Biso   1.000  Hf
  Hf7      1.0000 0.86126  0.27071  0.16393  Biso   1.000  Hf
  Hf8      1.0000 0.86480  0.48563  0.66613  Biso   1.000  Hf
  O1       1.0000 0.03245  0.16475  0.17059  Biso   1.000  O 
  O2       1.0000 0.03324  0.08744  0.66533  Biso   1.000  O 
  O3       1.0000 0.44858  0.44510  0.20226  Biso   1.000  O 
  O4       1.0000 0.46641  0.33738  0.66219  Biso   1.000  O 
  O5       1.0000 0.27172  0.12843  0.59669  Biso   1.000  O 
  O6       1.0000 0.27465  0.12483  0.09201  Biso   1.000  O 
  O7       1.0000 0.21937  0.37802  0.59858  Biso   1.000  O 
  O8       1.0000 0.22168  0.37517  0.09183  Biso   1.000  O 
  O9       1.0000 0.51261  0.14405  0.35584  Biso   1.000  O 
  O10      1.0000 0.53768  0.07001  0.80769  Biso   1.000  O 
  O11      1.0000 0.96925  0.41585  0.34040  Biso   1.000  O 
  O12      1.0000 0.96465  0.34064  0.84276  Biso   1.000  O 
  O13      1.0000 0.78698  0.12381  0.89430  Biso   1.000  O 
  O14      1.0000 0.77693  0.12281  0.40566  Biso   1.000  O 
  O15      1.0000 0.72121  0.38258  0.92152  Biso   1.000  O 
  O16      1.0000 0.73380  0.38530  0.43499  Biso   1.000  O 
  Hf9      1.0000 0.13839  0.52302  0.34190  Biso   1.000  Hf
  Hf10     1.0000 0.13779  0.73410  0.84289  Biso   1.000  Hf
  Hf11     1.0000 0.36057  0.77356  0.34366  Biso   1.000  Hf
  Hf12     1.0000 0.35900  0.98111  0.84432  Biso   1.000  Hf
  Hf13     1.0000 0.63924  0.53181  0.17167  Biso   1.000  Hf
  Hf14     1.0000 0.63763  0.73518  0.66095  Biso   1.000  Hf
  Hf15     1.0000 0.86350  0.77205  0.16032  Biso   1.000  Hf
  Hf16     1.0000 0.86157  0.98024  0.65586  Biso   1.000  Hf
  O17      1.0000 0.03275  0.66401  0.16393  Biso   1.000  O 
  O18      1.0000 0.03420  0.59129  0.66220  Biso   1.000  O 
  O19      1.0000 0.46686  0.91394  0.16328  Biso   1.000  O 
  O20      1.0000 0.46192  0.83214  0.67184  Biso   1.000  O 
  O21      1.0000 0.27634  0.62613  0.58897  Biso   1.000  O 
  O22      1.0000 0.27502  0.62812  0.08602  Biso   1.000  O 
  O23      1.0000 0.22351  0.87748  0.59105  Biso   1.000  O 
  O24      1.0000 0.22273  0.87553  0.09250  Biso   1.000  O 
  O25      1.0000 0.53653  0.67641  0.33286  Biso   1.000  O 
  O26      1.0000 0.53455  0.58653  0.83477  Biso   1.000  O 
  O27      1.0000 0.96880  0.91495  0.33328  Biso   1.000  O 
  O28      1.0000 0.96656  0.83845  0.83608  Biso   1.000  O 
  O29      1.0000 0.77494  0.63053  0.91699  Biso   1.000  O 
  O30      1.0000 0.77712  0.63129  0.41716  Biso   1.000  O 
  O31      1.0000 0.72369  0.87692  0.91225  Biso   1.000  O 
  O32      1.0000 0.72477  0.87756  0.41085  Biso   1.000  O 
  Pt1      1.0000 0.58060  0.27632  0.11651  Biso   1.000  Pt
