data_image0
_cell_length_a       10.0267
_cell_length_b       10.2144
_cell_length_c       10.4461
_cell_angle_alpha    90
_cell_angle_beta     90
_cell_angle_gamma    90

_symmetry_space_group_name_H-M    "P 1"
_symmetry_int_tables_number       1

loop_
  _symmetry_equiv_pos_as_xyz
  'x, y, z'

loop_
  _atom_site_label
  _atom_site_occupancy
  _atom_site_fract_x
  _atom_site_fract_y
  _atom_site_fract_z
  _atom_site_thermal_displace_type
  _atom_site_B_iso_or_equiv
  _atom_site_type_symbol
  Pt1      1.0000 0.12445  0.00879  0.19069  Biso   1.000  Pt
  Hf1      1.0000 0.13963  0.23205  0.41848  Biso   1.000  Hf
  Hf2      1.0000 0.35996  0.27037  0.16683  Biso   1.000  Hf
  Hf3      1.0000 0.36174  0.47888  0.42099  Biso   1.000  Hf
  Hf4      1.0000 0.63915  0.02179  0.07726  Biso   1.000  Hf
  Hf5      1.0000 0.63701  0.22912  0.32808  Biso   1.000  Hf
  Hf6      1.0000 0.86888  0.26622  0.08230  Biso   1.000  Hf
  Hf7      1.0000 0.86143  0.47831  0.32905  Biso   1.000  Hf
  O1       1.0000 0.04395  0.15701  0.08810  Biso   1.000  O 
  O2       1.0000 0.02828  0.08622  0.33394  Biso   1.000  O 
  O3       1.0000 0.46802  0.41739  0.08467  Biso   1.000  O 
  O4       1.0000 0.46435  0.33055  0.33599  Biso   1.000  O 
  O5       1.0000 0.27290  0.11649  0.28365  Biso   1.000  O 
  O6       1.0000 0.30079  0.14637  0.02508  Biso   1.000  O 
  O7       1.0000 0.22395  0.37358  0.29426  Biso   1.000  O 
  O8       1.0000 0.22247  0.38342  0.04467  Biso   1.000  O 
  O9       1.0000 0.53581  0.16820  0.16388  Biso   1.000  O 
  O10      1.0000 0.53198  0.08146  0.41400  Biso   1.000  O 
  O11      1.0000 0.96909  0.41557  0.16787  Biso   1.000  O 
  O12      1.0000 0.96654  0.33442  0.41737  Biso   1.000  O 
  O13      1.0000 0.77438  0.12239  0.45582  Biso   1.000  O 
  O14      1.0000 0.77652  0.12462  0.20636  Biso   1.000  O 
  O15      1.0000 0.72343  0.37289  0.45607  Biso   1.000  O 
  O16      1.0000 0.72612  0.37420  0.20586  Biso   1.000  O 
  Hf8      1.0000 0.13489  0.02051  0.66858  Biso   1.000  Hf
  Hf9      1.0000 0.14113  0.22480  0.92200  Biso   1.000  Hf
  Hf10     1.0000 0.36020  0.27125  0.67055  Biso   1.000  Hf
  Hf11     1.0000 0.35954  0.47892  0.92156  Biso   1.000  Hf
  Hf12     1.0000 0.63518  0.02090  0.57987  Biso   1.000  Hf
  Hf13     1.0000 0.63765  0.22924  0.82942  Biso   1.000  Hf
  Hf14     1.0000 0.86039  0.27037  0.57924  Biso   1.000  Hf
  Hf15     1.0000 0.86278  0.47609  0.83153  Biso   1.000  Hf
  O17      1.0000 0.03156  0.16371  0.57902  Biso   1.000  O 
  O18      1.0000 0.03092  0.08438  0.83161  Biso   1.000  O 
  O19      1.0000 0.46570  0.41756  0.58472  Biso   1.000  O 
  O20      1.0000 0.46590  0.33428  0.83351  Biso   1.000  O 
  O21      1.0000 0.27322  0.12149  0.78652  Biso   1.000  O 
  O22      1.0000 0.27541  0.12798  0.53859  Biso   1.000  O 
  O23      1.0000 0.22358  0.37263  0.79522  Biso   1.000  O 
  O24      1.0000 0.22237  0.37621  0.54431  Biso   1.000  O 
  O25      1.0000 0.53260  0.16802  0.66404  Biso   1.000  O 
  O26      1.0000 0.53508  0.08023  0.91127  Biso   1.000  O 
  O27      1.0000 0.96799  0.41227  0.66975  Biso   1.000  O 
  O28      1.0000 0.96769  0.33124  0.92211  Biso   1.000  O 
  O29      1.0000 0.77567  0.12300  0.95627  Biso   1.000  O 
  O30      1.0000 0.77470  0.12609  0.70517  Biso   1.000  O 
  O31      1.0000 0.72424  0.37160  0.95714  Biso   1.000  O 
  O32      1.0000 0.72389  0.37618  0.70634  Biso   1.000  O 
  Hf16     1.0000 0.14051  0.52313  0.17133  Biso   1.000  Hf
  Hf17     1.0000 0.13796  0.72630  0.42371  Biso   1.000  Hf
  Hf18     1.0000 0.36330  0.77497  0.16957  Biso   1.000  Hf
  Hf19     1.0000 0.36427  0.97921  0.42125  Biso   1.000  Hf
  Hf20     1.0000 0.64109  0.51929  0.07841  Biso   1.000  Hf
  Hf21     1.0000 0.63844  0.72685  0.32814  Biso   1.000  Hf
  Hf22     1.0000 0.86253  0.76872  0.07729  Biso   1.000  Hf
  Hf23     1.0000 0.85697  0.97647  0.33081  Biso   1.000  Hf
  O33      1.0000 0.03683  0.66860  0.08540  Biso   1.000  O 
  O34      1.0000 0.03349  0.58352  0.33515  Biso   1.000  O 
  O35      1.0000 0.47178  0.91692  0.08313  Biso   1.000  O 
  O36      1.0000 0.46513  0.83192  0.33470  Biso   1.000  O 
  O37      1.0000 0.27744  0.62516  0.29524  Biso   1.000  O 
  O38      1.0000 0.28062  0.63294  0.04415  Biso   1.000  O 
  O39      1.0000 0.21952  0.87156  0.29527  Biso   1.000  O 
  O40      1.0000 0.22358  0.89014  0.04882  Biso   1.000  O 
  O41      1.0000 0.53490  0.66686  0.16461  Biso   1.000  O 
  O42      1.0000 0.53444  0.58179  0.41479  Biso   1.000  O 
  O43      1.0000 0.96126  0.91766  0.16343  Biso   1.000  O 
  O44      1.0000 0.96748  0.83493  0.41690  Biso   1.000  O 
  O45      1.0000 0.77664  0.62322  0.45556  Biso   1.000  O 
  O46      1.0000 0.77722  0.62503  0.20538  Biso   1.000  O 
  O47      1.0000 0.72258  0.87204  0.45562  Biso   1.000  O 
  O48      1.0000 0.72541  0.87507  0.20599  Biso   1.000  O 
  Hf24     1.0000 0.13899  0.52034  0.67339  Biso   1.000  Hf
  Hf25     1.0000 0.13802  0.73210  0.92221  Biso   1.000  Hf
  Hf26     1.0000 0.36213  0.77118  0.67263  Biso   1.000  Hf
  Hf27     1.0000 0.36199  0.98276  0.92173  Biso   1.000  Hf
  Hf28     1.0000 0.63914  0.52025  0.57966  Biso   1.000  Hf
  Hf29     1.0000 0.63847  0.72847  0.82882  Biso   1.000  Hf
  Hf30     1.0000 0.86089  0.77003  0.57997  Biso   1.000  Hf
  Hf31     1.0000 0.86366  0.97919  0.82918  Biso   1.000  Hf
  O49      1.0000 0.03231  0.66392  0.58513  Biso   1.000  O 
  O50      1.0000 0.03400  0.58399  0.83655  Biso   1.000  O 
  O51      1.0000 0.46746  0.91729  0.58506  Biso   1.000  O 
  O52      1.0000 0.46694  0.83316  0.83445  Biso   1.000  O 
  O53      1.0000 0.27608  0.62373  0.79519  Biso   1.000  O 
  O54      1.0000 0.27630  0.62529  0.54600  Biso   1.000  O 
  O55      1.0000 0.22423  0.87361  0.79637  Biso   1.000  O 
  O56      1.0000 0.22566  0.87564  0.54465  Biso   1.000  O 
  O57      1.0000 0.53445  0.66687  0.66462  Biso   1.000  O 
  O58      1.0000 0.53332  0.58246  0.91514  Biso   1.000  O 
  O59      1.0000 0.96802  0.91444  0.66621  Biso   1.000  O 
  O60      1.0000 0.96514  0.83259  0.91568  Biso   1.000  O 
  O61      1.0000 0.77605  0.62176  0.95573  Biso   1.000  O 
  O62      1.0000 0.77744  0.62487  0.70640  Biso   1.000  O 
  O63      1.0000 0.72326  0.87240  0.95500  Biso   1.000  O 
  O64      1.0000 0.72473  0.87613  0.70549  Biso   1.000  O 
