data_image0
_cell_length_a       5.09708
_cell_length_b       10.3645
_cell_length_c       10.6176
_cell_angle_alpha    90
_cell_angle_beta     80
_cell_angle_gamma    90

_symmetry_space_group_name_H-M    "P 1"
_symmetry_int_tables_number       1

loop_
  _symmetry_equiv_pos_as_xyz
  'x, y, z'

loop_
  _atom_site_label
  _atom_site_occupancy
  _atom_site_fract_x
  _atom_site_fract_y
  _atom_site_fract_z
  _atom_site_thermal_displace_type
  _atom_site_B_iso_or_equiv
  _atom_site_type_symbol
  Hf1      1.0000 0.27551  0.01494  0.14742  Biso   1.000  Hf
  Hf2      1.0000 0.30626  0.22935  0.40857  Biso   1.000  Hf
  Hf3      1.0000 0.69028  0.27524  0.08506  Biso   1.000  Hf
  Hf4      1.0000 0.72395  0.48754  0.35597  Biso   1.000  Hf
  O1       1.0000 0.05372  0.15840  0.06621  Biso   1.000  O 
  O2       1.0000 0.10565  0.04752  0.35091  Biso   1.000  O 
  O3       1.0000 0.91886  0.43124  0.16135  Biso   1.000  O 
  O4       1.0000 0.97178  0.36855  0.45090  Biso   1.000  O 
  O5       1.0000 0.51872  0.13234  0.23234  Biso   1.000  O 
  O6       1.0000 0.58642  0.12036  0.48757  Biso   1.000  O 
  O7       1.0000 0.42321  0.38363  0.00591  Biso   1.000  O 
  O8       1.0000 0.44830  0.37361  0.25882  Biso   1.000  O 
  Hf5      1.0000 0.29408  0.02119  0.64281  Biso   1.000  Hf
  Hf6      1.0000 0.28552  0.22421  0.88970  Biso   1.000  Hf
  Hf7      1.0000 0.74658  0.27833  0.60953  Biso   1.000  Hf
  Hf8      1.0000 0.73190  0.48235  0.85466  Biso   1.000  Hf
  O9       1.0000 0.09154  0.16997  0.58244  Biso   1.000  O 
  O10      1.0000 0.08078  0.08288  0.82031  Biso   1.000  O 
  O11      1.0000 0.95052  0.41490  0.68559  Biso   1.000  O 
  O12      1.0000 0.94287  0.33430  0.91671  Biso   1.000  O 
  O13      1.0000 0.56527  0.12768  0.73756  Biso   1.000  O 
  O14      1.0000 0.56705  0.12219  0.98247  Biso   1.000  O 
  O15      1.0000 0.47045  0.37656  0.51325  Biso   1.000  O 
  O16      1.0000 0.46473  0.37218  0.75973  Biso   1.000  O 
  Hf9      1.0000 0.26773  0.52557  0.14652  Biso   1.000  Hf
  Hf10     1.0000 0.28022  0.72596  0.39748  Biso   1.000  Hf
  Hf11     1.0000 0.71250  0.77164  0.10511  Biso   1.000  Hf
  Hf12     1.0000 0.72829  0.96255  0.36056  Biso   1.000  Hf
  O17      1.0000 0.06432  0.67427  0.07923  Biso   1.000  O 
  O18      1.0000 0.06788  0.58923  0.32348  Biso   1.000  O 
  O19      1.0000 0.91730  0.91684  0.17715  Biso   1.000  O 
  O20      1.0000 0.92196  0.81810  0.42459  Biso   1.000  O 
  O21      1.0000 0.55141  0.63007  0.24307  Biso   1.000  O 
  O22      1.0000 0.55020  0.62020  0.49257  Biso   1.000  O 
  O23      1.0000 0.43889  0.88005  0.01132  Biso   1.000  O 
  O24      1.0000 0.44473  0.86561  0.26018  Biso   1.000  O 
  Hf13     1.0000 0.28589  0.52081  0.64830  Biso   1.000  Hf
  Hf14     1.0000 0.28670  0.73015  0.89656  Biso   1.000  Hf
  Hf15     1.0000 0.72984  0.76827  0.60792  Biso   1.000  Hf
  Hf16     1.0000 0.73213  0.97764  0.85077  Biso   1.000  Hf
  O25      1.0000 0.07199  0.66206  0.57939  Biso   1.000  O 
  O26      1.0000 0.07925  0.58724  0.82872  Biso   1.000  O 
  O27      1.0000 0.94041  0.91424  0.67013  Biso   1.000  O 
  O28      1.0000 0.94546  0.83689  0.92213  Biso   1.000  O 
  O29      1.0000 0.56170  0.62723  0.74115  Biso   1.000  O 
  O30      1.0000 0.56774  0.62451  0.99070  Biso   1.000  O 
  O31      1.0000 0.45241  0.87440  0.51302  Biso   1.000  O 
  O32      1.0000 0.45762  0.87065  0.76050  Biso   1.000  O 
  Rb1      1.0000 0.90712  0.23194  0.28407  Biso   1.000  Rb
