data_image0
_cell_length_a       10.0704
_cell_length_b       10.4611
_cell_length_c       5.06201
_cell_angle_alpha    90
_cell_angle_beta     90
_cell_angle_gamma    90

_symmetry_space_group_name_H-M    "P 1"
_symmetry_int_tables_number       1

loop_
  _symmetry_equiv_pos_as_xyz
  'x, y, z'

loop_
  _atom_site_label
  _atom_site_occupancy
  _atom_site_fract_x
  _atom_site_fract_y
  _atom_site_fract_z
  _atom_site_thermal_displace_type
  _atom_site_B_iso_or_equiv
  _atom_site_type_symbol
  Rb1      1.0000 0.08937  0.99279  0.28193  Biso   1.000  Rb
  Hf1      1.0000 0.14292  0.51747  0.26255  Biso   1.000  Hf
  Hf2      1.0000 0.63040  0.02174  0.23625  Biso   1.000  Hf
  Hf3      1.0000 0.63099  0.51349  0.24964  Biso   1.000  Hf
  Hf4      1.0000 0.13832  0.23452  0.75061  Biso   1.000  Hf
  Hf5      1.0000 0.15367  0.73680  0.76361  Biso   1.000  Hf
  Hf6      1.0000 0.63477  0.23436  0.74186  Biso   1.000  Hf
  Hf7      1.0000 0.63189  0.72776  0.74620  Biso   1.000  Hf
  Hf8      1.0000 0.36462  0.26405  0.25407  Biso   1.000  Hf
  Hf9      1.0000 0.37235  0.76803  0.25090  Biso   1.000  Hf
  Hf10     1.0000 0.86672  0.27412  0.24470  Biso   1.000  Hf
  Hf11     1.0000 0.89255  0.72622  0.17323  Biso   1.000  Hf
  Hf12     1.0000 0.36987  0.47913  0.75596  Biso   1.000  Hf
  Hf13     1.0000 0.36886  0.98225  0.75511  Biso   1.000  Hf
  Hf14     1.0000 0.86710  0.48179  0.74357  Biso   1.000  Hf
  Hf15     1.0000 0.86042  0.99143  0.77505  Biso   1.000  Hf
  O1       1.0000 0.03562  0.22061  0.39618  Biso   1.000  O 
  O2       1.0000 0.05028  0.69246  0.40628  Biso   1.000  O 
  O3       1.0000 0.54291  0.18672  0.37814  Biso   1.000  O 
  O4       1.0000 0.53764  0.67887  0.39743  Biso   1.000  O 
  O5       1.0000 0.02947  0.07606  0.80393  Biso   1.000  O 
  O6       1.0000 0.01939  0.58763  0.93635  Biso   1.000  O 
  O7       1.0000 0.54578  0.06565  0.87648  Biso   1.000  O 
  O8       1.0000 0.53352  0.56793  0.89799  Biso   1.000  O 
  O9       1.0000 0.46830  0.42980  0.39776  Biso   1.000  O 
  O10      1.0000 0.47642  0.93281  0.39758  Biso   1.000  O 
  O11      1.0000 0.96518  0.44815  0.39073  Biso   1.000  O 
  O12      1.0000 0.85763  0.86847  0.45401  Biso   1.000  O 
  O13      1.0000 0.47127  0.31621  0.89196  Biso   1.000  O 
  O14      1.0000 0.48292  0.82141  0.90580  Biso   1.000  O 
  O15      1.0000 0.97175  0.32889  0.89586  Biso   1.000  O 
  O16      1.0000 0.98781  0.83355  0.89888  Biso   1.000  O 
  O17      1.0000 0.28896  0.13068  0.52102  Biso   1.000  O 
  O18      1.0000 0.27574  0.61213  0.50968  Biso   1.000  O 
  O19      1.0000 0.77801  0.11548  0.48816  Biso   1.000  O 
  O20      1.0000 0.77231  0.61608  0.47762  Biso   1.000  O 
  O21      1.0000 0.28190  0.13439  0.99382  Biso   1.000  O 
  O22      1.0000 0.27210  0.62669  0.00902  Biso   1.000  O 
  O23      1.0000 0.77403  0.13782  0.99693  Biso   1.000  O 
  O24      1.0000 0.76436  0.62095  0.97184  Biso   1.000  O 
  O25      1.0000 0.23142  0.38420  0.00528  Biso   1.000  O 
  O26      1.0000 0.25115  0.87072  0.99887  Biso   1.000  O 
  O27      1.0000 0.73118  0.38270  0.99196  Biso   1.000  O 
  O28      1.0000 0.74089  0.87168  0.00536  Biso   1.000  O 
  O29      1.0000 0.23242  0.37179  0.50373  Biso   1.000  O 
  O30      1.0000 0.25748  0.85454  0.52334  Biso   1.000  O 
  O31      1.0000 0.73391  0.36837  0.49612  Biso   1.000  O 
  O32      1.0000 0.71545  0.87941  0.49478  Biso   1.000  O 
