data_image0
_cell_length_a       5.09983
_cell_length_b       10.3518
_cell_length_c       10.6132
_cell_angle_alpha    90
_cell_angle_beta     80
_cell_angle_gamma    90

_symmetry_space_group_name_H-M    "P 1"
_symmetry_int_tables_number       1

loop_
  _symmetry_equiv_pos_as_xyz
  'x, y, z'

loop_
  _atom_site_label
  _atom_site_occupancy
  _atom_site_fract_x
  _atom_site_fract_y
  _atom_site_fract_z
  _atom_site_thermal_displace_type
  _atom_site_B_iso_or_equiv
  _atom_site_type_symbol
  Rb1      1.0000 0.17390  0.98780  0.12907  Biso   1.000  Rb
  Hf1      1.0000 0.26287  0.03543  0.65304  Biso   1.000  Hf
  Hf2      1.0000 0.26242  0.51355  0.14511  Biso   1.000  Hf
  Hf3      1.0000 0.26359  0.53328  0.64457  Biso   1.000  Hf
  Hf4      1.0000 0.26168  0.23752  0.39942  Biso   1.000  Hf
  Hf5      1.0000 0.26261  0.24362  0.89880  Biso   1.000  Hf
  Hf6      1.0000 0.24905  0.72840  0.39759  Biso   1.000  Hf
  Hf7      1.0000 0.26828  0.74322  0.88571  Biso   1.000  Hf
  Hf8      1.0000 0.69947  0.26441  0.10647  Biso   1.000  Hf
  Hf9      1.0000 0.70716  0.28439  0.60692  Biso   1.000  Hf
  Hf10     1.0000 0.73021  0.73867  0.07448  Biso   1.000  Hf
  Hf11     1.0000 0.70649  0.78614  0.60282  Biso   1.000  Hf
  Hf12     1.0000 0.70245  0.48463  0.35278  Biso   1.000  Hf
  Hf13     1.0000 0.70939  0.48595  0.84971  Biso   1.000  Hf
  Hf14     1.0000 0.69210  0.00369  0.37722  Biso   1.000  Hf
  Hf15     1.0000 0.69582  0.99491  0.85702  Biso   1.000  Hf
  O1       1.0000 0.07052  0.20124  0.07819  Biso   1.000  O 
  O2       1.0000 0.05278  0.18374  0.58848  Biso   1.000  O 
  O3       1.0000 0.09188  0.67063  0.07223  Biso   1.000  O 
  O4       1.0000 0.04898  0.67473  0.57557  Biso   1.000  O 
  O5       1.0000 0.05033  0.09135  0.35698  Biso   1.000  O 
  O6       1.0000 0.06185  0.09468  0.83465  Biso   1.000  O 
  O7       1.0000 0.04750  0.58909  0.32472  Biso   1.000  O 
  O8       1.0000 0.04449  0.59922  0.82439  Biso   1.000  O 
  O9       1.0000 0.90071  0.42723  0.16874  Biso   1.000  O 
  O10      1.0000 0.91658  0.43077  0.66984  Biso   1.000  O 
  O11      1.0000 0.70188  0.88612  0.20683  Biso   1.000  O 
  O12      1.0000 0.91043  0.92715  0.67637  Biso   1.000  O 
  O13      1.0000 0.91320  0.34457  0.42366  Biso   1.000  O 
  O14      1.0000 0.91333  0.34830  0.91520  Biso   1.000  O 
  O15      1.0000 0.92202  0.84507  0.42196  Biso   1.000  O 
  O16      1.0000 0.94355  0.85812  0.92833  Biso   1.000  O 
  O17      1.0000 0.57364  0.14505  0.25957  Biso   1.000  O 
  O18      1.0000 0.54138  0.14175  0.74253  Biso   1.000  O 
  O19      1.0000 0.52552  0.63525  0.23413  Biso   1.000  O 
  O20      1.0000 0.53450  0.64278  0.73418  Biso   1.000  O 
  O21      1.0000 0.52691  0.13765  0.50438  Biso   1.000  O 
  O22      1.0000 0.55207  0.14100  0.98326  Biso   1.000  O 
  O23      1.0000 0.53337  0.63174  0.48590  Biso   1.000  O 
  O24      1.0000 0.52472  0.62131  0.98260  Biso   1.000  O 
  O25      1.0000 0.44725  0.37719  0.00858  Biso   1.000  O 
  O26      1.0000 0.43212  0.39177  0.51090  Biso   1.000  O 
  O27      1.0000 0.46955  0.86907  0.98714  Biso   1.000  O 
  O28      1.0000 0.43213  0.89339  0.51847  Biso   1.000  O 
  O29      1.0000 0.42196  0.37923  0.26148  Biso   1.000  O 
  O30      1.0000 0.43145  0.38446  0.75914  Biso   1.000  O 
  O31      1.0000 0.44110  0.88347  0.28174  Biso   1.000  O 
  O32      1.0000 0.42914  0.88592  0.75592  Biso   1.000  O 
