data_image0
_cell_length_a       10.1156
_cell_length_b       5.16444
_cell_length_c       10.5676
_cell_angle_alpha    90
_cell_angle_beta     90
_cell_angle_gamma    90

_symmetry_space_group_name_H-M    "P 1"
_symmetry_int_tables_number       1

loop_
  _symmetry_equiv_pos_as_xyz
  'x, y, z'

loop_
  _atom_site_label
  _atom_site_occupancy
  _atom_site_fract_x
  _atom_site_fract_y
  _atom_site_fract_z
  _atom_site_thermal_displace_type
  _atom_site_B_iso_or_equiv
  _atom_site_type_symbol
  Rb1      1.0000 0.09099  0.97352  0.14849  Biso   1.000  Rb
  Hf1      1.0000 0.13644  0.05817  0.67068  Biso   1.000  Hf
  Hf2      1.0000 0.14018  0.46480  0.42193  Biso   1.000  Hf
  Hf3      1.0000 0.14124  0.47375  0.91795  Biso   1.000  Hf
  Hf4      1.0000 0.35797  0.52575  0.16956  Biso   1.000  Hf
  Hf5      1.0000 0.35353  0.55723  0.66860  Biso   1.000  Hf
  Hf6      1.0000 0.35427  0.96366  0.41544  Biso   1.000  Hf
  Hf7      1.0000 0.35527  0.97393  0.91987  Biso   1.000  Hf
  Hf8      1.0000 0.63421  0.04953  0.07425  Biso   1.000  Hf
  Hf9      1.0000 0.62984  0.05203  0.58266  Biso   1.000  Hf
  Hf10     1.0000 0.63223  0.45991  0.33291  Biso   1.000  Hf
  Hf11     1.0000 0.63005  0.47844  0.82424  Biso   1.000  Hf
  Hf12     1.0000 0.86539  0.49897  0.05733  Biso   1.000  Hf
  Hf13     1.0000 0.86004  0.55741  0.58267  Biso   1.000  Hf
  Hf14     1.0000 0.85513  0.99587  0.35517  Biso   1.000  Hf
  Hf15     1.0000 0.85528  0.96943  0.82458  Biso   1.000  Hf
  O1       1.0000 0.04647  0.42907  0.08991  Biso   1.000  O 
  O2       1.0000 0.03419  0.36763  0.59799  Biso   1.000  O 
  O3       1.0000 0.02116  0.17990  0.36622  Biso   1.000  O 
  O4       1.0000 0.03120  0.16795  0.84205  Biso   1.000  O 
  O5       1.0000 0.47686  0.81864  0.07799  Biso   1.000  O 
  O6       1.0000 0.46281  0.83182  0.57726  Biso   1.000  O 
  O7       1.0000 0.47685  0.69561  0.32429  Biso   1.000  O 
  O8       1.0000 0.46488  0.69676  0.82296  Biso   1.000  O 
  O9       1.0000 0.28094  0.25412  0.30319  Biso   1.000  O 
  O10      1.0000 0.27168  0.26295  0.79056  Biso   1.000  O 
  O11      1.0000 0.28927  0.24589  0.03437  Biso   1.000  O 
  O12      1.0000 0.27261  0.26204  0.54536  Biso   1.000  O 
  O13      1.0000 0.23607  0.72321  0.30096  Biso   1.000  O 
  O14      1.0000 0.21816  0.76258  0.78906  Biso   1.000  O 
  O15      1.0000 0.25261  0.71408  0.02704  Biso   1.000  O 
  O16      1.0000 0.21865  0.76940  0.54417  Biso   1.000  O 
  O17      1.0000 0.53459  0.32497  0.17094  Biso   1.000  O 
  O18      1.0000 0.52473  0.33842  0.66744  Biso   1.000  O 
  O19      1.0000 0.53041  0.18038  0.41987  Biso   1.000  O 
  O20      1.0000 0.52859  0.19607  0.91679  Biso   1.000  O 
  O21      1.0000 0.84633  0.81045  0.17825  Biso   1.000  O 
  O22      1.0000 0.95770  0.86660  0.65884  Biso   1.000  O 
  O23      1.0000 0.96353  0.68116  0.41545  Biso   1.000  O 
  O24      1.0000 0.95971  0.67331  0.90194  Biso   1.000  O 
  O25      1.0000 0.77147  0.24235  0.95198  Biso   1.000  O 
  O26      1.0000 0.76646  0.26971  0.46584  Biso   1.000  O 
  O27      1.0000 0.77816  0.27788  0.21109  Biso   1.000  O 
  O28      1.0000 0.76972  0.26878  0.70773  Biso   1.000  O 
  O29      1.0000 0.71700  0.75322  0.95309  Biso   1.000  O 
  O30      1.0000 0.72176  0.76294  0.46205  Biso   1.000  O 
  O31      1.0000 0.70707  0.78915  0.21525  Biso   1.000  O 
  O32      1.0000 0.71971  0.76483  0.70461  Biso   1.000  O 
