data_image0
_cell_length_a       5.07321
_cell_length_b       10.2941
_cell_length_c       10.1692
_cell_angle_alpha    90
_cell_angle_beta     90
_cell_angle_gamma    90

_symmetry_space_group_name_H-M    "P 1"
_symmetry_int_tables_number       1

loop_
  _symmetry_equiv_pos_as_xyz
  'x, y, z'

loop_
  _atom_site_label
  _atom_site_occupancy
  _atom_site_fract_x
  _atom_site_fract_y
  _atom_site_fract_z
  _atom_site_thermal_displace_type
  _atom_site_B_iso_or_equiv
  _atom_site_type_symbol
  Rb1      1.0000 0.39223  0.96810  0.14838  Biso   1.000  Rb
  Hf1      1.0000 0.19491  0.99100  0.63488  Biso   1.000  Hf
  Hf2      1.0000 0.30035  0.49360  0.12032  Biso   1.000  Hf
  Hf3      1.0000 0.31008  0.50172  0.60099  Biso   1.000  Hf
  Hf4      1.0000 0.24061  0.23662  0.39307  Biso   1.000  Hf
  Hf5      1.0000 0.16632  0.22036  0.89712  Biso   1.000  Hf
  Hf6      1.0000 0.23785  0.73513  0.35929  Biso   1.000  Hf
  Hf7      1.0000 0.26529  0.70861  0.87817  Biso   1.000  Hf
  Hf8      1.0000 0.77300  0.25617  0.13129  Biso   1.000  Hf
  Hf9      1.0000 0.69294  0.22697  0.64700  Biso   1.000  Hf
  Hf10     1.0000 0.82991  0.73005  0.10214  Biso   1.000  Hf
  Hf11     1.0000 0.83829  0.75145  0.63445  Biso   1.000  Hf
  Hf12     1.0000 0.74493  0.02163  0.37952  Biso   1.000  Hf
  Hf13     1.0000 0.66976  0.98468  0.89013  Biso   1.000  Hf
  Hf14     1.0000 0.81151  0.48223  0.38101  Biso   1.000  Hf
  Hf15     1.0000 0.76350  0.48033  0.85136  Biso   1.000  Hf
  O1       1.0000 0.00628  0.13779  0.00529  Biso   1.000  O 
  O2       1.0000 0.97517  0.13559  0.51583  Biso   1.000  O 
  O3       1.0000 0.99750  0.60271  0.98810  Biso   1.000  O 
  O4       1.0000 0.01045  0.63188  0.49401  Biso   1.000  O 
  O5       1.0000 0.99188  0.12826  0.27113  Biso   1.000  O 
  O6       1.0000 0.91771  0.07734  0.75706  Biso   1.000  O 
  O7       1.0000 0.00961  0.60326  0.24322  Biso   1.000  O 
  O8       1.0000 0.03839  0.58457  0.74070  Biso   1.000  O 
  O9       1.0000 0.08381  0.36188  0.25326  Biso   1.000  O 
  O10      1.0000 0.95943  0.32618  0.76014  Biso   1.000  O 
  O11      1.0000 0.96209  0.85593  0.24821  Biso   1.000  O 
  O12      1.0000 0.15020  0.82686  0.72834  Biso   1.000  O 
  O13      1.0000 0.00619  0.38696  0.00707  Biso   1.000  O 
  O14      1.0000 0.05532  0.38419  0.50460  Biso   1.000  O 
  O15      1.0000 0.00446  0.83759  0.97511  Biso   1.000  O 
  O16      1.0000 0.03237  0.88469  0.50023  Biso   1.000  O 
  O17      1.0000 0.52303  0.16366  0.27006  Biso   1.000  O 
  O18      1.0000 0.40815  0.13640  0.75530  Biso   1.000  O 
  O19      1.0000 0.46920  0.68931  0.19681  Biso   1.000  O 
  O20      1.0000 0.54718  0.63620  0.72591  Biso   1.000  O 
  O21      1.0000 0.53961  0.11731  0.00427  Biso   1.000  O 
  O22      1.0000 0.47029  0.09449  0.51355  Biso   1.000  O 
  O23      1.0000 0.49901  0.57102  0.98049  Biso   1.000  O 
  O24      1.0000 0.49341  0.58978  0.44763  Biso   1.000  O 
  O25      1.0000 0.49279  0.35075  0.00946  Biso   1.000  O 
  O26      1.0000 0.55231  0.34714  0.49324  Biso   1.000  O 
  O27      1.0000 0.53491  0.82647  0.96505  Biso   1.000  O 
  O28      1.0000 0.50377  0.83195  0.51060  Biso   1.000  O 
  O29      1.0000 0.59817  0.42016  0.23038  Biso   1.000  O 
  O30      1.0000 0.48611  0.38671  0.73818  Biso   1.000  O 
  O31      1.0000 0.52399  0.88210  0.38007  Biso   1.000  O 
  O32      1.0000 0.64204  0.89988  0.72434  Biso   1.000  O 
