data_image0
_cell_length_a       10.0523
_cell_length_b       10.2715
_cell_length_c       10.5364
_cell_angle_alpha    90
_cell_angle_beta     90
_cell_angle_gamma    90

_symmetry_space_group_name_H-M    "P 1"
_symmetry_int_tables_number       1

loop_
  _symmetry_equiv_pos_as_xyz
  'x, y, z'

loop_
  _atom_site_label
  _atom_site_occupancy
  _atom_site_fract_x
  _atom_site_fract_y
  _atom_site_fract_z
  _atom_site_thermal_displace_type
  _atom_site_B_iso_or_equiv
  _atom_site_type_symbol
  Hf1      1.0000 0.13751  0.02075  0.17227  Biso   1.000  Hf
  Hf2      1.0000 0.13219  0.22723  0.42652  Biso   1.000  Hf
  Hf3      1.0000 0.34367  0.27220  0.18768  Biso   1.000  Hf
  Hf4      1.0000 0.35691  0.47894  0.42327  Biso   1.000  Hf
  Hf5      1.0000 0.63847  0.00765  0.08042  Biso   1.000  Hf
  Hf6      1.0000 0.63132  0.22099  0.33094  Biso   1.000  Hf
  Hf7      1.0000 0.86752  0.27257  0.07511  Biso   1.000  Hf
  Hf8      1.0000 0.85466  0.47748  0.32664  Biso   1.000  Hf
  O1       1.0000 0.03550  0.16429  0.08202  Biso   1.000  O 
  O2       1.0000 0.02644  0.08745  0.33140  Biso   1.000  O 
  O3       1.0000 0.44554  0.44417  0.10270  Biso   1.000  O 
  O4       1.0000 0.46151  0.33279  0.33612  Biso   1.000  O 
  O5       1.0000 0.26651  0.12455  0.30209  Biso   1.000  O 
  O6       1.0000 0.28181  0.12735  0.04693  Biso   1.000  O 
  O7       1.0000 0.21363  0.37559  0.30311  Biso   1.000  O 
  O8       1.0000 0.21951  0.37614  0.04842  Biso   1.000  O 
  O9       1.0000 0.51390  0.12410  0.20172  Biso   1.000  O 
  O10      1.0000 0.52414  0.08983  0.43387  Biso   1.000  O 
  O11      1.0000 0.96518  0.41454  0.16910  Biso   1.000  O 
  O12      1.0000 0.96296  0.33667  0.41790  Biso   1.000  O 
  O13      1.0000 0.77107  0.12223  0.45225  Biso   1.000  O 
  O14      1.0000 0.76994  0.12808  0.19971  Biso   1.000  O 
  O15      1.0000 0.71875  0.37388  0.45376  Biso   1.000  O 
  O16      1.0000 0.71625  0.37607  0.20215  Biso   1.000  O 
  Hf9      1.0000 0.13290  0.02049  0.67329  Biso   1.000  Hf
  Hf10     1.0000 0.13313  0.22832  0.92208  Biso   1.000  Hf
  Hf11     1.0000 0.35478  0.27294  0.67376  Biso   1.000  Hf
  Hf12     1.0000 0.34866  0.48454  0.92525  Biso   1.000  Hf
  Hf13     1.0000 0.63443  0.01713  0.57868  Biso   1.000  Hf
  Hf14     1.0000 0.64086  0.22595  0.80828  Biso   1.000  Hf
  Hf15     1.0000 0.85752  0.27278  0.57425  Biso   1.000  Hf
  Hf16     1.0000 0.85638  0.48065  0.82792  Biso   1.000  Hf
  O17      1.0000 0.02527  0.16237  0.58265  Biso   1.000  O 
  O18      1.0000 0.02652  0.08486  0.83295  Biso   1.000  O 
  O19      1.0000 0.46314  0.41324  0.58119  Biso   1.000  O 
  O20      1.0000 0.46240  0.34018  0.82927  Biso   1.000  O 
  O21      1.0000 0.27001  0.12416  0.79628  Biso   1.000  O 
  O22      1.0000 0.26960  0.12521  0.54903  Biso   1.000  O 
  O23      1.0000 0.21704  0.37399  0.79764  Biso   1.000  O 
  O24      1.0000 0.21862  0.37561  0.54886  Biso   1.000  O 
  O25      1.0000 0.52540  0.16207  0.66688  Biso   1.000  O 
  O26      1.0000 0.52948  0.06798  0.90523  Biso   1.000  O 
  O27      1.0000 0.96231  0.41364  0.66750  Biso   1.000  O 
  O28      1.0000 0.96376  0.33507  0.91625  Biso   1.000  O 
  O29      1.0000 0.76695  0.12536  0.94967  Biso   1.000  O 
  O30      1.0000 0.77468  0.12258  0.69779  Biso   1.000  O 
  O31      1.0000 0.72798  0.38449  0.95124  Biso   1.000  O 
  O32      1.0000 0.72003  0.37536  0.70057  Biso   1.000  O 
  Hf17     1.0000 0.13625  0.52295  0.17278  Biso   1.000  Hf
  Hf18     1.0000 0.13206  0.72851  0.42204  Biso   1.000  Hf
  Hf19     1.0000 0.35645  0.77241  0.17422  Biso   1.000  Hf
  Hf20     1.0000 0.35596  0.97874  0.42553  Biso   1.000  Hf
  Hf21     1.0000 0.63763  0.53340  0.08070  Biso   1.000  Hf
  Hf22     1.0000 0.63420  0.73047  0.33092  Biso   1.000  Hf
  Hf23     1.0000 0.86218  0.77044  0.07876  Biso   1.000  Hf
  Hf24     1.0000 0.85776  0.97984  0.32784  Biso   1.000  Hf
  O33      1.0000 0.03118  0.66385  0.08215  Biso   1.000  O 
  O34      1.0000 0.02646  0.58643  0.33220  Biso   1.000  O 
  O35      1.0000 0.46589  0.90569  0.07751  Biso   1.000  O 
  O36      1.0000 0.46360  0.83869  0.33415  Biso   1.000  O 
  O37      1.0000 0.27041  0.62537  0.29654  Biso   1.000  O 
  O38      1.0000 0.27248  0.63078  0.04459  Biso   1.000  O 
  O39      1.0000 0.21923  0.87488  0.29677  Biso   1.000  O 
  O40      1.0000 0.22079  0.87838  0.04704  Biso   1.000  O 
  O41      1.0000 0.53242  0.67334  0.16951  Biso   1.000  O 
  O42      1.0000 0.52709  0.58634  0.41688  Biso   1.000  O 
  O43      1.0000 0.96458  0.91614  0.16743  Biso   1.000  O 
  O44      1.0000 0.96137  0.83645  0.41814  Biso   1.000  O 
  O45      1.0000 0.77091  0.62385  0.45456  Biso   1.000  O 
  O46      1.0000 0.77488  0.62767  0.20611  Biso   1.000  O 
  O47      1.0000 0.71844  0.87409  0.45638  Biso   1.000  O 
  O48      1.0000 0.72322  0.87360  0.20645  Biso   1.000  O 
  Hf25     1.0000 0.13235  0.52067  0.67225  Biso   1.000  Hf
  Hf26     1.0000 0.12868  0.73098  0.92166  Biso   1.000  Hf
  Hf27     1.0000 0.35390  0.76892  0.67187  Biso   1.000  Hf
  Hf28     1.0000 0.35260  0.97609  0.91994  Biso   1.000  Hf
  Hf29     1.0000 0.63329  0.52123  0.57625  Biso   1.000  Hf
  Hf30     1.0000 0.63011  0.72782  0.82689  Biso   1.000  Hf
  Hf31     1.0000 0.85604  0.77052  0.57933  Biso   1.000  Hf
  Hf32     1.0000 0.85359  0.97859  0.83005  Biso   1.000  Hf
  O49      1.0000 0.02663  0.66404  0.58267  Biso   1.000  O 
  O50      1.0000 0.02601  0.58678  0.83276  Biso   1.000  O 
  O51      1.0000 0.46187  0.91019  0.58416  Biso   1.000  O 
  O52      1.0000 0.45628  0.82889  0.83232  Biso   1.000  O 
  O53      1.0000 0.26762  0.62429  0.79549  Biso   1.000  O 
  O54      1.0000 0.26932  0.62477  0.54529  Biso   1.000  O 
  O55      1.0000 0.21508  0.87339  0.79534  Biso   1.000  O 
  O56      1.0000 0.21757  0.87559  0.54620  Biso   1.000  O 
  O57      1.0000 0.52544  0.66191  0.66701  Biso   1.000  O 
  O58      1.0000 0.52292  0.58539  0.91902  Biso   1.000  O 
  O59      1.0000 0.96063  0.91302  0.66897  Biso   1.000  O 
  O60      1.0000 0.95790  0.83667  0.91908  Biso   1.000  O 
  O61      1.0000 0.76712  0.62848  0.95316  Biso   1.000  O 
  O62      1.0000 0.76938  0.62483  0.70360  Biso   1.000  O 
  O63      1.0000 0.71511  0.87256  0.95629  Biso   1.000  O 
  O64      1.0000 0.71766  0.87370  0.70728  Biso   1.000  O 
  Rb1      1.0000 0.55881  0.26192  0.03404  Biso   1.000  Rb
