data_image0
_cell_length_a       10.058
_cell_length_b       10.2436
_cell_length_c       10.0581
_cell_angle_alpha    90
_cell_angle_beta     90
_cell_angle_gamma    90

_symmetry_space_group_name_H-M    "P 1"
_symmetry_int_tables_number       1

loop_
  _symmetry_equiv_pos_as_xyz
  'x, y, z'

loop_
  _atom_site_label
  _atom_site_occupancy
  _atom_site_fract_x
  _atom_site_fract_y
  _atom_site_fract_z
  _atom_site_thermal_displace_type
  _atom_site_B_iso_or_equiv
  _atom_site_type_symbol
  Rb1      1.0000 0.12589  0.00050  0.12594  Biso   1.000  Rb
  Hf1      1.0000 0.12590  0.00049  0.62593  Biso   1.000  Hf
  Hf2      1.0000 0.12587  0.50050  0.12593  Biso   1.000  Hf
  Hf3      1.0000 0.12588  0.50049  0.62592  Biso   1.000  Hf
  Hf4      1.0000 0.62589  0.00050  0.12593  Biso   1.000  Hf
  Hf5      1.0000 0.62589  0.00050  0.62593  Biso   1.000  Hf
  Hf6      1.0000 0.62587  0.50050  0.12592  Biso   1.000  Hf
  Hf7      1.0000 0.62589  0.50049  0.62594  Biso   1.000  Hf
  Hf8      1.0000 0.12453  0.25409  0.37646  Biso   1.000  Hf
  Hf9      1.0000 0.12723  0.25408  0.87538  Biso   1.000  Hf
  Hf10     1.0000 0.12724  0.74689  0.37647  Biso   1.000  Hf
  Hf11     1.0000 0.12456  0.74689  0.87538  Biso   1.000  Hf
  Hf12     1.0000 0.62613  0.24972  0.37601  Biso   1.000  Hf
  Hf13     1.0000 0.62564  0.24970  0.87584  Biso   1.000  Hf
  Hf14     1.0000 0.62562  0.75127  0.37602  Biso   1.000  Hf
  Hf15     1.0000 0.62613  0.75126  0.87584  Biso   1.000  Hf
  Hf16     1.0000 0.37642  0.25410  0.12457  Biso   1.000  Hf
  Hf17     1.0000 0.37598  0.24972  0.62618  Biso   1.000  Hf
  Hf18     1.0000 0.37642  0.74690  0.12729  Biso   1.000  Hf
  Hf19     1.0000 0.37598  0.75126  0.62567  Biso   1.000  Hf
  Hf20     1.0000 0.87534  0.25410  0.12727  Biso   1.000  Hf
  Hf21     1.0000 0.87580  0.24972  0.62567  Biso   1.000  Hf
  Hf22     1.0000 0.87533  0.74691  0.12459  Biso   1.000  Hf
  Hf23     1.0000 0.87579  0.75127  0.62618  Biso   1.000  Hf
  Hf24     1.0000 0.37669  0.00333  0.37672  Biso   1.000  Hf
  Hf25     1.0000 0.37668  0.99765  0.87514  Biso   1.000  Hf
  Hf26     1.0000 0.37744  0.49920  0.37749  Biso   1.000  Hf
  Hf27     1.0000 0.37745  0.50177  0.87436  Biso   1.000  Hf
  Hf28     1.0000 0.87509  0.99765  0.37673  Biso   1.000  Hf
  Hf29     1.0000 0.87512  0.00333  0.87513  Biso   1.000  Hf
  Hf30     1.0000 0.87432  0.50177  0.37749  Biso   1.000  Hf
  Hf31     1.0000 0.87434  0.49923  0.87437  Biso   1.000  Hf
  O1       1.0000 0.99012  0.15715  0.99015  Biso   1.000  O 
  O2       1.0000 0.01065  0.15064  0.51128  Biso   1.000  O 
  O3       1.0000 0.00656  0.64266  0.00662  Biso   1.000  O 
  O4       1.0000 0.00142  0.64758  0.50573  Biso   1.000  O 
  O5       1.0000 0.51124  0.15065  0.01069  Biso   1.000  O 
  O6       1.0000 0.50691  0.14916  0.50695  Biso   1.000  O 
  O7       1.0000 0.50567  0.64759  0.00147  Biso   1.000  O 
  O8       1.0000 0.50061  0.64825  0.50066  Biso   1.000  O 
  O9       1.0000 0.98258  0.12562  0.26924  Biso   1.000  O 
  O10      1.0000 0.99551  0.10119  0.75006  Biso   1.000  O 
  O11      1.0000 0.99826  0.60108  0.25350  Biso   1.000  O 
  O12      1.0000 0.00167  0.60184  0.75520  Biso   1.000  O 
  O13      1.0000 0.50177  0.10119  0.25633  Biso   1.000  O 
  O14      1.0000 0.49805  0.10274  0.75379  Biso   1.000  O 
  O15      1.0000 0.49656  0.60184  0.25013  Biso   1.000  O 
  O16      1.0000 0.50118  0.60302  0.75062  Biso   1.000  O 
  O17      1.0000 0.00659  0.35835  0.24521  Biso   1.000  O 
  O18      1.0000 0.00146  0.35340  0.74610  Biso   1.000  O 
  O19      1.0000 0.99009  0.84383  0.26172  Biso   1.000  O 
  O20      1.0000 0.01060  0.85035  0.74059  Biso   1.000  O 
  O21      1.0000 0.50569  0.35340  0.25037  Biso   1.000  O 
  O22      1.0000 0.50065  0.35273  0.75117  Biso   1.000  O 
  O23      1.0000 0.51124  0.85035  0.24118  Biso   1.000  O 
  O24      1.0000 0.50688  0.85183  0.74492  Biso   1.000  O 
  O25      1.0000 0.99830  0.39991  0.99832  Biso   1.000  O 
  O26      1.0000 0.00166  0.39914  0.49663  Biso   1.000  O 
  O27      1.0000 0.98260  0.87537  0.98263  Biso   1.000  O 
  O28      1.0000 0.99549  0.89980  0.50181  Biso   1.000  O 
  O29      1.0000 0.49658  0.39916  0.00170  Biso   1.000  O 
  O30      1.0000 0.50118  0.39797  0.50122  Biso   1.000  O 
  O31      1.0000 0.50178  0.89979  0.99553  Biso   1.000  O 
  O32      1.0000 0.49803  0.89825  0.49808  Biso   1.000  O 
  O33      1.0000 0.26168  0.15715  0.26172  Biso   1.000  O 
  O34      1.0000 0.24116  0.15064  0.74058  Biso   1.000  O 
  O35      1.0000 0.24513  0.64265  0.24518  Biso   1.000  O 
  O36      1.0000 0.25032  0.64758  0.74608  Biso   1.000  O 
  O37      1.0000 0.74054  0.15065  0.24118  Biso   1.000  O 
  O38      1.0000 0.74489  0.14916  0.74492  Biso   1.000  O 
  O39      1.0000 0.74604  0.64760  0.25036  Biso   1.000  O 
  O40      1.0000 0.75112  0.64825  0.75116  Biso   1.000  O 
  O41      1.0000 0.26922  0.12561  0.98262  Biso   1.000  O 
  O42      1.0000 0.25629  0.10118  0.50181  Biso   1.000  O 
  O43      1.0000 0.25346  0.60106  0.99830  Biso   1.000  O 
  O44      1.0000 0.25008  0.60183  0.49661  Biso   1.000  O 
  O45      1.0000 0.75003  0.10118  0.99554  Biso   1.000  O 
  O46      1.0000 0.75375  0.10274  0.49808  Biso   1.000  O 
  O47      1.0000 0.75514  0.60185  0.00169  Biso   1.000  O 
  O48      1.0000 0.75057  0.60302  0.50120  Biso   1.000  O 
  O49      1.0000 0.24516  0.35835  0.00663  Biso   1.000  O 
  O50      1.0000 0.25033  0.35339  0.50574  Biso   1.000  O 
  O51      1.0000 0.26169  0.84381  0.99016  Biso   1.000  O 
  O52      1.0000 0.24113  0.85033  0.51131  Biso   1.000  O 
  O53      1.0000 0.74605  0.35341  0.00149  Biso   1.000  O 
  O54      1.0000 0.75113  0.35273  0.50068  Biso   1.000  O 
  O55      1.0000 0.74054  0.85036  0.01066  Biso   1.000  O 
  O56      1.0000 0.74488  0.85183  0.50693  Biso   1.000  O 
  O57      1.0000 0.25347  0.39991  0.25352  Biso   1.000  O 
  O58      1.0000 0.25012  0.39914  0.75520  Biso   1.000  O 
  O59      1.0000 0.26919  0.87537  0.26926  Biso   1.000  O 
  O60      1.0000 0.25624  0.89979  0.75008  Biso   1.000  O 
  O61      1.0000 0.75516  0.39916  0.25015  Biso   1.000  O 
  O62      1.0000 0.75060  0.39797  0.75064  Biso   1.000  O 
  O63      1.0000 0.75001  0.89981  0.25631  Biso   1.000  O 
  O64      1.0000 0.75372  0.89826  0.75378  Biso   1.000  O 
