data_image0
_cell_length_a       10.0855
_cell_length_b       10.3426
_cell_length_c       5.3056
_cell_angle_alpha    90
_cell_angle_beta     90
_cell_angle_gamma    90

_symmetry_space_group_name_H-M    "P 1"
_symmetry_int_tables_number       1

loop_
  _symmetry_equiv_pos_as_xyz
  'x, y, z'

loop_
  _atom_site_label
  _atom_site_occupancy
  _atom_site_fract_x
  _atom_site_fract_y
  _atom_site_fract_z
  _atom_site_thermal_displace_type
  _atom_site_B_iso_or_equiv
  _atom_site_type_symbol
  Hf1      1.0000 0.13789  0.02121  0.34859  Biso   1.000  Hf
  Hf2      1.0000 0.13306  0.22761  0.85325  Biso   1.000  Hf
  Hf3      1.0000 0.34322  0.27521  0.37642  Biso   1.000  Hf
  Hf4      1.0000 0.35034  0.48605  0.85227  Biso   1.000  Hf
  Hf5      1.0000 0.63914  0.00408  0.15676  Biso   1.000  Hf
  Hf6      1.0000 0.63933  0.21444  0.61326  Biso   1.000  Hf
  Hf7      1.0000 0.86940  0.27487  0.14660  Biso   1.000  Hf
  Hf8      1.0000 0.85661  0.48047  0.65695  Biso   1.000  Hf
  O1       1.0000 0.03371  0.16171  0.16312  Biso   1.000  O 
  O2       1.0000 0.02731  0.08766  0.66302  Biso   1.000  O 
  O3       1.0000 0.44483  0.44610  0.20229  Biso   1.000  O 
  O4       1.0000 0.46242  0.33686  0.66174  Biso   1.000  O 
  O5       1.0000 0.26776  0.12507  0.60508  Biso   1.000  O 
  O6       1.0000 0.28020  0.12637  0.10063  Biso   1.000  O 
  O7       1.0000 0.21298  0.37615  0.60964  Biso   1.000  O 
  O8       1.0000 0.21894  0.37604  0.10328  Biso   1.000  O 
  O9       1.0000 0.51558  0.12369  0.38862  Biso   1.000  O 
  O10      1.0000 0.52840  0.06800  0.84063  Biso   1.000  O 
  O11      1.0000 0.96569  0.41355  0.34239  Biso   1.000  O 
  O12      1.0000 0.96600  0.33674  0.83566  Biso   1.000  O 
  O13      1.0000 0.76803  0.12719  0.88943  Biso   1.000  O 
  O14      1.0000 0.77671  0.12215  0.38300  Biso   1.000  O 
  O15      1.0000 0.73356  0.39088  0.91460  Biso   1.000  O 
  O16      1.0000 0.71802  0.37295  0.40554  Biso   1.000  O 
  Hf9      1.0000 0.13517  0.52261  0.34662  Biso   1.000  Hf
  Hf10     1.0000 0.12804  0.73109  0.84500  Biso   1.000  Hf
  Hf11     1.0000 0.35428  0.77043  0.34999  Biso   1.000  Hf
  Hf12     1.0000 0.35098  0.97531  0.85027  Biso   1.000  Hf
  Hf13     1.0000 0.63728  0.53442  0.16141  Biso   1.000  Hf
  Hf14     1.0000 0.63143  0.73115  0.65991  Biso   1.000  Hf
  Hf15     1.0000 0.86247  0.77061  0.15994  Biso   1.000  Hf
  Hf16     1.0000 0.85682  0.97984  0.65796  Biso   1.000  Hf
  O17      1.0000 0.02977  0.66265  0.16433  Biso   1.000  O 
  O18      1.0000 0.02532  0.58894  0.66479  Biso   1.000  O 
  O19      1.0000 0.46496  0.90119  0.15912  Biso   1.000  O 
  O20      1.0000 0.45777  0.83283  0.66767  Biso   1.000  O 
  O21      1.0000 0.26693  0.62641  0.59270  Biso   1.000  O 
  O22      1.0000 0.27019  0.62980  0.08873  Biso   1.000  O 
  O23      1.0000 0.21623  0.87481  0.59565  Biso   1.000  O 
  O24      1.0000 0.21945  0.87733  0.09838  Biso   1.000  O 
  O25      1.0000 0.53119  0.67212  0.33949  Biso   1.000  O 
  O26      1.0000 0.52409  0.58727  0.83857  Biso   1.000  O 
  O27      1.0000 0.96482  0.91389  0.34098  Biso   1.000  O 
  O28      1.0000 0.95910  0.83916  0.84275  Biso   1.000  O 
  O29      1.0000 0.76659  0.63196  0.90941  Biso   1.000  O 
  O30      1.0000 0.77304  0.62576  0.41200  Biso   1.000  O 
  O31      1.0000 0.71745  0.87450  0.91262  Biso   1.000  O 
  O32      1.0000 0.72342  0.87120  0.41583  Biso   1.000  O 
  Rb1      1.0000 0.55933  0.26706  0.05960  Biso   1.000  Rb
