data_image0
_cell_length_a       9.99731
_cell_length_b       5.30258
_cell_length_c       10.1959
_cell_angle_alpha    90
_cell_angle_beta     90
_cell_angle_gamma    90

_symmetry_space_group_name_H-M    "P 1"
_symmetry_int_tables_number       1

loop_
  _symmetry_equiv_pos_as_xyz
  'x, y, z'

loop_
  _atom_site_label
  _atom_site_occupancy
  _atom_site_fract_x
  _atom_site_fract_y
  _atom_site_fract_z
  _atom_site_thermal_displace_type
  _atom_site_B_iso_or_equiv
  _atom_site_type_symbol
  Hf1      1.0000 0.13842  0.10685  0.14662  Biso   1.000  Hf
  Hf2      1.0000 0.12645  0.50488  0.38766  Biso   1.000  Hf
  Hf3      1.0000 0.36726  0.57765  0.13281  Biso   1.000  Hf
  Hf4      1.0000 0.35951  0.99890  0.37952  Biso   1.000  Hf
  O1       1.0000 0.02386  0.40536  0.21105  Biso   1.000  O 
  O2       1.0000 0.05074  0.14978  0.42454  Biso   1.000  O 
  O3       1.0000 0.46749  0.89930  0.21188  Biso   1.000  O 
  O4       1.0000 0.45217  0.66644  0.45298  Biso   1.000  O 
  O5       1.0000 0.27347  0.28881  0.26078  Biso   1.000  O 
  O6       1.0000 0.27120  0.29210  0.50538  Biso   1.000  O 
  O7       1.0000 0.22190  0.79317  0.50471  Biso   1.000  O 
  O8       1.0000 0.22150  0.77443  0.25576  Biso   1.000  O 
  Hf5      1.0000 0.12434  0.06524  0.61478  Biso   1.000  Hf
  Hf6      1.0000 0.10980  0.45506  0.83132  Biso   1.000  Hf
  Hf7      1.0000 0.35418  0.57345  0.62994  Biso   1.000  Hf
  Hf8      1.0000 0.37843  0.03457  0.86369  Biso   1.000  Hf
  O9       1.0000 0.04785  0.42931  0.63463  Biso   1.000  O 
  O10      1.0000 0.00448  0.24226  0.96161  Biso   1.000  O 
  O11      1.0000 0.45858  0.89217  0.69050  Biso   1.000  O 
  O12      1.0000 0.46635  0.72361  0.95313  Biso   1.000  O 
  O13      1.0000 0.26494  0.26809  0.74861  Biso   1.000  O 
  O14      1.0000 0.24008  0.36262  0.01390  Biso   1.000  O 
  O15      1.0000 0.27554  0.88854  0.02294  Biso   1.000  O 
  O16      1.0000 0.22087  0.77248  0.76037  Biso   1.000  O 
  Hf9      1.0000 0.64109  0.06745  0.13616  Biso   1.000  Hf
  Hf10     1.0000 0.61939  0.50068  0.38793  Biso   1.000  Hf
  Hf11     1.0000 0.84109  0.57009  0.16588  Biso   1.000  Hf
  Hf12     1.0000 0.86414  0.00320  0.39332  Biso   1.000  Hf
  O17      1.0000 0.53316  0.39652  0.20547  Biso   1.000  O 
  O18      1.0000 0.52838  0.17020  0.45452  Biso   1.000  O 
  O19      1.0000 0.95723  0.90563  0.21176  Biso   1.000  O 
  O20      1.0000 0.94414  0.65093  0.43266  Biso   1.000  O 
  O21      1.0000 0.76359  0.26699  0.27141  Biso   1.000  O 
  O22      1.0000 0.76028  0.31305  0.51172  Biso   1.000  O 
  O23      1.0000 0.71289  0.79797  0.50924  Biso   1.000  O 
  O24      1.0000 0.71439  0.77948  0.26828  Biso   1.000  O 
  Hf13     1.0000 0.63123  0.08238  0.62666  Biso   1.000  Hf
  Hf14     1.0000 0.62010  0.54043  0.87304  Biso   1.000  Hf
  Hf15     1.0000 0.85930  0.59478  0.62612  Biso   1.000  Hf
  Hf16     1.0000 0.86133  0.03238  0.84678  Biso   1.000  Hf
  O25      1.0000 0.51737  0.38898  0.70863  Biso   1.000  O 
  O26      1.0000 0.53123  0.21953  0.95494  Biso   1.000  O 
  O27      1.0000 0.92682  0.96764  0.62891  Biso   1.000  O 
  O28      1.0000 0.93959  0.67613  0.81720  Biso   1.000  O 
  O29      1.0000 0.76079  0.30405  0.75773  Biso   1.000  O 
  O30      1.0000 0.75153  0.34810  0.02661  Biso   1.000  O 
  O31      1.0000 0.77285  0.83099  0.01814  Biso   1.000  O 
  O32      1.0000 0.70787  0.81127  0.75649  Biso   1.000  O 
  Rb1      1.0000 0.06369  0.67805  0.02047  Biso   1.000  Rb
