data_image0
_cell_length_a       10.2155
_cell_length_b       5.17754
_cell_length_c       10.5895
_cell_angle_alpha    90
_cell_angle_beta     80
_cell_angle_gamma    90

_symmetry_space_group_name_H-M    "P 1"
_symmetry_int_tables_number       1

loop_
  _symmetry_equiv_pos_as_xyz
  'x, y, z'

loop_
  _atom_site_label
  _atom_site_occupancy
  _atom_site_fract_x
  _atom_site_fract_y
  _atom_site_fract_z
  _atom_site_thermal_displace_type
  _atom_site_B_iso_or_equiv
  _atom_site_type_symbol
  Rb1      1.0000 0.08695  0.97646  0.13198  Biso   1.000  Rb
  Hf1      1.0000 0.13719  0.05718  0.64529  Biso   1.000  Hf
  Hf2      1.0000 0.63234  0.04504  0.14259  Biso   1.000  Hf
  Hf3      1.0000 0.63232  0.05459  0.65097  Biso   1.000  Hf
  Hf4      1.0000 0.13727  0.45983  0.39682  Biso   1.000  Hf
  Hf5      1.0000 0.13914  0.47398  0.89184  Biso   1.000  Hf
  Hf6      1.0000 0.62587  0.45259  0.40080  Biso   1.000  Hf
  Hf7      1.0000 0.62916  0.47672  0.89477  Biso   1.000  Hf
  Hf8      1.0000 0.35655  0.52599  0.10267  Biso   1.000  Hf
  Hf9      1.0000 0.35375  0.55843  0.60181  Biso   1.000  Hf
  Hf10     1.0000 0.86273  0.49489  0.07955  Biso   1.000  Hf
  Hf11     1.0000 0.85895  0.55630  0.60839  Biso   1.000  Hf
  Hf12     1.0000 0.35011  0.96333  0.34778  Biso   1.000  Hf
  Hf13     1.0000 0.35312  0.97183  0.85333  Biso   1.000  Hf
  Hf14     1.0000 0.85379  0.98554  0.38184  Biso   1.000  Hf
  Hf15     1.0000 0.85369  0.96698  0.84986  Biso   1.000  Hf
  O1       1.0000 0.04602  0.43321  0.08037  Biso   1.000  O 
  O2       1.0000 0.03486  0.36566  0.59100  Biso   1.000  O 
  O3       1.0000 0.53582  0.33221  0.07357  Biso   1.000  O 
  O4       1.0000 0.52388  0.33256  0.57601  Biso   1.000  O 
  O5       1.0000 0.02112  0.17602  0.35924  Biso   1.000  O 
  O6       1.0000 0.03205  0.16563  0.83641  Biso   1.000  O 
  O7       1.0000 0.53048  0.17384  0.32382  Biso   1.000  O 
  O8       1.0000 0.53041  0.18407  0.82636  Biso   1.000  O 
  O9       1.0000 0.46590  0.82467  0.17125  Biso   1.000  O 
  O10      1.0000 0.46076  0.83663  0.67370  Biso   1.000  O 
  O11      1.0000 0.84364  0.79082  0.21169  Biso   1.000  O 
  O12      1.0000 0.95563  0.86641  0.66590  Biso   1.000  O 
  O13      1.0000 0.46562  0.68267  0.42312  Biso   1.000  O 
  O14      1.0000 0.47069  0.69920  0.92220  Biso   1.000  O 
  O15      1.0000 0.96086  0.67693  0.42424  Biso   1.000  O 
  O16      1.0000 0.95455  0.66691  0.90681  Biso   1.000  O 
  O17      1.0000 0.28055  0.25580  0.24563  Biso   1.000  O 
  O18      1.0000 0.27158  0.27239  0.73597  Biso   1.000  O 
  O19      1.0000 0.77077  0.27676  0.24124  Biso   1.000  O 
  O20      1.0000 0.77179  0.27209  0.74173  Biso   1.000  O 
  O21      1.0000 0.27160  0.25277  0.49065  Biso   1.000  O 
  O22      1.0000 0.27899  0.26145  0.97711  Biso   1.000  O 
  O23      1.0000 0.76451  0.26542  0.49999  Biso   1.000  O 
  O24      1.0000 0.76540  0.23590  0.98754  Biso   1.000  O 
  O25      1.0000 0.23926  0.74268  0.98792  Biso   1.000  O 
  O26      1.0000 0.22016  0.77306  0.50840  Biso   1.000  O 
  O27      1.0000 0.72538  0.74783  0.00986  Biso   1.000  O 
  O28      1.0000 0.71938  0.77208  0.51889  Biso   1.000  O 
  O29      1.0000 0.23339  0.71355  0.26222  Biso   1.000  O 
  O30      1.0000 0.21631  0.75805  0.75358  Biso   1.000  O 
  O31      1.0000 0.70491  0.78227  0.27497  Biso   1.000  O 
  O32      1.0000 0.71885  0.75452  0.76024  Biso   1.000  O 
