data_image0
_cell_length_a       10.1043
_cell_length_b       5.22592
_cell_length_c       10.095
_cell_angle_alpha    90
_cell_angle_beta     90
_cell_angle_gamma    90

_symmetry_space_group_name_H-M    "P 1"
_symmetry_int_tables_number       1

loop_
  _symmetry_equiv_pos_as_xyz
  'x, y, z'

loop_
  _atom_site_label
  _atom_site_occupancy
  _atom_site_fract_x
  _atom_site_fract_y
  _atom_site_fract_z
  _atom_site_thermal_displace_type
  _atom_site_B_iso_or_equiv
  _atom_site_type_symbol
  Rb1      1.0000 0.09137  0.97557  0.14900  Biso   1.000  Rb
  Hf1      1.0000 0.14358  0.03051  0.62372  Biso   1.000  Hf
  Hf2      1.0000 0.63105  0.03401  0.11365  Biso   1.000  Hf
  Hf3      1.0000 0.63551  0.02442  0.62488  Biso   1.000  Hf
  Hf4      1.0000 0.14398  0.47243  0.37773  Biso   1.000  Hf
  Hf5      1.0000 0.15127  0.45746  0.87687  Biso   1.000  Hf
  Hf6      1.0000 0.63621  0.45150  0.37517  Biso   1.000  Hf
  Hf7      1.0000 0.63600  0.46438  0.86630  Biso   1.000  Hf
  Hf8      1.0000 0.36750  0.51315  0.12412  Biso   1.000  Hf
  Hf9      1.0000 0.37281  0.53271  0.62415  Biso   1.000  Hf
  Hf10     1.0000 0.88838  0.47898  0.08081  Biso   1.000  Hf
  Hf11     1.0000 0.87929  0.53551  0.62438  Biso   1.000  Hf
  Hf12     1.0000 0.37446  0.96252  0.37006  Biso   1.000  Hf
  Hf13     1.0000 0.36913  0.95237  0.88057  Biso   1.000  Hf
  Hf14     1.0000 0.86986  0.98692  0.39278  Biso   1.000  Hf
  Hf15     1.0000 0.86972  0.96824  0.86705  Biso   1.000  Hf
  O1       1.0000 0.03842  0.45448  0.20627  Biso   1.000  O 
  O2       1.0000 0.04509  0.36587  0.69302  Biso   1.000  O 
  O3       1.0000 0.54238  0.35460  0.19766  Biso   1.000  O 
  O4       1.0000 0.54002  0.35882  0.69162  Biso   1.000  O 
  O5       1.0000 0.04314  0.13711  0.44212  Biso   1.000  O 
  O6       1.0000 0.00475  0.21310  0.94976  Biso   1.000  O 
  O7       1.0000 0.54471  0.12486  0.44549  Biso   1.000  O 
  O8       1.0000 0.53769  0.13078  0.94015  Biso   1.000  O 
  O9       1.0000 0.47285  0.85835  0.19336  Biso   1.000  O 
  O10      1.0000 0.47394  0.85669  0.70000  Biso   1.000  O 
  O11      1.0000 0.84181  0.71977  0.24111  Biso   1.000  O 
  O12      1.0000 0.97187  0.87353  0.69317  Biso   1.000  O 
  O13      1.0000 0.48028  0.62905  0.45238  Biso   1.000  O 
  O14      1.0000 0.48475  0.63632  0.94992  Biso   1.000  O 
  O15      1.0000 0.98266  0.65463  0.45652  Biso   1.000  O 
  O16      1.0000 0.99278  0.68672  0.94208  Biso   1.000  O 
  O17      1.0000 0.28780  0.23548  0.25663  Biso   1.000  O 
  O18      1.0000 0.27720  0.22845  0.74934  Biso   1.000  O 
  O19      1.0000 0.78393  0.20666  0.23872  Biso   1.000  O 
  O20      1.0000 0.77543  0.23089  0.74032  Biso   1.000  O 
  O21      1.0000 0.27812  0.26402  0.50232  Biso   1.000  O 
  O22      1.0000 0.28087  0.24339  0.99381  Biso   1.000  O 
  O23      1.0000 0.77640  0.27395  0.49711  Biso   1.000  O 
  O24      1.0000 0.76185  0.24840  0.98655  Biso   1.000  O 
  O25      1.0000 0.24319  0.77045  0.50144  Biso   1.000  O 
  O26      1.0000 0.25257  0.72004  0.99528  Biso   1.000  O 
  O27      1.0000 0.74056  0.76673  0.49830  Biso   1.000  O 
  O28      1.0000 0.75158  0.74731  0.99651  Biso   1.000  O 
  O29      1.0000 0.26156  0.69915  0.26429  Biso   1.000  O 
  O30      1.0000 0.23610  0.73422  0.74775  Biso   1.000  O 
  O31      1.0000 0.69948  0.74379  0.24191  Biso   1.000  O 
  O32      1.0000 0.73846  0.73004  0.74567  Biso   1.000  O 
