data_image0
_cell_length_a       10.2014
_cell_length_b       10.3729
_cell_length_c       5.31456
_cell_angle_alpha    90
_cell_angle_beta     80
_cell_angle_gamma    90

_symmetry_space_group_name_H-M    "P 1"
_symmetry_int_tables_number       1

loop_
  _symmetry_equiv_pos_as_xyz
  'x, y, z'

loop_
  _atom_site_label
  _atom_site_occupancy
  _atom_site_fract_x
  _atom_site_fract_y
  _atom_site_fract_z
  _atom_site_thermal_displace_type
  _atom_site_B_iso_or_equiv
  _atom_site_type_symbol
  Hf1      1.0000 0.13520  0.02167  0.28572  Biso   1.000  Hf
  Hf2      1.0000 0.13279  0.22690  0.77440  Biso   1.000  Hf
  Hf3      1.0000 0.34555  0.28344  0.17110  Biso   1.000  Hf
  Hf4      1.0000 0.36000  0.49413  0.71212  Biso   1.000  Hf
  O1       1.0000 0.03600  0.16689  0.14769  Biso   1.000  O 
  O2       1.0000 0.02934  0.08321  0.64936  Biso   1.000  O 
  O3       1.0000 0.45733  0.43556  0.35060  Biso   1.000  O 
  O4       1.0000 0.47993  0.37251  0.89504  Biso   1.000  O 
  O5       1.0000 0.26243  0.12873  0.45528  Biso   1.000  O 
  O6       1.0000 0.28475  0.12781  0.94864  Biso   1.000  O 
  O7       1.0000 0.21079  0.38510  0.00420  Biso   1.000  O 
  O8       1.0000 0.22387  0.37262  0.50956  Biso   1.000  O 
  Hf5      1.0000 0.13464  0.52450  0.29758  Biso   1.000  Hf
  Hf6      1.0000 0.13543  0.73031  0.79518  Biso   1.000  Hf
  Hf7      1.0000 0.35688  0.77188  0.21528  Biso   1.000  Hf
  Hf8      1.0000 0.36432  0.96686  0.71336  Biso   1.000  Hf
  O9       1.0000 0.02787  0.66500  0.15710  Biso   1.000  O 
  O10      1.0000 0.03205  0.58577  0.65639  Biso   1.000  O 
  O11      1.0000 0.46206  0.91667  0.34926  Biso   1.000  O 
  O12      1.0000 0.46294  0.82634  0.84963  Biso   1.000  O 
  O13      1.0000 0.27139  0.63216  0.48598  Biso   1.000  O 
  O14      1.0000 0.27507  0.62887  0.98714  Biso   1.000  O 
  O15      1.0000 0.21920  0.88028  0.02615  Biso   1.000  O 
  O16      1.0000 0.22168  0.87107  0.52593  Biso   1.000  O 
  Hf9      1.0000 0.64351  0.01539  0.29698  Biso   1.000  Hf
  Hf10     1.0000 0.66057  0.22539  0.82283  Biso   1.000  Hf
  Hf11     1.0000 0.86261  0.27247  0.22166  Biso   1.000  Hf
  Hf12     1.0000 0.86012  0.47872  0.71210  Biso   1.000  Hf
  O17      1.0000 0.53282  0.16066  0.14312  Biso   1.000  O 
  O18      1.0000 0.56128  0.05146  0.68272  Biso   1.000  O 
  O19      1.0000 0.96584  0.41582  0.35227  Biso   1.000  O 
  O20      1.0000 0.96420  0.33304  0.84464  Biso   1.000  O 
  O21      1.0000 0.78102  0.12931  0.48791  Biso   1.000  O 
  O22      1.0000 0.79092  0.11864  0.99532  Biso   1.000  O 
  O23      1.0000 0.72395  0.37681  0.03997  Biso   1.000  O 
  O24      1.0000 0.72188  0.37081  0.53342  Biso   1.000  O 
  Hf13     1.0000 0.63382  0.52481  0.29688  Biso   1.000  Hf
  Hf14     1.0000 0.64083  0.72816  0.79529  Biso   1.000  Hf
  Hf15     1.0000 0.85657  0.76930  0.21181  Biso   1.000  Hf
  Hf16     1.0000 0.85691  0.97505  0.70836  Biso   1.000  Hf
  O25      1.0000 0.53183  0.67094  0.16030  Biso   1.000  O 
  O26      1.0000 0.53293  0.59440  0.65148  Biso   1.000  O 
  O27      1.0000 0.96113  0.91229  0.35059  Biso   1.000  O 
  O28      1.0000 0.96568  0.83534  0.84906  Biso   1.000  O 
  O29      1.0000 0.77578  0.62625  0.48285  Biso   1.000  O 
  O30      1.0000 0.77654  0.62024  0.98028  Biso   1.000  O 
  O31      1.0000 0.71883  0.87522  0.02366  Biso   1.000  O 
  O32      1.0000 0.72399  0.86544  0.51731  Biso   1.000  O 
  Rb1      1.0000 0.45269  0.23330  0.56718  Biso   1.000  Rb
