data_image0
_cell_length_a       10.0134
_cell_length_b       10.4038
_cell_length_c       10.0955
_cell_angle_alpha    90
_cell_angle_beta     90
_cell_angle_gamma    90

_symmetry_space_group_name_H-M    "P 1"
_symmetry_int_tables_number       1

loop_
  _symmetry_equiv_pos_as_xyz
  'x, y, z'

loop_
  _atom_site_label
  _atom_site_occupancy
  _atom_site_fract_x
  _atom_site_fract_y
  _atom_site_fract_z
  _atom_site_thermal_displace_type
  _atom_site_B_iso_or_equiv
  _atom_site_type_symbol
  Hf1      1.0000 0.13022  0.98812  0.10951  Biso   1.000  Hf
  Hf2      1.0000 0.11715  0.23424  0.39508  Biso   1.000  Hf
  Hf3      1.0000 0.36037  0.26797  0.12349  Biso   1.000  Hf
  Hf4      1.0000 0.35456  0.48730  0.37340  Biso   1.000  Hf
  O1       1.0000 0.94957  0.18156  0.27971  Biso   1.000  O 
  O2       1.0000 0.03848  0.05882  0.45605  Biso   1.000  O 
  O3       1.0000 0.44961  0.43861  0.19170  Biso   1.000  O 
  O4       1.0000 0.45475  0.32532  0.44955  Biso   1.000  O 
  O5       1.0000 0.23040  0.11330  0.24358  Biso   1.000  O 
  O6       1.0000 0.26944  0.13747  0.49569  Biso   1.000  O 
  O7       1.0000 0.22274  0.38906  0.49852  Biso   1.000  O 
  O8       1.0000 0.21393  0.36373  0.25019  Biso   1.000  O 
  Hf5      1.0000 0.13286  0.01079  0.62448  Biso   1.000  Hf
  Hf6      1.0000 0.12865  0.23268  0.84565  Biso   1.000  Hf
  Hf7      1.0000 0.36284  0.27196  0.62367  Biso   1.000  Hf
  Hf8      1.0000 0.34966  0.48959  0.87421  Biso   1.000  Hf
  O9       1.0000 0.04037  0.18582  0.67129  Biso   1.000  O 
  O10      1.0000 0.03345  0.06402  0.93145  Biso   1.000  O 
  O11      1.0000 0.45233  0.43961  0.69738  Biso   1.000  O 
  O12      1.0000 0.45274  0.32260  0.94938  Biso   1.000  O 
  O13      1.0000 0.26837  0.11856  0.74329  Biso   1.000  O 
  O14      1.0000 0.26305  0.13051  0.99490  Biso   1.000  O 
  O15      1.0000 0.21330  0.39362  0.99281  Biso   1.000  O 
  O16      1.0000 0.21997  0.37248  0.74142  Biso   1.000  O 
  Hf9      1.0000 0.12300  0.52318  0.12735  Biso   1.000  Hf
  Hf10     1.0000 0.11856  0.73918  0.37528  Biso   1.000  Hf
  Hf11     1.0000 0.35947  0.75934  0.12392  Biso   1.000  Hf
  Hf12     1.0000 0.34779  0.99217  0.36888  Biso   1.000  Hf
  O17      1.0000 0.02474  0.68644  0.19400  Biso   1.000  O 
  O18      1.0000 0.02340  0.57496  0.43850  Biso   1.000  O 
  O19      1.0000 0.44361  0.93414  0.19205  Biso   1.000  O 
  O20      1.0000 0.45086  0.82343  0.44102  Biso   1.000  O 
  O21      1.0000 0.25948  0.61829  0.24840  Biso   1.000  O 
  O22      1.0000 0.25544  0.63841  0.49676  Biso   1.000  O 
  O23      1.0000 0.21876  0.88733  0.49383  Biso   1.000  O 
  O24      1.0000 0.21947  0.86033  0.24307  Biso   1.000  O 
  Hf13     1.0000 0.11817  0.52113  0.61730  Biso   1.000  Hf
  Hf14     1.0000 0.11279  0.73475  0.86858  Biso   1.000  Hf
  Hf15     1.0000 0.35452  0.76976  0.62030  Biso   1.000  Hf
  Hf16     1.0000 0.35057  0.98532  0.87122  Biso   1.000  Hf
  O25      1.0000 0.02255  0.69370  0.68820  Biso   1.000  O 
  O26      1.0000 0.01418  0.56960  0.94644  Biso   1.000  O 
  O27      1.0000 0.45221  0.93532  0.69729  Biso   1.000  O 
  O28      1.0000 0.45030  0.82362  0.95004  Biso   1.000  O 
  O29      1.0000 0.25208  0.61887  0.74694  Biso   1.000  O 
  O30      1.0000 0.24773  0.63740  0.99744  Biso   1.000  O 
  O31      1.0000 0.21508  0.87804  0.99004  Biso   1.000  O 
  O32      1.0000 0.21822  0.86685  0.74586  Biso   1.000  O 
  Hf17     1.0000 0.62430  0.01036  0.12131  Biso   1.000  Hf
  Hf18     1.0000 0.61808  0.23196  0.39394  Biso   1.000  Hf
  Hf19     1.0000 0.80978  0.26259  0.15500  Biso   1.000  Hf
  Hf20     1.0000 0.85415  0.48625  0.38181  Biso   1.000  Hf
  O33      1.0000 0.50687  0.17751  0.21262  Biso   1.000  O 
  O34      1.0000 0.52362  0.06931  0.45852  Biso   1.000  O 
  O35      1.0000 0.94356  0.43139  0.19685  Biso   1.000  O 
  O36      1.0000 0.96361  0.33603  0.47006  Biso   1.000  O 
  O37      1.0000 0.72703  0.11013  0.26174  Biso   1.000  O 
  O38      1.0000 0.76783  0.14233  0.50771  Biso   1.000  O 
  O39      1.0000 0.72089  0.38576  0.50815  Biso   1.000  O 
  O40      1.0000 0.69586  0.37653  0.26657  Biso   1.000  O 
  Hf21     1.0000 0.63439  0.02116  0.62873  Biso   1.000  Hf
  Hf22     1.0000 0.62433  0.24051  0.87934  Biso   1.000  Hf
  Hf23     1.0000 0.86115  0.28002  0.64231  Biso   1.000  Hf
  Hf24     1.0000 0.84755  0.49063  0.87151  Biso   1.000  Hf
  O41      1.0000 0.53048  0.18981  0.69613  Biso   1.000  O 
  O42      1.0000 0.52822  0.07313  0.94177  Biso   1.000  O 
  O43      1.0000 0.94083  0.46134  0.68297  Biso   1.000  O 
  O44      1.0000 0.94287  0.31297  0.86665  Biso   1.000  O 
  O45      1.0000 0.76382  0.12407  0.75720  Biso   1.000  O 
  O46      1.0000 0.77988  0.13033  0.00815  Biso   1.000  O 
  O47      1.0000 0.73246  0.38351  0.00616  Biso   1.000  O 
  O48      1.0000 0.70853  0.37909  0.75423  Biso   1.000  O 
  Hf25     1.0000 0.62306  0.52142  0.12722  Biso   1.000  Hf
  Hf26     1.0000 0.62354  0.74100  0.37757  Biso   1.000  Hf
  Hf27     1.0000 0.85332  0.76692  0.12747  Biso   1.000  Hf
  Hf28     1.0000 0.87100  0.00255  0.36671  Biso   1.000  Hf
  O49      1.0000 0.52757  0.68586  0.19744  Biso   1.000  O 
  O50      1.0000 0.52088  0.57316  0.44657  Biso   1.000  O 
  O51      1.0000 0.95249  0.94187  0.18730  Biso   1.000  O 
  O52      1.0000 0.94976  0.82398  0.44085  Biso   1.000  O 
  O53      1.0000 0.75957  0.62008  0.25177  Biso   1.000  O 
  O54      1.0000 0.75648  0.63841  0.50019  Biso   1.000  O 
  O55      1.0000 0.71662  0.89237  0.49843  Biso   1.000  O 
  O56      1.0000 0.71913  0.86859  0.24773  Biso   1.000  O 
  Hf29     1.0000 0.62054  0.52206  0.62593  Biso   1.000  Hf
  Hf30     1.0000 0.61668  0.74020  0.87457  Biso   1.000  Hf
  Hf31     1.0000 0.85141  0.77587  0.62144  Biso   1.000  Hf
  Hf32     1.0000 0.84492  0.98781  0.87773  Biso   1.000  Hf
  O57      1.0000 0.51958  0.68827  0.69604  Biso   1.000  O 
  O58      1.0000 0.51490  0.57553  0.94775  Biso   1.000  O 
  O59      1.0000 0.94910  0.93781  0.69983  Biso   1.000  O 
  O60      1.0000 0.94870  0.82109  0.95014  Biso   1.000  O 
  O61      1.0000 0.75407  0.62647  0.75067  Biso   1.000  O 
  O62      1.0000 0.76226  0.63391  0.00139  Biso   1.000  O 
  O63      1.0000 0.70845  0.88816  0.99946  Biso   1.000  O 
  O64      1.0000 0.71511  0.87295  0.74961  Biso   1.000  O 
  Rb1      1.0000 0.06012  0.24653  0.08850  Biso   1.000  Rb
