data_image0
_cell_length_a       10.1594
_cell_length_b       10.3239
_cell_length_c       10.5061
_cell_angle_alpha    90
_cell_angle_beta     80
_cell_angle_gamma    90

_symmetry_space_group_name_H-M    "P 1"
_symmetry_int_tables_number       1

loop_
  _symmetry_equiv_pos_as_xyz
  'x, y, z'

loop_
  _atom_site_label
  _atom_site_occupancy
  _atom_site_fract_x
  _atom_site_fract_y
  _atom_site_fract_z
  _atom_site_thermal_displace_type
  _atom_site_B_iso_or_equiv
  _atom_site_type_symbol
  Rb1      1.0000 0.08357  0.98594  0.13357  Biso   1.000  Rb
  Hf1      1.0000 0.13558  0.02641  0.64550  Biso   1.000  Hf
  Hf2      1.0000 0.14097  0.51981  0.14331  Biso   1.000  Hf
  Hf3      1.0000 0.13561  0.52635  0.64577  Biso   1.000  Hf
  Hf4      1.0000 0.63974  0.02726  0.14320  Biso   1.000  Hf
  Hf5      1.0000 0.63275  0.02660  0.65211  Biso   1.000  Hf
  Hf6      1.0000 0.62866  0.51527  0.14695  Biso   1.000  Hf
  Hf7      1.0000 0.63335  0.52381  0.64524  Biso   1.000  Hf
  Hf8      1.0000 0.13770  0.22978  0.39550  Biso   1.000  Hf
  Hf9      1.0000 0.13195  0.23445  0.89788  Biso   1.000  Hf
  Hf10     1.0000 0.13569  0.73000  0.39480  Biso   1.000  Hf
  Hf11     1.0000 0.14268  0.73342  0.89024  Biso   1.000  Hf
  Hf12     1.0000 0.63256  0.23344  0.39736  Biso   1.000  Hf
  Hf13     1.0000 0.63270  0.23538  0.89798  Biso   1.000  Hf
  Hf14     1.0000 0.62871  0.72395  0.39974  Biso   1.000  Hf
  Hf15     1.0000 0.62822  0.73421  0.89324  Biso   1.000  Hf
  Hf16     1.0000 0.35112  0.26126  0.10418  Biso   1.000  Hf
  Hf17     1.0000 0.35459  0.27391  0.60453  Biso   1.000  Hf
  Hf18     1.0000 0.36305  0.77216  0.10434  Biso   1.000  Hf
  Hf19     1.0000 0.35513  0.77884  0.60135  Biso   1.000  Hf
  Hf20     1.0000 0.85995  0.27594  0.10442  Biso   1.000  Hf
  Hf21     1.0000 0.85825  0.27740  0.60526  Biso   1.000  Hf
  Hf22     1.0000 0.86300  0.74043  0.07760  Biso   1.000  Hf
  Hf23     1.0000 0.85755  0.77462  0.60563  Biso   1.000  Hf
  Hf24     1.0000 0.35258  0.47832  0.35272  Biso   1.000  Hf
  Hf25     1.0000 0.35609  0.47981  0.85451  Biso   1.000  Hf
  Hf26     1.0000 0.35255  0.98404  0.34886  Biso   1.000  Hf
  Hf27     1.0000 0.35117  0.98659  0.85540  Biso   1.000  Hf
  Hf28     1.0000 0.85892  0.48243  0.35326  Biso   1.000  Hf
  Hf29     1.0000 0.85620  0.48005  0.84925  Biso   1.000  Hf
  Hf30     1.0000 0.85387  0.99273  0.38038  Biso   1.000  Hf
  Hf31     1.0000 0.85240  0.98399  0.85594  Biso   1.000  Hf
  O1       1.0000 0.03978  0.20485  0.08284  Biso   1.000  O 
  O2       1.0000 0.03364  0.18073  0.58947  Biso   1.000  O 
  O3       1.0000 0.04558  0.68027  0.08118  Biso   1.000  O 
  O4       1.0000 0.03198  0.67361  0.58192  Biso   1.000  O 
  O5       1.0000 0.53428  0.16823  0.07736  Biso   1.000  O 
  O6       1.0000 0.52718  0.16905  0.57943  Biso   1.000  O 
  O7       1.0000 0.53484  0.66469  0.07577  Biso   1.000  O 
  O8       1.0000 0.52697  0.66766  0.57738  Biso   1.000  O 
  O9       1.0000 0.02518  0.08185  0.36407  Biso   1.000  O 
  O10      1.0000 0.03165  0.08303  0.83534  Biso   1.000  O 
  O11      1.0000 0.03239  0.58423  0.32796  Biso   1.000  O 
  O12      1.0000 0.02851  0.58603  0.83204  Biso   1.000  O 
  O13      1.0000 0.53520  0.08782  0.32521  Biso   1.000  O 
  O14      1.0000 0.53166  0.08812  0.83058  Biso   1.000  O 
  O15      1.0000 0.52680  0.58217  0.32901  Biso   1.000  O 
  O16      1.0000 0.52691  0.58844  0.82599  Biso   1.000  O 
  O17      1.0000 0.45917  0.41212  0.17266  Biso   1.000  O 
  O18      1.0000 0.46086  0.41901  0.67118  Biso   1.000  O 
  O19      1.0000 0.46851  0.91790  0.17006  Biso   1.000  O 
  O20      1.0000 0.45984  0.91902  0.67432  Biso   1.000  O 
  O21      1.0000 0.95450  0.43604  0.16344  Biso   1.000  O 
  O22      1.0000 0.95930  0.42767  0.66697  Biso   1.000  O 
  O23      1.0000 0.84425  0.88719  0.21171  Biso   1.000  O 
  O24      1.0000 0.95625  0.92509  0.67095  Biso   1.000  O 
  O25      1.0000 0.46010  0.33547  0.42214  Biso   1.000  O 
  O26      1.0000 0.46131  0.33922  0.92197  Biso   1.000  O 
  O27      1.0000 0.46619  0.83999  0.42214  Biso   1.000  O 
  O28      1.0000 0.46878  0.84626  0.92302  Biso   1.000  O 
  O29      1.0000 0.95959  0.33542  0.41917  Biso   1.000  O 
  O30      1.0000 0.95264  0.33342  0.91313  Biso   1.000  O 
  O31      1.0000 0.96061  0.83389  0.42091  Biso   1.000  O 
  O32      1.0000 0.96505  0.83991  0.92237  Biso   1.000  O 
  O33      1.0000 0.28125  0.13613  0.25071  Biso   1.000  O 
  O34      1.0000 0.27082  0.13227  0.73838  Biso   1.000  O 
  O35      1.0000 0.27514  0.62322  0.23670  Biso   1.000  O 
  O36      1.0000 0.27235  0.63428  0.73779  Biso   1.000  O 
  O37      1.0000 0.78010  0.13217  0.24525  Biso   1.000  O 
  O38      1.0000 0.77341  0.13433  0.74445  Biso   1.000  O 
  O39      1.0000 0.76469  0.63504  0.23787  Biso   1.000  O 
  O40      1.0000 0.76912  0.63338  0.73796  Biso   1.000  O 
  O41      1.0000 0.27202  0.12429  0.49324  Biso   1.000  O 
  O42      1.0000 0.27785  0.13318  0.97920  Biso   1.000  O 
  O43      1.0000 0.27185  0.62451  0.48872  Biso   1.000  O 
  O44      1.0000 0.27105  0.62060  0.98857  Biso   1.000  O 
  O45      1.0000 0.76570  0.13067  0.50114  Biso   1.000  O 
  O46      1.0000 0.77106  0.12562  0.99379  Biso   1.000  O 
  O47      1.0000 0.77103  0.62456  0.48898  Biso   1.000  O 
  O48      1.0000 0.76363  0.61713  0.98457  Biso   1.000  O 
  O49      1.0000 0.22499  0.38001  0.00724  Biso   1.000  O 
  O50      1.0000 0.21870  0.38338  0.50921  Biso   1.000  O 
  O51      1.0000 0.23707  0.86626  0.99117  Biso   1.000  O 
  O52      1.0000 0.21963  0.88403  0.50872  Biso   1.000  O 
  O53      1.0000 0.72108  0.37850  0.00865  Biso   1.000  O 
  O54      1.0000 0.71918  0.38385  0.50974  Biso   1.000  O 
  O55      1.0000 0.72634  0.87356  0.00971  Biso   1.000  O 
  O56      1.0000 0.71921  0.88346  0.51779  Biso   1.000  O 
  O57      1.0000 0.21480  0.37287  0.25753  Biso   1.000  O 
  O58      1.0000 0.21796  0.37602  0.75950  Biso   1.000  O 
  O59      1.0000 0.23573  0.85770  0.26350  Biso   1.000  O 
  O60      1.0000 0.21650  0.87660  0.75427  Biso   1.000  O 
  O61      1.0000 0.71973  0.37441  0.26110  Biso   1.000  O 
  O62      1.0000 0.71821  0.37522  0.75802  Biso   1.000  O 
  O63      1.0000 0.70454  0.88665  0.27313  Biso   1.000  O 
  O64      1.0000 0.71894  0.87543  0.76195  Biso   1.000  O 
