data_image0
_cell_length_a       9.99492
_cell_length_b       10.4015
_cell_length_c       10.082
_cell_angle_alpha    90
_cell_angle_beta     90
_cell_angle_gamma    90

_symmetry_space_group_name_H-M    "P 1"
_symmetry_int_tables_number       1

loop_
  _symmetry_equiv_pos_as_xyz
  'x, y, z'

loop_
  _atom_site_label
  _atom_site_occupancy
  _atom_site_fract_x
  _atom_site_fract_y
  _atom_site_fract_z
  _atom_site_thermal_displace_type
  _atom_site_B_iso_or_equiv
  _atom_site_type_symbol
  Rb1      1.0000 0.08886  0.99130  0.13650  Biso   1.000  Rb
  Hf1      1.0000 0.13788  0.01905  0.63034  Biso   1.000  Hf
  Hf2      1.0000 0.14203  0.51646  0.13102  Biso   1.000  Hf
  Hf3      1.0000 0.14076  0.51735  0.62579  Biso   1.000  Hf
  Hf4      1.0000 0.63589  0.01965  0.11692  Biso   1.000  Hf
  Hf5      1.0000 0.63205  0.01642  0.62527  Biso   1.000  Hf
  Hf6      1.0000 0.63081  0.51341  0.12603  Biso   1.000  Hf
  Hf7      1.0000 0.63855  0.51570  0.62550  Biso   1.000  Hf
  Hf8      1.0000 0.14063  0.23501  0.37770  Biso   1.000  Hf
  Hf9      1.0000 0.14287  0.23237  0.87423  Biso   1.000  Hf
  Hf10     1.0000 0.14428  0.73454  0.38200  Biso   1.000  Hf
  Hf11     1.0000 0.15087  0.73376  0.87594  Biso   1.000  Hf
  Hf12     1.0000 0.63551  0.23289  0.37219  Biso   1.000  Hf
  Hf13     1.0000 0.63912  0.23251  0.87363  Biso   1.000  Hf
  Hf14     1.0000 0.63489  0.72862  0.37661  Biso   1.000  Hf
  Hf15     1.0000 0.63716  0.73350  0.87197  Biso   1.000  Hf
  Hf16     1.0000 0.36277  0.26145  0.12703  Biso   1.000  Hf
  Hf17     1.0000 0.37038  0.26579  0.62583  Biso   1.000  Hf
  Hf18     1.0000 0.37075  0.76523  0.12603  Biso   1.000  Hf
  Hf19     1.0000 0.37270  0.77022  0.62613  Biso   1.000  Hf
  Hf20     1.0000 0.86480  0.26973  0.12518  Biso   1.000  Hf
  Hf21     1.0000 0.87165  0.27043  0.62242  Biso   1.000  Hf
  Hf22     1.0000 0.88899  0.72760  0.08746  Biso   1.000  Hf
  Hf23     1.0000 0.87399  0.76370  0.62347  Biso   1.000  Hf
  Hf24     1.0000 0.37071  0.48174  0.37656  Biso   1.000  Hf
  Hf25     1.0000 0.37247  0.47988  0.87694  Biso   1.000  Hf
  Hf26     1.0000 0.36942  0.98537  0.37243  Biso   1.000  Hf
  Hf27     1.0000 0.36800  0.98502  0.88109  Biso   1.000  Hf
  Hf28     1.0000 0.86985  0.48658  0.37499  Biso   1.000  Hf
  Hf29     1.0000 0.87000  0.47766  0.87324  Biso   1.000  Hf
  Hf30     1.0000 0.86806  0.99027  0.39617  Biso   1.000  Hf
  Hf31     1.0000 0.86868  0.98319  0.86496  Biso   1.000  Hf
  O1       1.0000 0.02954  0.21113  0.20879  Biso   1.000  O 
  O2       1.0000 0.04634  0.19352  0.67959  Biso   1.000  O 
  O3       1.0000 0.05023  0.69410  0.19909  Biso   1.000  O 
  O4       1.0000 0.04297  0.68375  0.69816  Biso   1.000  O 
  O5       1.0000 0.54383  0.18535  0.18861  Biso   1.000  O 
  O6       1.0000 0.54073  0.18490  0.69339  Biso   1.000  O 
  O7       1.0000 0.53837  0.67988  0.19967  Biso   1.000  O 
  O8       1.0000 0.54067  0.68290  0.69401  Biso   1.000  O 
  O9       1.0000 0.04012  0.06703  0.44160  Biso   1.000  O 
  O10      1.0000 0.04120  0.06812  0.89139  Biso   1.000  O 
  O11      1.0000 0.04001  0.56788  0.44763  Biso   1.000  O 
  O12      1.0000 0.02145  0.58561  0.96647  Biso   1.000  O 
  O13      1.0000 0.54039  0.06588  0.44418  Biso   1.000  O 
  O14      1.0000 0.54520  0.06485  0.93945  Biso   1.000  O 
  O15      1.0000 0.54085  0.56520  0.44534  Biso   1.000  O 
  O16      1.0000 0.53536  0.56808  0.94842  Biso   1.000  O 
  O17      1.0000 0.46609  0.42930  0.19717  Biso   1.000  O 
  O18      1.0000 0.47054  0.43348  0.69525  Biso   1.000  O 
  O19      1.0000 0.47657  0.93236  0.19574  Biso   1.000  O 
  O20      1.0000 0.47018  0.93377  0.69948  Biso   1.000  O 
  O21      1.0000 0.96287  0.44511  0.19245  Biso   1.000  O 
  O22      1.0000 0.97176  0.43571  0.69838  Biso   1.000  O 
  O23      1.0000 0.86235  0.87623  0.22406  Biso   1.000  O 
  O24      1.0000 0.96155  0.93701  0.67855  Biso   1.000  O 
  O25      1.0000 0.46951  0.31516  0.44538  Biso   1.000  O 
  O26      1.0000 0.47142  0.31581  0.94329  Biso   1.000  O 
  O27      1.0000 0.47426  0.81782  0.45172  Biso   1.000  O 
  O28      1.0000 0.47845  0.82008  0.94790  Biso   1.000  O 
  O29      1.0000 0.96915  0.32284  0.44716  Biso   1.000  O 
  O30      1.0000 0.97341  0.32021  0.94632  Biso   1.000  O 
  O31      1.0000 0.97538  0.82014  0.44830  Biso   1.000  O 
  O32      1.0000 0.98122  0.82591  0.93768  Biso   1.000  O 
  O33      1.0000 0.28610  0.13030  0.26013  Biso   1.000  O 
  O34      1.0000 0.27914  0.11947  0.74854  Biso   1.000  O 
  O35      1.0000 0.27655  0.61241  0.25211  Biso   1.000  O 
  O36      1.0000 0.27705  0.61785  0.75178  Biso   1.000  O 
  O37      1.0000 0.77803  0.11367  0.24928  Biso   1.000  O 
  O38      1.0000 0.77313  0.11859  0.74500  Biso   1.000  O 
  O39      1.0000 0.77308  0.61760  0.24279  Biso   1.000  O 
  O40      1.0000 0.77712  0.61562  0.74542  Biso   1.000  O 
  O41      1.0000 0.27354  0.13094  0.50425  Biso   1.000  O 
  O42      1.0000 0.28096  0.13603  0.99345  Biso   1.000  O 
  O43      1.0000 0.27823  0.63239  0.50288  Biso   1.000  O 
  O44      1.0000 0.27005  0.62593  0.00163  Biso   1.000  O 
  O45      1.0000 0.77120  0.13655  0.50062  Biso   1.000  O 
  O46      1.0000 0.78269  0.13048  0.99624  Biso   1.000  O 
  O47      1.0000 0.77498  0.63341  0.49571  Biso   1.000  O 
  O48      1.0000 0.76531  0.61893  0.98887  Biso   1.000  O 
  O49      1.0000 0.23607  0.38347  0.50069  Biso   1.000  O 
  O50      1.0000 0.22948  0.38356  0.00178  Biso   1.000  O 
  O51      1.0000 0.23633  0.88552  0.50415  Biso   1.000  O 
  O52      1.0000 0.24869  0.86723  0.99455  Biso   1.000  O 
  O53      1.0000 0.73393  0.38444  0.49843  Biso   1.000  O 
  O54      1.0000 0.73295  0.37925  0.99769  Biso   1.000  O 
  O55      1.0000 0.73458  0.88073  0.50054  Biso   1.000  O 
  O56      1.0000 0.74384  0.87157  0.99847  Biso   1.000  O 
  O57      1.0000 0.23045  0.37110  0.25174  Biso   1.000  O 
  O58      1.0000 0.23541  0.36887  0.74959  Biso   1.000  O 
  O59      1.0000 0.25557  0.85277  0.26370  Biso   1.000  O 
  O60      1.0000 0.23444  0.87074  0.74984  Biso   1.000  O 
  O61      1.0000 0.73250  0.36840  0.24995  Biso   1.000  O 
  O62      1.0000 0.73555  0.36768  0.74858  Biso   1.000  O 
  O63      1.0000 0.71949  0.87722  0.24632  Biso   1.000  O 
  O64      1.0000 0.73520  0.86547  0.74679  Biso   1.000  O 
