data_image0
_cell_length_a       10.0844
_cell_length_b       5.25321
_cell_length_c       10.1007
_cell_angle_alpha    90
_cell_angle_beta     90
_cell_angle_gamma    90

_symmetry_space_group_name_H-M    "P 1"
_symmetry_int_tables_number       1

loop_
  _symmetry_equiv_pos_as_xyz
  'x, y, z'

loop_
  _atom_site_label
  _atom_site_occupancy
  _atom_site_fract_x
  _atom_site_fract_y
  _atom_site_fract_z
  _atom_site_thermal_displace_type
  _atom_site_B_iso_or_equiv
  _atom_site_type_symbol
  Hf1      1.0000 0.12224  0.09765  0.10709  Biso   1.000  Hf
  Hf2      1.0000 0.15086  0.41687  0.38580  Biso   1.000  Hf
  Hf3      1.0000 0.41151  0.53726  0.10306  Biso   1.000  Hf
  Hf4      1.0000 0.37935  0.92509  0.37686  Biso   1.000  Hf
  O1       1.0000 0.01357  0.35659  0.22587  Biso   1.000  O 
  O2       1.0000 0.04605  0.09931  0.45665  Biso   1.000  O 
  O3       1.0000 0.48541  0.85717  0.20053  Biso   1.000  O 
  O4       1.0000 0.48846  0.61166  0.46184  Biso   1.000  O 
  O5       1.0000 0.24349  0.11907  0.26748  Biso   1.000  O 
  O6       1.0000 0.29032  0.22760  0.50812  Biso   1.000  O 
  O7       1.0000 0.24465  0.72850  0.50602  Biso   1.000  O 
  O8       1.0000 0.28988  0.60255  0.26606  Biso   1.000  O 
  Hf5      1.0000 0.15059  0.99786  0.62928  Biso   1.000  Hf
  Hf6      1.0000 0.13828  0.43537  0.86207  Biso   1.000  Hf
  Hf7      1.0000 0.38185  0.50465  0.63107  Biso   1.000  Hf
  Hf8      1.0000 0.39785  0.95957  0.87123  Biso   1.000  Hf
  O9       1.0000 0.05053  0.33692  0.68190  Biso   1.000  O 
  O10      1.0000 0.05424  0.08421  0.92056  Biso   1.000  O 
  O11      1.0000 0.48116  0.84287  0.69385  Biso   1.000  O 
  O12      1.0000 0.50634  0.64458  0.92877  Biso   1.000  O 
  O13      1.0000 0.28296  0.20638  0.75537  Biso   1.000  O 
  O14      1.0000 0.25576  0.35639  0.00673  Biso   1.000  O 
  O15      1.0000 0.26620  0.84929  0.02501  Biso   1.000  O 
  O16      1.0000 0.25063  0.70843  0.76178  Biso   1.000  O 
  Hf9      1.0000 0.64315  0.03195  0.13057  Biso   1.000  Hf
  Hf10     1.0000 0.64891  0.45078  0.37767  Biso   1.000  Hf
  Hf11     1.0000 0.86285  0.52370  0.11362  Biso   1.000  Hf
  Hf12     1.0000 0.88496  0.94657  0.37377  Biso   1.000  Hf
  O17      1.0000 0.54836  0.35770  0.20761  Biso   1.000  O 
  O18      1.0000 0.54754  0.11100  0.44322  Biso   1.000  O 
  O19      1.0000 0.98198  0.84622  0.18926  Biso   1.000  O 
  O20      1.0000 0.98230  0.61445  0.44466  Biso   1.000  O 
  O21      1.0000 0.77919  0.21079  0.24713  Biso   1.000  O 
  O22      1.0000 0.78189  0.24638  0.49530  Biso   1.000  O 
  O23      1.0000 0.75123  0.74972  0.49488  Biso   1.000  O 
  O24      1.0000 0.74428  0.71986  0.24855  Biso   1.000  O 
  Hf13     1.0000 0.64419  0.00489  0.61528  Biso   1.000  Hf
  Hf14     1.0000 0.66480  0.43536  0.86649  Biso   1.000  Hf
  Hf15     1.0000 0.88511  0.50898  0.61537  Biso   1.000  Hf
  Hf16     1.0000 0.88089  0.92947  0.86302  Biso   1.000  Hf
  O25      1.0000 0.54542  0.32603  0.70498  Biso   1.000  O 
  O26      1.0000 0.53900  0.16089  0.97091  Biso   1.000  O 
  O27      1.0000 0.98226  0.83334  0.68979  Biso   1.000  O 
  O28      1.0000 0.95923  0.58538  0.91839  Biso   1.000  O 
  O29      1.0000 0.78278  0.19933  0.74084  Biso   1.000  O 
  O30      1.0000 0.78998  0.21997  0.99305  Biso   1.000  O 
  O31      1.0000 0.74812  0.73152  0.99687  Biso   1.000  O 
  O32      1.0000 0.74410  0.70557  0.73964  Biso   1.000  O 
  Re1      1.0000 0.13187  0.60658  0.11970  Biso   1.000  Re
