data_image0
_cell_length_a       10.2053
_cell_length_b       5.19283
_cell_length_c       10.4898
_cell_angle_alpha    90
_cell_angle_beta     80
_cell_angle_gamma    90

_symmetry_space_group_name_H-M    "P 1"
_symmetry_int_tables_number       1

loop_
  _symmetry_equiv_pos_as_xyz
  'x, y, z'

loop_
  _atom_site_label
  _atom_site_occupancy
  _atom_site_fract_x
  _atom_site_fract_y
  _atom_site_fract_z
  _atom_site_thermal_displace_type
  _atom_site_B_iso_or_equiv
  _atom_site_type_symbol
  Hf1      1.0000 0.13210  0.05212  0.14088  Biso   1.000  Hf
  Hf2      1.0000 0.14629  0.44970  0.39029  Biso   1.000  Hf
  Hf3      1.0000 0.34864  0.56596  0.09388  Biso   1.000  Hf
  Hf4      1.0000 0.36540  0.87931  0.35094  Biso   1.000  Hf
  O1       1.0000 0.02901  0.34462  0.07495  Biso   1.000  O 
  O2       1.0000 0.03587  0.16372  0.32627  Biso   1.000  O 
  O3       1.0000 0.46193  0.85745  0.16086  Biso   1.000  O 
  O4       1.0000 0.48210  0.62193  0.42792  Biso   1.000  O 
  O5       1.0000 0.26677  0.26868  0.22233  Biso   1.000  O 
  O6       1.0000 0.29744  0.22431  0.47185  Biso   1.000  O 
  O7       1.0000 0.21385  0.77871  0.00231  Biso   1.000  O 
  O8       1.0000 0.20928  0.75929  0.25277  Biso   1.000  O 
  Hf5      1.0000 0.14729  0.01535  0.64161  Biso   1.000  Hf
  Hf6      1.0000 0.14761  0.42734  0.88974  Biso   1.000  Hf
  Hf7      1.0000 0.37301  0.51343  0.60884  Biso   1.000  Hf
  Hf8      1.0000 0.37139  0.93147  0.84926  Biso   1.000  Hf
  O9       1.0000 0.04949  0.31026  0.57533  Biso   1.000  O 
  O10      1.0000 0.04701  0.13168  0.82531  Biso   1.000  O 
  O11      1.0000 0.47481  0.81536  0.66724  Biso   1.000  O 
  O12      1.0000 0.47787  0.63291  0.91201  Biso   1.000  O 
  O13      1.0000 0.28625  0.22272  0.73215  Biso   1.000  O 
  O14      1.0000 0.28842  0.22020  0.97765  Biso   1.000  O 
  O15      1.0000 0.23168  0.72699  0.51359  Biso   1.000  O 
  O16      1.0000 0.23561  0.71013  0.75590  Biso   1.000  O 
  Hf9      1.0000 0.63897  0.04213  0.15550  Biso   1.000  Hf
  Hf10     1.0000 0.66177  0.43483  0.40290  Biso   1.000  Hf
  Hf11     1.0000 0.85608  0.54412  0.10610  Biso   1.000  Hf
  Hf12     1.0000 0.86800  0.94079  0.35557  Biso   1.000  Hf
  O17      1.0000 0.52563  0.35702  0.09811  Biso   1.000  O 
  O18      1.0000 0.56031  0.09169  0.35551  Biso   1.000  O 
  O19      1.0000 0.96184  0.83572  0.16879  Biso   1.000  O 
  O20      1.0000 0.97249  0.65470  0.42388  Biso   1.000  O 
  O21      1.0000 0.78517  0.25075  0.24324  Biso   1.000  O 
  O22      1.0000 0.79208  0.21567  0.49713  Biso   1.000  O 
  O23      1.0000 0.71764  0.76520  0.01564  Biso   1.000  O 
  O24      1.0000 0.72931  0.73052  0.26388  Biso   1.000  O 
  Hf13     1.0000 0.65131  0.01920  0.64890  Biso   1.000  Hf
  Hf14     1.0000 0.65010  0.42989  0.89948  Biso   1.000  Hf
  Hf15     1.0000 0.87356  0.51693  0.60672  Biso   1.000  Hf
  Hf16     1.0000 0.87001  0.92704  0.85631  Biso   1.000  Hf
  O25      1.0000 0.54998  0.31758  0.58864  Biso   1.000  O 
  O26      1.0000 0.54880  0.13127  0.83441  Biso   1.000  O 
  O27      1.0000 0.97479  0.80903  0.67232  Biso   1.000  O 
  O28      1.0000 0.97434  0.63149  0.91691  Biso   1.000  O 
  O29      1.0000 0.78848  0.23131  0.74443  Biso   1.000  O 
  O30      1.0000 0.78520  0.20934  0.99341  Biso   1.000  O 
  O31      1.0000 0.73547  0.73303  0.51532  Biso   1.000  O 
  O32      1.0000 0.73524  0.71129  0.76331  Biso   1.000  O 
  Re1      1.0000 0.42745  0.35639  0.30032  Biso   1.000  Re
