data_image0
_cell_length_a       10.0951
_cell_length_b       10.2381
_cell_length_c       5.21982
_cell_angle_alpha    90
_cell_angle_beta     80
_cell_angle_gamma    90

_symmetry_space_group_name_H-M    "P 1"
_symmetry_int_tables_number       1

loop_
  _symmetry_equiv_pos_as_xyz
  'x, y, z'

loop_
  _atom_site_label
  _atom_site_occupancy
  _atom_site_fract_x
  _atom_site_fract_y
  _atom_site_fract_z
  _atom_site_thermal_displace_type
  _atom_site_B_iso_or_equiv
  _atom_site_type_symbol
  Re1      1.0000 0.14114  0.02272  0.29995  Biso   1.000  Re
  Hf1      1.0000 0.13937  0.22804  0.79357  Biso   1.000  Hf
  Hf2      1.0000 0.35970  0.27118  0.21204  Biso   1.000  Hf
  Hf3      1.0000 0.36111  0.47954  0.70883  Biso   1.000  Hf
  O1       1.0000 0.03490  0.16130  0.15031  Biso   1.000  O 
  O2       1.0000 0.03838  0.08407  0.63525  Biso   1.000  O 
  O3       1.0000 0.46404  0.41995  0.33937  Biso   1.000  O 
  O4       1.0000 0.46195  0.32940  0.84007  Biso   1.000  O 
  O5       1.0000 0.27995  0.12680  0.48762  Biso   1.000  O 
  O6       1.0000 0.27348  0.11792  0.99700  Biso   1.000  O 
  O7       1.0000 0.22256  0.37802  0.01993  Biso   1.000  O 
  O8       1.0000 0.22333  0.37138  0.51995  Biso   1.000  O 
  Hf4      1.0000 0.13943  0.52186  0.29221  Biso   1.000  Hf
  Hf5      1.0000 0.13903  0.73008  0.79111  Biso   1.000  Hf
  Hf6      1.0000 0.35911  0.77525  0.20783  Biso   1.000  Hf
  Hf7      1.0000 0.36036  0.97848  0.70992  Biso   1.000  Hf
  O9       1.0000 0.03507  0.66673  0.15632  Biso   1.000  O 
  O10      1.0000 0.03514  0.58242  0.65859  Biso   1.000  O 
  O11      1.0000 0.46607  0.91799  0.34464  Biso   1.000  O 
  O12      1.0000 0.46415  0.83157  0.84103  Biso   1.000  O 
  O13      1.0000 0.27700  0.63131  0.48171  Biso   1.000  O 
  O14      1.0000 0.27706  0.62247  0.98148  Biso   1.000  O 
  O15      1.0000 0.21792  0.88104  0.01746  Biso   1.000  O 
  O16      1.0000 0.22018  0.87434  0.51354  Biso   1.000  O 
  Hf8      1.0000 0.63824  0.02201  0.29238  Biso   1.000  Hf
  Hf9      1.0000 0.63845  0.22953  0.79216  Biso   1.000  Hf
  Hf10     1.0000 0.86316  0.26989  0.20756  Biso   1.000  Hf
  Hf11     1.0000 0.86110  0.47884  0.70800  Biso   1.000  Hf
  O17      1.0000 0.53610  0.17028  0.16322  Biso   1.000  O 
  O18      1.0000 0.53538  0.08060  0.66412  Biso   1.000  O 
  O19      1.0000 0.96582  0.41707  0.34161  Biso   1.000  O 
  O20      1.0000 0.96559  0.33078  0.84049  Biso   1.000  O 
  O21      1.0000 0.77645  0.12916  0.48041  Biso   1.000  O 
  O22      1.0000 0.77704  0.12146  0.97795  Biso   1.000  O 
  O23      1.0000 0.72402  0.37905  0.01903  Biso   1.000  O 
  O24      1.0000 0.72350  0.37120  0.51872  Biso   1.000  O 
  Hf12     1.0000 0.63929  0.52246  0.29182  Biso   1.000  Hf
  Hf13     1.0000 0.63947  0.72901  0.79407  Biso   1.000  Hf
  Hf14     1.0000 0.86384  0.77347  0.20697  Biso   1.000  Hf
  Hf15     1.0000 0.86144  0.97994  0.70518  Biso   1.000  Hf
  O25      1.0000 0.53493  0.66991  0.16134  Biso   1.000  O 
  O26      1.0000 0.53647  0.58061  0.66258  Biso   1.000  O 
  O27      1.0000 0.97381  0.91989  0.33383  Biso   1.000  O 
  O28      1.0000 0.96542  0.83421  0.83865  Biso   1.000  O 
  O29      1.0000 0.77736  0.63004  0.48134  Biso   1.000  O 
  O30      1.0000 0.77777  0.62265  0.98195  Biso   1.000  O 
  O31      1.0000 0.72347  0.87949  0.01884  Biso   1.000  O 
  O32      1.0000 0.72819  0.87237  0.51837  Biso   1.000  O 
