data_image0
_cell_length_a       9.94862
_cell_length_b       10.3485
_cell_length_c       9.98833
_cell_angle_alpha    90
_cell_angle_beta     90
_cell_angle_gamma    90

_symmetry_space_group_name_H-M    "P 1"
_symmetry_int_tables_number       1

loop_
  _symmetry_equiv_pos_as_xyz
  'x, y, z'

loop_
  _atom_site_label
  _atom_site_occupancy
  _atom_site_fract_x
  _atom_site_fract_y
  _atom_site_fract_z
  _atom_site_thermal_displace_type
  _atom_site_B_iso_or_equiv
  _atom_site_type_symbol
  Re1      1.0000 0.13729  0.02147  0.12197  Biso   1.000  Re
  Hf1      1.0000 0.13291  0.23281  0.37531  Biso   1.000  Hf
  Hf2      1.0000 0.36652  0.26763  0.12586  Biso   1.000  Hf
  Hf3      1.0000 0.36601  0.48488  0.37625  Biso   1.000  Hf
  O1       1.0000 0.03568  0.17941  0.19679  Biso   1.000  O 
  O2       1.0000 0.03461  0.06836  0.45052  Biso   1.000  O 
  O3       1.0000 0.46340  0.43528  0.19354  Biso   1.000  O 
  O4       1.0000 0.46346  0.31705  0.44376  Biso   1.000  O 
  O5       1.0000 0.26813  0.11777  0.24603  Biso   1.000  O 
  O6       1.0000 0.27098  0.13326  0.49853  Biso   1.000  O 
  O7       1.0000 0.22925  0.38312  0.49995  Biso   1.000  O 
  O8       1.0000 0.22996  0.36857  0.25032  Biso   1.000  O 
  Hf4      1.0000 0.13472  0.01744  0.62722  Biso   1.000  Hf
  Hf5      1.0000 0.13532  0.23520  0.87797  Biso   1.000  Hf
  Hf6      1.0000 0.36608  0.26775  0.62579  Biso   1.000  Hf
  Hf7      1.0000 0.36610  0.48543  0.87571  Biso   1.000  Hf
  O9       1.0000 0.03463  0.18311  0.70112  Biso   1.000  O 
  O10      1.0000 0.03709  0.06658  0.95766  Biso   1.000  O 
  O11      1.0000 0.46324  0.43591  0.69351  Biso   1.000  O 
  O12      1.0000 0.46237  0.31597  0.94316  Biso   1.000  O 
  O13      1.0000 0.27120  0.11933  0.75038  Biso   1.000  O 
  O14      1.0000 0.27228  0.12803  0.00064  Biso   1.000  O 
  O15      1.0000 0.22898  0.38136  0.00029  Biso   1.000  O 
  O16      1.0000 0.22901  0.36847  0.75051  Biso   1.000  O 
  Hf8      1.0000 0.13455  0.51668  0.12680  Biso   1.000  Hf
  Hf9      1.0000 0.13364  0.73584  0.37526  Biso   1.000  Hf
  Hf10     1.0000 0.36386  0.76883  0.12652  Biso   1.000  Hf
  Hf11     1.0000 0.36482  0.98448  0.37478  Biso   1.000  Hf
  O17      1.0000 0.03693  0.68331  0.19384  Biso   1.000  O 
  O18      1.0000 0.03640  0.56719  0.44348  Biso   1.000  O 
  O19      1.0000 0.46406  0.93432  0.19489  Biso   1.000  O 
  O20      1.0000 0.46312  0.81675  0.44277  Biso   1.000  O 
  O21      1.0000 0.27138  0.62061  0.25006  Biso   1.000  O 
  O22      1.0000 0.27040  0.63355  0.49942  Biso   1.000  O 
  O23      1.0000 0.22937  0.88351  0.49973  Biso   1.000  O 
  O24      1.0000 0.22489  0.87383  0.24786  Biso   1.000  O 
  Hf12     1.0000 0.13370  0.51744  0.62543  Biso   1.000  Hf
  Hf13     1.0000 0.13346  0.73428  0.87597  Biso   1.000  Hf
  Hf14     1.0000 0.36627  0.76743  0.62544  Biso   1.000  Hf
  Hf15     1.0000 0.36549  0.98367  0.87679  Biso   1.000  Hf
  O25      1.0000 0.03612  0.68511  0.69373  Biso   1.000  O 
  O26      1.0000 0.03664  0.56624  0.94490  Biso   1.000  O 
  O27      1.0000 0.46332  0.93563  0.69385  Biso   1.000  O 
  O28      1.0000 0.46207  0.81664  0.94451  Biso   1.000  O 
  O29      1.0000 0.27049  0.61868  0.74945  Biso   1.000  O 
  O30      1.0000 0.27137  0.63364  0.99983  Biso   1.000  O 
  O31      1.0000 0.22358  0.88207  0.00136  Biso   1.000  O 
  O32      1.0000 0.23006  0.86825  0.75032  Biso   1.000  O 
  Hf16     1.0000 0.63400  0.01664  0.12554  Biso   1.000  Hf
  Hf17     1.0000 0.63400  0.23436  0.37619  Biso   1.000  Hf
  Hf18     1.0000 0.86622  0.26540  0.12637  Biso   1.000  Hf
  Hf19     1.0000 0.86596  0.48436  0.37608  Biso   1.000  Hf
  O33      1.0000 0.53575  0.18461  0.19420  Biso   1.000  O 
  O34      1.0000 0.53574  0.06674  0.44352  Biso   1.000  O 
  O35      1.0000 0.96513  0.43204  0.19524  Biso   1.000  O 
  O36      1.0000 0.96415  0.31681  0.44552  Biso   1.000  O 
  O37      1.0000 0.76945  0.11843  0.24951  Biso   1.000  O 
  O38      1.0000 0.77075  0.13355  0.49922  Biso   1.000  O 
  O39      1.0000 0.72944  0.38332  0.50001  Biso   1.000  O 
  O40      1.0000 0.72959  0.36841  0.24982  Biso   1.000  O 
  Hf20     1.0000 0.63409  0.01727  0.62482  Biso   1.000  Hf
  Hf21     1.0000 0.63393  0.23456  0.87553  Biso   1.000  Hf
  Hf22     1.0000 0.86628  0.26664  0.62643  Biso   1.000  Hf
  Hf23     1.0000 0.86594  0.48465  0.87618  Biso   1.000  Hf
  O41      1.0000 0.53699  0.18593  0.69308  Biso   1.000  O 
  O42      1.0000 0.53693  0.06649  0.94355  Biso   1.000  O 
  O43      1.0000 0.96372  0.43486  0.69437  Biso   1.000  O 
  O44      1.0000 0.96418  0.31623  0.94492  Biso   1.000  O 
  O45      1.0000 0.77030  0.11826  0.74969  Biso   1.000  O 
  O46      1.0000 0.77111  0.13379  0.99937  Biso   1.000  O 
  O47      1.0000 0.72901  0.38150  0.00004  Biso   1.000  O 
  O48      1.0000 0.72963  0.36866  0.74973  Biso   1.000  O 
  Hf24     1.0000 0.63462  0.51747  0.12607  Biso   1.000  Hf
  Hf25     1.0000 0.63470  0.73527  0.37439  Biso   1.000  Hf
  Hf26     1.0000 0.86899  0.76818  0.12458  Biso   1.000  Hf
  Hf27     1.0000 0.86915  0.98550  0.37329  Biso   1.000  Hf
  O49      1.0000 0.53644  0.68566  0.19276  Biso   1.000  O 
  O50      1.0000 0.53687  0.56730  0.44352  Biso   1.000  O 
  O51      1.0000 0.97063  0.93459  0.19193  Biso   1.000  O 
  O52      1.0000 0.96427  0.81737  0.44488  Biso   1.000  O 
  O53      1.0000 0.77140  0.61858  0.24955  Biso   1.000  O 
  O54      1.0000 0.77069  0.63378  0.49961  Biso   1.000  O 
  O55      1.0000 0.73012  0.88414  0.49794  Biso   1.000  O 
  O56      1.0000 0.73297  0.86897  0.24789  Biso   1.000  O 
  Hf28     1.0000 0.63426  0.51782  0.62568  Biso   1.000  Hf
  Hf29     1.0000 0.63408  0.73489  0.87614  Biso   1.000  Hf
  Hf30     1.0000 0.86591  0.76806  0.62589  Biso   1.000  Hf
  Hf31     1.0000 0.86613  0.98488  0.87641  Biso   1.000  Hf
  O57      1.0000 0.53665  0.68587  0.69407  Biso   1.000  O 
  O58      1.0000 0.53736  0.56633  0.94302  Biso   1.000  O 
  O59      1.0000 0.96484  0.93504  0.69660  Biso   1.000  O 
  O60      1.0000 0.96167  0.81600  0.94107  Biso   1.000  O 
  O61      1.0000 0.77069  0.61900  0.74986  Biso   1.000  O 
  O62      1.0000 0.77127  0.63388  0.99978  Biso   1.000  O 
  O63      1.0000 0.72894  0.88430  0.99851  Biso   1.000  O 
  O64      1.0000 0.72932  0.86937  0.74936  Biso   1.000  O 
