data_image0
_cell_length_a       5.03183
_cell_length_b       10.4626
_cell_length_c       10.0903
_cell_angle_alpha    90
_cell_angle_beta     90
_cell_angle_gamma    90

_symmetry_space_group_name_H-M    "P 1"
_symmetry_int_tables_number       1

loop_
  _symmetry_equiv_pos_as_xyz
  'x, y, z'

loop_
  _atom_site_label
  _atom_site_occupancy
  _atom_site_fract_x
  _atom_site_fract_y
  _atom_site_fract_z
  _atom_site_thermal_displace_type
  _atom_site_B_iso_or_equiv
  _atom_site_type_symbol
  Hf1      1.0000 0.26326  0.01984  0.11398  Biso   1.000  Hf
  Hf2      1.0000 0.26048  0.23036  0.39236  Biso   1.000  Hf
  Hf3      1.0000 0.68111  0.25124  0.12320  Biso   1.000  Hf
  Hf4      1.0000 0.73119  0.48632  0.37597  Biso   1.000  Hf
  O1       1.0000 0.99661  0.18125  0.23843  Biso   1.000  O 
  O2       1.0000 0.07239  0.06412  0.45594  Biso   1.000  O 
  O3       1.0000 0.90336  0.44051  0.19424  Biso   1.000  O 
  O4       1.0000 0.93629  0.32745  0.45605  Biso   1.000  O 
  O5       1.0000 0.50089  0.11048  0.25433  Biso   1.000  O 
  O6       1.0000 0.55203  0.13601  0.50077  Biso   1.000  O 
  O7       1.0000 0.46428  0.38705  0.50301  Biso   1.000  O 
  O8       1.0000 0.43417  0.36115  0.25693  Biso   1.000  O 
  Hf5      1.0000 0.27766  0.01644  0.62663  Biso   1.000  Hf
  Hf6      1.0000 0.28106  0.22809  0.86658  Biso   1.000  Hf
  Hf7      1.0000 0.73867  0.27175  0.62778  Biso   1.000  Hf
  Hf8      1.0000 0.72806  0.49156  0.87491  Biso   1.000  Hf
  O9       1.0000 0.07860  0.18581  0.68812  Biso   1.000  O 
  O10      1.0000 0.09494  0.06095  0.92634  Biso   1.000  O 
  O11      1.0000 0.93506  0.43756  0.70338  Biso   1.000  O 
  O12      1.0000 0.93491  0.32123  0.94467  Biso   1.000  O 
  O13      1.0000 0.55230  0.11814  0.74583  Biso   1.000  O 
  O14      1.0000 0.58381  0.12257  0.99007  Biso   1.000  O 
  O15      1.0000 0.46093  0.38867  0.00066  Biso   1.000  O 
  O16      1.0000 0.46759  0.37119  0.75101  Biso   1.000  O 
  Hf9      1.0000 0.25423  0.54166  0.12198  Biso   1.000  Hf
  Hf10     1.0000 0.26461  0.73985  0.37725  Biso   1.000  Hf
  Hf11     1.0000 0.71879  0.77147  0.12664  Biso   1.000  Hf
  Hf12     1.0000 0.72781  0.98992  0.37159  Biso   1.000  Hf
  O17      1.0000 0.05447  0.69286  0.20184  Biso   1.000  O 
  O18      1.0000 0.06016  0.57206  0.44757  Biso   1.000  O 
  O19      1.0000 0.91553  0.94022  0.18878  Biso   1.000  O 
  O20      1.0000 0.92274  0.82080  0.44158  Biso   1.000  O 
  O21      1.0000 0.53397  0.62243  0.25109  Biso   1.000  O 
  O22      1.0000 0.53139  0.63633  0.49890  Biso   1.000  O 
  O23      1.0000 0.45987  0.88774  0.49761  Biso   1.000  O 
  O24      1.0000 0.45277  0.86845  0.24854  Biso   1.000  O 
  Hf13     1.0000 0.26519  0.51887  0.62513  Biso   1.000  Hf
  Hf14     1.0000 0.26106  0.74280  0.87057  Biso   1.000  Hf
  Hf15     1.0000 0.73434  0.76805  0.61985  Biso   1.000  Hf
  Hf16     1.0000 0.73398  0.98076  0.87061  Biso   1.000  Hf
  O25      1.0000 0.06882  0.68672  0.69266  Biso   1.000  O 
  O26      1.0000 0.06181  0.57859  0.94415  Biso   1.000  O 
  O27      1.0000 0.93407  0.93057  0.69363  Biso   1.000  O 
  O28      1.0000 0.92581  0.82048  0.94749  Biso   1.000  O 
  O29      1.0000 0.53559  0.61924  0.74824  Biso   1.000  O 
  O30      1.0000 0.53318  0.64628  0.99602  Biso   1.000  O 
  O31      1.0000 0.44964  0.88790  0.99797  Biso   1.000  O 
  O32      1.0000 0.46629  0.86768  0.74599  Biso   1.000  O 
  Re1      1.0000 0.17212  0.30324  0.10906  Biso   1.000  Re
