data_image0
_cell_length_a       10.0937
_cell_length_b       10.3322
_cell_length_c       5.27461
_cell_angle_alpha    90
_cell_angle_beta     90
_cell_angle_gamma    90

_symmetry_space_group_name_H-M    "P 1"
_symmetry_int_tables_number       1

loop_
  _symmetry_equiv_pos_as_xyz
  'x, y, z'

loop_
  _atom_site_label
  _atom_site_occupancy
  _atom_site_fract_x
  _atom_site_fract_y
  _atom_site_fract_z
  _atom_site_thermal_displace_type
  _atom_site_B_iso_or_equiv
  _atom_site_type_symbol
  Hf1      1.0000 0.13870  0.02088  0.33945  Biso   1.000  Hf
  Hf2      1.0000 0.13644  0.23008  0.83478  Biso   1.000  Hf
  Hf3      1.0000 0.35728  0.26833  0.35005  Biso   1.000  Hf
  Hf4      1.0000 0.35469  0.48243  0.84231  Biso   1.000  Hf
  Hf5      1.0000 0.63684  0.01380  0.14878  Biso   1.000  Hf
  Hf6      1.0000 0.62266  0.22322  0.71285  Biso   1.000  Hf
  Hf7      1.0000 0.87612  0.26890  0.14594  Biso   1.000  Hf
  Hf8      1.0000 0.86041  0.48462  0.65841  Biso   1.000  Hf
  O1       1.0000 0.03882  0.16063  0.14904  Biso   1.000  O 
  O2       1.0000 0.02612  0.09268  0.64612  Biso   1.000  O 
  O3       1.0000 0.47222  0.42172  0.17355  Biso   1.000  O 
  O4       1.0000 0.45397  0.33213  0.68574  Biso   1.000  O 
  O5       1.0000 0.26767  0.12409  0.59043  Biso   1.000  O 
  O6       1.0000 0.27688  0.12210  0.08566  Biso   1.000  O 
  O7       1.0000 0.21786  0.37628  0.58784  Biso   1.000  O 
  O8       1.0000 0.22662  0.37576  0.08699  Biso   1.000  O 
  O9       1.0000 0.50748  0.13159  0.37186  Biso   1.000  O 
  O10      1.0000 0.52295  0.06712  0.83075  Biso   1.000  O 
  O11      1.0000 0.96604  0.41531  0.33597  Biso   1.000  O 
  O12      1.0000 0.96414  0.33985  0.82826  Biso   1.000  O 
  O13      1.0000 0.78452  0.11631  0.89647  Biso   1.000  O 
  O14      1.0000 0.75482  0.14613  0.39388  Biso   1.000  O 
  O15      1.0000 0.71876  0.37976  0.94318  Biso   1.000  O 
  O16      1.0000 0.71563  0.40129  0.43859  Biso   1.000  O 
  Hf9      1.0000 0.13831  0.52057  0.33918  Biso   1.000  Hf
  Hf10     1.0000 0.13347  0.72965  0.84053  Biso   1.000  Hf
  Hf11     1.0000 0.35960  0.77054  0.34517  Biso   1.000  Hf
  Hf12     1.0000 0.35376  0.97435  0.84639  Biso   1.000  Hf
  Hf13     1.0000 0.64512  0.53962  0.15710  Biso   1.000  Hf
  Hf14     1.0000 0.63647  0.73417  0.65459  Biso   1.000  Hf
  Hf15     1.0000 0.86772  0.77567  0.15565  Biso   1.000  Hf
  Hf16     1.0000 0.86331  0.98052  0.65293  Biso   1.000  Hf
  O17      1.0000 0.03453  0.66348  0.15609  Biso   1.000  O 
  O18      1.0000 0.02952  0.59017  0.65466  Biso   1.000  O 
  O19      1.0000 0.46804  0.90397  0.15890  Biso   1.000  O 
  O20      1.0000 0.46244  0.83393  0.66238  Biso   1.000  O 
  O21      1.0000 0.27201  0.62366  0.58887  Biso   1.000  O 
  O22      1.0000 0.27779  0.62374  0.08955  Biso   1.000  O 
  O23      1.0000 0.22016  0.87321  0.59017  Biso   1.000  O 
  O24      1.0000 0.22393  0.87276  0.09175  Biso   1.000  O 
  O25      1.0000 0.53254  0.66884  0.33827  Biso   1.000  O 
  O26      1.0000 0.52743  0.59100  0.83438  Biso   1.000  O 
  O27      1.0000 0.96970  0.91871  0.32695  Biso   1.000  O 
  O28      1.0000 0.96523  0.84078  0.83062  Biso   1.000  O 
  O29      1.0000 0.77324  0.62929  0.90352  Biso   1.000  O 
  O30      1.0000 0.78070  0.63866  0.40668  Biso   1.000  O 
  O31      1.0000 0.72087  0.87311  0.91017  Biso   1.000  O 
  O32      1.0000 0.72792  0.88099  0.41346  Biso   1.000  O 
  Re1      1.0000 0.61123  0.27304  0.22086  Biso   1.000  Re
