data_image0
_cell_length_a       10.0905
_cell_length_b       5.12137
_cell_length_c       10.4376
_cell_angle_alpha    90
_cell_angle_beta     80
_cell_angle_gamma    90

_symmetry_space_group_name_H-M    "P 1"
_symmetry_int_tables_number       1

loop_
  _symmetry_equiv_pos_as_xyz
  'x, y, z'

loop_
  _atom_site_label
  _atom_site_occupancy
  _atom_site_fract_x
  _atom_site_fract_y
  _atom_site_fract_z
  _atom_site_thermal_displace_type
  _atom_site_B_iso_or_equiv
  _atom_site_type_symbol
  Re1      1.0000 0.14089  0.04430  0.14937  Biso   1.000  Re
  Hf1      1.0000 0.13993  0.46123  0.39513  Biso   1.000  Hf
  Hf2      1.0000 0.35758  0.55138  0.10522  Biso   1.000  Hf
  Hf3      1.0000 0.36233  0.95979  0.35347  Biso   1.000  Hf
  O1       1.0000 0.03736  0.32761  0.07992  Biso   1.000  O 
  O2       1.0000 0.03928  0.16625  0.32012  Biso   1.000  O 
  O3       1.0000 0.46658  0.83750  0.17141  Biso   1.000  O 
  O4       1.0000 0.46543  0.66330  0.41995  Biso   1.000  O 
  O5       1.0000 0.27736  0.25810  0.24064  Biso   1.000  O 
  O6       1.0000 0.27748  0.24473  0.49121  Biso   1.000  O 
  O7       1.0000 0.21695  0.76045  0.00961  Biso   1.000  O 
  O8       1.0000 0.22091  0.74912  0.25850  Biso   1.000  O 
  Hf4      1.0000 0.13822  0.04426  0.64608  Biso   1.000  Hf
  Hf5      1.0000 0.13811  0.45662  0.89764  Biso   1.000  Hf
  Hf6      1.0000 0.36151  0.54515  0.60459  Biso   1.000  Hf
  Hf7      1.0000 0.35882  0.95945  0.85567  Biso   1.000  Hf
  O9       1.0000 0.03345  0.33170  0.57496  Biso   1.000  O 
  O10      1.0000 0.03322  0.16753  0.82735  Biso   1.000  O 
  O11      1.0000 0.46401  0.84144  0.67058  Biso   1.000  O 
  O12      1.0000 0.46036  0.66213  0.92057  Biso   1.000  O 
  O13      1.0000 0.27659  0.25969  0.74249  Biso   1.000  O 
  O14      1.0000 0.27353  0.23930  0.99785  Biso   1.000  O 
  O15      1.0000 0.22374  0.75879  0.50857  Biso   1.000  O 
  O16      1.0000 0.22293  0.74320  0.75911  Biso   1.000  O 
  Hf8      1.0000 0.63874  0.04629  0.14533  Biso   1.000  Hf
  Hf9      1.0000 0.64018  0.45931  0.39547  Biso   1.000  Hf
  Hf10     1.0000 0.86638  0.54267  0.10360  Biso   1.000  Hf
  Hf11     1.0000 0.86246  0.95990  0.35234  Biso   1.000  Hf
  O17      1.0000 0.53404  0.34123  0.08152  Biso   1.000  O 
  O18      1.0000 0.53686  0.16243  0.33131  Biso   1.000  O 
  O19      1.0000 0.97620  0.83617  0.16759  Biso   1.000  O 
  O20      1.0000 0.96566  0.66755  0.41977  Biso   1.000  O 
  O21      1.0000 0.77777  0.25896  0.23993  Biso   1.000  O 
  O22      1.0000 0.77834  0.24271  0.48941  Biso   1.000  O 
  O23      1.0000 0.72360  0.75901  0.00980  Biso   1.000  O 
  O24      1.0000 0.72970  0.74423  0.25859  Biso   1.000  O 
  Hf12     1.0000 0.63786  0.04461  0.64681  Biso   1.000  Hf
  Hf13     1.0000 0.63727  0.45991  0.89756  Biso   1.000  Hf
  Hf14     1.0000 0.86044  0.54486  0.60402  Biso   1.000  Hf
  Hf15     1.0000 0.86072  0.95920  0.85468  Biso   1.000  Hf
  O25      1.0000 0.53709  0.34246  0.58080  Biso   1.000  O 
  O26      1.0000 0.53377  0.16305  0.83196  Biso   1.000  O 
  O27      1.0000 0.96553  0.83478  0.67072  Biso   1.000  O 
  O28      1.0000 0.96467  0.66346  0.92058  Biso   1.000  O 
  O29      1.0000 0.77549  0.25998  0.74081  Biso   1.000  O 
  O30      1.0000 0.77599  0.24709  0.99058  Biso   1.000  O 
  O31      1.0000 0.72390  0.76027  0.50923  Biso   1.000  O 
  O32      1.0000 0.72262  0.74423  0.76002  Biso   1.000  O 
