data_image0
_cell_length_a       10.1555
_cell_length_b       10.2731
_cell_length_c       10.5337
_cell_angle_alpha    90
_cell_angle_beta     80
_cell_angle_gamma    90

_symmetry_space_group_name_H-M    "P 1"
_symmetry_int_tables_number       1

loop_
  _symmetry_equiv_pos_as_xyz
  'x, y, z'

loop_
  _atom_site_label
  _atom_site_occupancy
  _atom_site_fract_x
  _atom_site_fract_y
  _atom_site_fract_z
  _atom_site_thermal_displace_type
  _atom_site_B_iso_or_equiv
  _atom_site_type_symbol
  Hf1      1.0000 0.13611  0.02258  0.14554  Biso   1.000  Hf
  Hf2      1.0000 0.14016  0.23545  0.39501  Biso   1.000  Hf
  Hf3      1.0000 0.35505  0.26895  0.09203  Biso   1.000  Hf
  Hf4      1.0000 0.34994  0.48609  0.35711  Biso   1.000  Hf
  O1       1.0000 0.03385  0.16780  0.07593  Biso   1.000  O 
  O2       1.0000 0.03618  0.08668  0.32579  Biso   1.000  O 
  O3       1.0000 0.47221  0.38679  0.19453  Biso   1.000  O 
  O4       1.0000 0.48747  0.36629  0.43886  Biso   1.000  O 
  O5       1.0000 0.28166  0.12319  0.23419  Biso   1.000  O 
  O6       1.0000 0.29014  0.12247  0.47776  Biso   1.000  O 
  O7       1.0000 0.21941  0.38095  0.00327  Biso   1.000  O 
  O8       1.0000 0.21246  0.37708  0.24976  Biso   1.000  O 
  Hf5      1.0000 0.13862  0.02278  0.64593  Biso   1.000  Hf
  Hf6      1.0000 0.13657  0.23192  0.89114  Biso   1.000  Hf
  Hf7      1.0000 0.36230  0.27896  0.60079  Biso   1.000  Hf
  Hf8      1.0000 0.35920  0.48251  0.85303  Biso   1.000  Hf
  O9       1.0000 0.04099  0.16957  0.57682  Biso   1.000  O 
  O10      1.0000 0.03383  0.08523  0.82615  Biso   1.000  O 
  O11      1.0000 0.46727  0.41514  0.68019  Biso   1.000  O 
  O12      1.0000 0.47107  0.34593  0.92707  Biso   1.000  O 
  O13      1.0000 0.27561  0.13161  0.73532  Biso   1.000  O 
  O14      1.0000 0.27396  0.12515  0.98364  Biso   1.000  O 
  O15      1.0000 0.21616  0.38703  0.51554  Biso   1.000  O 
  O16      1.0000 0.22336  0.37487  0.75790  Biso   1.000  O 
  Hf9      1.0000 0.13598  0.52289  0.14314  Biso   1.000  Hf
  Hf10     1.0000 0.13142  0.72996  0.39721  Biso   1.000  Hf
  Hf11     1.0000 0.35651  0.77066  0.10275  Biso   1.000  Hf
  Hf12     1.0000 0.35694  0.96546  0.35398  Biso   1.000  Hf
  O17      1.0000 0.02930  0.66998  0.07849  Biso   1.000  O 
  O18      1.0000 0.03111  0.58783  0.32534  Biso   1.000  O 
  O19      1.0000 0.46452  0.90935  0.17527  Biso   1.000  O 
  O20      1.0000 0.46096  0.82818  0.42548  Biso   1.000  O 
  O21      1.0000 0.27311  0.62890  0.24051  Biso   1.000  O 
  O22      1.0000 0.26819  0.62720  0.49395  Biso   1.000  O 
  O23      1.0000 0.21995  0.87984  0.01007  Biso   1.000  O 
  O24      1.0000 0.21747  0.86811  0.25854  Biso   1.000  O 
  Hf13     1.0000 0.13431  0.52717  0.64878  Biso   1.000  Hf
  Hf14     1.0000 0.13455  0.73295  0.89731  Biso   1.000  Hf
  Hf15     1.0000 0.35880  0.77194  0.60611  Biso   1.000  Hf
  Hf16     1.0000 0.35851  0.98146  0.85203  Biso   1.000  Hf
  O25      1.0000 0.02672  0.66826  0.57811  Biso   1.000  O 
  O26      1.0000 0.03041  0.58783  0.83077  Biso   1.000  O 
  O27      1.0000 0.46327  0.91713  0.67249  Biso   1.000  O 
  O28      1.0000 0.46440  0.83960  0.92415  Biso   1.000  O 
  O29      1.0000 0.27315  0.63171  0.74205  Biso   1.000  O 
  O30      1.0000 0.27312  0.62620  0.98971  Biso   1.000  O 
  O31      1.0000 0.21939  0.88041  0.51124  Biso   1.000  O 
  O32      1.0000 0.22035  0.87419  0.76032  Biso   1.000  O 
  Hf17     1.0000 0.63902  0.02111  0.14644  Biso   1.000  Hf
  Hf18     1.0000 0.64707  0.23416  0.40201  Biso   1.000  Hf
  Hf19     1.0000 0.86042  0.27281  0.10523  Biso   1.000  Hf
  Hf20     1.0000 0.86148  0.48043  0.35498  Biso   1.000  Hf
  O33      1.0000 0.52799  0.15409  0.06844  Biso   1.000  O 
  O34      1.0000 0.54163  0.06867  0.33939  Biso   1.000  O 
  O35      1.0000 0.96304  0.41946  0.17045  Biso   1.000  O 
  O36      1.0000 0.96722  0.33926  0.42450  Biso   1.000  O 
  O37      1.0000 0.77615  0.12999  0.23989  Biso   1.000  O 
  O38      1.0000 0.78254  0.12144  0.49309  Biso   1.000  O 
  O39      1.0000 0.72062  0.37755  0.01333  Biso   1.000  O 
  O40      1.0000 0.72708  0.37429  0.26231  Biso   1.000  O 
  Hf21     1.0000 0.63917  0.02540  0.64480  Biso   1.000  Hf
  Hf22     1.0000 0.63958  0.23012  0.89625  Biso   1.000  Hf
  Hf23     1.0000 0.86484  0.27407  0.60675  Biso   1.000  Hf
  Hf24     1.0000 0.85802  0.48150  0.85678  Biso   1.000  Hf
  O41      1.0000 0.53556  0.17050  0.57836  Biso   1.000  O 
  O42      1.0000 0.53286  0.09053  0.82315  Biso   1.000  O 
  O43      1.0000 0.96402  0.41944  0.67602  Biso   1.000  O 
  O44      1.0000 0.96330  0.33583  0.92119  Biso   1.000  O 
  O45      1.0000 0.77711  0.13125  0.74114  Biso   1.000  O 
  O46      1.0000 0.77664  0.12441  0.99062  Biso   1.000  O 
  O47      1.0000 0.72986  0.38025  0.51476  Biso   1.000  O 
  O48      1.0000 0.72362  0.37408  0.76232  Biso   1.000  O 
  Hf25     1.0000 0.63518  0.52034  0.15022  Biso   1.000  Hf
  Hf26     1.0000 0.63543  0.72741  0.39591  Biso   1.000  Hf
  Hf27     1.0000 0.85636  0.77217  0.10490  Biso   1.000  Hf
  Hf28     1.0000 0.85707  0.98115  0.35429  Biso   1.000  Hf
  O49      1.0000 0.52425  0.65450  0.07356  Biso   1.000  O 
  O50      1.0000 0.52626  0.59142  0.32123  Biso   1.000  O 
  O51      1.0000 0.96089  0.91829  0.17187  Biso   1.000  O 
  O52      1.0000 0.96119  0.83753  0.42360  Biso   1.000  O 
  O53      1.0000 0.77129  0.62823  0.23982  Biso   1.000  O 
  O54      1.0000 0.77292  0.62310  0.48977  Biso   1.000  O 
  O55      1.0000 0.71771  0.87875  0.01200  Biso   1.000  O 
  O56      1.0000 0.72114  0.87084  0.26075  Biso   1.000  O 
  Hf29     1.0000 0.63766  0.52302  0.64725  Biso   1.000  Hf
  Hf30     1.0000 0.63515  0.72988  0.89671  Biso   1.000  Hf
  Hf31     1.0000 0.85552  0.77508  0.60485  Biso   1.000  Hf
  Hf32     1.0000 0.85610  0.98097  0.85465  Biso   1.000  Hf
  O57      1.0000 0.53017  0.66357  0.57662  Biso   1.000  O 
  O58      1.0000 0.53042  0.59133  0.82433  Biso   1.000  O 
  O59      1.0000 0.96196  0.91844  0.67319  Biso   1.000  O 
  O60      1.0000 0.96133  0.83764  0.92272  Biso   1.000  O 
  O61      1.0000 0.77330  0.63153  0.74120  Biso   1.000  O 
  O62      1.0000 0.77205  0.62464  0.99204  Biso   1.000  O 
  O63      1.0000 0.71862  0.88020  0.51012  Biso   1.000  O 
  O64      1.0000 0.71963  0.87429  0.76087  Biso   1.000  O 
  Re1      1.0000 0.41291  0.23332  0.32501  Biso   1.000  Re
