data_image0
_cell_length_a       10.0682
_cell_length_b       10.6152
_cell_length_c       5.04634
_cell_angle_alpha    90
_cell_angle_beta     90
_cell_angle_gamma    90

_symmetry_space_group_name_H-M    "P 1"
_symmetry_int_tables_number       1

loop_
  _symmetry_equiv_pos_as_xyz
  'x, y, z'

loop_
  _atom_site_label
  _atom_site_occupancy
  _atom_site_fract_x
  _atom_site_fract_y
  _atom_site_fract_z
  _atom_site_thermal_displace_type
  _atom_site_B_iso_or_equiv
  _atom_site_type_symbol
  Hf1      1.0000 0.06206  0.93361  0.26050  Biso   1.000  Hf
  Hf2      1.0000 0.11752  0.27336  0.74920  Biso   1.000  Hf
  Hf3      1.0000 0.38058  0.27435  0.27790  Biso   1.000  Hf
  Hf4      1.0000 0.38707  0.02622  0.76171  Biso   1.000  Hf
  O1       1.0000 0.98049  0.16000  0.95857  Biso   1.000  O 
  O2       1.0000 0.01401  0.04973  0.48915  Biso   1.000  O 
  O3       1.0000 0.99493  0.31137  0.44032  Biso   1.000  O 
  O4       1.0000 0.97380  0.40400  0.98129  Biso   1.000  O 
  O5       1.0000 0.26271  0.16444  0.55700  Biso   1.000  O 
  O6       1.0000 0.23991  0.06351  0.03725  Biso   1.000  O 
  O7       1.0000 0.21557  0.32517  0.06569  Biso   1.000  O 
  O8       1.0000 0.23675  0.40586  0.53184  Biso   1.000  O 
  Hf5      1.0000 0.10500  0.48246  0.26225  Biso   1.000  Hf
  Hf6      1.0000 0.09178  0.71643  0.73097  Biso   1.000  Hf
  Hf7      1.0000 0.33839  0.77155  0.26427  Biso   1.000  Hf
  Hf8      1.0000 0.36220  0.52578  0.74329  Biso   1.000  Hf
  O9       1.0000 0.94385  0.65278  0.98997  Biso   1.000  O 
  O10      1.0000 0.98739  0.55598  0.53506  Biso   1.000  O 
  O11      1.0000 0.95841  0.79193  0.46694  Biso   1.000  O 
  O12      1.0000 0.92518  0.89966  0.99069  Biso   1.000  O 
  O13      1.0000 0.22341  0.64039  0.46069  Biso   1.000  O 
  O14      1.0000 0.19319  0.56805  0.94065  Biso   1.000  O 
  O15      1.0000 0.17436  0.80462  0.03798  Biso   1.000  O 
  O16      1.0000 0.20501  0.88729  0.53980  Biso   1.000  O 
  Hf9      1.0000 0.63935  0.00168  0.27291  Biso   1.000  Hf
  Hf10     1.0000 0.62735  0.25030  0.70138  Biso   1.000  Hf
  Hf11     1.0000 0.83894  0.26677  0.19978  Biso   1.000  Hf
  Hf12     1.0000 0.87758  0.01447  0.76290  Biso   1.000  Hf
  O17      1.0000 0.47790  0.19346  0.95347  Biso   1.000  O 
  O18      1.0000 0.50770  0.12210  0.47612  Biso   1.000  O 
  O19      1.0000 0.48982  0.38360  0.56630  Biso   1.000  O 
  O20      1.0000 0.43863  0.44418  0.07484  Biso   1.000  O 
  O21      1.0000 0.76606  0.13950  0.48851  Biso   1.000  O 
  O22      1.0000 0.73346  0.12366  0.98223  Biso   1.000  O 
  O23      1.0000 0.71444  0.37598  0.98056  Biso   1.000  O 
  O24      1.0000 0.75187  0.39564  0.48531  Biso   1.000  O 
  Hf13     1.0000 0.60296  0.49426  0.27898  Biso   1.000  Hf
  Hf14     1.0000 0.59057  0.75136  0.71767  Biso   1.000  Hf
  Hf15     1.0000 0.80799  0.75983  0.20957  Biso   1.000  Hf
  Hf16     1.0000 0.83648  0.51661  0.78009  Biso   1.000  Hf
  O25      1.0000 0.43415  0.69083  0.94049  Biso   1.000  O 
  O26      1.0000 0.47683  0.62917  0.46276  Biso   1.000  O 
  O27      1.0000 0.45927  0.87456  0.53182  Biso   1.000  O 
  O28      1.0000 0.40951  0.93680  0.05668  Biso   1.000  O 
  O29      1.0000 0.72595  0.63969  0.50472  Biso   1.000  O 
  O30      1.0000 0.68057  0.62228  0.00035  Biso   1.000  O 
  O31      1.0000 0.67649  0.87195  0.99542  Biso   1.000  O 
  O32      1.0000 0.70636  0.88984  0.48734  Biso   1.000  O 
  Re1      1.0000 0.11582  0.17617  0.25709  Biso   1.000  Re
