data_image0
_cell_length_a       10.0727
_cell_length_b       5.2232
_cell_length_c       10.0864
_cell_angle_alpha    90
_cell_angle_beta     90
_cell_angle_gamma    90

_symmetry_space_group_name_H-M    "P 1"
_symmetry_int_tables_number       1

loop_
  _symmetry_equiv_pos_as_xyz
  'x, y, z'

loop_
  _atom_site_label
  _atom_site_occupancy
  _atom_site_fract_x
  _atom_site_fract_y
  _atom_site_fract_z
  _atom_site_thermal_displace_type
  _atom_site_B_iso_or_equiv
  _atom_site_type_symbol
  Hf1      1.0000 0.12787  0.84978  0.12495  Biso   1.000  Hf
  Hf2      1.0000 0.14513  0.50243  0.39113  Biso   1.000  Hf
  Hf3      1.0000 0.40131  0.51943  0.14717  Biso   1.000  Hf
  Hf4      1.0000 0.38963  0.02280  0.38396  Biso   1.000  Hf
  O1       1.0000 0.00277  0.30414  0.98037  Biso   1.000  O 
  O2       1.0000 0.02428  0.09704  0.24417  Biso   1.000  O 
  O3       1.0000 0.00670  0.59187  0.24254  Biso   1.000  O 
  O4       1.0000 0.00777  0.79532  0.98458  Biso   1.000  O 
  O5       1.0000 0.27632  0.30423  0.26924  Biso   1.000  O 
  O6       1.0000 0.23151  0.09707  0.00571  Biso   1.000  O 
  O7       1.0000 0.24904  0.59191  0.00733  Biso   1.000  O 
  O8       1.0000 0.27130  0.79539  0.26504  Biso   1.000  O 
  Hf5      1.0000 0.13954  0.99550  0.62483  Biso   1.000  Hf
  Hf6      1.0000 0.13394  0.50239  0.85847  Biso   1.000  Hf
  Hf7      1.0000 0.39598  0.52839  0.63263  Biso   1.000  Hf
  Hf8      1.0000 0.39646  0.01737  0.87174  Biso   1.000  Hf
  O9       1.0000 0.00251  0.30316  0.48940  Biso   1.000  O 
  O10      1.0000 0.01901  0.22098  0.73850  Biso   1.000  O 
  O11      1.0000 0.01471  0.71880  0.73815  Biso   1.000  O 
  O12      1.0000 0.01818  0.80443  0.49077  Biso   1.000  O 
  O13      1.0000 0.27654  0.30307  0.76018  Biso   1.000  O 
  O14      1.0000 0.26006  0.22101  0.51108  Biso   1.000  O 
  O15      1.0000 0.26432  0.71882  0.51148  Biso   1.000  O 
  O16      1.0000 0.26086  0.80437  0.75886  Biso   1.000  O 
  Hf9      1.0000 0.62788  0.99615  0.12496  Biso   1.000  Hf
  Hf10     1.0000 0.65034  0.50114  0.36161  Biso   1.000  Hf
  Hf11     1.0000 0.85445  0.51939  0.10270  Biso   1.000  Hf
  Hf12     1.0000 0.88268  0.01741  0.37789  Biso   1.000  Hf
  O17      1.0000 0.50134  0.28696  0.99844  Biso   1.000  O 
  O18      1.0000 0.51895  0.22582  0.25375  Biso   1.000  O 
  O19      1.0000 0.51524  0.74492  0.27451  Biso   1.000  O 
  O20      1.0000 0.48696  0.80143  0.01553  Biso   1.000  O 
  O21      1.0000 0.77773  0.28687  0.25112  Biso   1.000  O 
  O22      1.0000 0.76014  0.22576  0.99582  Biso   1.000  O 
  O23      1.0000 0.76384  0.74485  0.97513  Biso   1.000  O 
  O24      1.0000 0.76878  0.80132  0.23438  Biso   1.000  O 
  Hf13     1.0000 0.63956  0.04081  0.62481  Biso   1.000  Hf
  Hf14     1.0000 0.62876  0.50113  0.88795  Biso   1.000  Hf
  Hf15     1.0000 0.88308  0.52840  0.61696  Biso   1.000  Hf
  Hf16     1.0000 0.88949  0.02270  0.86565  Biso   1.000  Hf
  O25      1.0000 0.51310  0.34442  0.49723  Biso   1.000  O 
  O26      1.0000 0.51973  0.23385  0.75125  Biso   1.000  O 
  O27      1.0000 0.51428  0.72831  0.76669  Biso   1.000  O 
  O28      1.0000 0.50141  0.84649  0.52643  Biso   1.000  O 
  O29      1.0000 0.76596  0.34433  0.75234  Biso   1.000  O 
  O30      1.0000 0.75934  0.23387  0.49832  Biso   1.000  O 
  O31      1.0000 0.76476  0.72835  0.48293  Biso   1.000  O 
  O32      1.0000 0.77760  0.84639  0.72321  Biso   1.000  O 
  Re1      1.0000 0.12788  0.34281  0.12494  Biso   1.000  Re
