data_image0
_cell_length_a       9.94703
_cell_length_b       5.20347
_cell_length_c       10.0129
_cell_angle_alpha    90
_cell_angle_beta     90
_cell_angle_gamma    90

_symmetry_space_group_name_H-M    "P 1"
_symmetry_int_tables_number       1

loop_
  _symmetry_equiv_pos_as_xyz
  'x, y, z'

loop_
  _atom_site_label
  _atom_site_occupancy
  _atom_site_fract_x
  _atom_site_fract_y
  _atom_site_fract_z
  _atom_site_thermal_displace_type
  _atom_site_B_iso_or_equiv
  _atom_site_type_symbol
  Rh1      1.0000 0.12122  0.93291  0.12429  Biso   1.000  Rh
  Hf1      1.0000 0.14156  0.57904  0.39559  Biso   1.000  Hf
  Hf2      1.0000 0.38705  0.46721  0.12985  Biso   1.000  Hf
  Hf3      1.0000 0.36811  0.07963  0.39283  Biso   1.000  Hf
  O1       1.0000 0.96790  0.41256  0.95822  Biso   1.000  O 
  O2       1.0000 0.97610  0.13308  0.20598  Biso   1.000  O 
  O3       1.0000 0.03763  0.63314  0.20842  Biso   1.000  O 
  O4       1.0000 0.04625  0.91655  0.94579  Biso   1.000  O 
  O5       1.0000 0.27624  0.39055  0.28637  Biso   1.000  O 
  O6       1.0000 0.22718  0.22008  0.03117  Biso   1.000  O 
  O7       1.0000 0.26170  0.72572  0.02982  Biso   1.000  O 
  O8       1.0000 0.22771  0.89642  0.28309  Biso   1.000  O 
  Hf4      1.0000 0.14380  0.99633  0.64913  Biso   1.000  Hf
  Hf5      1.0000 0.14153  0.56261  0.89840  Biso   1.000  Hf
  Hf6      1.0000 0.37198  0.49584  0.64794  Biso   1.000  Hf
  Hf7      1.0000 0.36907  0.06585  0.89962  Biso   1.000  Hf
  O9       1.0000 0.96984  0.39516  0.45333  Biso   1.000  O 
  O10      1.0000 0.97131  0.16866  0.70827  Biso   1.000  O 
  O11      1.0000 0.04581  0.65948  0.71501  Biso   1.000  O 
  O12      1.0000 0.03573  0.89180  0.47729  Biso   1.000  O 
  O13      1.0000 0.23506  0.29406  0.77515  Biso   1.000  O 
  O14      1.0000 0.23187  0.27194  0.52360  Biso   1.000  O 
  O15      1.0000 0.28177  0.77208  0.52057  Biso   1.000  O 
  O16      1.0000 0.28025  0.79104  0.77535  Biso   1.000  O 
  Hf8      1.0000 0.64068  0.96500  0.14435  Biso   1.000  Hf
  Hf9      1.0000 0.64163  0.55238  0.39621  Biso   1.000  Hf
  Hf10     1.0000 0.86846  0.46593  0.13958  Biso   1.000  Hf
  Hf11     1.0000 0.87416  0.05025  0.39216  Biso   1.000  Hf
  O17      1.0000 0.47315  0.39829  0.94942  Biso   1.000  O 
  O18      1.0000 0.47046  0.13286  0.20847  Biso   1.000  O 
  O19      1.0000 0.54129  0.63790  0.21894  Biso   1.000  O 
  O20      1.0000 0.53689  0.88902  0.97293  Biso   1.000  O 
  O21      1.0000 0.73617  0.27344  0.26455  Biso   1.000  O 
  O22      1.0000 0.72500  0.22999  0.01342  Biso   1.000  O 
  O23      1.0000 0.77092  0.73129  0.01413  Biso   1.000  O 
  O24      1.0000 0.77964  0.77470  0.26542  Biso   1.000  O 
  Hf12     1.0000 0.63515  0.00418  0.63575  Biso   1.000  Hf
  Hf13     1.0000 0.64605  0.57812  0.88669  Biso   1.000  Hf
  Hf14     1.0000 0.87838  0.50267  0.63644  Biso   1.000  Hf
  Hf15     1.0000 0.87060  0.07873  0.88603  Biso   1.000  Hf
  O25      1.0000 0.47892  0.38611  0.47706  Biso   1.000  O 
  O26      1.0000 0.46774  0.15835  0.71678  Biso   1.000  O 
  O27      1.0000 0.54271  0.66822  0.71109  Biso   1.000  O 
  O28      1.0000 0.54232  0.89312  0.45648  Biso   1.000  O 
  O29      1.0000 0.73792  0.31001  0.76131  Biso   1.000  O 
  O30      1.0000 0.74144  0.25845  0.51426  Biso   1.000  O 
  O31      1.0000 0.77436  0.76107  0.51513  Biso   1.000  O 
  O32      1.0000 0.77541  0.81081  0.76270  Biso   1.000  O 
