data_image0
_cell_length_a       10.1041
_cell_length_b       10.2474
_cell_length_c       10.4536
_cell_angle_alpha    90
_cell_angle_beta     80
_cell_angle_gamma    90

_symmetry_space_group_name_H-M    "P 1"
_symmetry_int_tables_number       1

loop_
  _symmetry_equiv_pos_as_xyz
  'x, y, z'

loop_
  _atom_site_label
  _atom_site_occupancy
  _atom_site_fract_x
  _atom_site_fract_y
  _atom_site_fract_z
  _atom_site_thermal_displace_type
  _atom_site_B_iso_or_equiv
  _atom_site_type_symbol
  Rh1      1.0000 0.12279  0.01151  0.16761  Biso   1.000  Rh
  Hf1      1.0000 0.13717  0.22987  0.39381  Biso   1.000  Hf
  Hf2      1.0000 0.35946  0.26847  0.10126  Biso   1.000  Hf
  Hf3      1.0000 0.36038  0.47852  0.35367  Biso   1.000  Hf
  O1       1.0000 0.04403  0.15705  0.08264  Biso   1.000  O 
  O2       1.0000 0.02761  0.08342  0.32985  Biso   1.000  O 
  O3       1.0000 0.46407  0.41836  0.17014  Biso   1.000  O 
  O4       1.0000 0.46171  0.33080  0.42049  Biso   1.000  O 
  O5       1.0000 0.26998  0.12299  0.23420  Biso   1.000  O 
  O6       1.0000 0.27276  0.12169  0.48672  Biso   1.000  O 
  O7       1.0000 0.22559  0.38249  0.00895  Biso   1.000  O 
  O8       1.0000 0.22405  0.36974  0.25900  Biso   1.000  O 
  Hf4      1.0000 0.13134  0.02013  0.64459  Biso   1.000  Hf
  Hf5      1.0000 0.13556  0.22345  0.89666  Biso   1.000  Hf
  Hf6      1.0000 0.35640  0.27121  0.60435  Biso   1.000  Hf
  Hf7      1.0000 0.35518  0.47872  0.85604  Biso   1.000  Hf
  O9       1.0000 0.03008  0.16597  0.57608  Biso   1.000  O 
  O10      1.0000 0.02762  0.08074  0.82894  Biso   1.000  O 
  O11      1.0000 0.45994  0.41823  0.67146  Biso   1.000  O 
  O12      1.0000 0.46209  0.33629  0.92318  Biso   1.000  O 
  O13      1.0000 0.26847  0.12683  0.73512  Biso   1.000  O 
  O14      1.0000 0.28518  0.13519  0.97456  Biso   1.000  O 
  O15      1.0000 0.21944  0.37857  0.50945  Biso   1.000  O 
  O16      1.0000 0.21947  0.36919  0.76100  Biso   1.000  O 
  Hf8      1.0000 0.14111  0.52244  0.14586  Biso   1.000  Hf
  Hf9      1.0000 0.13702  0.72687  0.39793  Biso   1.000  Hf
  Hf10     1.0000 0.36139  0.77598  0.10273  Biso   1.000  Hf
  Hf11     1.0000 0.36209  0.97886  0.35281  Biso   1.000  Hf
  O17      1.0000 0.03824  0.66914  0.08026  Biso   1.000  O 
  O18      1.0000 0.03507  0.58037  0.33043  Biso   1.000  O 
  O19      1.0000 0.46693  0.91845  0.17147  Biso   1.000  O 
  O20      1.0000 0.46328  0.82985  0.41969  Biso   1.000  O 
  O21      1.0000 0.27708  0.63155  0.24133  Biso   1.000  O 
  O22      1.0000 0.27488  0.62006  0.49194  Biso   1.000  O 
  O23      1.0000 0.22629  0.89106  0.01177  Biso   1.000  O 
  O24      1.0000 0.21769  0.87146  0.25942  Biso   1.000  O 
  Hf12     1.0000 0.13617  0.52060  0.64816  Biso   1.000  Hf
  Hf13     1.0000 0.13428  0.73144  0.89798  Biso   1.000  Hf
  Hf14     1.0000 0.35937  0.77161  0.60560  Biso   1.000  Hf
  Hf15     1.0000 0.35742  0.98209  0.85604  Biso   1.000  Hf
  O25      1.0000 0.03228  0.66651  0.58092  Biso   1.000  O 
  O26      1.0000 0.03165  0.58140  0.83252  Biso   1.000  O 
  O27      1.0000 0.46265  0.91919  0.67047  Biso   1.000  O 
  O28      1.0000 0.45725  0.83129  0.92163  Biso   1.000  O 
  O29      1.0000 0.27247  0.62921  0.74178  Biso   1.000  O 
  O30      1.0000 0.26979  0.62366  0.99216  Biso   1.000  O 
  O31      1.0000 0.22284  0.87848  0.50903  Biso   1.000  O 
  O32      1.0000 0.22061  0.87080  0.76066  Biso   1.000  O 
  Hf16     1.0000 0.63673  0.02136  0.14550  Biso   1.000  Hf
  Hf17     1.0000 0.63575  0.22829  0.39642  Biso   1.000  Hf
  Hf18     1.0000 0.86655  0.26738  0.10649  Biso   1.000  Hf
  Hf19     1.0000 0.85973  0.47787  0.35462  Biso   1.000  Hf
  O33      1.0000 0.53710  0.16958  0.08001  Biso   1.000  O 
  O34      1.0000 0.53188  0.08067  0.33041  Biso   1.000  O 
  O35      1.0000 0.96781  0.41605  0.17194  Biso   1.000  O 
  O36      1.0000 0.96200  0.33150  0.42201  Biso   1.000  O 
  O37      1.0000 0.77441  0.12621  0.24140  Biso   1.000  O 
  O38      1.0000 0.77216  0.11979  0.49174  Biso   1.000  O 
  O39      1.0000 0.72939  0.37763  0.01122  Biso   1.000  O 
  O40      1.0000 0.72481  0.36847  0.25971  Biso   1.000  O 
  Hf20     1.0000 0.63174  0.02107  0.64795  Biso   1.000  Hf
  Hf21     1.0000 0.63238  0.22881  0.89822  Biso   1.000  Hf
  Hf22     1.0000 0.85692  0.27090  0.60567  Biso   1.000  Hf
  Hf23     1.0000 0.85820  0.47581  0.85770  Biso   1.000  Hf
  O41      1.0000 0.53099  0.16902  0.58041  Biso   1.000  O 
  O42      1.0000 0.53100  0.08040  0.83091  Biso   1.000  O 
  O43      1.0000 0.96236  0.41507  0.67461  Biso   1.000  O 
  O44      1.0000 0.96048  0.32839  0.92764  Biso   1.000  O 
  O45      1.0000 0.77127  0.12891  0.74145  Biso   1.000  O 
  O46      1.0000 0.76903  0.11933  0.99312  Biso   1.000  O 
  O47      1.0000 0.72019  0.37802  0.51079  Biso   1.000  O 
  O48      1.0000 0.71957  0.37100  0.76195  Biso   1.000  O 
  Hf24     1.0000 0.63815  0.51965  0.14508  Biso   1.000  Hf
  Hf25     1.0000 0.63739  0.72676  0.39629  Biso   1.000  Hf
  Hf26     1.0000 0.86225  0.76812  0.10301  Biso   1.000  Hf
  Hf27     1.0000 0.85703  0.97611  0.35747  Biso   1.000  Hf
  O49      1.0000 0.53728  0.66954  0.07952  Biso   1.000  O 
  O50      1.0000 0.53595  0.57894  0.33035  Biso   1.000  O 
  O51      1.0000 0.96581  0.91517  0.17234  Biso   1.000  O 
  O52      1.0000 0.96354  0.83144  0.42213  Biso   1.000  O 
  O53      1.0000 0.77675  0.62704  0.24035  Biso   1.000  O 
  O54      1.0000 0.77492  0.61992  0.49151  Biso   1.000  O 
  O55      1.0000 0.72668  0.87920  0.00958  Biso   1.000  O 
  O56      1.0000 0.72585  0.86925  0.25978  Biso   1.000  O 
  Hf28     1.0000 0.63515  0.52053  0.64782  Biso   1.000  Hf
  Hf29     1.0000 0.63217  0.72807  0.89757  Biso   1.000  Hf
  Hf30     1.0000 0.85776  0.76974  0.60656  Biso   1.000  Hf
  Hf31     1.0000 0.85823  0.97815  0.85554  Biso   1.000  Hf
  O57      1.0000 0.53355  0.66822  0.58019  Biso   1.000  O 
  O58      1.0000 0.52965  0.58244  0.82977  Biso   1.000  O 
  O59      1.0000 0.96213  0.91657  0.67168  Biso   1.000  O 
  O60      1.0000 0.95801  0.82989  0.92277  Biso   1.000  O 
  O61      1.0000 0.77302  0.62747  0.74265  Biso   1.000  O 
  O62      1.0000 0.76948  0.61922  0.99207  Biso   1.000  O 
  O63      1.0000 0.72095  0.87757  0.51077  Biso   1.000  O 
  O64      1.0000 0.72032  0.87000  0.76110  Biso   1.000  O 
