data_image0
_cell_length_a       10.2063
_cell_length_b       5.32045
_cell_length_c       10.233
_cell_angle_alpha    90
_cell_angle_beta     90
_cell_angle_gamma    90

_symmetry_space_group_name_H-M    "P 1"
_symmetry_int_tables_number       1

loop_
  _symmetry_equiv_pos_as_xyz
  'x, y, z'

loop_
  _atom_site_label
  _atom_site_occupancy
  _atom_site_fract_x
  _atom_site_fract_y
  _atom_site_fract_z
  _atom_site_thermal_displace_type
  _atom_site_B_iso_or_equiv
  _atom_site_type_symbol
  Hf1      1.0000 0.04812  0.94147  0.15093  Biso   1.000  Hf
  Hf2      1.0000 0.10955  0.46672  0.36010  Biso   1.000  Hf
  Hf3      1.0000 0.30895  0.54196  0.10651  Biso   1.000  Hf
  Hf4      1.0000 0.26660  0.02746  0.39907  Biso   1.000  Hf
  O1       1.0000 0.86281  0.56052  0.94214  Biso   1.000  O 
  O2       1.0000 0.01481  0.14608  0.27497  Biso   1.000  O 
  O3       1.0000 0.95190  0.64397  0.24676  Biso   1.000  O 
  O4       1.0000 0.88501  0.89316  0.02749  Biso   1.000  O 
  O5       1.0000 0.26169  0.27078  0.25597  Biso   1.000  O 
  O6       1.0000 0.19471  0.23515  0.00272  Biso   1.000  O 
  O7       1.0000 0.11122  0.87608  0.99240  Biso   1.000  O 
  O8       1.0000 0.20521  0.77509  0.25383  Biso   1.000  O 
  Hf5      1.0000 0.07521  0.12010  0.64058  Biso   1.000  Hf
  Hf6      1.0000 0.04079  0.63800  0.84168  Biso   1.000  Hf
  Hf7      1.0000 0.32465  0.56250  0.60493  Biso   1.000  Hf
  Hf8      1.0000 0.30061  0.20447  0.89224  Biso   1.000  Hf
  O9       1.0000 0.96172  0.36555  0.49587  Biso   1.000  O 
  O10      1.0000 0.93845  0.31187  0.74832  Biso   1.000  O 
  O11      1.0000 0.90130  0.79745  0.73204  Biso   1.000  O 
  O12      1.0000 0.90508  0.87247  0.50042  Biso   1.000  O 
  O13      1.0000 0.18293  0.44057  0.74221  Biso   1.000  O 
  O14      1.0000 0.21726  0.24343  0.50437  Biso   1.000  O 
  O15      1.0000 0.17985  0.72211  0.49549  Biso   1.000  O 
  O16      1.0000 0.12832  0.94932  0.75378  Biso   1.000  O 
  Hf9      1.0000 0.53797  0.96983  0.14616  Biso   1.000  Hf
  Hf10     1.0000 0.59533  0.47590  0.35354  Biso   1.000  Hf
  Hf11     1.0000 0.79856  0.56233  0.10422  Biso   1.000  Hf
  Hf12     1.0000 0.76184  0.03281  0.39372  Biso   1.000  Hf
  O17      1.0000 0.38335  0.53439  0.96854  Biso   1.000  O 
  O18      1.0000 0.51574  0.13752  0.28185  Biso   1.000  O 
  O19      1.0000 0.46660  0.62417  0.22419  Biso   1.000  O 
  O20      1.0000 0.38313  0.88699  0.02727  Biso   1.000  O 
  O21      1.0000 0.74406  0.29776  0.24846  Biso   1.000  O 
  O22      1.0000 0.69304  0.24207  0.00150  Biso   1.000  O 
  O23      1.0000 0.60181  0.88305  0.99491  Biso   1.000  O 
  O24      1.0000 0.69384  0.79324  0.24576  Biso   1.000  O 
  Hf13     1.0000 0.57810  0.11655  0.64433  Biso   1.000  Hf
  Hf14     1.0000 0.54292  0.63043  0.85019  Biso   1.000  Hf
  Hf15     1.0000 0.82131  0.56172  0.59746  Biso   1.000  Hf
  Hf16     1.0000 0.79774  0.20408  0.89060  Biso   1.000  Hf
  O25      1.0000 0.46174  0.36176  0.49898  Biso   1.000  O 
  O26      1.0000 0.43836  0.31235  0.75060  Biso   1.000  O 
  O27      1.0000 0.40015  0.79713  0.74358  Biso   1.000  O 
  O28      1.0000 0.41211  0.86243  0.50647  Biso   1.000  O 
  O29      1.0000 0.68165  0.43661  0.73944  Biso   1.000  O 
  O30      1.0000 0.71655  0.24022  0.50303  Biso   1.000  O 
  O31      1.0000 0.67755  0.71902  0.48671  Biso   1.000  O 
  O32      1.0000 0.63102  0.94228  0.75461  Biso   1.000  O 
  Rh1      1.0000 0.03673  0.40949  0.11547  Biso   1.000  Rh
