data_image0
_cell_length_a       10.0802
_cell_length_b       10.2667
_cell_length_c       10.1368
_cell_angle_alpha    90
_cell_angle_beta     90
_cell_angle_gamma    90

_symmetry_space_group_name_H-M    "P 1"
_symmetry_int_tables_number       1

loop_
  _symmetry_equiv_pos_as_xyz
  'x, y, z'

loop_
  _atom_site_label
  _atom_site_occupancy
  _atom_site_fract_x
  _atom_site_fract_y
  _atom_site_fract_z
  _atom_site_thermal_displace_type
  _atom_site_B_iso_or_equiv
  _atom_site_type_symbol
  Hf1      1.0000 0.12593  0.95443  0.13205  Biso   1.000  Hf
  Hf2      1.0000 0.14224  0.25778  0.37103  Biso   1.000  Hf
  Hf3      1.0000 0.38055  0.24582  0.14225  Biso   1.000  Hf
  Hf4      1.0000 0.41151  0.00573  0.39136  Biso   1.000  Hf
  O1       1.0000 0.00022  0.15726  0.96954  Biso   1.000  O 
  O2       1.0000 0.04847  0.08556  0.26489  Biso   1.000  O 
  O3       1.0000 0.00498  0.34523  0.24036  Biso   1.000  O 
  O4       1.0000 0.03507  0.40927  0.98239  Biso   1.000  O 
  O5       1.0000 0.30790  0.15939  0.32009  Biso   1.000  O 
  O6       1.0000 0.28338  0.07878  0.05962  Biso   1.000  O 
  O7       1.0000 0.23288  0.33945  0.00918  Biso   1.000  O 
  O8       1.0000 0.25913  0.40546  0.25725  Biso   1.000  O 
  Hf5      1.0000 0.14153  0.98124  0.62150  Biso   1.000  Hf
  Hf6      1.0000 0.15018  0.25364  0.85894  Biso   1.000  Hf
  Hf7      1.0000 0.41112  0.23937  0.63796  Biso   1.000  Hf
  Hf8      1.0000 0.43064  0.00711  0.88619  Biso   1.000  Hf
  O9       1.0000 0.05019  0.14608  0.51335  Biso   1.000  O 
  O10      1.0000 0.07231  0.08738  0.76046  Biso   1.000  O 
  O11      1.0000 0.02971  0.34566  0.73074  Biso   1.000  O 
  O12      1.0000 0.02116  0.40260  0.48247  Biso   1.000  O 
  O13      1.0000 0.31877  0.15802  0.80368  Biso   1.000  O 
  O14      1.0000 0.31582  0.08038  0.55740  Biso   1.000  O 
  O15      1.0000 0.27260  0.33987  0.51242  Biso   1.000  O 
  O16      1.0000 0.27907  0.39627  0.75282  Biso   1.000  O 
  Hf9      1.0000 0.12842  0.49559  0.12566  Biso   1.000  Hf
  Hf10     1.0000 0.14253  0.74544  0.38020  Biso   1.000  Hf
  Hf11     1.0000 0.38193  0.76258  0.14702  Biso   1.000  Hf
  Hf12     1.0000 0.39147  0.47929  0.39770  Biso   1.000  Hf
  O17      1.0000 0.00323  0.65975  0.95105  Biso   1.000  O 
  O18      1.0000 0.96659  0.58248  0.20282  Biso   1.000  O 
  O19      1.0000 0.00531  0.82983  0.24399  Biso   1.000  O 
  O20      1.0000 0.04420  0.89825  0.99042  Biso   1.000  O 
  O21      1.0000 0.22097  0.65732  0.21352  Biso   1.000  O 
  O22      1.0000 0.25478  0.58224  0.96283  Biso   1.000  O 
  O23      1.0000 0.24321  0.83618  0.00793  Biso   1.000  O 
  O24      1.0000 0.26346  0.89445  0.26879  Biso   1.000  O 
  Hf13     1.0000 0.15143  0.48883  0.62422  Biso   1.000  Hf
  Hf14     1.0000 0.16167  0.74906  0.87224  Biso   1.000  Hf
  Hf15     1.0000 0.39763  0.76281  0.64770  Biso   1.000  Hf
  Hf16     1.0000 0.40929  0.48018  0.89109  Biso   1.000  Hf
  O25      1.0000 0.98075  0.65618  0.45716  Biso   1.000  O 
  O26      1.0000 0.99259  0.58421  0.70305  Biso   1.000  O 
  O27      1.0000 0.02409  0.83897  0.73835  Biso   1.000  O 
  O28      1.0000 0.01810  0.89214  0.49044  Biso   1.000  O 
  O29      1.0000 0.24428  0.65223  0.71459  Biso   1.000  O 
  O30      1.0000 0.23349  0.58444  0.46467  Biso   1.000  O 
  O31      1.0000 0.26752  0.84013  0.50835  Biso   1.000  O 
  O32      1.0000 0.27521  0.89945  0.76320  Biso   1.000  O 
  Hf17     1.0000 0.64894  0.99950  0.12378  Biso   1.000  Hf
  Hf18     1.0000 0.65357  0.24175  0.35809  Biso   1.000  Hf
  Hf19     1.0000 0.86432  0.28376  0.10409  Biso   1.000  Hf
  Hf20     1.0000 0.89122  0.98358  0.36299  Biso   1.000  Hf
  O33      1.0000 0.54286  0.15857  0.98709  Biso   1.000  O 
  O34      1.0000 0.52891  0.10471  0.24458  Biso   1.000  O 
  O35      1.0000 0.50924  0.35456  0.27436  Biso   1.000  O 
  O36      1.0000 0.46660  0.40906  0.03864  Biso   1.000  O 
  O37      1.0000 0.77808  0.14940  0.22699  Biso   1.000  O 
  O38      1.0000 0.77453  0.08589  0.96759  Biso   1.000  O 
  O39      1.0000 0.77820  0.35653  0.97918  Biso   1.000  O 
  O40      1.0000 0.74885  0.40345  0.23398  Biso   1.000  O 
  Hf21     1.0000 0.67838  0.00092  0.61377  Biso   1.000  Hf
  Hf22     1.0000 0.67813  0.23196  0.85586  Biso   1.000  Hf
  Hf23     1.0000 0.90453  0.25827  0.59748  Biso   1.000  Hf
  Hf24     1.0000 0.90992  0.99102  0.86527  Biso   1.000  Hf
  O41      1.0000 0.54449  0.14360  0.49651  Biso   1.000  O 
  O42      1.0000 0.55374  0.09922  0.74181  Biso   1.000  O 
  O43      1.0000 0.53199  0.35253  0.77485  Biso   1.000  O 
  O44      1.0000 0.51744  0.38912  0.52720  Biso   1.000  O 
  O45      1.0000 0.80829  0.13866  0.72883  Biso   1.000  O 
  O46      1.0000 0.79273  0.10074  0.48015  Biso   1.000  O 
  O47      1.0000 0.77893  0.34815  0.47259  Biso   1.000  O 
  O48      1.0000 0.77801  0.38934  0.72824  Biso   1.000  O 
  Hf25     1.0000 0.60621  0.50861  0.13635  Biso   1.000  Hf
  Hf26     1.0000 0.61974  0.73961  0.39552  Biso   1.000  Hf
  Hf27     1.0000 0.86110  0.74103  0.11928  Biso   1.000  Hf
  Hf28     1.0000 0.87674  0.50499  0.36996  Biso   1.000  Hf
  O49      1.0000 0.47597  0.64929  0.01009  Biso   1.000  O 
  O50      1.0000 0.48140  0.60931  0.26359  Biso   1.000  O 
  O51      1.0000 0.51339  0.85811  0.27088  Biso   1.000  O 
  O52      1.0000 0.48835  0.90172  0.02197  Biso   1.000  O 
  O53      1.0000 0.73354  0.65254  0.25477  Biso   1.000  O 
  O54      1.0000 0.72410  0.60556  0.00548  Biso   1.000  O 
  O55      1.0000 0.79117  0.84562  0.98812  Biso   1.000  O 
  O56      1.0000 0.77069  0.90146  0.22848  Biso   1.000  O 
  Hf29     1.0000 0.63288  0.50123  0.64443  Biso   1.000  Hf
  Hf30     1.0000 0.64937  0.74863  0.88761  Biso   1.000  Hf
  Hf31     1.0000 0.88850  0.74107  0.62070  Biso   1.000  Hf
  Hf32     1.0000 0.89743  0.50440  0.86486  Biso   1.000  Hf
  O57      1.0000 0.49242  0.63728  0.51339  Biso   1.000  O 
  O58      1.0000 0.50500  0.60473  0.76165  Biso   1.000  O 
  O59      1.0000 0.52065  0.85434  0.77661  Biso   1.000  O 
  O60      1.0000 0.51862  0.88909  0.52243  Biso   1.000  O 
  O61      1.0000 0.75853  0.64380  0.75405  Biso   1.000  O 
  O62      1.0000 0.74433  0.59559  0.50369  Biso   1.000  O 
  O63      1.0000 0.76492  0.84936  0.48542  Biso   1.000  O 
  O64      1.0000 0.77747  0.89108  0.73518  Biso   1.000  O 
  Rh1      1.0000 0.11735  0.20086  0.11060  Biso   1.000  Rh
