data_image0
_cell_length_a       10.0463
_cell_length_b       10.2425
_cell_length_c       10.5032
_cell_angle_alpha    90
_cell_angle_beta     90
_cell_angle_gamma    90

_symmetry_space_group_name_H-M    "P 1"
_symmetry_int_tables_number       1

loop_
  _symmetry_equiv_pos_as_xyz
  'x, y, z'

loop_
  _atom_site_label
  _atom_site_occupancy
  _atom_site_fract_x
  _atom_site_fract_y
  _atom_site_fract_z
  _atom_site_thermal_displace_type
  _atom_site_B_iso_or_equiv
  _atom_site_type_symbol
  Hf1      1.0000 0.13624  0.02096  0.17270  Biso   1.000  Hf
  Hf2      1.0000 0.13524  0.22865  0.42453  Biso   1.000  Hf
  Hf3      1.0000 0.35075  0.26952  0.17813  Biso   1.000  Hf
  Hf4      1.0000 0.35975  0.47888  0.42139  Biso   1.000  Hf
  Hf5      1.0000 0.64364  0.01776  0.07605  Biso   1.000  Hf
  Hf6      1.0000 0.63664  0.22686  0.32886  Biso   1.000  Hf
  Hf7      1.0000 0.85913  0.26897  0.07791  Biso   1.000  Hf
  Hf8      1.0000 0.86091  0.47961  0.32937  Biso   1.000  Hf
  O1       1.0000 0.03108  0.16386  0.08324  Biso   1.000  O 
  O2       1.0000 0.02974  0.08589  0.33381  Biso   1.000  O 
  O3       1.0000 0.45203  0.43802  0.09863  Biso   1.000  O 
  O4       1.0000 0.46526  0.33443  0.33233  Biso   1.000  O 
  O5       1.0000 0.26979  0.12523  0.29899  Biso   1.000  O 
  O6       1.0000 0.27288  0.12426  0.04675  Biso   1.000  O 
  O7       1.0000 0.21889  0.37536  0.29829  Biso   1.000  O 
  O8       1.0000 0.22086  0.37530  0.04536  Biso   1.000  O 
  O9       1.0000 0.51375  0.13930  0.18564  Biso   1.000  O 
  O10      1.0000 0.52930  0.08862  0.42392  Biso   1.000  O 
  O11      1.0000 0.96604  0.41388  0.16778  Biso   1.000  O 
  O12      1.0000 0.96555  0.33645  0.41877  Biso   1.000  O 
  O13      1.0000 0.77379  0.12398  0.45423  Biso   1.000  O 
  O14      1.0000 0.77544  0.12460  0.20706  Biso   1.000  O 
  O15      1.0000 0.72140  0.37356  0.45537  Biso   1.000  O 
  O16      1.0000 0.72479  0.38102  0.20832  Biso   1.000  O 
  Hf9      1.0000 0.13732  0.02156  0.67252  Biso   1.000  Hf
  Hf10     1.0000 0.13300  0.22910  0.92241  Biso   1.000  Hf
  Hf11     1.0000 0.35816  0.27255  0.67320  Biso   1.000  Hf
  Hf12     1.0000 0.35533  0.48136  0.92275  Biso   1.000  Hf
  Hf13     1.0000 0.63714  0.02032  0.57829  Biso   1.000  Hf
  Hf14     1.0000 0.63873  0.22790  0.82016  Biso   1.000  Hf
  Hf15     1.0000 0.85920  0.27182  0.57767  Biso   1.000  Hf
  Hf16     1.0000 0.85856  0.48063  0.82814  Biso   1.000  Hf
  O17      1.0000 0.02985  0.16454  0.58390  Biso   1.000  O 
  O18      1.0000 0.03104  0.08465  0.83209  Biso   1.000  O 
  O19      1.0000 0.46616  0.41247  0.57981  Biso   1.000  O 
  O20      1.0000 0.46663  0.34271  0.82750  Biso   1.000  O 
  O21      1.0000 0.27365  0.12525  0.79659  Biso   1.000  O 
  O22      1.0000 0.27354  0.12610  0.54696  Biso   1.000  O 
  O23      1.0000 0.21965  0.37399  0.79645  Biso   1.000  O 
  O24      1.0000 0.22175  0.37651  0.54676  Biso   1.000  O 
  O25      1.0000 0.52769  0.16097  0.66950  Biso   1.000  O 
  O26      1.0000 0.52714  0.09006  0.92047  Biso   1.000  O 
  O27      1.0000 0.96459  0.41536  0.66776  Biso   1.000  O 
  O28      1.0000 0.96078  0.33563  0.91711  Biso   1.000  O 
  O29      1.0000 0.78127  0.11961  0.94795  Biso   1.000  O 
  O30      1.0000 0.77497  0.12457  0.70088  Biso   1.000  O 
  O31      1.0000 0.71636  0.37718  0.95402  Biso   1.000  O 
  O32      1.0000 0.72251  0.37614  0.70342  Biso   1.000  O 
  Hf17     1.0000 0.13708  0.52123  0.17149  Biso   1.000  Hf
  Hf18     1.0000 0.13699  0.72893  0.42175  Biso   1.000  Hf
  Hf19     1.0000 0.35949  0.77318  0.17231  Biso   1.000  Hf
  Hf20     1.0000 0.35821  0.97949  0.42352  Biso   1.000  Hf
  Hf21     1.0000 0.63723  0.52949  0.08199  Biso   1.000  Hf
  Hf22     1.0000 0.63680  0.73145  0.32985  Biso   1.000  Hf
  Hf23     1.0000 0.86141  0.77081  0.07916  Biso   1.000  Hf
  Hf24     1.0000 0.85880  0.97860  0.32970  Biso   1.000  Hf
  O33      1.0000 0.03163  0.66401  0.08258  Biso   1.000  O 
  O34      1.0000 0.03149  0.58641  0.33213  Biso   1.000  O 
  O35      1.0000 0.46797  0.91046  0.07822  Biso   1.000  O 
  O36      1.0000 0.46571  0.83900  0.33264  Biso   1.000  O 
  O37      1.0000 0.27487  0.62469  0.29493  Biso   1.000  O 
  O38      1.0000 0.27416  0.62799  0.04457  Biso   1.000  O 
  O39      1.0000 0.22178  0.87481  0.29608  Biso   1.000  O 
  O40      1.0000 0.22194  0.87659  0.04613  Biso   1.000  O 
  O41      1.0000 0.53363  0.67221  0.16857  Biso   1.000  O 
  O42      1.0000 0.53008  0.58680  0.41705  Biso   1.000  O 
  O43      1.0000 0.96548  0.91424  0.16811  Biso   1.000  O 
  O44      1.0000 0.96495  0.83433  0.41739  Biso   1.000  O 
  O45      1.0000 0.77371  0.62409  0.45528  Biso   1.000  O 
  O46      1.0000 0.77562  0.62844  0.20616  Biso   1.000  O 
  O47      1.0000 0.72161  0.87451  0.45611  Biso   1.000  O 
  O48      1.0000 0.72413  0.87566  0.20638  Biso   1.000  O 
  Hf25     1.0000 0.13599  0.52115  0.67171  Biso   1.000  Hf
  Hf26     1.0000 0.13361  0.72986  0.92204  Biso   1.000  Hf
  Hf27     1.0000 0.35809  0.77142  0.67217  Biso   1.000  Hf
  Hf28     1.0000 0.35476  0.97906  0.92323  Biso   1.000  Hf
  Hf29     1.0000 0.63571  0.52121  0.57728  Biso   1.000  Hf
  Hf30     1.0000 0.63411  0.72913  0.82770  Biso   1.000  Hf
  Hf31     1.0000 0.85945  0.77067  0.57857  Biso   1.000  Hf
  Hf32     1.0000 0.85856  0.97730  0.82739  Biso   1.000  Hf
  O49      1.0000 0.03041  0.66404  0.58257  Biso   1.000  O 
  O50      1.0000 0.02873  0.58626  0.83245  Biso   1.000  O 
  O51      1.0000 0.46502  0.91197  0.58169  Biso   1.000  O 
  O52      1.0000 0.46443  0.83894  0.83057  Biso   1.000  O 
  O53      1.0000 0.27227  0.62405  0.79589  Biso   1.000  O 
  O54      1.0000 0.27384  0.62577  0.54522  Biso   1.000  O 
  O55      1.0000 0.21989  0.87383  0.79597  Biso   1.000  O 
  O56      1.0000 0.22120  0.87615  0.54591  Biso   1.000  O 
  O57      1.0000 0.52815  0.66265  0.66846  Biso   1.000  O 
  O58      1.0000 0.52716  0.58789  0.91947  Biso   1.000  O 
  O59      1.0000 0.96555  0.91378  0.66610  Biso   1.000  O 
  O60      1.0000 0.96270  0.83574  0.91818  Biso   1.000  O 
  O61      1.0000 0.77164  0.62549  0.95483  Biso   1.000  O 
  O62      1.0000 0.77245  0.62605  0.70472  Biso   1.000  O 
  O63      1.0000 0.71879  0.87320  0.95520  Biso   1.000  O 
  O64      1.0000 0.72094  0.87497  0.70495  Biso   1.000  O 
  Rh1      1.0000 0.57636  0.26987  0.05656  Biso   1.000  Rh
