data_image0
_cell_length_a       10.1474
_cell_length_b       10.2851
_cell_length_c       10.5012
_cell_angle_alpha    90
_cell_angle_beta     80
_cell_angle_gamma    90

_symmetry_space_group_name_H-M    "P 1"
_symmetry_int_tables_number       1

loop_
  _symmetry_equiv_pos_as_xyz
  'x, y, z'

loop_
  _atom_site_label
  _atom_site_occupancy
  _atom_site_fract_x
  _atom_site_fract_y
  _atom_site_fract_z
  _atom_site_thermal_displace_type
  _atom_site_B_iso_or_equiv
  _atom_site_type_symbol
  Hf1      1.0000 0.13619  0.02183  0.14623  Biso   1.000  Hf
  Hf2      1.0000 0.13868  0.23033  0.39592  Biso   1.000  Hf
  Hf3      1.0000 0.35559  0.27282  0.09563  Biso   1.000  Hf
  Hf4      1.0000 0.35426  0.48063  0.35178  Biso   1.000  Hf
  O1       1.0000 0.03439  0.16906  0.07832  Biso   1.000  O 
  O2       1.0000 0.03493  0.08257  0.32827  Biso   1.000  O 
  O3       1.0000 0.46341  0.41420  0.17323  Biso   1.000  O 
  O4       1.0000 0.48359  0.35878  0.43791  Biso   1.000  O 
  O5       1.0000 0.27803  0.12682  0.23777  Biso   1.000  O 
  O6       1.0000 0.27166  0.11371  0.49288  Biso   1.000  O 
  O7       1.0000 0.22004  0.38178  0.00474  Biso   1.000  O 
  O8       1.0000 0.20989  0.37551  0.25335  Biso   1.000  O 
  Hf5      1.0000 0.13635  0.01923  0.64719  Biso   1.000  Hf
  Hf6      1.0000 0.13484  0.22745  0.89396  Biso   1.000  Hf
  Hf7      1.0000 0.35999  0.27308  0.60497  Biso   1.000  Hf
  Hf8      1.0000 0.35760  0.47871  0.85401  Biso   1.000  Hf
  O9       1.0000 0.03510  0.16762  0.57974  Biso   1.000  O 
  O10      1.0000 0.03188  0.08082  0.82895  Biso   1.000  O 
  O11      1.0000 0.46449  0.41368  0.67786  Biso   1.000  O 
  O12      1.0000 0.46448  0.33490  0.92239  Biso   1.000  O 
  O13      1.0000 0.27419  0.12843  0.74012  Biso   1.000  O 
  O14      1.0000 0.27217  0.12068  0.98812  Biso   1.000  O 
  O15      1.0000 0.22233  0.37872  0.51101  Biso   1.000  O 
  O16      1.0000 0.22137  0.37041  0.75834  Biso   1.000  O 
  Hf9      1.0000 0.13581  0.52284  0.14434  Biso   1.000  Hf
  Hf10     1.0000 0.13453  0.72808  0.39715  Biso   1.000  Hf
  Hf11     1.0000 0.35825  0.77203  0.10410  Biso   1.000  Hf
  Hf12     1.0000 0.35912  0.96899  0.35808  Biso   1.000  Hf
  O17      1.0000 0.03151  0.67058  0.07891  Biso   1.000  O 
  O18      1.0000 0.03171  0.58451  0.32752  Biso   1.000  O 
  O19      1.0000 0.46263  0.91585  0.17411  Biso   1.000  O 
  O20      1.0000 0.46010  0.82445  0.42351  Biso   1.000  O 
  O21      1.0000 0.27353  0.62937  0.24063  Biso   1.000  O 
  O22      1.0000 0.27037  0.62010  0.49206  Biso   1.000  O 
  O23      1.0000 0.22103  0.88013  0.01063  Biso   1.000  O 
  O24      1.0000 0.22009  0.86993  0.26078  Biso   1.000  O 
  Hf13     1.0000 0.13522  0.52169  0.64672  Biso   1.000  Hf
  Hf14     1.0000 0.13399  0.72842  0.89720  Biso   1.000  Hf
  Hf15     1.0000 0.35834  0.76809  0.60599  Biso   1.000  Hf
  Hf16     1.0000 0.35715  0.97776  0.85381  Biso   1.000  Hf
  O25      1.0000 0.02944  0.66624  0.57930  Biso   1.000  O 
  O26      1.0000 0.03154  0.58193  0.82998  Biso   1.000  O 
  O27      1.0000 0.46144  0.91535  0.67146  Biso   1.000  O 
  O28      1.0000 0.46183  0.83359  0.92281  Biso   1.000  O 
  O29      1.0000 0.27275  0.62738  0.74144  Biso   1.000  O 
  O30      1.0000 0.27248  0.62174  0.99069  Biso   1.000  O 
  O31      1.0000 0.22005  0.87468  0.51214  Biso   1.000  O 
  O32      1.0000 0.21984  0.87005  0.76106  Biso   1.000  O 
  Hf17     1.0000 0.63843  0.02071  0.14699  Biso   1.000  Hf
  Hf18     1.0000 0.64790  0.23008  0.40115  Biso   1.000  Hf
  Hf19     1.0000 0.85998  0.27253  0.10460  Biso   1.000  Hf
  Hf20     1.0000 0.86124  0.47851  0.35448  Biso   1.000  Hf
  O33      1.0000 0.53027  0.16142  0.07378  Biso   1.000  O 
  O34      1.0000 0.54846  0.06097  0.34089  Biso   1.000  O 
  O35      1.0000 0.96184  0.42057  0.16903  Biso   1.000  O 
  O36      1.0000 0.96465  0.33296  0.42231  Biso   1.000  O 
  O37      1.0000 0.77733  0.12974  0.24018  Biso   1.000  O 
  O38      1.0000 0.77951  0.11890  0.49299  Biso   1.000  O 
  O39      1.0000 0.72150  0.37884  0.01153  Biso   1.000  O 
  O40      1.0000 0.72471  0.37209  0.26146  Biso   1.000  O 
  Hf21     1.0000 0.63666  0.02083  0.64560  Biso   1.000  Hf
  Hf22     1.0000 0.63677  0.22648  0.89676  Biso   1.000  Hf
  Hf23     1.0000 0.86230  0.27046  0.60707  Biso   1.000  Hf
  Hf24     1.0000 0.85774  0.47774  0.85581  Biso   1.000  Hf
  O41      1.0000 0.53347  0.16695  0.57808  Biso   1.000  O 
  O42      1.0000 0.53164  0.08353  0.82620  Biso   1.000  O 
  O43      1.0000 0.96304  0.41745  0.67307  Biso   1.000  O 
  O44      1.0000 0.96130  0.33074  0.92048  Biso   1.000  O 
  O45      1.0000 0.77398  0.12774  0.74162  Biso   1.000  O 
  O46      1.0000 0.77395  0.12016  0.99124  Biso   1.000  O 
  O47      1.0000 0.72705  0.37730  0.51345  Biso   1.000  O 
  O48      1.0000 0.72211  0.37031  0.76206  Biso   1.000  O 
  Hf25     1.0000 0.63673  0.52215  0.14696  Biso   1.000  Hf
  Hf26     1.0000 0.63646  0.72567  0.39592  Biso   1.000  Hf
  Hf27     1.0000 0.85773  0.77156  0.10443  Biso   1.000  Hf
  Hf28     1.0000 0.85816  0.97769  0.35433  Biso   1.000  Hf
  O49      1.0000 0.53079  0.66551  0.07707  Biso   1.000  O 
  O50      1.0000 0.52961  0.58630  0.32429  Biso   1.000  O 
  O51      1.0000 0.96209  0.91849  0.17076  Biso   1.000  O 
  O52      1.0000 0.96158  0.83278  0.42220  Biso   1.000  O 
  O53      1.0000 0.77377  0.62799  0.24047  Biso   1.000  O 
  O54      1.0000 0.77313  0.61966  0.49041  Biso   1.000  O 
  O55      1.0000 0.71995  0.87970  0.01106  Biso   1.000  O 
  O56      1.0000 0.72284  0.86868  0.25964  Biso   1.000  O 
  Hf29     1.0000 0.63672  0.51982  0.64745  Biso   1.000  Hf
  Hf30     1.0000 0.63438  0.72740  0.89655  Biso   1.000  Hf
  Hf31     1.0000 0.85653  0.77099  0.60463  Biso   1.000  Hf
  Hf32     1.0000 0.85583  0.97734  0.85487  Biso   1.000  Hf
  O57      1.0000 0.53161  0.66312  0.57875  Biso   1.000  O 
  O58      1.0000 0.53081  0.58386  0.82820  Biso   1.000  O 
  O59      1.0000 0.96008  0.91652  0.67182  Biso   1.000  O 
  O60      1.0000 0.96016  0.83186  0.92145  Biso   1.000  O 
  O61      1.0000 0.77284  0.62798  0.74102  Biso   1.000  O 
  O62      1.0000 0.77207  0.62050  0.99108  Biso   1.000  O 
  O63      1.0000 0.71949  0.87747  0.51004  Biso   1.000  O 
  O64      1.0000 0.71884  0.87043  0.76053  Biso   1.000  O 
  Rh1      1.0000 0.41973  0.22830  0.32203  Biso   1.000  Rh
