data_image0
_cell_length_a       5.02456
_cell_length_b       10.4685
_cell_length_c       10.0613
_cell_angle_alpha    90
_cell_angle_beta     90
_cell_angle_gamma    90

_symmetry_space_group_name_H-M    "P 1"
_symmetry_int_tables_number       1

loop_
  _symmetry_equiv_pos_as_xyz
  'x, y, z'

loop_
  _atom_site_label
  _atom_site_occupancy
  _atom_site_fract_x
  _atom_site_fract_y
  _atom_site_fract_z
  _atom_site_thermal_displace_type
  _atom_site_B_iso_or_equiv
  _atom_site_type_symbol
  Hf1      1.0000 0.26150  0.01591  0.11945  Biso   1.000  Hf
  Hf2      1.0000 0.26305  0.23518  0.38488  Biso   1.000  Hf
  Hf3      1.0000 0.69177  0.25668  0.12302  Biso   1.000  Hf
  Hf4      1.0000 0.74001  0.48937  0.37820  Biso   1.000  Hf
  O1       1.0000 0.00827  0.17046  0.22356  Biso   1.000  O 
  O2       1.0000 0.07057  0.06873  0.45225  Biso   1.000  O 
  O3       1.0000 0.92204  0.44801  0.20100  Biso   1.000  O 
  O4       1.0000 0.93477  0.32514  0.45145  Biso   1.000  O 
  O5       1.0000 0.50638  0.11593  0.25021  Biso   1.000  O 
  O6       1.0000 0.54649  0.13991  0.49828  Biso   1.000  O 
  O7       1.0000 0.46315  0.38902  0.50341  Biso   1.000  O 
  O8       1.0000 0.46076  0.36929  0.25815  Biso   1.000  O 
  Hf5      1.0000 0.27264  0.01951  0.62444  Biso   1.000  Hf
  Hf6      1.0000 0.27609  0.23200  0.86471  Biso   1.000  Hf
  Hf7      1.0000 0.73549  0.27495  0.62707  Biso   1.000  Hf
  Hf8      1.0000 0.74093  0.49582  0.87366  Biso   1.000  Hf
  O9       1.0000 0.07532  0.18775  0.68939  Biso   1.000  O 
  O10      1.0000 0.08519  0.06829  0.93519  Biso   1.000  O 
  O11      1.0000 0.93176  0.44235  0.69415  Biso   1.000  O 
  O12      1.0000 0.92759  0.32232  0.92902  Biso   1.000  O 
  O13      1.0000 0.54634  0.12099  0.74481  Biso   1.000  O 
  O14      1.0000 0.57166  0.13238  0.99138  Biso   1.000  O 
  O15      1.0000 0.48038  0.39479  0.00397  Biso   1.000  O 
  O16      1.0000 0.46456  0.37432  0.75192  Biso   1.000  O 
  Hf9      1.0000 0.26813  0.53515  0.12854  Biso   1.000  Hf
  Hf10     1.0000 0.27297  0.74161  0.37798  Biso   1.000  Hf
  Hf11     1.0000 0.72998  0.76952  0.12717  Biso   1.000  Hf
  Hf12     1.0000 0.73916  0.99135  0.37164  Biso   1.000  Hf
  O17      1.0000 0.07287  0.69366  0.19916  Biso   1.000  O 
  O18      1.0000 0.07358  0.57523  0.44786  Biso   1.000  O 
  O19      1.0000 0.92658  0.93591  0.19173  Biso   1.000  O 
  O20      1.0000 0.93309  0.82400  0.44398  Biso   1.000  O 
  O21      1.0000 0.54385  0.62543  0.25354  Biso   1.000  O 
  O22      1.0000 0.54146  0.64010  0.50128  Biso   1.000  O 
  O23      1.0000 0.46971  0.89075  0.49759  Biso   1.000  O 
  O24      1.0000 0.46108  0.87163  0.24867  Biso   1.000  O 
  Hf13     1.0000 0.27211  0.52299  0.62617  Biso   1.000  Hf
  Hf14     1.0000 0.26967  0.74541  0.87380  Biso   1.000  Hf
  Hf15     1.0000 0.74067  0.77198  0.62326  Biso   1.000  Hf
  Hf16     1.0000 0.74120  0.98705  0.87272  Biso   1.000  Hf
  O25      1.0000 0.07331  0.68981  0.69631  Biso   1.000  O 
  O26      1.0000 0.07094  0.58039  0.94783  Biso   1.000  O 
  O27      1.0000 0.94178  0.93612  0.69521  Biso   1.000  O 
  O28      1.0000 0.93335  0.82545  0.94753  Biso   1.000  O 
  O29      1.0000 0.54099  0.62398  0.75003  Biso   1.000  O 
  O30      1.0000 0.53869  0.65139  0.99952  Biso   1.000  O 
  O31      1.0000 0.45996  0.89371  0.99873  Biso   1.000  O 
  O32      1.0000 0.47209  0.87199  0.74761  Biso   1.000  O 
  Rh1      1.0000 0.18186  0.29808  0.10307  Biso   1.000  Rh
