data_image0
_cell_length_a       10.1165
_cell_length_b       10.205
_cell_length_c       5.23366
_cell_angle_alpha    90
_cell_angle_beta     80
_cell_angle_gamma    90

_symmetry_space_group_name_H-M    "P 1"
_symmetry_int_tables_number       1

loop_
  _symmetry_equiv_pos_as_xyz
  'x, y, z'

loop_
  _atom_site_label
  _atom_site_occupancy
  _atom_site_fract_x
  _atom_site_fract_y
  _atom_site_fract_z
  _atom_site_thermal_displace_type
  _atom_site_B_iso_or_equiv
  _atom_site_type_symbol
  Rh1      1.0000 0.12039  0.00910  0.33477  Biso   1.000  Rh
  Hf1      1.0000 0.14311  0.22565  0.78465  Biso   1.000  Hf
  Hf2      1.0000 0.36179  0.26906  0.20067  Biso   1.000  Hf
  Hf3      1.0000 0.36380  0.47910  0.70891  Biso   1.000  Hf
  O1       1.0000 0.04551  0.15001  0.15013  Biso   1.000  O 
  O2       1.0000 0.02643  0.08462  0.65249  Biso   1.000  O 
  O3       1.0000 0.46831  0.41632  0.34415  Biso   1.000  O 
  O4       1.0000 0.47072  0.33920  0.84853  Biso   1.000  O 
  O5       1.0000 0.26852  0.12110  0.45218  Biso   1.000  O 
  O6       1.0000 0.29361  0.13978  0.93186  Biso   1.000  O 
  O7       1.0000 0.22835  0.38319  0.01598  Biso   1.000  O 
  O8       1.0000 0.22902  0.36897  0.51871  Biso   1.000  O 
  Hf4      1.0000 0.14593  0.52215  0.29490  Biso   1.000  Hf
  Hf5      1.0000 0.14183  0.72953  0.79894  Biso   1.000  Hf
  Hf6      1.0000 0.36730  0.77745  0.20706  Biso   1.000  Hf
  Hf7      1.0000 0.36964  0.98349  0.70654  Biso   1.000  Hf
  O9       1.0000 0.04111  0.66527  0.15867  Biso   1.000  O 
  O10      1.0000 0.03936  0.58178  0.66242  Biso   1.000  O 
  O11      1.0000 0.47443  0.91838  0.34382  Biso   1.000  O 
  O12      1.0000 0.46623  0.83150  0.84265  Biso   1.000  O 
  O13      1.0000 0.28079  0.63242  0.48328  Biso   1.000  O 
  O14      1.0000 0.27817  0.62385  0.98513  Biso   1.000  O 
  O15      1.0000 0.23259  0.89361  0.02360  Biso   1.000  O 
  O16      1.0000 0.22373  0.87263  0.52301  Biso   1.000  O 
  Hf8      1.0000 0.63629  0.02141  0.29280  Biso   1.000  Hf
  Hf9      1.0000 0.63829  0.22878  0.79505  Biso   1.000  Hf
  Hf10     1.0000 0.86982  0.26619  0.21365  Biso   1.000  Hf
  Hf11     1.0000 0.86589  0.47494  0.71368  Biso   1.000  Hf
  O17      1.0000 0.53807  0.16870  0.15653  Biso   1.000  O 
  O18      1.0000 0.53561  0.08141  0.65802  Biso   1.000  O 
  O19      1.0000 0.97494  0.40972  0.35342  Biso   1.000  O 
  O20      1.0000 0.96830  0.32909  0.85844  Biso   1.000  O 
  O21      1.0000 0.77651  0.12606  0.48171  Biso   1.000  O 
  O22      1.0000 0.77366  0.11806  0.98519  Biso   1.000  O 
  O23      1.0000 0.73373  0.37633  0.02410  Biso   1.000  O 
  O24      1.0000 0.72983  0.36886  0.52224  Biso   1.000  O 
  Hf12     1.0000 0.64200  0.51895  0.29206  Biso   1.000  Hf
  Hf13     1.0000 0.64004  0.72616  0.79368  Biso   1.000  Hf
  Hf14     1.0000 0.86621  0.76694  0.20936  Biso   1.000  Hf
  Hf15     1.0000 0.86358  0.97446  0.71443  Biso   1.000  Hf
  O25      1.0000 0.54112  0.66809  0.15635  Biso   1.000  O 
  O26      1.0000 0.53800  0.58237  0.65507  Biso   1.000  O 
  O27      1.0000 0.96911  0.91209  0.34690  Biso   1.000  O 
  O28      1.0000 0.96792  0.83119  0.84885  Biso   1.000  O 
  O29      1.0000 0.78148  0.62495  0.48262  Biso   1.000  O 
  O30      1.0000 0.77702  0.61781  0.98276  Biso   1.000  O 
  O31      1.0000 0.73134  0.87772  0.01957  Biso   1.000  O 
  O32      1.0000 0.73021  0.86812  0.52152  Biso   1.000  O 
