data_image0
_cell_length_a       5.03212
_cell_length_b       10.2203
_cell_length_c       10.0507
_cell_angle_alpha    90
_cell_angle_beta     90
_cell_angle_gamma    90

_symmetry_space_group_name_H-M    "P 1"
_symmetry_int_tables_number       1

loop_
  _symmetry_equiv_pos_as_xyz
  'x, y, z'

loop_
  _atom_site_label
  _atom_site_occupancy
  _atom_site_fract_x
  _atom_site_fract_y
  _atom_site_fract_z
  _atom_site_thermal_displace_type
  _atom_site_B_iso_or_equiv
  _atom_site_type_symbol
  Rh1      1.0000 0.22833  0.04150  0.13732  Biso   1.000  Rh
  Hf1      1.0000 0.16503  0.25134  0.38189  Biso   1.000  Hf
  Hf2      1.0000 0.71771  0.24270  0.12950  Biso   1.000  Hf
  Hf3      1.0000 0.61101  0.00004  0.38257  Biso   1.000  Hf
  O1       1.0000 0.02426  0.15575  0.00216  Biso   1.000  O 
  O2       1.0000 0.93521  0.09319  0.25179  Biso   1.000  O 
  O3       1.0000 0.03431  0.33913  0.21265  Biso   1.000  O 
  O4       1.0000 0.94828  0.42432  0.96081  Biso   1.000  O 
  O5       1.0000 0.45012  0.15935  0.26062  Biso   1.000  O 
  O6       1.0000 0.54378  0.07407  0.03151  Biso   1.000  O 
  O7       1.0000 0.44934  0.33374  0.96448  Biso   1.000  O 
  O8       1.0000 0.53163  0.40999  0.21734  Biso   1.000  O 
  Hf4      1.0000 0.11838  0.99841  0.64591  Biso   1.000  Hf
  Hf5      1.0000 0.12405  0.26804  0.85603  Biso   1.000  Hf
  Hf6      1.0000 0.62535  0.24165  0.62552  Biso   1.000  Hf
  Hf7      1.0000 0.61988  0.00077  0.89210  Biso   1.000  Hf
  O9       1.0000 0.87148  0.16498  0.48612  Biso   1.000  O 
  O10      1.0000 0.90188  0.11489  0.74830  Biso   1.000  O 
  O11      1.0000 0.88292  0.36461  0.72057  Biso   1.000  O 
  O12      1.0000 0.96959  0.41689  0.46330  Biso   1.000  O 
  O13      1.0000 0.40205  0.14266  0.76502  Biso   1.000  O 
  O14      1.0000 0.38039  0.10763  0.50891  Biso   1.000  O 
  O15      1.0000 0.46127  0.35577  0.47653  Biso   1.000  O 
  O16      1.0000 0.37844  0.39574  0.72812  Biso   1.000  O 
  Hf8      1.0000 0.21555  0.50409  0.12585  Biso   1.000  Hf
  Hf9      1.0000 0.16006  0.75234  0.36480  Biso   1.000  Hf
  Hf10     1.0000 0.72596  0.74339  0.12392  Biso   1.000  Hf
  Hf11     1.0000 0.66152  0.51428  0.37655  Biso   1.000  Hf
  O17      1.0000 0.01053  0.65728  0.01148  Biso   1.000  O 
  O18      1.0000 0.94711  0.59814  0.24983  Biso   1.000  O 
  O19      1.0000 0.81953  0.83936  0.29426  Biso   1.000  O 
  O20      1.0000 0.96792  0.91133  0.04024  Biso   1.000  O 
  O21      1.0000 0.43159  0.65512  0.24491  Biso   1.000  O 
  O22      1.0000 0.40184  0.59529  0.99714  Biso   1.000  O 
  O23      1.0000 0.40670  0.84404  0.98566  Biso   1.000  O 
  O24      1.0000 0.32385  0.91468  0.25910  Biso   1.000  O 
  Hf12     1.0000 0.12852  0.51729  0.61823  Biso   1.000  Hf
  Hf13     1.0000 0.15197  0.74541  0.87377  Biso   1.000  Hf
  Hf14     1.0000 0.63724  0.76199  0.62809  Biso   1.000  Hf
  Hf15     1.0000 0.62338  0.49638  0.86131  Biso   1.000  Hf
  O25      1.0000 0.89649  0.66234  0.50190  Biso   1.000  O 
  O26      1.0000 0.88083  0.61341  0.74681  Biso   1.000  O 
  O27      1.0000 0.88013  0.86072  0.77797  Biso   1.000  O 
  O28      1.0000 0.82818  0.91888  0.53554  Biso   1.000  O 
  O29      1.0000 0.38357  0.64326  0.74606  Biso   1.000  O 
  O30      1.0000 0.40032  0.61196  0.49614  Biso   1.000  O 
  O31      1.0000 0.35440  0.85740  0.50611  Biso   1.000  O 
  O32      1.0000 0.38711  0.89507  0.75038  Biso   1.000  O 
