data_image0
_cell_length_a       10.0243
_cell_length_b       10.1821
_cell_length_c       5.22293
_cell_angle_alpha    90
_cell_angle_beta     90
_cell_angle_gamma    90

_symmetry_space_group_name_H-M    "P 1"
_symmetry_int_tables_number       1

loop_
  _symmetry_equiv_pos_as_xyz
  'x, y, z'

loop_
  _atom_site_label
  _atom_site_occupancy
  _atom_site_fract_x
  _atom_site_fract_y
  _atom_site_fract_z
  _atom_site_thermal_displace_type
  _atom_site_B_iso_or_equiv
  _atom_site_type_symbol
  Rh1      1.0000 0.12147  0.01025  0.37821  Biso   1.000  Rh
  Hf1      1.0000 0.14580  0.22835  0.83683  Biso   1.000  Hf
  Hf2      1.0000 0.36183  0.27039  0.33434  Biso   1.000  Hf
  Hf3      1.0000 0.36338  0.47945  0.84316  Biso   1.000  Hf
  Hf4      1.0000 0.63741  0.02164  0.15567  Biso   1.000  Hf
  Hf5      1.0000 0.63891  0.22937  0.65769  Biso   1.000  Hf
  Hf6      1.0000 0.86986  0.26605  0.16468  Biso   1.000  Hf
  Hf7      1.0000 0.86652  0.47586  0.66350  Biso   1.000  Hf
  O1       1.0000 0.04650  0.15120  0.16586  Biso   1.000  O 
  O2       1.0000 0.02847  0.08647  0.66291  Biso   1.000  O 
  O3       1.0000 0.47048  0.41808  0.16933  Biso   1.000  O 
  O4       1.0000 0.46863  0.33370  0.66823  Biso   1.000  O 
  O5       1.0000 0.27155  0.11710  0.55690  Biso   1.000  O 
  O6       1.0000 0.30345  0.14876  0.04110  Biso   1.000  O 
  O7       1.0000 0.22766  0.37343  0.59039  Biso   1.000  O 
  O8       1.0000 0.22443  0.38293  0.08910  Biso   1.000  O 
  O9       1.0000 0.53767  0.16963  0.32618  Biso   1.000  O 
  O10      1.0000 0.53609  0.07902  0.81990  Biso   1.000  O 
  O11      1.0000 0.97510  0.40944  0.34429  Biso   1.000  O 
  O12      1.0000 0.97079  0.33083  0.84662  Biso   1.000  O 
  O13      1.0000 0.77690  0.12152  0.91382  Biso   1.000  O 
  O14      1.0000 0.77832  0.12444  0.41126  Biso   1.000  O 
  O15      1.0000 0.72773  0.37097  0.91608  Biso   1.000  O 
  O16      1.0000 0.73019  0.37429  0.41316  Biso   1.000  O 
  Hf8      1.0000 0.14451  0.52283  0.34688  Biso   1.000  Hf
  Hf9      1.0000 0.14220  0.73086  0.84895  Biso   1.000  Hf
  Hf10     1.0000 0.36615  0.77729  0.34004  Biso   1.000  Hf
  Hf11     1.0000 0.36796  0.98344  0.84208  Biso   1.000  Hf
  Hf12     1.0000 0.64412  0.51930  0.15913  Biso   1.000  Hf
  Hf13     1.0000 0.64111  0.72710  0.65598  Biso   1.000  Hf
  Hf14     1.0000 0.86617  0.76775  0.15764  Biso   1.000  Hf
  Hf15     1.0000 0.86403  0.97617  0.66146  Biso   1.000  Hf
  O17      1.0000 0.03855  0.66442  0.16961  Biso   1.000  O 
  O18      1.0000 0.03703  0.58453  0.67321  Biso   1.000  O 
  O19      1.0000 0.47691  0.91811  0.16582  Biso   1.000  O 
  O20      1.0000 0.46937  0.83353  0.66713  Biso   1.000  O 
  O21      1.0000 0.28028  0.62649  0.59143  Biso   1.000  O 
  O22      1.0000 0.28386  0.63178  0.09179  Biso   1.000  O 
  O23      1.0000 0.22288  0.87441  0.59131  Biso   1.000  O 
  O24      1.0000 0.22963  0.88847  0.09244  Biso   1.000  O 
  O25      1.0000 0.53834  0.66785  0.32786  Biso   1.000  O 
  O26      1.0000 0.53706  0.58213  0.83008  Biso   1.000  O 
  O27      1.0000 0.97066  0.91275  0.33391  Biso   1.000  O 
  O28      1.0000 0.97049  0.83474  0.83666  Biso   1.000  O 
  O29      1.0000 0.77945  0.62133  0.91203  Biso   1.000  O 
  O30      1.0000 0.78133  0.62361  0.41313  Biso   1.000  O 
  O31      1.0000 0.72688  0.87082  0.90990  Biso   1.000  O 
  O32      1.0000 0.73065  0.87510  0.41153  Biso   1.000  O 
