data_image0
_cell_length_a       4.96909
_cell_length_b       10.3761
_cell_length_c       9.99141
_cell_angle_alpha    90
_cell_angle_beta     90
_cell_angle_gamma    90

_symmetry_space_group_name_H-M    "P 1"
_symmetry_int_tables_number       1

loop_
  _symmetry_equiv_pos_as_xyz
  'x, y, z'

loop_
  _atom_site_label
  _atom_site_occupancy
  _atom_site_fract_x
  _atom_site_fract_y
  _atom_site_fract_z
  _atom_site_thermal_displace_type
  _atom_site_B_iso_or_equiv
  _atom_site_type_symbol
  Rh1      1.0000 0.25306  0.03430  0.10747  Biso   1.000  Rh
  Hf1      1.0000 0.27404  0.22702  0.37533  Biso   1.000  Hf
  Hf2      1.0000 0.72596  0.26498  0.12485  Biso   1.000  Hf
  Hf3      1.0000 0.73755  0.48021  0.37653  Biso   1.000  Hf
  O1       1.0000 0.06635  0.18247  0.19385  Biso   1.000  O 
  O2       1.0000 0.08254  0.06285  0.44787  Biso   1.000  O 
  O3       1.0000 0.92815  0.42944  0.19482  Biso   1.000  O 
  O4       1.0000 0.93551  0.31177  0.44315  Biso   1.000  O 
  O5       1.0000 0.53090  0.10746  0.24373  Biso   1.000  O 
  O6       1.0000 0.55554  0.12908  0.49592  Biso   1.000  O 
  O7       1.0000 0.46629  0.37829  0.49991  Biso   1.000  O 
  O8       1.0000 0.46003  0.36188  0.24969  Biso   1.000  O 
  Hf4      1.0000 0.27951  0.01210  0.62499  Biso   1.000  Hf
  Hf5      1.0000 0.28051  0.23263  0.87237  Biso   1.000  Hf
  Hf6      1.0000 0.74298  0.26233  0.62407  Biso   1.000  Hf
  Hf7      1.0000 0.74402  0.48083  0.87514  Biso   1.000  Hf
  O9       1.0000 0.08491  0.18123  0.69440  Biso   1.000  O 
  O10      1.0000 0.08463  0.06071  0.94082  Biso   1.000  O 
  O11      1.0000 0.93853  0.42991  0.69462  Biso   1.000  O 
  O12      1.0000 0.93805  0.30986  0.94288  Biso   1.000  O 
  O13      1.0000 0.55450  0.11377  0.74850  Biso   1.000  O 
  O14      1.0000 0.55023  0.12797  0.99734  Biso   1.000  O 
  O15      1.0000 0.47407  0.37772  0.99905  Biso   1.000  O 
  O16      1.0000 0.47057  0.36445  0.74890  Biso   1.000  O 
  Hf8      1.0000 0.26533  0.51485  0.12817  Biso   1.000  Hf
  Hf9      1.0000 0.27777  0.73195  0.37658  Biso   1.000  Hf
  Hf10     1.0000 0.73719  0.76353  0.12491  Biso   1.000  Hf
  Hf11     1.0000 0.73280  0.98037  0.37246  Biso   1.000  Hf
  O17      1.0000 0.07419  0.68290  0.19738  Biso   1.000  O 
  O18      1.0000 0.07891  0.56206  0.44519  Biso   1.000  O 
  O19      1.0000 0.95571  0.93582  0.19162  Biso   1.000  O 
  O20      1.0000 0.94053  0.81531  0.44830  Biso   1.000  O 
  O21      1.0000 0.54263  0.60824  0.24938  Biso   1.000  O 
  O22      1.0000 0.54952  0.62988  0.50043  Biso   1.000  O 
  O23      1.0000 0.46653  0.88039  0.50322  Biso   1.000  O 
  O24      1.0000 0.50419  0.85120  0.25941  Biso   1.000  O 
  Hf12     1.0000 0.27677  0.51403  0.62526  Biso   1.000  Hf
  Hf13     1.0000 0.27489  0.72976  0.87943  Biso   1.000  Hf
  Hf14     1.0000 0.74103  0.76400  0.62670  Biso   1.000  Hf
  Hf15     1.0000 0.72355  0.97689  0.87701  Biso   1.000  Hf
  O25      1.0000 0.07904  0.67992  0.69725  Biso   1.000  O 
  O26      1.0000 0.08184  0.56162  0.94829  Biso   1.000  O 
  O27      1.0000 0.92983  0.93103  0.69706  Biso   1.000  O 
  O28      1.0000 0.92686  0.81157  0.94023  Biso   1.000  O 
  O29      1.0000 0.54836  0.61420  0.75114  Biso   1.000  O 
  O30      1.0000 0.52905  0.63471  0.00064  Biso   1.000  O 
  O31      1.0000 0.43483  0.88773  0.00907  Biso   1.000  O 
  O32      1.0000 0.46157  0.86319  0.75314  Biso   1.000  O 
