data_image0
_cell_length_a       9.9386
_cell_length_b       10.3712
_cell_length_c       4.99614
_cell_angle_alpha    90
_cell_angle_beta     90
_cell_angle_gamma    90

_symmetry_space_group_name_H-M    "P 1"
_symmetry_int_tables_number       1

loop_
  _symmetry_equiv_pos_as_xyz
  'x, y, z'

loop_
  _atom_site_label
  _atom_site_occupancy
  _atom_site_fract_x
  _atom_site_fract_y
  _atom_site_fract_z
  _atom_site_thermal_displace_type
  _atom_site_B_iso_or_equiv
  _atom_site_type_symbol
  Rh1      1.0000 0.12894  0.03335  0.21895  Biso   1.000  Rh
  Hf1      1.0000 0.13577  0.23247  0.74587  Biso   1.000  Hf
  Hf2      1.0000 0.36618  0.26487  0.25169  Biso   1.000  Hf
  Hf3      1.0000 0.36749  0.48234  0.75280  Biso   1.000  Hf
  O1       1.0000 0.03472  0.18329  0.38719  Biso   1.000  O 
  O2       1.0000 0.03932  0.06217  0.88822  Biso   1.000  O 
  O3       1.0000 0.46364  0.43210  0.38845  Biso   1.000  O 
  O4       1.0000 0.46382  0.31212  0.88712  Biso   1.000  O 
  O5       1.0000 0.26696  0.11082  0.49515  Biso   1.000  O 
  O6       1.0000 0.27104  0.12972  0.99726  Biso   1.000  O 
  O7       1.0000 0.23133  0.37962  0.99873  Biso   1.000  O 
  O8       1.0000 0.23060  0.36383  0.49877  Biso   1.000  O 
  Hf4      1.0000 0.13253  0.51485  0.25269  Biso   1.000  Hf
  Hf5      1.0000 0.13418  0.73196  0.75921  Biso   1.000  Hf
  Hf6      1.0000 0.36281  0.76528  0.25982  Biso   1.000  Hf
  Hf7      1.0000 0.35978  0.97777  0.75529  Biso   1.000  Hf
  O9       1.0000 0.03565  0.68308  0.39130  Biso   1.000  O 
  O10      1.0000 0.03558  0.56244  0.89425  Biso   1.000  O 
  O11      1.0000 0.46570  0.93085  0.39998  Biso   1.000  O 
  O12      1.0000 0.46461  0.81504  0.89915  Biso   1.000  O 
  O13      1.0000 0.26832  0.61046  0.50166  Biso   1.000  O 
  O14      1.0000 0.26753  0.63351  0.00206  Biso   1.000  O 
  O15      1.0000 0.22073  0.88700  0.02605  Biso   1.000  O 
  O16      1.0000 0.24045  0.85345  0.52826  Biso   1.000  O 
  Hf8      1.0000 0.63300  0.01468  0.24558  Biso   1.000  Hf
  Hf9      1.0000 0.63455  0.23064  0.75024  Biso   1.000  Hf
  Hf10     1.0000 0.86303  0.26582  0.24777  Biso   1.000  Hf
  Hf11     1.0000 0.86607  0.48215  0.75108  Biso   1.000  Hf
  O17      1.0000 0.53539  0.18285  0.38919  Biso   1.000  O 
  O18      1.0000 0.53734  0.06445  0.89162  Biso   1.000  O 
  O19      1.0000 0.96375  0.43063  0.39057  Biso   1.000  O 
  O20      1.0000 0.96508  0.31214  0.88467  Biso   1.000  O 
  O21      1.0000 0.76962  0.11566  0.49272  Biso   1.000  O 
  O22      1.0000 0.77480  0.13001  0.99172  Biso   1.000  O 
  O23      1.0000 0.73117  0.37964  0.99957  Biso   1.000  O 
  O24      1.0000 0.72852  0.36626  0.49904  Biso   1.000  O 
  Hf12     1.0000 0.63311  0.51722  0.25438  Biso   1.000  Hf
  Hf13     1.0000 0.63422  0.73277  0.75234  Biso   1.000  Hf
  Hf14     1.0000 0.86999  0.76693  0.24475  Biso   1.000  Hf
  Hf15     1.0000 0.86306  0.98309  0.74167  Biso   1.000  Hf
  O25      1.0000 0.53438  0.68233  0.39661  Biso   1.000  O 
  O26      1.0000 0.53816  0.56390  0.89139  Biso   1.000  O 
  O27      1.0000 0.97396  0.93814  0.38175  Biso   1.000  O 
  O28      1.0000 0.96177  0.81498  0.87958  Biso   1.000  O 
  O29      1.0000 0.77111  0.61612  0.49998  Biso   1.000  O 
  O30      1.0000 0.76710  0.63427  0.00093  Biso   1.000  O 
  O31      1.0000 0.72999  0.88126  0.99288  Biso   1.000  O 
  O32      1.0000 0.73506  0.86569  0.49208  Biso   1.000  O 
