data_image0
_cell_length_a       9.99906
_cell_length_b       10.4093
_cell_length_c       10.0344
_cell_angle_alpha    90
_cell_angle_beta     90
_cell_angle_gamma    90

_symmetry_space_group_name_H-M    "P 1"
_symmetry_int_tables_number       1

loop_
  _symmetry_equiv_pos_as_xyz
  'x, y, z'

loop_
  _atom_site_label
  _atom_site_occupancy
  _atom_site_fract_x
  _atom_site_fract_y
  _atom_site_fract_z
  _atom_site_thermal_displace_type
  _atom_site_B_iso_or_equiv
  _atom_site_type_symbol
  Hf1      1.0000 0.13486  0.01973  0.12134  Biso   1.000  Hf
  Hf2      1.0000 0.13402  0.23252  0.38304  Biso   1.000  Hf
  Hf3      1.0000 0.36788  0.26570  0.12181  Biso   1.000  Hf
  Hf4      1.0000 0.36676  0.48648  0.37624  Biso   1.000  Hf
  O1       1.0000 0.00688  0.16668  0.22382  Biso   1.000  O 
  O2       1.0000 0.03600  0.06583  0.45239  Biso   1.000  O 
  O3       1.0000 0.46326  0.43476  0.19498  Biso   1.000  O 
  O4       1.0000 0.46325  0.31929  0.44599  Biso   1.000  O 
  O5       1.0000 0.26595  0.11866  0.25038  Biso   1.000  O 
  O6       1.0000 0.27168  0.13437  0.50024  Biso   1.000  O 
  O7       1.0000 0.23043  0.38570  0.50164  Biso   1.000  O 
  O8       1.0000 0.23226  0.36979  0.25491  Biso   1.000  O 
  Hf5      1.0000 0.13418  0.01596  0.62665  Biso   1.000  Hf
  Hf6      1.0000 0.13924  0.22859  0.86685  Biso   1.000  Hf
  Hf7      1.0000 0.36738  0.26995  0.62561  Biso   1.000  Hf
  Hf8      1.0000 0.36821  0.49009  0.87316  Biso   1.000  Hf
  O9       1.0000 0.03630  0.18444  0.69133  Biso   1.000  O 
  O10      1.0000 0.03839  0.06479  0.93929  Biso   1.000  O 
  O11      1.0000 0.46507  0.43734  0.69429  Biso   1.000  O 
  O12      1.0000 0.46518  0.32038  0.94162  Biso   1.000  O 
  O13      1.0000 0.27230  0.11753  0.74580  Biso   1.000  O 
  O14      1.0000 0.28616  0.12895  0.99151  Biso   1.000  O 
  O15      1.0000 0.23603  0.39686  0.99983  Biso   1.000  O 
  O16      1.0000 0.23144  0.36967  0.74962  Biso   1.000  O 
  Hf9      1.0000 0.13254  0.53288  0.12561  Biso   1.000  Hf
  Hf10     1.0000 0.13392  0.73794  0.37816  Biso   1.000  Hf
  Hf11     1.0000 0.36465  0.76885  0.12694  Biso   1.000  Hf
  Hf12     1.0000 0.36395  0.98600  0.37556  Biso   1.000  Hf
  O17      1.0000 0.03414  0.68992  0.19867  Biso   1.000  O 
  O18      1.0000 0.03535  0.57028  0.44545  Biso   1.000  O 
  O19      1.0000 0.46140  0.93554  0.19524  Biso   1.000  O 
  O20      1.0000 0.46322  0.81832  0.44360  Biso   1.000  O 
  O21      1.0000 0.27166  0.62309  0.25121  Biso   1.000  O 
  O22      1.0000 0.27004  0.63503  0.50002  Biso   1.000  O 
  O23      1.0000 0.22992  0.88477  0.49994  Biso   1.000  O 
  O24      1.0000 0.22796  0.87064  0.24988  Biso   1.000  O 
  Hf13     1.0000 0.13316  0.51888  0.62590  Biso   1.000  Hf
  Hf14     1.0000 0.13165  0.74035  0.87355  Biso   1.000  Hf
  Hf15     1.0000 0.36757  0.76809  0.62462  Biso   1.000  Hf
  Hf16     1.0000 0.36860  0.98391  0.87423  Biso   1.000  Hf
  O25      1.0000 0.03578  0.68752  0.69290  Biso   1.000  O 
  O26      1.0000 0.03411  0.57295  0.94530  Biso   1.000  O 
  O27      1.0000 0.46619  0.93519  0.69221  Biso   1.000  O 
  O28      1.0000 0.46568  0.82054  0.94733  Biso   1.000  O 
  O29      1.0000 0.26872  0.61993  0.74932  Biso   1.000  O 
  O30      1.0000 0.26823  0.64329  0.99866  Biso   1.000  O 
  O31      1.0000 0.22772  0.88744  0.99945  Biso   1.000  O 
  O32      1.0000 0.23244  0.86865  0.74888  Biso   1.000  O 
  Hf17     1.0000 0.63081  0.01379  0.12393  Biso   1.000  Hf
  Hf18     1.0000 0.63038  0.23387  0.37837  Biso   1.000  Hf
  Hf19     1.0000 0.84561  0.26477  0.12881  Biso   1.000  Hf
  Hf20     1.0000 0.86620  0.48672  0.37738  Biso   1.000  Hf
  O33      1.0000 0.53318  0.18278  0.19470  Biso   1.000  O 
  O34      1.0000 0.53421  0.06792  0.44616  Biso   1.000  O 
  O35      1.0000 0.95327  0.44501  0.19518  Biso   1.000  O 
  O36      1.0000 0.96631  0.32142  0.44860  Biso   1.000  O 
  O37      1.0000 0.75866  0.11578  0.25057  Biso   1.000  O 
  O38      1.0000 0.77119  0.13678  0.49850  Biso   1.000  O 
  O39      1.0000 0.72951  0.38491  0.50124  Biso   1.000  O 
  O40      1.0000 0.72288  0.36975  0.25376  Biso   1.000  O 
  Hf21     1.0000 0.63599  0.01890  0.62460  Biso   1.000  Hf
  Hf22     1.0000 0.63288  0.23648  0.87320  Biso   1.000  Hf
  Hf23     1.0000 0.86607  0.27030  0.62661  Biso   1.000  Hf
  Hf24     1.0000 0.86510  0.48709  0.87700  Biso   1.000  Hf
  O41      1.0000 0.53759  0.18722  0.69250  Biso   1.000  O 
  O42      1.0000 0.54075  0.06775  0.93964  Biso   1.000  O 
  O43      1.0000 0.96390  0.43776  0.69617  Biso   1.000  O 
  O44      1.0000 0.95974  0.31597  0.93619  Biso   1.000  O 
  O45      1.0000 0.77171  0.12027  0.74893  Biso   1.000  O 
  O46      1.0000 0.76916  0.13571  0.99988  Biso   1.000  O 
  O47      1.0000 0.72624  0.38164  0.00130  Biso   1.000  O 
  O48      1.0000 0.72964  0.37147  0.75059  Biso   1.000  O 
  Hf25     1.0000 0.63192  0.51894  0.12809  Biso   1.000  Hf
  Hf26     1.0000 0.63372  0.73674  0.37591  Biso   1.000  Hf
  Hf27     1.0000 0.86337  0.76716  0.12612  Biso   1.000  Hf
  Hf28     1.0000 0.86839  0.98827  0.37151  Biso   1.000  Hf
  O49      1.0000 0.53472  0.68564  0.19543  Biso   1.000  O 
  O50      1.0000 0.53576  0.56896  0.44563  Biso   1.000  O 
  O51      1.0000 0.96294  0.93295  0.19101  Biso   1.000  O 
  O52      1.0000 0.96383  0.82027  0.44463  Biso   1.000  O 
  O53      1.0000 0.76750  0.62045  0.25186  Biso   1.000  O 
  O54      1.0000 0.76912  0.63647  0.50064  Biso   1.000  O 
  O55      1.0000 0.73130  0.88754  0.49765  Biso   1.000  O 
  O56      1.0000 0.72838  0.86862  0.24859  Biso   1.000  O 
  Hf29     1.0000 0.63516  0.51942  0.62586  Biso   1.000  Hf
  Hf30     1.0000 0.63416  0.73720  0.87591  Biso   1.000  Hf
  Hf31     1.0000 0.86606  0.76984  0.62486  Biso   1.000  Hf
  Hf32     1.0000 0.86462  0.98588  0.87532  Biso   1.000  Hf
  O57      1.0000 0.53526  0.68576  0.69651  Biso   1.000  O 
  O58      1.0000 0.53460  0.57170  0.94624  Biso   1.000  O 
  O59      1.0000 0.96504  0.93433  0.69783  Biso   1.000  O 
  O60      1.0000 0.96131  0.81847  0.94452  Biso   1.000  O 
  O61      1.0000 0.77039  0.62065  0.75034  Biso   1.000  O 
  O62      1.0000 0.76968  0.63106  0.00057  Biso   1.000  O 
  O63      1.0000 0.72832  0.88619  0.99917  Biso   1.000  O 
  O64      1.0000 0.72977  0.87016  0.74870  Biso   1.000  O 
  Rh1      1.0000 0.09490  0.29382  0.10497  Biso   1.000  Rh
