data_image0
_cell_length_a       10.1283
_cell_length_b       5.11571
_cell_length_c       10.521
_cell_angle_alpha    90
_cell_angle_beta     90
_cell_angle_gamma    90

_symmetry_space_group_name_H-M    "P 1"
_symmetry_int_tables_number       1

loop_
  _symmetry_equiv_pos_as_xyz
  'x, y, z'

loop_
  _atom_site_label
  _atom_site_occupancy
  _atom_site_fract_x
  _atom_site_fract_y
  _atom_site_fract_z
  _atom_site_thermal_displace_type
  _atom_site_B_iso_or_equiv
  _atom_site_type_symbol
  Hf1      1.0000 0.12882  0.03909  0.17523  Biso   1.000  Hf
  Hf2      1.0000 0.12751  0.45590  0.42680  Biso   1.000  Hf
  Hf3      1.0000 0.34353  0.53866  0.18507  Biso   1.000  Hf
  Hf4      1.0000 0.35211  0.95571  0.42680  Biso   1.000  Hf
  Hf5      1.0000 0.63973  0.03900  0.07666  Biso   1.000  Hf
  Hf6      1.0000 0.63096  0.46215  0.33014  Biso   1.000  Hf
  Hf7      1.0000 0.85933  0.53923  0.07686  Biso   1.000  Hf
  Hf8      1.0000 0.85317  0.96019  0.32817  Biso   1.000  Hf
  O1       1.0000 0.02826  0.32746  0.08464  Biso   1.000  O 
  O2       1.0000 0.02192  0.17421  0.33515  Biso   1.000  O 
  O3       1.0000 0.45133  0.87562  0.10952  Biso   1.000  O 
  O4       1.0000 0.45621  0.66198  0.34097  Biso   1.000  O 
  O5       1.0000 0.26396  0.24691  0.30157  Biso   1.000  O 
  O6       1.0000 0.26500  0.24035  0.05220  Biso   1.000  O 
  O7       1.0000 0.21150  0.75047  0.30511  Biso   1.000  O 
  O8       1.0000 0.21523  0.74847  0.05513  Biso   1.000  O 
  O9       1.0000 0.52732  0.33665  0.17193  Biso   1.000  O 
  O10      1.0000 0.52257  0.16825  0.41633  Biso   1.000  O 
  O11      1.0000 0.95956  0.82844  0.16921  Biso   1.000  O 
  O12      1.0000 0.95852  0.67347  0.41929  Biso   1.000  O 
  O13      1.0000 0.76514  0.25148  0.45227  Biso   1.000  O 
  O14      1.0000 0.76977  0.25182  0.20211  Biso   1.000  O 
  O15      1.0000 0.71584  0.75170  0.45437  Biso   1.000  O 
  O16      1.0000 0.71881  0.75095  0.20633  Biso   1.000  O 
  Hf9      1.0000 0.12663  0.04269  0.67592  Biso   1.000  Hf
  Hf10     1.0000 0.11618  0.46501  0.92605  Biso   1.000  Hf
  Hf11     1.0000 0.34785  0.54358  0.67601  Biso   1.000  Hf
  Hf12     1.0000 0.33324  0.96916  0.93196  Biso   1.000  Hf
  Hf13     1.0000 0.62673  0.04190  0.57495  Biso   1.000  Hf
  Hf14     1.0000 0.63262  0.46304  0.81518  Biso   1.000  Hf
  Hf15     1.0000 0.85342  0.54483  0.57687  Biso   1.000  Hf
  Hf16     1.0000 0.84893  0.96438  0.82785  Biso   1.000  Hf
  O17      1.0000 0.02156  0.32735  0.58502  Biso   1.000  O 
  O18      1.0000 0.01830  0.17197  0.83473  Biso   1.000  O 
  O19      1.0000 0.45788  0.82634  0.58394  Biso   1.000  O 
  O20      1.0000 0.46175  0.69647  0.82525  Biso   1.000  O 
  O21      1.0000 0.25917  0.25554  0.79923  Biso   1.000  O 
  O22      1.0000 0.26492  0.25046  0.54977  Biso   1.000  O 
  O23      1.0000 0.21046  0.74921  0.80241  Biso   1.000  O 
  O24      1.0000 0.21405  0.75085  0.55231  Biso   1.000  O 
  O25      1.0000 0.51930  0.32587  0.66722  Biso   1.000  O 
  O26      1.0000 0.50446  0.17437  0.91873  Biso   1.000  O 
  O27      1.0000 0.95799  0.82753  0.66893  Biso   1.000  O 
  O28      1.0000 0.94688  0.67204  0.91747  Biso   1.000  O 
  O29      1.0000 0.75577  0.25680  0.94729  Biso   1.000  O 
  O30      1.0000 0.76589  0.24805  0.69792  Biso   1.000  O 
  O31      1.0000 0.71277  0.77248  0.95073  Biso   1.000  O 
  O32      1.0000 0.71582  0.75133  0.70096  Biso   1.000  O 
  Rh1      1.0000 0.51419  0.55602  0.00785  Biso   1.000  Rh
