data_image0
_cell_length_a       9.94707
_cell_length_b       5.20345
_cell_length_c       10.0128
_cell_angle_alpha    90
_cell_angle_beta     90
_cell_angle_gamma    90

_symmetry_space_group_name_H-M    "P 1"
_symmetry_int_tables_number       1

loop_
  _symmetry_equiv_pos_as_xyz
  'x, y, z'

loop_
  _atom_site_label
  _atom_site_occupancy
  _atom_site_fract_x
  _atom_site_fract_y
  _atom_site_fract_z
  _atom_site_thermal_displace_type
  _atom_site_B_iso_or_equiv
  _atom_site_type_symbol
  Rh1      1.0000 0.11999  0.06815  0.10630  Biso   1.000  Rh
  Hf1      1.0000 0.14034  0.42203  0.37761  Biso   1.000  Hf
  Hf2      1.0000 0.38584  0.53386  0.11186  Biso   1.000  Hf
  Hf3      1.0000 0.36688  0.92143  0.37484  Biso   1.000  Hf
  O1       1.0000 0.03642  0.36795  0.19043  Biso   1.000  O 
  O2       1.0000 0.03450  0.10929  0.45931  Biso   1.000  O 
  O3       1.0000 0.46923  0.86821  0.19048  Biso   1.000  O 
  O4       1.0000 0.47770  0.61497  0.45909  Biso   1.000  O 
  O5       1.0000 0.22647  0.10463  0.26511  Biso   1.000  O 
  O6       1.0000 0.28054  0.22898  0.50259  Biso   1.000  O 
  O7       1.0000 0.23064  0.72912  0.50561  Biso   1.000  O 
  O8       1.0000 0.27504  0.61050  0.26839  Biso   1.000  O 
  Hf4      1.0000 0.14257  0.00474  0.63114  Biso   1.000  Hf
  Hf5      1.0000 0.14030  0.43844  0.88042  Biso   1.000  Hf
  Hf6      1.0000 0.37076  0.50522  0.62996  Biso   1.000  Hf
  Hf7      1.0000 0.36783  0.93520  0.88165  Biso   1.000  Hf
  O9       1.0000 0.04457  0.34157  0.69702  Biso   1.000  O 
  O10      1.0000 0.04502  0.08450  0.92780  Biso   1.000  O 
  O11      1.0000 0.46651  0.84274  0.69878  Biso   1.000  O 
  O12      1.0000 0.47190  0.60273  0.93142  Biso   1.000  O 
  O13      1.0000 0.27903  0.21002  0.75737  Biso   1.000  O 
  O14      1.0000 0.26048  0.27534  0.01184  Biso   1.000  O 
  O15      1.0000 0.22596  0.78099  0.01318  Biso   1.000  O 
  O16      1.0000 0.23382  0.70700  0.75717  Biso   1.000  O 
  Hf8      1.0000 0.63947  0.03606  0.12636  Biso   1.000  Hf
  Hf9      1.0000 0.64040  0.44868  0.37823  Biso   1.000  Hf
  Hf10     1.0000 0.86722  0.53514  0.12160  Biso   1.000  Hf
  Hf11     1.0000 0.87293  0.95082  0.37419  Biso   1.000  Hf
  O17      1.0000 0.54008  0.36317  0.20093  Biso   1.000  O 
  O18      1.0000 0.54109  0.10794  0.43848  Biso   1.000  O 
  O19      1.0000 0.97486  0.86800  0.18799  Biso   1.000  O 
  O20      1.0000 0.96863  0.60591  0.43534  Biso   1.000  O 
  O21      1.0000 0.77841  0.22637  0.24744  Biso   1.000  O 
  O22      1.0000 0.77313  0.23999  0.49714  Biso   1.000  O 
  O23      1.0000 0.74021  0.74261  0.49627  Biso   1.000  O 
  O24      1.0000 0.73493  0.72764  0.24656  Biso   1.000  O 
  Hf12     1.0000 0.63391  0.99686  0.61776  Biso   1.000  Hf
  Hf13     1.0000 0.64482  0.42292  0.86870  Biso   1.000  Hf
  Hf14     1.0000 0.87715  0.49839  0.61845  Biso   1.000  Hf
  Hf15     1.0000 0.86936  0.92231  0.86803  Biso   1.000  Hf
  O25      1.0000 0.54148  0.33285  0.69309  Biso   1.000  O 
  O26      1.0000 0.53566  0.11202  0.95493  Biso   1.000  O 
  O27      1.0000 0.97008  0.83240  0.69028  Biso   1.000  O 
  O28      1.0000 0.96666  0.58848  0.94023  Biso   1.000  O 
  O29      1.0000 0.77417  0.19024  0.74471  Biso   1.000  O 
  O30      1.0000 0.77985  0.21726  0.99573  Biso   1.000  O 
  O31      1.0000 0.73392  0.71857  0.99501  Biso   1.000  O 
  O32      1.0000 0.73670  0.69103  0.74332  Biso   1.000  O 
