data_image0
_cell_length_a       10.1102
_cell_length_b       5.10324
_cell_length_c       10.4793
_cell_angle_alpha    90
_cell_angle_beta     80
_cell_angle_gamma    90

_symmetry_space_group_name_H-M    "P 1"
_symmetry_int_tables_number       1

loop_
  _symmetry_equiv_pos_as_xyz
  'x, y, z'

loop_
  _atom_site_label
  _atom_site_occupancy
  _atom_site_fract_x
  _atom_site_fract_y
  _atom_site_fract_z
  _atom_site_thermal_displace_type
  _atom_site_B_iso_or_equiv
  _atom_site_type_symbol
  Rh1      1.0000 0.12214  0.02206  0.16819  Biso   1.000  Rh
  Hf1      1.0000 0.13543  0.45530  0.39541  Biso   1.000  Hf
  Hf2      1.0000 0.35823  0.54749  0.09967  Biso   1.000  Hf
  Hf3      1.0000 0.36164  0.95726  0.35148  Biso   1.000  Hf
  O1       1.0000 0.04474  0.30921  0.08162  Biso   1.000  O 
  O2       1.0000 0.02495  0.16799  0.32923  Biso   1.000  O 
  O3       1.0000 0.46706  0.83038  0.17338  Biso   1.000  O 
  O4       1.0000 0.46228  0.66384  0.42160  Biso   1.000  O 
  O5       1.0000 0.26857  0.25101  0.23331  Biso   1.000  O 
  O6       1.0000 0.27147  0.24164  0.48674  Biso   1.000  O 
  O7       1.0000 0.22723  0.79330  0.01287  Biso   1.000  O 
  O8       1.0000 0.21827  0.74088  0.25920  Biso   1.000  O 
  Hf4      1.0000 0.13003  0.03738  0.64592  Biso   1.000  Hf
  Hf5      1.0000 0.13389  0.45231  0.89630  Biso   1.000  Hf
  Hf6      1.0000 0.35668  0.54278  0.60517  Biso   1.000  Hf
  Hf7      1.0000 0.35556  0.96586  0.85730  Biso   1.000  Hf
  O9       1.0000 0.02709  0.32233  0.57503  Biso   1.000  O 
  O10      1.0000 0.02576  0.16402  0.82939  Biso   1.000  O 
  O11      1.0000 0.46190  0.83211  0.67323  Biso   1.000  O 
  O12      1.0000 0.46145  0.68081  0.92632  Biso   1.000  O 
  O13      1.0000 0.26619  0.25288  0.73426  Biso   1.000  O 
  O14      1.0000 0.28328  0.28136  0.97237  Biso   1.000  O 
  O15      1.0000 0.22030  0.75473  0.50881  Biso   1.000  O 
  O16      1.0000 0.22030  0.73875  0.76217  Biso   1.000  O 
  Hf8      1.0000 0.63411  0.03863  0.14455  Biso   1.000  Hf
  Hf9      1.0000 0.63434  0.45212  0.39628  Biso   1.000  Hf
  Hf10     1.0000 0.86624  0.52667  0.10527  Biso   1.000  Hf
  Hf11     1.0000 0.85598  0.94949  0.35793  Biso   1.000  Hf
  O17      1.0000 0.53574  0.33553  0.07749  Biso   1.000  O 
  O18      1.0000 0.53036  0.16166  0.32844  Biso   1.000  O 
  O19      1.0000 0.96954  0.81765  0.17520  Biso   1.000  O 
  O20      1.0000 0.96298  0.66723  0.42583  Biso   1.000  O 
  O21      1.0000 0.77337  0.24602  0.24056  Biso   1.000  O 
  O22      1.0000 0.77081  0.23731  0.49196  Biso   1.000  O 
  O23      1.0000 0.73118  0.75464  0.01176  Biso   1.000  O 
  O24      1.0000 0.72717  0.73225  0.26016  Biso   1.000  O 
  Hf12     1.0000 0.62956  0.04009  0.64920  Biso   1.000  Hf
  Hf13     1.0000 0.62925  0.45674  0.89910  Biso   1.000  Hf
  Hf14     1.0000 0.85544  0.53773  0.60759  Biso   1.000  Hf
  Hf15     1.0000 0.85905  0.94961  0.85827  Biso   1.000  Hf
  O25      1.0000 0.52907  0.33154  0.57796  Biso   1.000  O 
  O26      1.0000 0.52663  0.16986  0.82757  Biso   1.000  O 
  O27      1.0000 0.96375  0.82008  0.67740  Biso   1.000  O 
  O28      1.0000 0.95870  0.65672  0.93107  Biso   1.000  O 
  O29      1.0000 0.76996  0.25323  0.74250  Biso   1.000  O 
  O30      1.0000 0.76593  0.23484  0.99325  Biso   1.000  O 
  O31      1.0000 0.71934  0.75185  0.51183  Biso   1.000  O 
  O32      1.0000 0.71987  0.74036  0.76308  Biso   1.000  O 
