data_image0
_cell_length_a       10.1759
_cell_length_b       10.2798
_cell_length_c       5.28301
_cell_angle_alpha    90
_cell_angle_beta     80
_cell_angle_gamma    90

_symmetry_space_group_name_H-M    "P 1"
_symmetry_int_tables_number       1

loop_
  _symmetry_equiv_pos_as_xyz
  'x, y, z'

loop_
  _atom_site_label
  _atom_site_occupancy
  _atom_site_fract_x
  _atom_site_fract_y
  _atom_site_fract_z
  _atom_site_thermal_displace_type
  _atom_site_B_iso_or_equiv
  _atom_site_type_symbol
  Hf1      1.0000 0.13622  0.02256  0.29491  Biso   1.000  Hf
  Hf2      1.0000 0.13648  0.23723  0.78464  Biso   1.000  Hf
  Hf3      1.0000 0.35187  0.27790  0.19533  Biso   1.000  Hf
  Hf4      1.0000 0.34275  0.48508  0.70793  Biso   1.000  Hf
  O1       1.0000 0.03846  0.16861  0.15033  Biso   1.000  O 
  O2       1.0000 0.03489  0.08709  0.64950  Biso   1.000  O 
  O3       1.0000 0.46811  0.38839  0.39728  Biso   1.000  O 
  O4       1.0000 0.48005  0.36780  0.88910  Biso   1.000  O 
  O5       1.0000 0.28022  0.12979  0.47220  Biso   1.000  O 
  O6       1.0000 0.28678  0.12621  0.95620  Biso   1.000  O 
  O7       1.0000 0.20928  0.38665  0.02041  Biso   1.000  O 
  O8       1.0000 0.20383  0.38174  0.49879  Biso   1.000  O 
  Hf5      1.0000 0.12558  0.52740  0.29035  Biso   1.000  Hf
  Hf6      1.0000 0.12276  0.73325  0.79508  Biso   1.000  Hf
  Hf7      1.0000 0.34859  0.76923  0.20885  Biso   1.000  Hf
  Hf8      1.0000 0.35185  0.96951  0.70785  Biso   1.000  Hf
  O9       1.0000 0.01688  0.67019  0.15390  Biso   1.000  O 
  O10      1.0000 0.02086  0.59147  0.65369  Biso   1.000  O 
  O11      1.0000 0.45449  0.91020  0.34814  Biso   1.000  O 
  O12      1.0000 0.45376  0.82978  0.85128  Biso   1.000  O 
  O13      1.0000 0.26383  0.63073  0.48261  Biso   1.000  O 
  O14      1.0000 0.26001  0.62846  0.98313  Biso   1.000  O 
  O15      1.0000 0.21148  0.88130  0.02365  Biso   1.000  O 
  O16      1.0000 0.21016  0.87198  0.52029  Biso   1.000  O 
  Hf9      1.0000 0.63953  0.02160  0.28917  Biso   1.000  Hf
  Hf10     1.0000 0.64097  0.23009  0.80426  Biso   1.000  Hf
  Hf11     1.0000 0.86057  0.27234  0.21292  Biso   1.000  Hf
  Hf12     1.0000 0.85357  0.47965  0.71358  Biso   1.000  Hf
  O17      1.0000 0.52868  0.16077  0.14976  Biso   1.000  O 
  O18      1.0000 0.54947  0.06460  0.66514  Biso   1.000  O 
  O19      1.0000 0.95566  0.42048  0.34725  Biso   1.000  O 
  O20      1.0000 0.96220  0.33856  0.84577  Biso   1.000  O 
  O21      1.0000 0.77849  0.12997  0.47823  Biso   1.000  O 
  O22      1.0000 0.77922  0.12190  0.98245  Biso   1.000  O 
  O23      1.0000 0.72240  0.37632  0.03282  Biso   1.000  O 
  O24      1.0000 0.72005  0.37223  0.52932  Biso   1.000  O 
  Hf13     1.0000 0.62993  0.51917  0.29999  Biso   1.000  Hf
  Hf14     1.0000 0.62647  0.72505  0.79146  Biso   1.000  Hf
  Hf15     1.0000 0.84550  0.77313  0.20824  Biso   1.000  Hf
  Hf16     1.0000 0.84524  0.98085  0.70700  Biso   1.000  Hf
  O25      1.0000 0.51625  0.65147  0.14639  Biso   1.000  O 
  O26      1.0000 0.51823  0.59231  0.63777  Biso   1.000  O 
  O27      1.0000 0.95271  0.91764  0.34505  Biso   1.000  O 
  O28      1.0000 0.95205  0.84042  0.84782  Biso   1.000  O 
  O29      1.0000 0.76340  0.62701  0.47980  Biso   1.000  O 
  O30      1.0000 0.76377  0.62266  0.98151  Biso   1.000  O 
  O31      1.0000 0.70734  0.87721  0.02063  Biso   1.000  O 
  O32      1.0000 0.71317  0.86869  0.51894  Biso   1.000  O 
  Ru1      1.0000 0.40687  0.23884  0.66551  Biso   1.000  Ru
