data_image0
_cell_length_a       9.93765
_cell_length_b       10.3259
_cell_length_c       4.98483
_cell_angle_alpha    90
_cell_angle_beta     90
_cell_angle_gamma    90

_symmetry_space_group_name_H-M    "P 1"
_symmetry_int_tables_number       1

loop_
  _symmetry_equiv_pos_as_xyz
  'x, y, z'

loop_
  _atom_site_label
  _atom_site_occupancy
  _atom_site_fract_x
  _atom_site_fract_y
  _atom_site_fract_z
  _atom_site_thermal_displace_type
  _atom_site_B_iso_or_equiv
  _atom_site_type_symbol
  Ru1      1.0000 0.13812  0.02156  0.24536  Biso   1.000  Ru
  Hf1      1.0000 0.13436  0.23288  0.75592  Biso   1.000  Hf
  Hf2      1.0000 0.36580  0.26766  0.25191  Biso   1.000  Hf
  Hf3      1.0000 0.36607  0.48599  0.75214  Biso   1.000  Hf
  O1       1.0000 0.03277  0.17546  0.41076  Biso   1.000  O 
  O2       1.0000 0.03557  0.06900  0.92839  Biso   1.000  O 
  O3       1.0000 0.46259  0.43612  0.38583  Biso   1.000  O 
  O4       1.0000 0.46169  0.31609  0.88550  Biso   1.000  O 
  O5       1.0000 0.26715  0.11731  0.49417  Biso   1.000  O 
  O6       1.0000 0.27128  0.12801  0.00201  Biso   1.000  O 
  O7       1.0000 0.22804  0.38139  0.00123  Biso   1.000  O 
  O8       1.0000 0.22930  0.36801  0.50274  Biso   1.000  O 
  Hf4      1.0000 0.13388  0.51682  0.25285  Biso   1.000  Hf
  Hf5      1.0000 0.13259  0.73619  0.75117  Biso   1.000  Hf
  Hf6      1.0000 0.36323  0.76906  0.25274  Biso   1.000  Hf
  Hf7      1.0000 0.36307  0.98371  0.75212  Biso   1.000  Hf
  O9       1.0000 0.03596  0.68291  0.38785  Biso   1.000  O 
  O10      1.0000 0.03639  0.56715  0.88905  Biso   1.000  O 
  O11      1.0000 0.46330  0.93446  0.38955  Biso   1.000  O 
  O12      1.0000 0.46062  0.81650  0.88491  Biso   1.000  O 
  O13      1.0000 0.27081  0.62090  0.49989  Biso   1.000  O 
  O14      1.0000 0.27094  0.63434  0.99906  Biso   1.000  O 
  O15      1.0000 0.22359  0.88325  0.00702  Biso   1.000  O 
  O16      1.0000 0.22523  0.87383  0.49883  Biso   1.000  O 
  Hf8      1.0000 0.63411  0.01637  0.24769  Biso   1.000  Hf
  Hf9      1.0000 0.63377  0.23466  0.75082  Biso   1.000  Hf
  Hf10     1.0000 0.86675  0.26397  0.25284  Biso   1.000  Hf
  Hf11     1.0000 0.86576  0.48473  0.75159  Biso   1.000  Hf
  O17      1.0000 0.53534  0.18510  0.38687  Biso   1.000  O 
  O18      1.0000 0.53618  0.06692  0.88634  Biso   1.000  O 
  O19      1.0000 0.96512  0.43106  0.39009  Biso   1.000  O 
  O20      1.0000 0.96484  0.31636  0.89093  Biso   1.000  O 
  O21      1.0000 0.76831  0.11813  0.49757  Biso   1.000  O 
  O22      1.0000 0.77132  0.13477  0.99601  Biso   1.000  O 
  O23      1.0000 0.72978  0.38354  0.99960  Biso   1.000  O 
  O24      1.0000 0.72985  0.36825  0.49828  Biso   1.000  O 
  Hf12     1.0000 0.63444  0.51805  0.25112  Biso   1.000  Hf
  Hf13     1.0000 0.63469  0.73613  0.74832  Biso   1.000  Hf
  Hf14     1.0000 0.86884  0.76927  0.24761  Biso   1.000  Hf
  Hf15     1.0000 0.87019  0.98740  0.74511  Biso   1.000  Hf
  O25      1.0000 0.53660  0.68664  0.38463  Biso   1.000  O 
  O26      1.0000 0.53790  0.56705  0.88432  Biso   1.000  O 
  O27      1.0000 0.97137  0.93417  0.38676  Biso   1.000  O 
  O28      1.0000 0.96222  0.81765  0.88174  Biso   1.000  O 
  O29      1.0000 0.77120  0.61900  0.49833  Biso   1.000  O 
  O30      1.0000 0.77146  0.63492  0.99804  Biso   1.000  O 
  O31      1.0000 0.72982  0.88587  0.99172  Biso   1.000  O 
  O32      1.0000 0.73353  0.86997  0.49397  Biso   1.000  O 
