data_image0
_cell_length_a       10.0872
_cell_length_b       5.24444
_cell_length_c       10.0237
_cell_angle_alpha    90
_cell_angle_beta     90
_cell_angle_gamma    90

_symmetry_space_group_name_H-M    "P 1"
_symmetry_int_tables_number       1

loop_
  _symmetry_equiv_pos_as_xyz
  'x, y, z'

loop_
  _atom_site_label
  _atom_site_occupancy
  _atom_site_fract_x
  _atom_site_fract_y
  _atom_site_fract_z
  _atom_site_thermal_displace_type
  _atom_site_B_iso_or_equiv
  _atom_site_type_symbol
  Hf1      1.0000 0.12005  0.88891  0.12545  Biso   1.000  Hf
  Hf2      1.0000 0.10130  0.46050  0.40221  Biso   1.000  Hf
  Hf3      1.0000 0.36427  0.53336  0.10716  Biso   1.000  Hf
  Hf4      1.0000 0.35589  0.03131  0.38614  Biso   1.000  Hf
  O1       1.0000 0.97205  0.31725  0.00849  Biso   1.000  O 
  O2       1.0000 0.03805  0.09913  0.29576  Biso   1.000  O 
  O3       1.0000 0.00222  0.63201  0.24321  Biso   1.000  O 
  O4       1.0000 0.97552  0.78195  0.98705  Biso   1.000  O 
  O5       1.0000 0.27540  0.36322  0.27844  Biso   1.000  O 
  O6       1.0000 0.23192  0.20590  0.01141  Biso   1.000  O 
  O7       1.0000 0.24250  0.72416  0.96269  Biso   1.000  O 
  O8       1.0000 0.30151  0.85887  0.21431  Biso   1.000  O 
  Hf5      1.0000 0.10142  0.96291  0.62067  Biso   1.000  Hf
  Hf6      1.0000 0.10904  0.46457  0.88085  Biso   1.000  Hf
  Hf7      1.0000 0.35563  0.52964  0.61443  Biso   1.000  Hf
  Hf8      1.0000 0.35644  0.02284  0.87681  Biso   1.000  Hf
  O9       1.0000 0.97679  0.25961  0.52675  Biso   1.000  O 
  O10      1.0000 0.03331  0.12962  0.78551  Biso   1.000  O 
  O11      1.0000 0.02945  0.63471  0.71933  Biso   1.000  O 
  O12      1.0000 0.97706  0.76336  0.49071  Biso   1.000  O 
  O13      1.0000 0.28539  0.35467  0.77865  Biso   1.000  O 
  O14      1.0000 0.23005  0.23020  0.52146  Biso   1.000  O 
  O15      1.0000 0.22922  0.73054  0.47824  Biso   1.000  O 
  O16      1.0000 0.28362  0.85892  0.70855  Biso   1.000  O 
  Hf9      1.0000 0.60229  0.97409  0.11472  Biso   1.000  Hf
  Hf10     1.0000 0.60606  0.46291  0.38018  Biso   1.000  Hf
  Hf11     1.0000 0.84111  0.54367  0.11535  Biso   1.000  Hf
  Hf12     1.0000 0.85546  0.02343  0.38314  Biso   1.000  Hf
  O17      1.0000 0.48382  0.26933  0.01175  Biso   1.000  O 
  O18      1.0000 0.52762  0.13924  0.28044  Biso   1.000  O 
  O19      1.0000 0.54175  0.63090  0.21065  Biso   1.000  O 
  O20      1.0000 0.48127  0.75848  0.97682  Biso   1.000  O 
  O21      1.0000 0.78043  0.35532  0.28248  Biso   1.000  O 
  O22      1.0000 0.72951  0.23811  0.01800  Biso   1.000  O 
  O23      1.0000 0.72569  0.72975  0.97585  Biso   1.000  O 
  O24      1.0000 0.77507  0.87149  0.21577  Biso   1.000  O 
  Hf13     1.0000 0.60470  0.96354  0.61306  Biso   1.000  Hf
  Hf14     1.0000 0.60327  0.45966  0.87851  Biso   1.000  Hf
  Hf15     1.0000 0.85110  0.53099  0.61883  Biso   1.000  Hf
  Hf16     1.0000 0.85470  0.03044  0.88419  Biso   1.000  Hf
  O25      1.0000 0.47950  0.26570  0.51491  Biso   1.000  O 
  O26      1.0000 0.53492  0.12842  0.77858  Biso   1.000  O 
  O27      1.0000 0.53320  0.62894  0.71124  Biso   1.000  O 
  O28      1.0000 0.47986  0.76635  0.47657  Biso   1.000  O 
  O29      1.0000 0.78067  0.36069  0.78395  Biso   1.000  O 
  O30      1.0000 0.72959  0.22763  0.51714  Biso   1.000  O 
  O31      1.0000 0.72976  0.72629  0.47997  Biso   1.000  O 
  O32      1.0000 0.78074  0.86329  0.71575  Biso   1.000  O 
  Ru1      1.0000 0.11708  0.37477  0.14774  Biso   1.000  Ru
