data_image0
_cell_length_a       9.93804
_cell_length_b       5.16365
_cell_length_c       9.97019
_cell_angle_alpha    90
_cell_angle_beta     90
_cell_angle_gamma    90

_symmetry_space_group_name_H-M    "P 1"
_symmetry_int_tables_number       1

loop_
  _symmetry_equiv_pos_as_xyz
  'x, y, z'

loop_
  _atom_site_label
  _atom_site_occupancy
  _atom_site_fract_x
  _atom_site_fract_y
  _atom_site_fract_z
  _atom_site_thermal_displace_type
  _atom_site_B_iso_or_equiv
  _atom_site_type_symbol
  Ru1      1.0000 0.13875  0.04201  0.12068  Biso   1.000  Ru
  Hf1      1.0000 0.13177  0.47028  0.37376  Biso   1.000  Hf
  Hf2      1.0000 0.36398  0.53921  0.12664  Biso   1.000  Hf
  Hf3      1.0000 0.36431  0.97177  0.37466  Biso   1.000  Hf
  O1       1.0000 0.03592  0.35354  0.19698  Biso   1.000  O 
  O2       1.0000 0.03492  0.14046  0.45043  Biso   1.000  O 
  O3       1.0000 0.46415  0.86966  0.19433  Biso   1.000  O 
  O4       1.0000 0.46281  0.63660  0.44197  Biso   1.000  O 
  O5       1.0000 0.26659  0.23793  0.24570  Biso   1.000  O 
  O6       1.0000 0.27103  0.27059  0.49751  Biso   1.000  O 
  O7       1.0000 0.22936  0.76963  0.50003  Biso   1.000  O 
  O8       1.0000 0.22580  0.74955  0.24830  Biso   1.000  O 
  Hf4      1.0000 0.13493  0.03772  0.62677  Biso   1.000  Hf
  Hf5      1.0000 0.13516  0.47238  0.87887  Biso   1.000  Hf
  Hf6      1.0000 0.36641  0.53836  0.62521  Biso   1.000  Hf
  Hf7      1.0000 0.36552  0.97161  0.87673  Biso   1.000  Hf
  O9       1.0000 0.03450  0.36817  0.70163  Biso   1.000  O 
  O10      1.0000 0.03721  0.13724  0.95856  Biso   1.000  O 
  O11      1.0000 0.46305  0.87481  0.69320  Biso   1.000  O 
  O12      1.0000 0.46006  0.63248  0.94314  Biso   1.000  O 
  O13      1.0000 0.27153  0.24171  0.75053  Biso   1.000  O 
  O14      1.0000 0.27174  0.25452  0.00203  Biso   1.000  O 
  O15      1.0000 0.22429  0.76318  0.00303  Biso   1.000  O 
  O16      1.0000 0.22962  0.73882  0.75151  Biso   1.000  O 
  Hf8      1.0000 0.63496  0.03488  0.12567  Biso   1.000  Hf
  Hf9      1.0000 0.63488  0.47256  0.37440  Biso   1.000  Hf
  Hf10     1.0000 0.87076  0.53327  0.12459  Biso   1.000  Hf
  Hf11     1.0000 0.86973  0.97363  0.37249  Biso   1.000  Hf
  O17      1.0000 0.53518  0.37092  0.19332  Biso   1.000  O 
  O18      1.0000 0.53639  0.13716  0.44281  Biso   1.000  O 
  O19      1.0000 0.97296  0.86300  0.19324  Biso   1.000  O 
  O20      1.0000 0.96496  0.63746  0.44638  Biso   1.000  O 
  O21      1.0000 0.77003  0.23836  0.24896  Biso   1.000  O 
  O22      1.0000 0.77117  0.27123  0.49877  Biso   1.000  O 
  O23      1.0000 0.73055  0.77147  0.49768  Biso   1.000  O 
  O24      1.0000 0.73429  0.73833  0.24734  Biso   1.000  O 
  Hf12     1.0000 0.63483  0.03789  0.62404  Biso   1.000  Hf
  Hf13     1.0000 0.63413  0.47255  0.87541  Biso   1.000  Hf
  Hf14     1.0000 0.86641  0.53735  0.62638  Biso   1.000  Hf
  Hf15     1.0000 0.86606  0.97348  0.87683  Biso   1.000  Hf
  O25      1.0000 0.53747  0.37559  0.69268  Biso   1.000  O 
  O26      1.0000 0.53812  0.13449  0.94256  Biso   1.000  O 
  O27      1.0000 0.96515  0.87207  0.69697  Biso   1.000  O 
  O28      1.0000 0.96297  0.63550  0.94161  Biso   1.000  O 
  O29      1.0000 0.77055  0.23996  0.74962  Biso   1.000  O 
  O30      1.0000 0.77177  0.27210  0.99906  Biso   1.000  O 
  O31      1.0000 0.72923  0.77104  0.99844  Biso   1.000  O 
  O32      1.0000 0.72980  0.74146  0.74908  Biso   1.000  O 
