data_image0
_cell_length_a       10.0902
_cell_length_b       5.12362
_cell_length_c       10.4095
_cell_angle_alpha    90
_cell_angle_beta     80
_cell_angle_gamma    90

_symmetry_space_group_name_H-M    "P 1"
_symmetry_int_tables_number       1

loop_
  _symmetry_equiv_pos_as_xyz
  'x, y, z'

loop_
  _atom_site_label
  _atom_site_occupancy
  _atom_site_fract_x
  _atom_site_fract_y
  _atom_site_fract_z
  _atom_site_thermal_displace_type
  _atom_site_B_iso_or_equiv
  _atom_site_type_symbol
  Ru1      1.0000 0.14094  0.04569  0.15181  Biso   1.000  Ru
  Hf1      1.0000 0.13911  0.46436  0.39454  Biso   1.000  Hf
  Hf2      1.0000 0.35730  0.54906  0.10542  Biso   1.000  Hf
  Hf3      1.0000 0.36042  0.96169  0.35347  Biso   1.000  Hf
  O1       1.0000 0.03560  0.32919  0.07959  Biso   1.000  O 
  O2       1.0000 0.03831  0.17271  0.31918  Biso   1.000  O 
  O3       1.0000 0.46449  0.83997  0.16969  Biso   1.000  O 
  O4       1.0000 0.46306  0.66175  0.41858  Biso   1.000  O 
  O5       1.0000 0.27763  0.25955  0.24177  Biso   1.000  O 
  O6       1.0000 0.27647  0.24685  0.49170  Biso   1.000  O 
  O7       1.0000 0.21958  0.76300  0.01060  Biso   1.000  O 
  O8       1.0000 0.22001  0.75055  0.25701  Biso   1.000  O 
  Hf4      1.0000 0.13779  0.04698  0.64637  Biso   1.000  Hf
  Hf5      1.0000 0.13550  0.45977  0.89933  Biso   1.000  Hf
  Hf6      1.0000 0.36019  0.54723  0.60507  Biso   1.000  Hf
  Hf7      1.0000 0.35656  0.96145  0.85628  Biso   1.000  Hf
  O9       1.0000 0.03250  0.33410  0.57448  Biso   1.000  O 
  O10      1.0000 0.03247  0.17117  0.82737  Biso   1.000  O 
  O11      1.0000 0.46162  0.84623  0.66946  Biso   1.000  O 
  O12      1.0000 0.45714  0.65748  0.91823  Biso   1.000  O 
  O13      1.0000 0.27595  0.26287  0.74424  Biso   1.000  O 
  O14      1.0000 0.27140  0.23198  0.00075  Biso   1.000  O 
  O15      1.0000 0.22231  0.76140  0.50855  Biso   1.000  O 
  O16      1.0000 0.22098  0.74583  0.75949  Biso   1.000  O 
  Hf8      1.0000 0.63892  0.04589  0.14515  Biso   1.000  Hf
  Hf9      1.0000 0.63878  0.46145  0.39552  Biso   1.000  Hf
  Hf10     1.0000 0.86672  0.54257  0.10410  Biso   1.000  Hf
  Hf11     1.0000 0.86148  0.96333  0.35123  Biso   1.000  Hf
  O17      1.0000 0.53463  0.34282  0.08241  Biso   1.000  O 
  O18      1.0000 0.53652  0.16088  0.33223  Biso   1.000  O 
  O19      1.0000 0.97225  0.84613  0.16650  Biso   1.000  O 
  O20      1.0000 0.96486  0.67106  0.41904  Biso   1.000  O 
  O21      1.0000 0.77595  0.26210  0.24036  Biso   1.000  O 
  O22      1.0000 0.77743  0.24538  0.48929  Biso   1.000  O 
  O23      1.0000 0.72302  0.75812  0.00949  Biso   1.000  O 
  O24      1.0000 0.72856  0.74614  0.25826  Biso   1.000  O 
  Hf12     1.0000 0.63724  0.04652  0.64664  Biso   1.000  Hf
  Hf13     1.0000 0.63598  0.46277  0.89745  Biso   1.000  Hf
  Hf14     1.0000 0.85934  0.54767  0.60355  Biso   1.000  Hf
  Hf15     1.0000 0.85855  0.96322  0.85483  Biso   1.000  Hf
  O25      1.0000 0.53644  0.34689  0.58216  Biso   1.000  O 
  O26      1.0000 0.53380  0.16090  0.83386  Biso   1.000  O 
  O27      1.0000 0.96384  0.83828  0.67049  Biso   1.000  O 
  O28      1.0000 0.96323  0.66751  0.92029  Biso   1.000  O 
  O29      1.0000 0.77454  0.26310  0.74090  Biso   1.000  O 
  O30      1.0000 0.77496  0.25092  0.99085  Biso   1.000  O 
  O31      1.0000 0.72246  0.76267  0.50888  Biso   1.000  O 
  O32      1.0000 0.72112  0.74687  0.75972  Biso   1.000  O 
