data_image0
_cell_length_a       10.1523
_cell_length_b       10.2737
_cell_length_c       5.28367
_cell_angle_alpha    90
_cell_angle_beta     90
_cell_angle_gamma    90

_symmetry_space_group_name_H-M    "P 1"
_symmetry_int_tables_number       1

loop_
  _symmetry_equiv_pos_as_xyz
  'x, y, z'

loop_
  _atom_site_label
  _atom_site_occupancy
  _atom_site_fract_x
  _atom_site_fract_y
  _atom_site_fract_z
  _atom_site_thermal_displace_type
  _atom_site_B_iso_or_equiv
  _atom_site_type_symbol
  Hf1      1.0000 0.13271  0.01976  0.34337  Biso   1.000  Hf
  Hf2      1.0000 0.14056  0.22477  0.84097  Biso   1.000  Hf
  Hf3      1.0000 0.35723  0.26201  0.35069  Biso   1.000  Hf
  Hf4      1.0000 0.36580  0.47395  0.84322  Biso   1.000  Hf
  Hf5      1.0000 0.63256  0.01185  0.16869  Biso   1.000  Hf
  Hf6      1.0000 0.63166  0.21713  0.74518  Biso   1.000  Hf
  Hf7      1.0000 0.87595  0.27832  0.13013  Biso   1.000  Hf
  Hf8      1.0000 0.87606  0.48182  0.63507  Biso   1.000  Hf
  O1       1.0000 0.03631  0.16233  0.15421  Biso   1.000  O 
  O2       1.0000 0.02398  0.09009  0.65429  Biso   1.000  O 
  O3       1.0000 0.48166  0.41192  0.17752  Biso   1.000  O 
  O4       1.0000 0.46193  0.32100  0.68879  Biso   1.000  O 
  O5       1.0000 0.26639  0.11968  0.59128  Biso   1.000  O 
  O6       1.0000 0.27281  0.12175  0.08709  Biso   1.000  O 
  O7       1.0000 0.22883  0.37277  0.59310  Biso   1.000  O 
  O8       1.0000 0.23670  0.37452  0.08892  Biso   1.000  O 
  O9       1.0000 0.49552  0.12044  0.35080  Biso   1.000  O 
  O10      1.0000 0.52449  0.06664  0.84871  Biso   1.000  O 
  O11      1.0000 0.99066  0.40702  0.34207  Biso   1.000  O 
  O12      1.0000 0.97887  0.34330  0.83845  Biso   1.000  O 
  O13      1.0000 0.78486  0.10780  0.93447  Biso   1.000  O 
  O14      1.0000 0.74831  0.13873  0.43771  Biso   1.000  O 
  O15      1.0000 0.73825  0.37823  0.86099  Biso   1.000  O 
  O16      1.0000 0.75674  0.39974  0.35109  Biso   1.000  O 
  Hf9      1.0000 0.15115  0.52039  0.34052  Biso   1.000  Hf
  Hf10     1.0000 0.14809  0.72538  0.84323  Biso   1.000  Hf
  Hf11     1.0000 0.37359  0.76693  0.34436  Biso   1.000  Hf
  Hf12     1.0000 0.37111  0.96758  0.84940  Biso   1.000  Hf
  Hf13     1.0000 0.65254  0.53188  0.13555  Biso   1.000  Hf
  Hf14     1.0000 0.64986  0.72724  0.65015  Biso   1.000  Hf
  Hf15     1.0000 0.87745  0.77360  0.15300  Biso   1.000  Hf
  Hf16     1.0000 0.87604  0.97702  0.66104  Biso   1.000  Hf
  O17      1.0000 0.04509  0.66186  0.15321  Biso   1.000  O 
  O18      1.0000 0.04245  0.59137  0.65015  Biso   1.000  O 
  O19      1.0000 0.48342  0.89411  0.14728  Biso   1.000  O 
  O20      1.0000 0.47975  0.83334  0.65206  Biso   1.000  O 
  O21      1.0000 0.28680  0.61893  0.59192  Biso   1.000  O 
  O22      1.0000 0.28854  0.62357  0.08998  Biso   1.000  O 
  O23      1.0000 0.23547  0.86927  0.59317  Biso   1.000  O 
  O24      1.0000 0.23799  0.87383  0.09511  Biso   1.000  O 
  O25      1.0000 0.54493  0.66035  0.33443  Biso   1.000  O 
  O26      1.0000 0.53772  0.58156  0.82320  Biso   1.000  O 
  O27      1.0000 0.98100  0.91485  0.33639  Biso   1.000  O 
  O28      1.0000 0.98046  0.83761  0.83772  Biso   1.000  O 
  O29      1.0000 0.78490  0.62366  0.89750  Biso   1.000  O 
  O30      1.0000 0.78966  0.63493  0.40106  Biso   1.000  O 
  O31      1.0000 0.73504  0.86726  0.91052  Biso   1.000  O 
  O32      1.0000 0.74094  0.87652  0.41596  Biso   1.000  O 
  Ru1      1.0000 0.61556  0.27100  0.28414  Biso   1.000  Ru
