data_image0
_cell_length_a       5.10115
_cell_length_b       10.2542
_cell_length_c       10.5925
_cell_angle_alpha    90
_cell_angle_beta     80
_cell_angle_gamma    90

_symmetry_space_group_name_H-M    "P 1"
_symmetry_int_tables_number       1

loop_
  _symmetry_equiv_pos_as_xyz
  'x, y, z'

loop_
  _atom_site_label
  _atom_site_occupancy
  _atom_site_fract_x
  _atom_site_fract_y
  _atom_site_fract_z
  _atom_site_thermal_displace_type
  _atom_site_B_iso_or_equiv
  _atom_site_type_symbol
  Hf1      1.0000 0.27700  0.02163  0.14592  Biso   1.000  Hf
  Hf2      1.0000 0.29237  0.23974  0.39932  Biso   1.000  Hf
  Hf3      1.0000 0.70683  0.27156  0.09719  Biso   1.000  Hf
  Hf4      1.0000 0.69411  0.48412  0.35453  Biso   1.000  Hf
  O1       1.0000 0.05546  0.15635  0.06834  Biso   1.000  O 
  O2       1.0000 0.10562  0.06794  0.33211  Biso   1.000  O 
  O3       1.0000 0.93248  0.39109  0.19285  Biso   1.000  O 
  O4       1.0000 0.96495  0.36686  0.44186  Biso   1.000  O 
  O5       1.0000 0.57038  0.12747  0.23465  Biso   1.000  O 
  O6       1.0000 0.58942  0.12687  0.48120  Biso   1.000  O 
  O7       1.0000 0.43250  0.37930  0.00798  Biso   1.000  O 
  O8       1.0000 0.41425  0.38227  0.25327  Biso   1.000  O 
  Hf5      1.0000 0.28225  0.02644  0.64406  Biso   1.000  Hf
  Hf6      1.0000 0.27785  0.23297  0.89369  Biso   1.000  Hf
  Hf7      1.0000 0.72945  0.28034  0.60709  Biso   1.000  Hf
  Hf8      1.0000 0.71469  0.48521  0.85576  Biso   1.000  Hf
  O9       1.0000 0.08056  0.17028  0.57505  Biso   1.000  O 
  O10      1.0000 0.06830  0.09396  0.81999  Biso   1.000  O 
  O11      1.0000 0.93568  0.41477  0.68459  Biso   1.000  O 
  O12      1.0000 0.94319  0.34979  0.92821  Biso   1.000  O 
  O13      1.0000 0.55601  0.13296  0.73692  Biso   1.000  O 
  O14      1.0000 0.55781  0.12846  0.98451  Biso   1.000  O 
  O15      1.0000 0.44732  0.38517  0.51915  Biso   1.000  O 
  O16      1.0000 0.44975  0.37737  0.76096  Biso   1.000  O 
  Hf9      1.0000 0.25701  0.52196  0.14692  Biso   1.000  Hf
  Hf10     1.0000 0.25229  0.72826  0.39572  Biso   1.000  Hf
  Hf11     1.0000 0.69680  0.77143  0.10328  Biso   1.000  Hf
  Hf12     1.0000 0.70570  0.97105  0.35350  Biso   1.000  Hf
  O17      1.0000 0.02774  0.65614  0.07152  Biso   1.000  O 
  O18      1.0000 0.03743  0.59586  0.31791  Biso   1.000  O 
  O19      1.0000 0.91543  0.91005  0.17511  Biso   1.000  O 
  O20      1.0000 0.91132  0.83395  0.42715  Biso   1.000  O 
  O21      1.0000 0.52854  0.62785  0.23931  Biso   1.000  O 
  O22      1.0000 0.52595  0.62776  0.49179  Biso   1.000  O 
  O23      1.0000 0.42060  0.87859  0.01172  Biso   1.000  O 
  O24      1.0000 0.43096  0.86819  0.25926  Biso   1.000  O 
  Hf13     1.0000 0.26662  0.52828  0.64831  Biso   1.000  Hf
  Hf14     1.0000 0.26104  0.73413  0.89678  Biso   1.000  Hf
  Hf15     1.0000 0.70393  0.77480  0.60510  Biso   1.000  Hf
  Hf16     1.0000 0.70346  0.98331  0.85244  Biso   1.000  Hf
  O25      1.0000 0.04238  0.66332  0.57470  Biso   1.000  O 
  O26      1.0000 0.05162  0.59719  0.82322  Biso   1.000  O 
  O27      1.0000 0.91725  0.91670  0.67453  Biso   1.000  O 
  O28      1.0000 0.92156  0.84538  0.92500  Biso   1.000  O 
  O29      1.0000 0.53960  0.63323  0.74147  Biso   1.000  O 
  O30      1.0000 0.53671  0.62923  0.98996  Biso   1.000  O 
  O31      1.0000 0.42865  0.88324  0.51044  Biso   1.000  O 
  O32      1.0000 0.43036  0.87680  0.76011  Biso   1.000  O 
  Ru1      1.0000 0.82219  0.23856  0.32916  Biso   1.000  Ru
