data_image0
_cell_length_a       10.1528
_cell_length_b       10.2628
_cell_length_c       10.531
_cell_angle_alpha    90
_cell_angle_beta     80
_cell_angle_gamma    90

_symmetry_space_group_name_H-M    "P 1"
_symmetry_int_tables_number       1

loop_
  _symmetry_equiv_pos_as_xyz
  'x, y, z'

loop_
  _atom_site_label
  _atom_site_occupancy
  _atom_site_fract_x
  _atom_site_fract_y
  _atom_site_fract_z
  _atom_site_thermal_displace_type
  _atom_site_B_iso_or_equiv
  _atom_site_type_symbol
  Hf1      1.0000 0.13662  0.02240  0.14637  Biso   1.000  Hf
  Hf2      1.0000 0.13908  0.23595  0.39397  Biso   1.000  Hf
  Hf3      1.0000 0.35456  0.27071  0.09615  Biso   1.000  Hf
  Hf4      1.0000 0.34742  0.48262  0.35456  Biso   1.000  Hf
  O1       1.0000 0.03402  0.16824  0.07683  Biso   1.000  O 
  O2       1.0000 0.03578  0.08658  0.32606  Biso   1.000  O 
  O3       1.0000 0.47042  0.38788  0.19432  Biso   1.000  O 
  O4       1.0000 0.48213  0.36401  0.44200  Biso   1.000  O 
  O5       1.0000 0.28109  0.12718  0.23709  Biso   1.000  O 
  O6       1.0000 0.28922  0.12594  0.48013  Biso   1.000  O 
  O7       1.0000 0.21950  0.38078  0.00462  Biso   1.000  O 
  O8       1.0000 0.20543  0.37942  0.25020  Biso   1.000  O 
  Hf5      1.0000 0.13787  0.02322  0.64588  Biso   1.000  Hf
  Hf6      1.0000 0.13533  0.23132  0.89332  Biso   1.000  Hf
  Hf7      1.0000 0.36010  0.27869  0.60582  Biso   1.000  Hf
  Hf8      1.0000 0.35723  0.48274  0.85455  Biso   1.000  Hf
  O9       1.0000 0.03918  0.16911  0.57599  Biso   1.000  O 
  O10      1.0000 0.03294  0.08539  0.82633  Biso   1.000  O 
  O11      1.0000 0.46627  0.41371  0.68230  Biso   1.000  O 
  O12      1.0000 0.46858  0.34584  0.92929  Biso   1.000  O 
  O13      1.0000 0.27454  0.13130  0.73761  Biso   1.000  O 
  O14      1.0000 0.27380  0.12481  0.98623  Biso   1.000  O 
  O15      1.0000 0.21692  0.38450  0.51534  Biso   1.000  O 
  O16      1.0000 0.22171  0.37473  0.75931  Biso   1.000  O 
  Hf9      1.0000 0.13308  0.52375  0.14285  Biso   1.000  Hf
  Hf10     1.0000 0.13038  0.73063  0.39664  Biso   1.000  Hf
  Hf11     1.0000 0.35479  0.77101  0.10311  Biso   1.000  Hf
  Hf12     1.0000 0.35858  0.96904  0.35435  Biso   1.000  Hf
  O17      1.0000 0.02723  0.67058  0.07751  Biso   1.000  O 
  O18      1.0000 0.02790  0.58912  0.32526  Biso   1.000  O 
  O19      1.0000 0.46207  0.91044  0.17445  Biso   1.000  O 
  O20      1.0000 0.45854  0.82749  0.42476  Biso   1.000  O 
  O21      1.0000 0.27047  0.62942  0.23991  Biso   1.000  O 
  O22      1.0000 0.26617  0.62575  0.49277  Biso   1.000  O 
  O23      1.0000 0.21788  0.87975  0.01040  Biso   1.000  O 
  O24      1.0000 0.21723  0.87057  0.25945  Biso   1.000  O 
  Hf13     1.0000 0.13257  0.52662  0.64788  Biso   1.000  Hf
  Hf14     1.0000 0.13174  0.73293  0.89672  Biso   1.000  Hf
  Hf15     1.0000 0.35622  0.77132  0.60553  Biso   1.000  Hf
  Hf16     1.0000 0.35509  0.98081  0.85308  Biso   1.000  Hf
  O25      1.0000 0.02560  0.66865  0.57795  Biso   1.000  O 
  O26      1.0000 0.02860  0.58735  0.82973  Biso   1.000  O 
  O27      1.0000 0.46017  0.91613  0.67304  Biso   1.000  O 
  O28      1.0000 0.46161  0.83909  0.92429  Biso   1.000  O 
  O29      1.0000 0.27115  0.63107  0.74150  Biso   1.000  O 
  O30      1.0000 0.27019  0.62621  0.98948  Biso   1.000  O 
  O31      1.0000 0.21858  0.88217  0.51090  Biso   1.000  O 
  O32      1.0000 0.21737  0.87402  0.76029  Biso   1.000  O 
  Hf17     1.0000 0.63958  0.02089  0.14583  Biso   1.000  Hf
  Hf18     1.0000 0.64300  0.23073  0.40090  Biso   1.000  Hf
  Hf19     1.0000 0.85955  0.27262  0.10494  Biso   1.000  Hf
  Hf20     1.0000 0.85892  0.47977  0.35471  Biso   1.000  Hf
  O33      1.0000 0.52829  0.15597  0.07018  Biso   1.000  O 
  O34      1.0000 0.55032  0.06234  0.33572  Biso   1.000  O 
  O35      1.0000 0.95961  0.42072  0.16987  Biso   1.000  O 
  O36      1.0000 0.96524  0.33846  0.42382  Biso   1.000  O 
  O37      1.0000 0.77831  0.12990  0.23873  Biso   1.000  O 
  O38      1.0000 0.77956  0.12168  0.49183  Biso   1.000  O 
  O39      1.0000 0.72018  0.37761  0.01286  Biso   1.000  O 
  O40      1.0000 0.72357  0.37220  0.26277  Biso   1.000  O 
  Hf21     1.0000 0.63822  0.02437  0.64475  Biso   1.000  Hf
  Hf22     1.0000 0.63727  0.22984  0.89697  Biso   1.000  Hf
  Hf23     1.0000 0.86272  0.27351  0.60600  Biso   1.000  Hf
  Hf24     1.0000 0.85632  0.48080  0.85650  Biso   1.000  Hf
  O41      1.0000 0.53293  0.16849  0.57804  Biso   1.000  O 
  O42      1.0000 0.53156  0.09022  0.82336  Biso   1.000  O 
  O43      1.0000 0.96244  0.41883  0.67513  Biso   1.000  O 
  O44      1.0000 0.96243  0.33569  0.92116  Biso   1.000  O 
  O45      1.0000 0.77571  0.13071  0.74042  Biso   1.000  O 
  O46      1.0000 0.77569  0.12432  0.98968  Biso   1.000  O 
  O47      1.0000 0.72680  0.37918  0.51414  Biso   1.000  O 
  O48      1.0000 0.72190  0.37358  0.76224  Biso   1.000  O 
  Hf25     1.0000 0.63352  0.51979  0.14977  Biso   1.000  Hf
  Hf26     1.0000 0.63295  0.72622  0.39529  Biso   1.000  Hf
  Hf27     1.0000 0.85428  0.77172  0.10420  Biso   1.000  Hf
  Hf28     1.0000 0.85417  0.98052  0.35350  Biso   1.000  Hf
  O49      1.0000 0.52281  0.65484  0.07370  Biso   1.000  O 
  O50      1.0000 0.52393  0.58965  0.32137  Biso   1.000  O 
  O51      1.0000 0.95952  0.91818  0.17128  Biso   1.000  O 
  O52      1.0000 0.95946  0.83790  0.42346  Biso   1.000  O 
  O53      1.0000 0.76912  0.62670  0.23938  Biso   1.000  O 
  O54      1.0000 0.77091  0.62258  0.48953  Biso   1.000  O 
  O55      1.0000 0.71612  0.87825  0.01098  Biso   1.000  O 
  O56      1.0000 0.72092  0.86826  0.25945  Biso   1.000  O 
  Hf29     1.0000 0.63622  0.52270  0.64716  Biso   1.000  Hf
  Hf30     1.0000 0.63289  0.72974  0.89660  Biso   1.000  Hf
  Hf31     1.0000 0.85362  0.77480  0.60416  Biso   1.000  Hf
  Hf32     1.0000 0.85297  0.98086  0.85425  Biso   1.000  Hf
  O57      1.0000 0.52790  0.66270  0.57644  Biso   1.000  O 
  O58      1.0000 0.52847  0.59100  0.82437  Biso   1.000  O 
  O59      1.0000 0.95935  0.91852  0.67283  Biso   1.000  O 
  O60      1.0000 0.95851  0.83751  0.92207  Biso   1.000  O 
  O61      1.0000 0.77153  0.63107  0.74076  Biso   1.000  O 
  O62      1.0000 0.76965  0.62401  0.99151  Biso   1.000  O 
  O63      1.0000 0.71625  0.87973  0.50964  Biso   1.000  O 
  O64      1.0000 0.71684  0.87375  0.76019  Biso   1.000  O 
  Ru1      1.0000 0.40926  0.23633  0.33056  Biso   1.000  Ru
