data_image0
_cell_length_a       4.96968
_cell_length_b       10.327
_cell_length_c       9.96975
_cell_angle_alpha    90
_cell_angle_beta     90
_cell_angle_gamma    90

_symmetry_space_group_name_H-M    "P 1"
_symmetry_int_tables_number       1

loop_
  _symmetry_equiv_pos_as_xyz
  'x, y, z'

loop_
  _atom_site_label
  _atom_site_occupancy
  _atom_site_fract_x
  _atom_site_fract_y
  _atom_site_fract_z
  _atom_site_thermal_displace_type
  _atom_site_B_iso_or_equiv
  _atom_site_type_symbol
  Ru1      1.0000 0.27468  0.02134  0.11930  Biso   1.000  Ru
  Hf1      1.0000 0.26580  0.23332  0.37516  Biso   1.000  Hf
  Hf2      1.0000 0.73413  0.26527  0.12603  Biso   1.000  Hf
  Hf3      1.0000 0.73276  0.48568  0.37626  Biso   1.000  Hf
  O1       1.0000 0.06653  0.17743  0.19823  Biso   1.000  O 
  O2       1.0000 0.06987  0.06914  0.45013  Biso   1.000  O 
  O3       1.0000 0.93130  0.43188  0.19488  Biso   1.000  O 
  O4       1.0000 0.92933  0.31824  0.44529  Biso   1.000  O 
  O5       1.0000 0.52810  0.11690  0.24469  Biso   1.000  O 
  O6       1.0000 0.54453  0.13518  0.49706  Biso   1.000  O 
  O7       1.0000 0.45980  0.38451  0.50008  Biso   1.000  O 
  O8       1.0000 0.46197  0.36841  0.25017  Biso   1.000  O 
  Hf4      1.0000 0.27134  0.01836  0.62589  Biso   1.000  Hf
  Hf5      1.0000 0.27186  0.23622  0.87783  Biso   1.000  Hf
  Hf6      1.0000 0.73388  0.26826  0.62626  Biso   1.000  Hf
  Hf7      1.0000 0.73311  0.48679  0.87581  Biso   1.000  Hf
  O9       1.0000 0.07196  0.18486  0.70011  Biso   1.000  O 
  O10      1.0000 0.07460  0.06879  0.95729  Biso   1.000  O 
  O11      1.0000 0.92775  0.43671  0.69368  Biso   1.000  O 
  O12      1.0000 0.92636  0.31634  0.94369  Biso   1.000  O 
  O13      1.0000 0.54351  0.12022  0.75053  Biso   1.000  O 
  O14      1.0000 0.54133  0.12754  0.00109  Biso   1.000  O 
  O15      1.0000 0.45669  0.38035  0.00043  Biso   1.000  O 
  O16      1.0000 0.45947  0.36970  0.75041  Biso   1.000  O 
  Hf8      1.0000 0.27063  0.51744  0.12698  Biso   1.000  Hf
  Hf9      1.0000 0.26862  0.73800  0.37335  Biso   1.000  Hf
  Hf10     1.0000 0.73433  0.77072  0.12525  Biso   1.000  Hf
  Hf11     1.0000 0.73728  0.98697  0.37072  Biso   1.000  Hf
  O17      1.0000 0.07409  0.68395  0.19255  Biso   1.000  O 
  O18      1.0000 0.07400  0.56911  0.44299  Biso   1.000  O 
  O19      1.0000 0.94187  0.93392  0.19211  Biso   1.000  O 
  O20      1.0000 0.92756  0.81873  0.44295  Biso   1.000  O 
  O21      1.0000 0.54486  0.62131  0.24971  Biso   1.000  O 
  O22      1.0000 0.54123  0.63549  0.49907  Biso   1.000  O 
  O23      1.0000 0.46165  0.88578  0.49781  Biso   1.000  O 
  O24      1.0000 0.45803  0.87518  0.24576  Biso   1.000  O 
  Hf12     1.0000 0.26904  0.51915  0.62505  Biso   1.000  Hf
  Hf13     1.0000 0.26783  0.73594  0.87647  Biso   1.000  Hf
  Hf14     1.0000 0.73304  0.76944  0.62534  Biso   1.000  Hf
  Hf15     1.0000 0.73142  0.98541  0.87791  Biso   1.000  Hf
  O25      1.0000 0.07356  0.68700  0.69389  Biso   1.000  O 
  O26      1.0000 0.07669  0.56679  0.94386  Biso   1.000  O 
  O27      1.0000 0.93045  0.93656  0.69663  Biso   1.000  O 
  O28      1.0000 0.92121  0.81710  0.94113  Biso   1.000  O 
  O29      1.0000 0.54201  0.62034  0.74945  Biso   1.000  O 
  O30      1.0000 0.54551  0.63544  0.99962  Biso   1.000  O 
  O31      1.0000 0.44692  0.88310  0.00124  Biso   1.000  O 
  O32      1.0000 0.46099  0.87017  0.75042  Biso   1.000  O 
