data_image0
_cell_length_a       10.133
_cell_length_b       10.6005
_cell_length_c       5.04459
_cell_angle_alpha    90
_cell_angle_beta     90
_cell_angle_gamma    90

_symmetry_space_group_name_H-M    "P 1"
_symmetry_int_tables_number       1

loop_
  _symmetry_equiv_pos_as_xyz
  'x, y, z'

loop_
  _atom_site_label
  _atom_site_occupancy
  _atom_site_fract_x
  _atom_site_fract_y
  _atom_site_fract_z
  _atom_site_thermal_displace_type
  _atom_site_B_iso_or_equiv
  _atom_site_type_symbol
  Hf1      1.0000 0.04408  0.95187  0.26673  Biso   1.000  Hf
  Hf2      1.0000 0.11949  0.28688  0.79548  Biso   1.000  Hf
  Hf3      1.0000 0.35339  0.23833  0.27698  Biso   1.000  Hf
  Hf4      1.0000 0.34994  0.01543  0.77559  Biso   1.000  Hf
  O1       1.0000 0.96400  0.17619  0.95957  Biso   1.000  O 
  O2       1.0000 0.95338  0.05821  0.46226  Biso   1.000  O 
  O3       1.0000 0.99507  0.32582  0.47250  Biso   1.000  O 
  O4       1.0000 0.00619  0.42806  0.97035  Biso   1.000  O 
  O5       1.0000 0.22916  0.15534  0.57786  Biso   1.000  O 
  O6       1.0000 0.23380  0.08692  0.07986  Biso   1.000  O 
  O7       1.0000 0.27369  0.37956  0.01652  Biso   1.000  O 
  O8       1.0000 0.25088  0.39643  0.53105  Biso   1.000  O 
  Hf5      1.0000 0.12632  0.48376  0.27463  Biso   1.000  Hf
  Hf6      1.0000 0.08781  0.72425  0.70795  Biso   1.000  Hf
  Hf7      1.0000 0.31534  0.76470  0.20783  Biso   1.000  Hf
  Hf8      1.0000 0.35590  0.51809  0.77862  Biso   1.000  Hf
  O9       1.0000 0.93883  0.66885  0.96202  Biso   1.000  O 
  O10      1.0000 0.99686  0.56567  0.52114  Biso   1.000  O 
  O11      1.0000 0.95519  0.80384  0.45747  Biso   1.000  O 
  O12      1.0000 0.90589  0.91007  0.99326  Biso   1.000  O 
  O13      1.0000 0.23689  0.63945  0.48987  Biso   1.000  O 
  O14      1.0000 0.20465  0.60792  0.99503  Biso   1.000  O 
  O15      1.0000 0.16587  0.84522  0.99482  Biso   1.000  O 
  O16      1.0000 0.19549  0.88473  0.50698  Biso   1.000  O 
  Hf9      1.0000 0.54725  0.98398  0.28493  Biso   1.000  Hf
  Hf10     1.0000 0.60865  0.26722  0.77774  Biso   1.000  Hf
  Hf11     1.0000 0.83897  0.23544  0.28367  Biso   1.000  Hf
  Hf12     1.0000 0.84263  0.01267  0.77830  Biso   1.000  Hf
  O17      1.0000 0.45560  0.17701  0.94350  Biso   1.000  O 
  O18      1.0000 0.46217  0.07929  0.46195  Biso   1.000  O 
  O19      1.0000 0.51182  0.32897  0.44170  Biso   1.000  O 
  O20      1.0000 0.51710  0.42734  0.94166  Biso   1.000  O 
  O21      1.0000 0.71561  0.13779  0.53802  Biso   1.000  O 
  O22      1.0000 0.71594  0.11277  0.03581  Biso   1.000  O 
  O23      1.0000 0.75143  0.36064  0.02315  Biso   1.000  O 
  O24      1.0000 0.74808  0.38758  0.52398  Biso   1.000  O 
  Hf13     1.0000 0.62025  0.48368  0.27429  Biso   1.000  Hf
  Hf14     1.0000 0.58861  0.73093  0.69865  Biso   1.000  Hf
  Hf15     1.0000 0.80602  0.76015  0.19683  Biso   1.000  Hf
  Hf16     1.0000 0.85192  0.51098  0.77878  Biso   1.000  Hf
  O25      1.0000 0.44319  0.67656  0.95936  Biso   1.000  O 
  O26      1.0000 0.49220  0.57947  0.49815  Biso   1.000  O 
  O27      1.0000 0.45756  0.82661  0.46974  Biso   1.000  O 
  O28      1.0000 0.40774  0.92608  0.01901  Biso   1.000  O 
  O29      1.0000 0.73650  0.63489  0.48810  Biso   1.000  O 
  O30      1.0000 0.70219  0.60809  0.99030  Biso   1.000  O 
  O31      1.0000 0.66092  0.85721  0.99155  Biso   1.000  O 
  O32      1.0000 0.69558  0.88442  0.49697  Biso   1.000  O 
  Ru1      1.0000 0.09642  0.18837  0.27534  Biso   1.000  Ru
