data_image0
_cell_length_a       10.0589
_cell_length_b       5.16878
_cell_length_c       10.5395
_cell_angle_alpha    90
_cell_angle_beta     90
_cell_angle_gamma    90

_symmetry_space_group_name_H-M    "P 1"
_symmetry_int_tables_number       1

loop_
  _symmetry_equiv_pos_as_xyz
  'x, y, z'

loop_
  _atom_site_label
  _atom_site_occupancy
  _atom_site_fract_x
  _atom_site_fract_y
  _atom_site_fract_z
  _atom_site_thermal_displace_type
  _atom_site_B_iso_or_equiv
  _atom_site_type_symbol
  Hf1      1.0000 0.13706  0.03563  0.17049  Biso   1.000  Hf
  Hf2      1.0000 0.12946  0.46172  0.42039  Biso   1.000  Hf
  Hf3      1.0000 0.35398  0.53693  0.17485  Biso   1.000  Hf
  Hf4      1.0000 0.35452  0.96532  0.42410  Biso   1.000  Hf
  Hf5      1.0000 0.63872  0.07409  0.07157  Biso   1.000  Hf
  Hf6      1.0000 0.62846  0.47222  0.34296  Biso   1.000  Hf
  Hf7      1.0000 0.88119  0.54211  0.06593  Biso   1.000  Hf
  Hf8      1.0000 0.85627  0.96198  0.33717  Biso   1.000  Hf
  O1       1.0000 0.04175  0.31874  0.07397  Biso   1.000  O 
  O2       1.0000 0.02383  0.18710  0.32370  Biso   1.000  O 
  O3       1.0000 0.46699  0.82052  0.07768  Biso   1.000  O 
  O4       1.0000 0.45455  0.67301  0.33835  Biso   1.000  O 
  O5       1.0000 0.26621  0.24769  0.29511  Biso   1.000  O 
  O6       1.0000 0.28249  0.24047  0.04254  Biso   1.000  O 
  O7       1.0000 0.21534  0.74747  0.29292  Biso   1.000  O 
  O8       1.0000 0.22275  0.74358  0.04314  Biso   1.000  O 
  O9       1.0000 0.51353  0.28828  0.19226  Biso   1.000  O 
  O10      1.0000 0.52366  0.18239  0.43047  Biso   1.000  O 
  O11      1.0000 0.95808  0.83442  0.16860  Biso   1.000  O 
  O12      1.0000 0.95810  0.67559  0.41904  Biso   1.000  O 
  O13      1.0000 0.77010  0.24908  0.45611  Biso   1.000  O 
  O14      1.0000 0.76138  0.33641  0.19502  Biso   1.000  O 
  O15      1.0000 0.71698  0.74645  0.47019  Biso   1.000  O 
  O16      1.0000 0.69988  0.85244  0.23502  Biso   1.000  O 
  Hf9      1.0000 0.13159  0.04506  0.66740  Biso   1.000  Hf
  Hf10     1.0000 0.13801  0.45861  0.91498  Biso   1.000  Hf
  Hf11     1.0000 0.35598  0.54335  0.66896  Biso   1.000  Hf
  Hf12     1.0000 0.34970  0.95833  0.91502  Biso   1.000  Hf
  Hf13     1.0000 0.63206  0.04702  0.58479  Biso   1.000  Hf
  Hf14     1.0000 0.62713  0.45992  0.83534  Biso   1.000  Hf
  Hf15     1.0000 0.85319  0.54372  0.58473  Biso   1.000  Hf
  Hf16     1.0000 0.85530  0.96680  0.82697  Biso   1.000  Hf
  O17      1.0000 0.02484  0.33022  0.57891  Biso   1.000  O 
  O18      1.0000 0.02872  0.17786  0.82719  Biso   1.000  O 
  O19      1.0000 0.45809  0.83826  0.58758  Biso   1.000  O 
  O20      1.0000 0.45204  0.65716  0.83592  Biso   1.000  O 
  O21      1.0000 0.27026  0.24793  0.79071  Biso   1.000  O 
  O22      1.0000 0.26698  0.25769  0.54327  Biso   1.000  O 
  O23      1.0000 0.21588  0.75048  0.78985  Biso   1.000  O 
  O24      1.0000 0.21659  0.75679  0.54176  Biso   1.000  O 
  O25      1.0000 0.52736  0.34087  0.66821  Biso   1.000  O 
  O26      1.0000 0.52818  0.13544  0.89865  Biso   1.000  O 
  O27      1.0000 0.95921  0.83686  0.66302  Biso   1.000  O 
  O28      1.0000 0.96819  0.67930  0.90748  Biso   1.000  O 
  O29      1.0000 0.78091  0.25072  0.94787  Biso   1.000  O 
  O30      1.0000 0.76961  0.25353  0.70486  Biso   1.000  O 
  O31      1.0000 0.72106  0.76652  0.96378  Biso   1.000  O 
  O32      1.0000 0.71717  0.75311  0.71479  Biso   1.000  O 
  Ru1      1.0000 0.61878  0.55961  0.09958  Biso   1.000  Ru
