data_image0
_cell_length_a       9.99417
_cell_length_b       10.4236
_cell_length_c       10.0337
_cell_angle_alpha    90
_cell_angle_beta     90
_cell_angle_gamma    90

_symmetry_space_group_name_H-M    "P 1"
_symmetry_int_tables_number       1

loop_
  _symmetry_equiv_pos_as_xyz
  'x, y, z'

loop_
  _atom_site_label
  _atom_site_occupancy
  _atom_site_fract_x
  _atom_site_fract_y
  _atom_site_fract_z
  _atom_site_thermal_displace_type
  _atom_site_B_iso_or_equiv
  _atom_site_type_symbol
  Hf1      1.0000 0.13432  0.02284  0.12009  Biso   1.000  Hf
  Hf2      1.0000 0.13220  0.23037  0.38423  Biso   1.000  Hf
  Hf3      1.0000 0.36591  0.26263  0.11927  Biso   1.000  Hf
  Hf4      1.0000 0.36545  0.48391  0.37392  Biso   1.000  Hf
  O1       1.0000 0.00621  0.17213  0.22356  Biso   1.000  O 
  O2       1.0000 0.03420  0.06466  0.45291  Biso   1.000  O 
  O3       1.0000 0.46127  0.43331  0.19426  Biso   1.000  O 
  O4       1.0000 0.46219  0.31809  0.44614  Biso   1.000  O 
  O5       1.0000 0.26475  0.11506  0.25157  Biso   1.000  O 
  O6       1.0000 0.27055  0.13287  0.50094  Biso   1.000  O 
  O7       1.0000 0.22909  0.38484  0.50037  Biso   1.000  O 
  O8       1.0000 0.23004  0.35953  0.25264  Biso   1.000  O 
  Hf5      1.0000 0.13306  0.01546  0.62733  Biso   1.000  Hf
  Hf6      1.0000 0.14058  0.22730  0.86999  Biso   1.000  Hf
  Hf7      1.0000 0.36585  0.26858  0.62551  Biso   1.000  Hf
  Hf8      1.0000 0.36514  0.48889  0.87279  Biso   1.000  Hf
  O9       1.0000 0.03455  0.18306  0.69322  Biso   1.000  O 
  O10      1.0000 0.03633  0.06465  0.93898  Biso   1.000  O 
  O11      1.0000 0.46393  0.43569  0.69497  Biso   1.000  O 
  O12      1.0000 0.46203  0.31861  0.94031  Biso   1.000  O 
  O13      1.0000 0.27165  0.11607  0.74595  Biso   1.000  O 
  O14      1.0000 0.28728  0.12448  0.98993  Biso   1.000  O 
  O15      1.0000 0.23170  0.39829  0.99946  Biso   1.000  O 
  O16      1.0000 0.23014  0.36807  0.74913  Biso   1.000  O 
  Hf9      1.0000 0.12881  0.53923  0.12112  Biso   1.000  Hf
  Hf10     1.0000 0.13213  0.73736  0.37854  Biso   1.000  Hf
  Hf11     1.0000 0.36291  0.76910  0.12687  Biso   1.000  Hf
  Hf12     1.0000 0.36137  0.98457  0.37549  Biso   1.000  Hf
  O17      1.0000 0.03032  0.69227  0.20036  Biso   1.000  O 
  O18      1.0000 0.03242  0.56967  0.44644  Biso   1.000  O 
  O19      1.0000 0.46028  0.93436  0.19535  Biso   1.000  O 
  O20      1.0000 0.46095  0.81638  0.44306  Biso   1.000  O 
  O21      1.0000 0.26923  0.62111  0.24994  Biso   1.000  O 
  O22      1.0000 0.26813  0.63335  0.49884  Biso   1.000  O 
  O23      1.0000 0.22741  0.88369  0.50015  Biso   1.000  O 
  O24      1.0000 0.22650  0.86866  0.24990  Biso   1.000  O 
  Hf13     1.0000 0.13102  0.51704  0.62537  Biso   1.000  Hf
  Hf14     1.0000 0.12837  0.74116  0.87150  Biso   1.000  Hf
  Hf15     1.0000 0.36560  0.76591  0.62338  Biso   1.000  Hf
  Hf16     1.0000 0.36632  0.98082  0.87333  Biso   1.000  Hf
  O25      1.0000 0.03353  0.68597  0.69145  Biso   1.000  O 
  O26      1.0000 0.02949  0.57421  0.94305  Biso   1.000  O 
  O27      1.0000 0.46430  0.93283  0.69143  Biso   1.000  O 
  O28      1.0000 0.46347  0.81862  0.94758  Biso   1.000  O 
  O29      1.0000 0.26631  0.61817  0.74805  Biso   1.000  O 
  O30      1.0000 0.26515  0.64446  0.99586  Biso   1.000  O 
  O31      1.0000 0.22432  0.88671  0.99913  Biso   1.000  O 
  O32      1.0000 0.23056  0.86716  0.74781  Biso   1.000  O 
  Hf17     1.0000 0.63012  0.01379  0.12374  Biso   1.000  Hf
  Hf18     1.0000 0.62885  0.23237  0.37776  Biso   1.000  Hf
  Hf19     1.0000 0.84553  0.26413  0.12915  Biso   1.000  Hf
  Hf20     1.0000 0.86400  0.48612  0.37739  Biso   1.000  Hf
  O33      1.0000 0.53142  0.18084  0.19557  Biso   1.000  O 
  O34      1.0000 0.53317  0.06647  0.44624  Biso   1.000  O 
  O35      1.0000 0.95322  0.44579  0.19554  Biso   1.000  O 
  O36      1.0000 0.96539  0.32158  0.45007  Biso   1.000  O 
  O37      1.0000 0.75799  0.11477  0.25058  Biso   1.000  O 
  O38      1.0000 0.76997  0.13551  0.49822  Biso   1.000  O 
  O39      1.0000 0.72815  0.38384  0.50156  Biso   1.000  O 
  O40      1.0000 0.72143  0.36914  0.25361  Biso   1.000  O 
  Hf21     1.0000 0.63466  0.01736  0.62423  Biso   1.000  Hf
  Hf22     1.0000 0.62992  0.23429  0.87283  Biso   1.000  Hf
  Hf23     1.0000 0.86541  0.26814  0.62625  Biso   1.000  Hf
  Hf24     1.0000 0.86138  0.48528  0.87775  Biso   1.000  Hf
  O41      1.0000 0.53619  0.18569  0.69193  Biso   1.000  O 
  O42      1.0000 0.53950  0.06565  0.93892  Biso   1.000  O 
  O43      1.0000 0.96385  0.43436  0.70118  Biso   1.000  O 
  O44      1.0000 0.96439  0.31376  0.95034  Biso   1.000  O 
  O45      1.0000 0.77017  0.11831  0.74861  Biso   1.000  O 
  O46      1.0000 0.76694  0.13414  0.99937  Biso   1.000  O 
  O47      1.0000 0.72600  0.38178  0.00047  Biso   1.000  O 
  O48      1.0000 0.72986  0.36855  0.75133  Biso   1.000  O 
  Hf25     1.0000 0.63013  0.51813  0.12782  Biso   1.000  Hf
  Hf26     1.0000 0.63127  0.73528  0.37547  Biso   1.000  Hf
  Hf27     1.0000 0.86118  0.76875  0.12617  Biso   1.000  Hf
  Hf28     1.0000 0.86534  0.98706  0.37201  Biso   1.000  Hf
  O49      1.0000 0.53246  0.68414  0.19546  Biso   1.000  O 
  O50      1.0000 0.53230  0.56714  0.44554  Biso   1.000  O 
  O51      1.0000 0.96078  0.93568  0.19126  Biso   1.000  O 
  O52      1.0000 0.96142  0.81942  0.44483  Biso   1.000  O 
  O53      1.0000 0.76555  0.61963  0.25162  Biso   1.000  O 
  O54      1.0000 0.76601  0.63519  0.50073  Biso   1.000  O 
  O55      1.0000 0.72869  0.88602  0.49770  Biso   1.000  O 
  O56      1.0000 0.72602  0.86788  0.24880  Biso   1.000  O 
  Hf29     1.0000 0.63306  0.51735  0.62563  Biso   1.000  Hf
  Hf30     1.0000 0.63146  0.73547  0.87566  Biso   1.000  Hf
  Hf31     1.0000 0.86386  0.76855  0.62435  Biso   1.000  Hf
  Hf32     1.0000 0.86159  0.98467  0.87537  Biso   1.000  Hf
  O57      1.0000 0.53341  0.68394  0.69603  Biso   1.000  O 
  O58      1.0000 0.53176  0.56986  0.94599  Biso   1.000  O 
  O59      1.0000 0.96329  0.93223  0.69864  Biso   1.000  O 
  O60      1.0000 0.95850  0.81795  0.94526  Biso   1.000  O 
  O61      1.0000 0.76855  0.61780  0.75085  Biso   1.000  O 
  O62      1.0000 0.76897  0.63128  0.00066  Biso   1.000  O 
  O63      1.0000 0.72500  0.88470  0.99896  Biso   1.000  O 
  O64      1.0000 0.72769  0.86802  0.74866  Biso   1.000  O 
  Ru1      1.0000 0.09718  0.30424  0.10928  Biso   1.000  Ru
