data_image0
_cell_length_a       9.98804
_cell_length_b       5.05032
_cell_length_c       9.98806
_cell_angle_alpha    90
_cell_angle_beta     90
_cell_angle_gamma    90

_symmetry_space_group_name_H-M    "P 1"
_symmetry_int_tables_number       1

loop_
  _symmetry_equiv_pos_as_xyz
  'x, y, z'

loop_
  _atom_site_label
  _atom_site_occupancy
  _atom_site_fract_x
  _atom_site_fract_y
  _atom_site_fract_z
  _atom_site_thermal_displace_type
  _atom_site_B_iso_or_equiv
  _atom_site_type_symbol
  Ru1      1.0000 0.12491  0.00011  0.12491  Biso   1.000  Ru
  Hf1      1.0000 0.12491  0.50011  0.37121  Biso   1.000  Hf
  Hf2      1.0000 0.37121  0.50011  0.12491  Biso   1.000  Hf
  Hf3      1.0000 0.37384  0.99788  0.37383  Biso   1.000  Hf
  O1       1.0000 0.99692  0.27341  0.99691  Biso   1.000  O 
  O2       1.0000 0.00739  0.21794  0.24242  Biso   1.000  O 
  O3       1.0000 0.99693  0.72681  0.25291  Biso   1.000  O 
  O4       1.0000 0.00740  0.78227  0.00739  Biso   1.000  O 
  O5       1.0000 0.25290  0.27340  0.25291  Biso   1.000  O 
  O6       1.0000 0.24243  0.21795  0.00739  Biso   1.000  O 
  O7       1.0000 0.25291  0.72681  0.99691  Biso   1.000  O 
  O8       1.0000 0.24244  0.78227  0.24242  Biso   1.000  O 
  Hf4      1.0000 0.12491  0.00011  0.62491  Biso   1.000  Hf
  Hf5      1.0000 0.12491  0.50011  0.87861  Biso   1.000  Hf
  Hf6      1.0000 0.37541  0.50011  0.62491  Biso   1.000  Hf
  Hf7      1.0000 0.37383  0.00234  0.87598  Biso   1.000  Hf
  O9       1.0000 0.99248  0.29155  0.49075  Biso   1.000  O 
  O10      1.0000 0.00383  0.21207  0.74570  Biso   1.000  O 
  O11      1.0000 0.99249  0.70867  0.75907  Biso   1.000  O 
  O12      1.0000 0.00384  0.78814  0.50411  Biso   1.000  O 
  O13      1.0000 0.25734  0.29155  0.75907  Biso   1.000  O 
  O14      1.0000 0.24599  0.21208  0.50411  Biso   1.000  O 
  O15      1.0000 0.25735  0.70866  0.49075  Biso   1.000  O 
  O16      1.0000 0.24600  0.78814  0.74570  Biso   1.000  O 
  Hf8      1.0000 0.62491  0.00011  0.12491  Biso   1.000  Hf
  Hf9      1.0000 0.62491  0.50011  0.37541  Biso   1.000  Hf
  Hf10     1.0000 0.87861  0.50011  0.12491  Biso   1.000  Hf
  Hf11     1.0000 0.87598  0.00234  0.37383  Biso   1.000  Hf
  O17      1.0000 0.49075  0.29155  0.99247  Biso   1.000  O 
  O18      1.0000 0.50411  0.21208  0.24598  Biso   1.000  O 
  O19      1.0000 0.49076  0.70866  0.25734  Biso   1.000  O 
  O20      1.0000 0.50412  0.78813  0.00384  Biso   1.000  O 
  O21      1.0000 0.75906  0.29155  0.25734  Biso   1.000  O 
  O22      1.0000 0.74571  0.21208  0.00384  Biso   1.000  O 
  O23      1.0000 0.75907  0.70866  0.99248  Biso   1.000  O 
  O24      1.0000 0.74572  0.78814  0.24598  Biso   1.000  O 
  Hf12     1.0000 0.62491  0.00011  0.62491  Biso   1.000  Hf
  Hf13     1.0000 0.62491  0.50011  0.87441  Biso   1.000  Hf
  Hf14     1.0000 0.87441  0.50011  0.62491  Biso   1.000  Hf
  Hf15     1.0000 0.87599  0.99788  0.87598  Biso   1.000  Hf
  O25      1.0000 0.49316  0.28757  0.49316  Biso   1.000  O 
  O26      1.0000 0.50399  0.21366  0.74581  Biso   1.000  O 
  O27      1.0000 0.49317  0.71264  0.75666  Biso   1.000  O 
  O28      1.0000 0.50400  0.78654  0.50400  Biso   1.000  O 
  O29      1.0000 0.75665  0.28757  0.75666  Biso   1.000  O 
  O30      1.0000 0.74582  0.21367  0.50400  Biso   1.000  O 
  O31      1.0000 0.75666  0.71264  0.49316  Biso   1.000  O 
  O32      1.0000 0.74583  0.78655  0.74581  Biso   1.000  O 
