data_image0
_cell_length_a       9.9964
_cell_length_b       5.09617
_cell_length_c       10.4415
_cell_angle_alpha    90
_cell_angle_beta     90
_cell_angle_gamma    90

_symmetry_space_group_name_H-M    "P 1"
_symmetry_int_tables_number       1

loop_
  _symmetry_equiv_pos_as_xyz
  'x, y, z'

loop_
  _atom_site_label
  _atom_site_occupancy
  _atom_site_fract_x
  _atom_site_fract_y
  _atom_site_fract_z
  _atom_site_thermal_displace_type
  _atom_site_B_iso_or_equiv
  _atom_site_type_symbol
  Ru1      1.0000 0.14080  0.04366  0.17748  Biso   1.000  Ru
  Hf1      1.0000 0.14075  0.46362  0.42011  Biso   1.000  Hf
  Hf2      1.0000 0.35768  0.54662  0.17182  Biso   1.000  Hf
  Hf3      1.0000 0.36217  0.96112  0.42166  Biso   1.000  Hf
  Hf4      1.0000 0.63852  0.04425  0.07812  Biso   1.000  Hf
  Hf5      1.0000 0.63890  0.46027  0.32734  Biso   1.000  Hf
  Hf6      1.0000 0.86692  0.53988  0.07951  Biso   1.000  Hf
  Hf7      1.0000 0.86278  0.96306  0.32621  Biso   1.000  Hf
  O1       1.0000 0.03243  0.31856  0.08197  Biso   1.000  O 
  O2       1.0000 0.03655  0.18140  0.32275  Biso   1.000  O 
  O3       1.0000 0.46803  0.82806  0.08402  Biso   1.000  O 
  O4       1.0000 0.46542  0.66955  0.33434  Biso   1.000  O 
  O5       1.0000 0.27763  0.24622  0.29550  Biso   1.000  O 
  O6       1.0000 0.27078  0.24086  0.05345  Biso   1.000  O 
  O7       1.0000 0.22165  0.75572  0.29284  Biso   1.000  O 
  O8       1.0000 0.22205  0.75042  0.04526  Biso   1.000  O 
  O9       1.0000 0.53237  0.33360  0.16656  Biso   1.000  O 
  O10      1.0000 0.53500  0.17132  0.41644  Biso   1.000  O 
  O11      1.0000 0.97660  0.83764  0.16592  Biso   1.000  O 
  O12      1.0000 0.96982  0.67923  0.41634  Biso   1.000  O 
  O13      1.0000 0.77939  0.25006  0.45303  Biso   1.000  O 
  O14      1.0000 0.77602  0.25374  0.20442  Biso   1.000  O 
  O15      1.0000 0.72470  0.74995  0.45436  Biso   1.000  O 
  O16      1.0000 0.73003  0.75413  0.20480  Biso   1.000  O 
  Hf8      1.0000 0.14153  0.04569  0.67199  Biso   1.000  Hf
  Hf9      1.0000 0.14087  0.45790  0.92440  Biso   1.000  Hf
  Hf10     1.0000 0.36375  0.54629  0.67257  Biso   1.000  Hf
  Hf11     1.0000 0.36292  0.95911  0.92357  Biso   1.000  Hf
  Hf12     1.0000 0.64110  0.04595  0.57866  Biso   1.000  Hf
  Hf13     1.0000 0.64210  0.46341  0.82959  Biso   1.000  Hf
  Hf14     1.0000 0.86302  0.54599  0.57729  Biso   1.000  Hf
  Hf15     1.0000 0.86389  0.96194  0.82867  Biso   1.000  Hf
  O17      1.0000 0.03245  0.32290  0.57592  Biso   1.000  O 
  O18      1.0000 0.03378  0.17994  0.82877  Biso   1.000  O 
  O19      1.0000 0.46867  0.83540  0.58474  Biso   1.000  O 
  O20      1.0000 0.46962  0.67384  0.83490  Biso   1.000  O 
  O21      1.0000 0.27982  0.25131  0.79848  Biso   1.000  O 
  O22      1.0000 0.27893  0.25743  0.54577  Biso   1.000  O 
  O23      1.0000 0.22614  0.75152  0.79487  Biso   1.000  O 
  O24      1.0000 0.22531  0.75470  0.54435  Biso   1.000  O 
  O25      1.0000 0.53593  0.33525  0.66698  Biso   1.000  O 
  O26      1.0000 0.53467  0.17688  0.91810  Biso   1.000  O 
  O27      1.0000 0.97108  0.82654  0.66813  Biso   1.000  O 
  O28      1.0000 0.97190  0.67559  0.91826  Biso   1.000  O 
  O29      1.0000 0.78010  0.25553  0.95492  Biso   1.000  O 
  O30      1.0000 0.77939  0.25618  0.70448  Biso   1.000  O 
  O31      1.0000 0.72764  0.75374  0.95527  Biso   1.000  O 
  O32      1.0000 0.72598  0.75714  0.70483  Biso   1.000  O 
