data_image0
_cell_length_a       5.04458
_cell_length_b       10.6005
_cell_length_c       10.133
_cell_angle_alpha    90
_cell_angle_beta     90
_cell_angle_gamma    90

_symmetry_space_group_name_H-M    "P 1"
_symmetry_int_tables_number       1

loop_
  _symmetry_equiv_pos_as_xyz
  'x, y, z'

loop_
  _atom_site_label
  _atom_site_occupancy
  _atom_site_fract_x
  _atom_site_fract_y
  _atom_site_fract_z
  _atom_site_thermal_displace_type
  _atom_site_B_iso_or_equiv
  _atom_site_type_symbol
  Hf1      1.0000 0.25335  0.94858  0.10592  Biso   1.000  Hf
  Hf2      1.0000 0.27289  0.21802  0.36803  Biso   1.000  Hf
  Hf3      1.0000 0.79110  0.28203  0.13806  Biso   1.000  Hf
  Hf4      1.0000 0.77455  0.99730  0.35030  Biso   1.000  Hf
  O1       1.0000 0.95535  0.12163  0.97377  Biso   1.000  O 
  O2       1.0000 0.07803  0.07344  0.23866  Biso   1.000  O 
  O3       1.0000 0.01065  0.36292  0.29756  Biso   1.000  O 
  O4       1.0000 0.96422  0.43023  0.03429  Biso   1.000  O 
  O5       1.0000 0.57509  0.14353  0.23879  Biso   1.000  O 
  O6       1.0000 0.45969  0.00298  0.95519  Biso   1.000  O 
  O7       1.0000 0.46779  0.32732  0.01624  Biso   1.000  O 
  O8       1.0000 0.52497  0.38270  0.27620  Biso   1.000  O 
  Hf5      1.0000 0.27030  0.95063  0.61023  Biso   1.000  Hf
  Hf6      1.0000 0.27884  0.18615  0.85248  Biso   1.000  Hf
  Hf7      1.0000 0.77281  0.23313  0.62497  Biso   1.000  Hf
  Hf8      1.0000 0.77651  0.96512  0.84186  Biso   1.000  Hf
  O9       1.0000 0.94006  0.15276  0.46642  Biso   1.000  O 
  O10      1.0000 0.03285  0.07030  0.72152  Biso   1.000  O 
  O11      1.0000 0.01674  0.31554  0.77314  Biso   1.000  O 
  O12      1.0000 0.93467  0.39892  0.54416  Biso   1.000  O 
  O13      1.0000 0.53471  0.09684  0.72312  Biso   1.000  O 
  O14      1.0000 0.45987  0.05335  0.46632  Biso   1.000  O 
  O15      1.0000 0.43609  0.29951  0.53217  Biso   1.000  O 
  O16      1.0000 0.51720  0.34415  0.77184  Biso   1.000  O 
  Hf9      1.0000 0.26756  0.47650  0.15743  Biso   1.000  Hf
  Hf10     1.0000 0.19658  0.74539  0.36439  Biso   1.000  Hf
  Hf11     1.0000 0.69762  0.72015  0.13496  Biso   1.000  Hf
  Hf12     1.0000 0.77069  0.49860  0.38910  Biso   1.000  Hf
  O17      1.0000 0.95110  0.61483  0.98085  Biso   1.000  O 
  O18      1.0000 0.98610  0.59796  0.24413  Biso   1.000  O 
  O19      1.0000 0.98269  0.83711  0.22093  Biso   1.000  O 
  O20      1.0000 0.97908  0.85764  0.96374  Biso   1.000  O 
  O21      1.0000 0.48046  0.62594  0.27808  Biso   1.000  O 
  O22      1.0000 0.51313  0.56674  0.03371  Biso   1.000  O 
  O23      1.0000 0.44626  0.80673  0.00765  Biso   1.000  O 
  O24      1.0000 0.49427  0.87327  0.25280  Biso   1.000  O 
  Hf13     1.0000 0.26640  0.44693  0.65039  Biso   1.000  Hf
  Hf14     1.0000 0.18487  0.71152  0.85382  Biso   1.000  Hf
  Hf15     1.0000 0.68742  0.69688  0.63521  Biso   1.000  Hf
  Hf16     1.0000 0.77017  0.46189  0.88368  Biso   1.000  Hf
  O25      1.0000 0.94909  0.65211  0.48668  Biso   1.000  O 
  O26      1.0000 0.98057  0.56841  0.74071  Biso   1.000  O 
  O27      1.0000 0.97846  0.81950  0.71580  Biso   1.000  O 
  O28      1.0000 0.00539  0.90036  0.46704  Biso   1.000  O 
  O29      1.0000 0.47796  0.59156  0.77641  Biso   1.000  O 
  O30      1.0000 0.48914  0.55086  0.52897  Biso   1.000  O 
  O31      1.0000 0.45738  0.79950  0.51054  Biso   1.000  O 
  O32      1.0000 0.48346  0.84307  0.75189  Biso   1.000  O 
  Ru1      1.0000 0.27234  0.18348  0.10829  Biso   1.000  Ru
