data_image0
_cell_length_a       5.02126
_cell_length_b       10.5038
_cell_length_c       10.0518
_cell_angle_alpha    90
_cell_angle_beta     90
_cell_angle_gamma    90

_symmetry_space_group_name_H-M    "P 1"
_symmetry_int_tables_number       1

loop_
  _symmetry_equiv_pos_as_xyz
  'x, y, z'

loop_
  _atom_site_label
  _atom_site_occupancy
  _atom_site_fract_x
  _atom_site_fract_y
  _atom_site_fract_z
  _atom_site_thermal_displace_type
  _atom_site_B_iso_or_equiv
  _atom_site_type_symbol
  Hf1      1.0000 0.26013  0.01821  0.11813  Biso   1.000  Hf
  Hf2      1.0000 0.25827  0.23169  0.38485  Biso   1.000  Hf
  Hf3      1.0000 0.69231  0.25318  0.12001  Biso   1.000  Hf
  Hf4      1.0000 0.73489  0.48739  0.37638  Biso   1.000  Hf
  O1       1.0000 0.00739  0.17400  0.22293  Biso   1.000  O 
  O2       1.0000 0.06616  0.06642  0.45259  Biso   1.000  O 
  O3       1.0000 0.91830  0.44828  0.20023  Biso   1.000  O 
  O4       1.0000 0.93225  0.32451  0.45213  Biso   1.000  O 
  O5       1.0000 0.50596  0.11204  0.25094  Biso   1.000  O 
  O6       1.0000 0.54296  0.13755  0.49862  Biso   1.000  O 
  O7       1.0000 0.45991  0.38774  0.50227  Biso   1.000  O 
  O8       1.0000 0.45188  0.35927  0.25497  Biso   1.000  O 
  Hf5      1.0000 0.26936  0.01789  0.62479  Biso   1.000  Hf
  Hf6      1.0000 0.27591  0.22863  0.86814  Biso   1.000  Hf
  Hf7      1.0000 0.73286  0.27146  0.62631  Biso   1.000  Hf
  Hf8      1.0000 0.72986  0.49320  0.87439  Biso   1.000  Hf
  O9       1.0000 0.06982  0.18519  0.69111  Biso   1.000  O 
  O10      1.0000 0.08190  0.06565  0.93398  Biso   1.000  O 
  O11      1.0000 0.93280  0.43696  0.70104  Biso   1.000  O 
  O12      1.0000 0.93163  0.31756  0.94559  Biso   1.000  O 
  O13      1.0000 0.54329  0.11782  0.74460  Biso   1.000  O 
  O14      1.0000 0.57190  0.12612  0.98919  Biso   1.000  O 
  O15      1.0000 0.47425  0.39735  0.00286  Biso   1.000  O 
  O16      1.0000 0.46577  0.36974  0.75237  Biso   1.000  O 
  Hf9      1.0000 0.25851  0.54045  0.12358  Biso   1.000  Hf
  Hf10     1.0000 0.26606  0.74005  0.37789  Biso   1.000  Hf
  Hf11     1.0000 0.72311  0.77121  0.12704  Biso   1.000  Hf
  Hf12     1.0000 0.72932  0.98902  0.37188  Biso   1.000  Hf
  O17      1.0000 0.06211  0.69472  0.20068  Biso   1.000  O 
  O18      1.0000 0.06201  0.57330  0.44945  Biso   1.000  O 
  O19      1.0000 0.92074  0.93736  0.19181  Biso   1.000  O 
  O20      1.0000 0.92512  0.82156  0.44345  Biso   1.000  O 
  O21      1.0000 0.53601  0.62337  0.25243  Biso   1.000  O 
  O22      1.0000 0.53277  0.63776  0.50048  Biso   1.000  O 
  O23      1.0000 0.46106  0.88858  0.49778  Biso   1.000  O 
  O24      1.0000 0.45455  0.86942  0.24897  Biso   1.000  O 
  Hf13     1.0000 0.26571  0.51942  0.62572  Biso   1.000  Hf
  Hf14     1.0000 0.26071  0.74460  0.87155  Biso   1.000  Hf
  Hf15     1.0000 0.73470  0.76893  0.62146  Biso   1.000  Hf
  Hf16     1.0000 0.73356  0.98301  0.87164  Biso   1.000  Hf
  O25      1.0000 0.06751  0.68687  0.69428  Biso   1.000  O 
  O26      1.0000 0.05968  0.58005  0.94504  Biso   1.000  O 
  O27      1.0000 0.93649  0.93206  0.69489  Biso   1.000  O 
  O28      1.0000 0.92622  0.82315  0.94806  Biso   1.000  O 
  O29      1.0000 0.53475  0.61948  0.74942  Biso   1.000  O 
  O30      1.0000 0.53049  0.65078  0.99693  Biso   1.000  O 
  O31      1.0000 0.45010  0.89125  0.99819  Biso   1.000  O 
  O32      1.0000 0.46649  0.86861  0.74644  Biso   1.000  O 
  Ru1      1.0000 0.18936  0.30669  0.10785  Biso   1.000  Ru
