data_image0
_cell_length_a       10.0255
_cell_length_b       10.5912
_cell_length_c       5.02426
_cell_angle_alpha    90
_cell_angle_beta     90
_cell_angle_gamma    90

_symmetry_space_group_name_H-M    "P 1"
_symmetry_int_tables_number       1

loop_
  _symmetry_equiv_pos_as_xyz
  'x, y, z'

loop_
  _atom_site_label
  _atom_site_occupancy
  _atom_site_fract_x
  _atom_site_fract_y
  _atom_site_fract_z
  _atom_site_thermal_displace_type
  _atom_site_B_iso_or_equiv
  _atom_site_type_symbol
  Hf1      1.0000 0.13496  0.01104  0.24311  Biso   1.000  Hf
  Hf2      1.0000 0.13637  0.21051  0.75309  Biso   1.000  Hf
  Hf3      1.0000 0.36774  0.26200  0.23535  Biso   1.000  Hf
  Hf4      1.0000 0.36466  0.48572  0.74056  Biso   1.000  Hf
  O1       1.0000 0.01117  0.17042  0.42530  Biso   1.000  O 
  O2       1.0000 0.03057  0.05916  0.90284  Biso   1.000  O 
  O3       1.0000 0.46769  0.42910  0.39869  Biso   1.000  O 
  O4       1.0000 0.46534  0.31793  0.89106  Biso   1.000  O 
  O5       1.0000 0.26416  0.10139  0.49158  Biso   1.000  O 
  O6       1.0000 0.28778  0.11994  0.97945  Biso   1.000  O 
  O7       1.0000 0.24771  0.41344  0.03842  Biso   1.000  O 
  O8       1.0000 0.24297  0.34432  0.53654  Biso   1.000  O 
  Hf5      1.0000 0.12023  0.54442  0.22868  Biso   1.000  Hf
  Hf6      1.0000 0.12409  0.74398  0.74269  Biso   1.000  Hf
  Hf7      1.0000 0.36329  0.76408  0.24446  Biso   1.000  Hf
  Hf8      1.0000 0.36240  0.97845  0.74318  Biso   1.000  Hf
  O9       1.0000 0.02275  0.69498  0.39311  Biso   1.000  O 
  O10      1.0000 0.02436  0.57642  0.87710  Biso   1.000  O 
  O11      1.0000 0.46044  0.92846  0.38172  Biso   1.000  O 
  O12      1.0000 0.46066  0.81570  0.88902  Biso   1.000  O 
  O13      1.0000 0.26284  0.61421  0.49109  Biso   1.000  O 
  O14      1.0000 0.25895  0.64996  0.98332  Biso   1.000  O 
  O15      1.0000 0.22214  0.88592  0.99081  Biso   1.000  O 
  O16      1.0000 0.22738  0.86092  0.48829  Biso   1.000  O 
  Hf9      1.0000 0.63162  0.01435  0.24543  Biso   1.000  Hf
  Hf10     1.0000 0.62671  0.23038  0.74638  Biso   1.000  Hf
  Hf11     1.0000 0.85101  0.26459  0.25248  Biso   1.000  Hf
  Hf12     1.0000 0.85941  0.48513  0.75076  Biso   1.000  Hf
  O17      1.0000 0.53025  0.17616  0.39479  Biso   1.000  O 
  O18      1.0000 0.53868  0.06311  0.88441  Biso   1.000  O 
  O19      1.0000 0.95391  0.44451  0.39761  Biso   1.000  O 
  O20      1.0000 0.97456  0.31672  0.91375  Biso   1.000  O 
  O21      1.0000 0.76212  0.11299  0.49600  Biso   1.000  O 
  O22      1.0000 0.76737  0.13583  0.99400  Biso   1.000  O 
  O23      1.0000 0.72895  0.38315  0.00136  Biso   1.000  O 
  O24      1.0000 0.72592  0.36399  0.50601  Biso   1.000  O 
  Hf13     1.0000 0.62909  0.51491  0.25188  Biso   1.000  Hf
  Hf14     1.0000 0.62725  0.73216  0.75016  Biso   1.000  Hf
  Hf15     1.0000 0.85501  0.76992  0.24814  Biso   1.000  Hf
  Hf16     1.0000 0.85518  0.98374  0.74551  Biso   1.000  Hf
  O25      1.0000 0.52814  0.67942  0.39563  Biso   1.000  O 
  O26      1.0000 0.52708  0.56841  0.89950  Biso   1.000  O 
  O27      1.0000 0.95881  0.93177  0.39990  Biso   1.000  O 
  O28      1.0000 0.95540  0.81973  0.89642  Biso   1.000  O 
  O29      1.0000 0.76119  0.61510  0.50453  Biso   1.000  O 
  O30      1.0000 0.76341  0.63416  0.00187  Biso   1.000  O 
  O31      1.0000 0.72224  0.88519  0.99716  Biso   1.000  O 
  O32      1.0000 0.72190  0.86494  0.49862  Biso   1.000  O 
  Ru1      1.0000 0.10969  0.31038  0.23140  Biso   1.000  Ru
