data_image0
_cell_length_a       10.1366
_cell_length_b       10.2788
_cell_length_c       5.24121
_cell_angle_alpha    90
_cell_angle_beta     80
_cell_angle_gamma    90

_symmetry_space_group_name_H-M    "P 1"
_symmetry_int_tables_number       1

loop_
  _symmetry_equiv_pos_as_xyz
  'x, y, z'

loop_
  _atom_site_label
  _atom_site_occupancy
  _atom_site_fract_x
  _atom_site_fract_y
  _atom_site_fract_z
  _atom_site_thermal_displace_type
  _atom_site_B_iso_or_equiv
  _atom_site_type_symbol
  Sb1      1.0000 0.12931  0.01854  0.30094  Biso   1.000  Sb
  Hf1      1.0000 0.13875  0.22967  0.79138  Biso   1.000  Hf
  Hf2      1.0000 0.36072  0.27107  0.20693  Biso   1.000  Hf
  Hf3      1.0000 0.35914  0.47872  0.70806  Biso   1.000  Hf
  O1       1.0000 0.03552  0.16913  0.15363  Biso   1.000  O 
  O2       1.0000 0.03059  0.08212  0.66069  Biso   1.000  O 
  O3       1.0000 0.46410  0.41789  0.34191  Biso   1.000  O 
  O4       1.0000 0.46304  0.33312  0.84296  Biso   1.000  O 
  O5       1.0000 0.27599  0.13071  0.48379  Biso   1.000  O 
  O6       1.0000 0.27820  0.12555  0.96920  Biso   1.000  O 
  O7       1.0000 0.22422  0.37983  0.01777  Biso   1.000  O 
  O8       1.0000 0.22225  0.37186  0.51799  Biso   1.000  O 
  Hf4      1.0000 0.13871  0.52156  0.29158  Biso   1.000  Hf
  Hf5      1.0000 0.13637  0.72797  0.79287  Biso   1.000  Hf
  Hf6      1.0000 0.36307  0.77149  0.20697  Biso   1.000  Hf
  Hf7      1.0000 0.36065  0.97915  0.70879  Biso   1.000  Hf
  O9       1.0000 0.03588  0.66930  0.15987  Biso   1.000  O 
  O10      1.0000 0.03354  0.58128  0.65882  Biso   1.000  O 
  O11      1.0000 0.46516  0.91833  0.34225  Biso   1.000  O 
  O12      1.0000 0.46525  0.83245  0.84415  Biso   1.000  O 
  O13      1.0000 0.27548  0.62864  0.48003  Biso   1.000  O 
  O14      1.0000 0.27327  0.62038  0.98150  Biso   1.000  O 
  O15      1.0000 0.22905  0.87650  0.00885  Biso   1.000  O 
  O16      1.0000 0.22428  0.86876  0.52042  Biso   1.000  O 
  Hf8      1.0000 0.63711  0.02169  0.29401  Biso   1.000  Hf
  Hf9      1.0000 0.63554  0.22893  0.79352  Biso   1.000  Hf
  Hf10     1.0000 0.86015  0.27170  0.20949  Biso   1.000  Hf
  Hf11     1.0000 0.86004  0.47755  0.70913  Biso   1.000  Hf
  O17      1.0000 0.53555  0.16887  0.15966  Biso   1.000  O 
  O18      1.0000 0.53509  0.08070  0.66070  Biso   1.000  O 
  O19      1.0000 0.96407  0.41801  0.34228  Biso   1.000  O 
  O20      1.0000 0.96224  0.33204  0.84491  Biso   1.000  O 
  O21      1.0000 0.77502  0.12923  0.48266  Biso   1.000  O 
  O22      1.0000 0.77203  0.12082  0.98428  Biso   1.000  O 
  O23      1.0000 0.72458  0.37875  0.02011  Biso   1.000  O 
  O24      1.0000 0.72239  0.37082  0.52065  Biso   1.000  O 
  Hf12     1.0000 0.63797  0.52039  0.29232  Biso   1.000  Hf
  Hf13     1.0000 0.63622  0.72737  0.79235  Biso   1.000  Hf
  Hf14     1.0000 0.85991  0.76868  0.20731  Biso   1.000  Hf
  Hf15     1.0000 0.85502  0.97795  0.71635  Biso   1.000  Hf
  O25      1.0000 0.53642  0.66743  0.15801  Biso   1.000  O 
  O26      1.0000 0.53331  0.58166  0.65814  Biso   1.000  O 
  O27      1.0000 0.95729  0.91885  0.34562  Biso   1.000  O 
  O28      1.0000 0.96222  0.83244  0.84399  Biso   1.000  O 
  O29      1.0000 0.77507  0.62799  0.48058  Biso   1.000  O 
  O30      1.0000 0.77374  0.62020  0.98135  Biso   1.000  O 
  O31      1.0000 0.72396  0.87840  0.02171  Biso   1.000  O 
  O32      1.0000 0.72261  0.86998  0.52198  Biso   1.000  O 
