data_image0
_cell_length_a       9.97709
_cell_length_b       5.19396
_cell_length_c       10.0215
_cell_angle_alpha    90
_cell_angle_beta     90
_cell_angle_gamma    90

_symmetry_space_group_name_H-M    "P 1"
_symmetry_int_tables_number       1

loop_
  _symmetry_equiv_pos_as_xyz
  'x, y, z'

loop_
  _atom_site_label
  _atom_site_occupancy
  _atom_site_fract_x
  _atom_site_fract_y
  _atom_site_fract_z
  _atom_site_thermal_displace_type
  _atom_site_B_iso_or_equiv
  _atom_site_type_symbol
  Sb1      1.0000 0.12735  0.03675  0.12044  Biso   1.000  Sb
  Hf1      1.0000 0.13730  0.46618  0.37762  Biso   1.000  Hf
  Hf2      1.0000 0.36712  0.53104  0.12725  Biso   1.000  Hf
  Hf3      1.0000 0.36715  0.96508  0.37584  Biso   1.000  Hf
  O1       1.0000 0.03601  0.37336  0.19480  Biso   1.000  O 
  O2       1.0000 0.03756  0.12973  0.44442  Biso   1.000  O 
  O3       1.0000 0.46619  0.86734  0.19502  Biso   1.000  O 
  O4       1.0000 0.46711  0.63210  0.44738  Biso   1.000  O 
  O5       1.0000 0.27497  0.23999  0.25271  Biso   1.000  O 
  O6       1.0000 0.27197  0.26335  0.50145  Biso   1.000  O 
  O7       1.0000 0.23139  0.76382  0.50123  Biso   1.000  O 
  O8       1.0000 0.23666  0.72519  0.25426  Biso   1.000  O 
  Hf4      1.0000 0.13510  0.03218  0.62620  Biso   1.000  Hf
  Hf5      1.0000 0.13581  0.46984  0.87413  Biso   1.000  Hf
  Hf6      1.0000 0.36780  0.53204  0.62626  Biso   1.000  Hf
  Hf7      1.0000 0.36952  0.96616  0.87556  Biso   1.000  Hf
  O9       1.0000 0.03792  0.36845  0.69333  Biso   1.000  O 
  O10      1.0000 0.03528  0.13405  0.94042  Biso   1.000  O 
  O11      1.0000 0.46601  0.86737  0.69511  Biso   1.000  O 
  O12      1.0000 0.46669  0.63145  0.94365  Biso   1.000  O 
  O13      1.0000 0.27186  0.23443  0.75014  Biso   1.000  O 
  O14      1.0000 0.27159  0.26583  0.99864  Biso   1.000  O 
  O15      1.0000 0.23330  0.75769  0.99871  Biso   1.000  O 
  O16      1.0000 0.23155  0.73570  0.74955  Biso   1.000  O 
  Hf8      1.0000 0.63411  0.03228  0.12690  Biso   1.000  Hf
  Hf9      1.0000 0.63493  0.46660  0.37599  Biso   1.000  Hf
  Hf10     1.0000 0.86338  0.53046  0.12459  Biso   1.000  Hf
  Hf11     1.0000 0.86756  0.96735  0.37748  Biso   1.000  Hf
  O17      1.0000 0.53883  0.36876  0.19416  Biso   1.000  O 
  O18      1.0000 0.53758  0.13106  0.44410  Biso   1.000  O 
  O19      1.0000 0.95929  0.86788  0.19374  Biso   1.000  O 
  O20      1.0000 0.96574  0.63156  0.44459  Biso   1.000  O 
  O21      1.0000 0.77121  0.23425  0.24999  Biso   1.000  O 
  O22      1.0000 0.77149  0.26468  0.49950  Biso   1.000  O 
  O23      1.0000 0.73166  0.76442  0.49997  Biso   1.000  O 
  O24      1.0000 0.73099  0.73467  0.25012  Biso   1.000  O 
  Hf12     1.0000 0.63435  0.03160  0.62478  Biso   1.000  Hf
  Hf13     1.0000 0.63487  0.46412  0.87541  Biso   1.000  Hf
  Hf14     1.0000 0.86789  0.53154  0.62480  Biso   1.000  Hf
  Hf15     1.0000 0.86494  0.96236  0.87411  Biso   1.000  Hf
  O25      1.0000 0.53723  0.36594  0.69499  Biso   1.000  O 
  O26      1.0000 0.53768  0.13058  0.94535  Biso   1.000  O 
  O27      1.0000 0.96547  0.86671  0.69448  Biso   1.000  O 
  O28      1.0000 0.96606  0.63318  0.94516  Biso   1.000  O 
  O29      1.0000 0.77140  0.23238  0.74864  Biso   1.000  O 
  O30      1.0000 0.77222  0.26087  0.99886  Biso   1.000  O 
  O31      1.0000 0.73049  0.76095  0.99958  Biso   1.000  O 
  O32      1.0000 0.73108  0.73221  0.74936  Biso   1.000  O 
