data_image0
_cell_length_a       10.1918
_cell_length_b       10.3497
_cell_length_c       10.4974
_cell_angle_alpha    90
_cell_angle_beta     80
_cell_angle_gamma    90

_symmetry_space_group_name_H-M    "P 1"
_symmetry_int_tables_number       1

loop_
  _symmetry_equiv_pos_as_xyz
  'x, y, z'

loop_
  _atom_site_label
  _atom_site_occupancy
  _atom_site_fract_x
  _atom_site_fract_y
  _atom_site_fract_z
  _atom_site_thermal_displace_type
  _atom_site_B_iso_or_equiv
  _atom_site_type_symbol
  Hf1      1.0000 0.13255  0.02008  0.14214  Biso   1.000  Hf
  Hf2      1.0000 0.14554  0.22796  0.39185  Biso   1.000  Hf
  Hf3      1.0000 0.35134  0.26948  0.09736  Biso   1.000  Hf
  Hf4      1.0000 0.35933  0.49134  0.35394  Biso   1.000  Hf
  O1       1.0000 0.03328  0.16874  0.07704  Biso   1.000  O 
  O2       1.0000 0.03364  0.08195  0.32950  Biso   1.000  O 
  O3       1.0000 0.46495  0.42788  0.16819  Biso   1.000  O 
  O4       1.0000 0.49183  0.39261  0.44862  Biso   1.000  O 
  O5       1.0000 0.26594  0.11808  0.23254  Biso   1.000  O 
  O6       1.0000 0.27698  0.11113  0.48782  Biso   1.000  O 
  O7       1.0000 0.22003  0.38027  0.00444  Biso   1.000  O 
  O8       1.0000 0.21823  0.37467  0.25405  Biso   1.000  O 
  Hf5      1.0000 0.14275  0.02178  0.64497  Biso   1.000  Hf
  Hf6      1.0000 0.14173  0.23186  0.89036  Biso   1.000  Hf
  Hf7      1.0000 0.37082  0.27853  0.60050  Biso   1.000  Hf
  Hf8      1.0000 0.36749  0.48027  0.85427  Biso   1.000  Hf
  O9       1.0000 0.04566  0.17243  0.57991  Biso   1.000  O 
  O10      1.0000 0.03813  0.08506  0.82748  Biso   1.000  O 
  O11      1.0000 0.47603  0.41093  0.68414  Biso   1.000  O 
  O12      1.0000 0.47228  0.33850  0.92648  Biso   1.000  O 
  O13      1.0000 0.28028  0.13294  0.73552  Biso   1.000  O 
  O14      1.0000 0.27770  0.12652  0.98391  Biso   1.000  O 
  O15      1.0000 0.22975  0.38008  0.50702  Biso   1.000  O 
  O16      1.0000 0.23089  0.37487  0.75609  Biso   1.000  O 
  Hf9      1.0000 0.14170  0.52198  0.14336  Biso   1.000  Hf
  Hf10     1.0000 0.14000  0.72949  0.39704  Biso   1.000  Hf
  Hf11     1.0000 0.36241  0.77081  0.10011  Biso   1.000  Hf
  Hf12     1.0000 0.35786  0.96358  0.35347  Biso   1.000  Hf
  O17      1.0000 0.03737  0.67009  0.07890  Biso   1.000  O 
  O18      1.0000 0.04166  0.58415  0.32729  Biso   1.000  O 
  O19      1.0000 0.46656  0.91193  0.16707  Biso   1.000  O 
  O20      1.0000 0.46300  0.82333  0.42266  Biso   1.000  O 
  O21      1.0000 0.27843  0.63114  0.23946  Biso   1.000  O 
  O22      1.0000 0.27645  0.62422  0.49236  Biso   1.000  O 
  O23      1.0000 0.22665  0.87985  0.00715  Biso   1.000  O 
  O24      1.0000 0.22220  0.86634  0.25694  Biso   1.000  O 
  Hf13     1.0000 0.14465  0.52452  0.64662  Biso   1.000  Hf
  Hf14     1.0000 0.14570  0.73185  0.89482  Biso   1.000  Hf
  Hf15     1.0000 0.36800  0.77297  0.60579  Biso   1.000  Hf
  Hf16     1.0000 0.37006  0.98348  0.85040  Biso   1.000  Hf
  O25      1.0000 0.03587  0.66714  0.57937  Biso   1.000  O 
  O26      1.0000 0.04125  0.58610  0.82926  Biso   1.000  O 
  O27      1.0000 0.47287  0.92176  0.66778  Biso   1.000  O 
  O28      1.0000 0.47336  0.83734  0.91613  Biso   1.000  O 
  O29      1.0000 0.28216  0.63055  0.73981  Biso   1.000  O 
  O30      1.0000 0.28323  0.62508  0.98845  Biso   1.000  O 
  O31      1.0000 0.22485  0.87402  0.51136  Biso   1.000  O 
  O32      1.0000 0.23241  0.87425  0.75889  Biso   1.000  O 
  Hf17     1.0000 0.63779  0.01375  0.14701  Biso   1.000  Hf
  Hf18     1.0000 0.67933  0.24298  0.41130  Biso   1.000  Hf
  Hf19     1.0000 0.86165  0.27357  0.10785  Biso   1.000  Hf
  Hf20     1.0000 0.87187  0.48452  0.35584  Biso   1.000  Hf
  O33      1.0000 0.52608  0.15515  0.07402  Biso   1.000  O 
  O34      1.0000 0.53366  0.04691  0.33427  Biso   1.000  O 
  O35      1.0000 0.96922  0.42076  0.16874  Biso   1.000  O 
  O36      1.0000 0.96935  0.33040  0.42099  Biso   1.000  O 
  O37      1.0000 0.77722  0.13045  0.24691  Biso   1.000  O 
  O38      1.0000 0.79261  0.11696  0.50014  Biso   1.000  O 
  O39      1.0000 0.72273  0.37770  0.01650  Biso   1.000  O 
  O40      1.0000 0.73739  0.38043  0.26570  Biso   1.000  O 
  Hf21     1.0000 0.64206  0.02501  0.64604  Biso   1.000  Hf
  Hf22     1.0000 0.64390  0.23100  0.89854  Biso   1.000  Hf
  Hf23     1.0000 0.87527  0.27347  0.61256  Biso   1.000  Hf
  Hf24     1.0000 0.86684  0.48220  0.85693  Biso   1.000  Hf
  O41      1.0000 0.54582  0.17359  0.57135  Biso   1.000  O 
  O42      1.0000 0.53689  0.09051  0.82390  Biso   1.000  O 
  O43      1.0000 0.97337  0.42097  0.67458  Biso   1.000  O 
  O44      1.0000 0.96845  0.33497  0.92079  Biso   1.000  O 
  O45      1.0000 0.78002  0.13243  0.74473  Biso   1.000  O 
  O46      1.0000 0.77937  0.12380  0.99445  Biso   1.000  O 
  O47      1.0000 0.74251  0.38544  0.52084  Biso   1.000  O 
  O48      1.0000 0.73223  0.37450  0.76598  Biso   1.000  O 
  Hf25     1.0000 0.64042  0.52693  0.14671  Biso   1.000  Hf
  Hf26     1.0000 0.64271  0.72924  0.39588  Biso   1.000  Hf
  Hf27     1.0000 0.86408  0.77070  0.10407  Biso   1.000  Hf
  Hf28     1.0000 0.86684  0.97814  0.35464  Biso   1.000  Hf
  O49      1.0000 0.53671  0.66847  0.07348  Biso   1.000  O 
  O50      1.0000 0.53419  0.59770  0.31897  Biso   1.000  O 
  O51      1.0000 0.96538  0.91717  0.17152  Biso   1.000  O 
  O52      1.0000 0.96819  0.83181  0.42148  Biso   1.000  O 
  O53      1.0000 0.78100  0.63100  0.24142  Biso   1.000  O 
  O54      1.0000 0.77935  0.62431  0.49031  Biso   1.000  O 
  O55      1.0000 0.72629  0.87728  0.00950  Biso   1.000  O 
  O56      1.0000 0.72808  0.87004  0.25903  Biso   1.000  O 
  Hf29     1.0000 0.64260  0.52486  0.64913  Biso   1.000  Hf
  Hf30     1.0000 0.64500  0.73217  0.89393  Biso   1.000  Hf
  Hf31     1.0000 0.86570  0.77473  0.60446  Biso   1.000  Hf
  Hf32     1.0000 0.86954  0.98195  0.85386  Biso   1.000  Hf
  O57      1.0000 0.53883  0.66681  0.57961  Biso   1.000  O 
  O58      1.0000 0.53940  0.58755  0.82854  Biso   1.000  O 
  O59      1.0000 0.97142  0.92065  0.67020  Biso   1.000  O 
  O60      1.0000 0.97354  0.83628  0.91977  Biso   1.000  O 
  O61      1.0000 0.78080  0.63202  0.74039  Biso   1.000  O 
  O62      1.0000 0.78358  0.62522  0.99000  Biso   1.000  O 
  O63      1.0000 0.72727  0.88060  0.50940  Biso   1.000  O 
  O64      1.0000 0.73123  0.87599  0.75939  Biso   1.000  O 
  Sb1      1.0000 0.47266  0.23988  0.30465  Biso   1.000  Sb
