data_image0
_cell_length_a       10.0038
_cell_length_b       10.4606
_cell_length_c       10.0905
_cell_angle_alpha    90
_cell_angle_beta     90
_cell_angle_gamma    90

_symmetry_space_group_name_H-M    "P 1"
_symmetry_int_tables_number       1

loop_
  _symmetry_equiv_pos_as_xyz
  'x, y, z'

loop_
  _atom_site_label
  _atom_site_occupancy
  _atom_site_fract_x
  _atom_site_fract_y
  _atom_site_fract_z
  _atom_site_thermal_displace_type
  _atom_site_B_iso_or_equiv
  _atom_site_type_symbol
  Hf1      1.0000 0.13143  0.01585  0.12150  Biso   1.000  Hf
  Hf2      1.0000 0.12212  0.23996  0.37987  Biso   1.000  Hf
  Hf3      1.0000 0.36387  0.27179  0.11751  Biso   1.000  Hf
  Hf4      1.0000 0.35596  0.48592  0.37610  Biso   1.000  Hf
  O1       1.0000 0.01302  0.18465  0.20504  Biso   1.000  O 
  O2       1.0000 0.03310  0.06274  0.42869  Biso   1.000  O 
  O3       1.0000 0.45977  0.43643  0.20393  Biso   1.000  O 
  O4       1.0000 0.45037  0.31931  0.44711  Biso   1.000  O 
  O5       1.0000 0.25987  0.12332  0.23897  Biso   1.000  O 
  O6       1.0000 0.26230  0.13728  0.48978  Biso   1.000  O 
  O7       1.0000 0.21614  0.38824  0.50208  Biso   1.000  O 
  O8       1.0000 0.21900  0.36910  0.25111  Biso   1.000  O 
  Hf5      1.0000 0.11313  0.00550  0.60793  Biso   1.000  Hf
  Hf6      1.0000 0.12218  0.21035  0.82983  Biso   1.000  Hf
  Hf7      1.0000 0.35583  0.27014  0.62208  Biso   1.000  Hf
  Hf8      1.0000 0.35785  0.49746  0.86778  Biso   1.000  Hf
  O9       1.0000 0.03041  0.17753  0.65385  Biso   1.000  O 
  O10      1.0000 0.01712  0.07073  0.93746  Biso   1.000  O 
  O11      1.0000 0.44757  0.43823  0.68749  Biso   1.000  O 
  O12      1.0000 0.45286  0.32711  0.94118  Biso   1.000  O 
  O13      1.0000 0.26087  0.10673  0.72858  Biso   1.000  O 
  O14      1.0000 0.26645  0.14357  0.98049  Biso   1.000  O 
  O15      1.0000 0.27153  0.42369  0.01783  Biso   1.000  O 
  O16      1.0000 0.21581  0.36780  0.75310  Biso   1.000  O 
  Hf9      1.0000 0.13105  0.53402  0.12962  Biso   1.000  Hf
  Hf10     1.0000 0.12544  0.73969  0.37736  Biso   1.000  Hf
  Hf11     1.0000 0.35939  0.77200  0.12772  Biso   1.000  Hf
  Hf12     1.0000 0.35435  0.99144  0.37147  Biso   1.000  Hf
  O17      1.0000 0.02868  0.69222  0.19999  Biso   1.000  O 
  O18      1.0000 0.02960  0.57702  0.44312  Biso   1.000  O 
  O19      1.0000 0.45588  0.94054  0.19646  Biso   1.000  O 
  O20      1.0000 0.45374  0.82304  0.44546  Biso   1.000  O 
  O21      1.0000 0.26776  0.62602  0.25562  Biso   1.000  O 
  O22      1.0000 0.25839  0.63798  0.50363  Biso   1.000  O 
  O23      1.0000 0.22438  0.88525  0.49332  Biso   1.000  O 
  O24      1.0000 0.21983  0.87320  0.24655  Biso   1.000  O 
  Hf13     1.0000 0.11940  0.52570  0.62426  Biso   1.000  Hf
  Hf14     1.0000 0.10903  0.75010  0.87308  Biso   1.000  Hf
  Hf15     1.0000 0.35459  0.77131  0.62667  Biso   1.000  Hf
  Hf16     1.0000 0.35119  0.99113  0.87364  Biso   1.000  Hf
  O25      1.0000 0.01991  0.69243  0.69493  Biso   1.000  O 
  O26      1.0000 0.01229  0.57459  0.94220  Biso   1.000  O 
  O27      1.0000 0.45465  0.93459  0.69741  Biso   1.000  O 
  O28      1.0000 0.44413  0.82822  0.95065  Biso   1.000  O 
  O29      1.0000 0.25059  0.62412  0.75317  Biso   1.000  O 
  O30      1.0000 0.25585  0.65397  0.00559  Biso   1.000  O 
  O31      1.0000 0.20729  0.90458  0.99654  Biso   1.000  O 
  O32      1.0000 0.21614  0.86913  0.74563  Biso   1.000  O 
  Hf17     1.0000 0.62976  0.01744  0.12872  Biso   1.000  Hf
  Hf18     1.0000 0.62044  0.23590  0.39005  Biso   1.000  Hf
  Hf19     1.0000 0.82305  0.27211  0.15839  Biso   1.000  Hf
  Hf20     1.0000 0.85751  0.48904  0.39312  Biso   1.000  Hf
  O33      1.0000 0.53399  0.19006  0.19473  Biso   1.000  O 
  O34      1.0000 0.52474  0.07071  0.45130  Biso   1.000  O 
  O35      1.0000 0.94729  0.44424  0.21903  Biso   1.000  O 
  O36      1.0000 0.94882  0.31623  0.44641  Biso   1.000  O 
  O37      1.0000 0.75309  0.11714  0.26559  Biso   1.000  O 
  O38      1.0000 0.76279  0.13641  0.50960  Biso   1.000  O 
  O39      1.0000 0.71337  0.38218  0.51163  Biso   1.000  O 
  O40      1.0000 0.70510  0.38276  0.27113  Biso   1.000  O 
  Hf21     1.0000 0.62558  0.02265  0.63046  Biso   1.000  Hf
  Hf22     1.0000 0.61955  0.24276  0.87936  Biso   1.000  Hf
  Hf23     1.0000 0.85545  0.27866  0.63657  Biso   1.000  Hf
  Hf24     1.0000 0.84248  0.49302  0.87280  Biso   1.000  Hf
  O41      1.0000 0.52271  0.18848  0.69666  Biso   1.000  O 
  O42      1.0000 0.52463  0.07454  0.94391  Biso   1.000  O 
  O43      1.0000 0.93286  0.46217  0.65945  Biso   1.000  O 
  O44      1.0000 0.93953  0.31476  0.83859  Biso   1.000  O 
  O45      1.0000 0.75660  0.12533  0.75784  Biso   1.000  O 
  O46      1.0000 0.77344  0.13515  0.01317  Biso   1.000  O 
  O47      1.0000 0.73370  0.38282  0.01040  Biso   1.000  O 
  O48      1.0000 0.70397  0.38185  0.75665  Biso   1.000  O 
  Hf25     1.0000 0.62727  0.52350  0.13584  Biso   1.000  Hf
  Hf26     1.0000 0.62237  0.73873  0.37971  Biso   1.000  Hf
  Hf27     1.0000 0.85735  0.76772  0.13220  Biso   1.000  Hf
  Hf28     1.0000 0.85336  0.98581  0.37944  Biso   1.000  Hf
  O49      1.0000 0.52927  0.68894  0.19797  Biso   1.000  O 
  O50      1.0000 0.52270  0.57229  0.44847  Biso   1.000  O 
  O51      1.0000 0.95456  0.93857  0.19433  Biso   1.000  O 
  O52      1.0000 0.95861  0.82500  0.45677  Biso   1.000  O 
  O53      1.0000 0.76239  0.62475  0.25960  Biso   1.000  O 
  O54      1.0000 0.75474  0.64047  0.50777  Biso   1.000  O 
  O55      1.0000 0.71788  0.88779  0.50462  Biso   1.000  O 
  O56      1.0000 0.72162  0.87101  0.25465  Biso   1.000  O 
  Hf29     1.0000 0.61959  0.52321  0.62821  Biso   1.000  Hf
  Hf30     1.0000 0.61330  0.74455  0.88171  Biso   1.000  Hf
  Hf31     1.0000 0.84987  0.77364  0.63198  Biso   1.000  Hf
  Hf32     1.0000 0.84006  0.99089  0.88234  Biso   1.000  Hf
  O57      1.0000 0.51631  0.68497  0.70485  Biso   1.000  O 
  O58      1.0000 0.51404  0.58118  0.95346  Biso   1.000  O 
  O59      1.0000 0.94848  0.93935  0.70301  Biso   1.000  O 
  O60      1.0000 0.93982  0.82501  0.95066  Biso   1.000  O 
  O61      1.0000 0.75178  0.62857  0.75710  Biso   1.000  O 
  O62      1.0000 0.76758  0.63253  0.00675  Biso   1.000  O 
  O63      1.0000 0.72553  0.88176  0.00591  Biso   1.000  O 
  O64      1.0000 0.71333  0.87477  0.75504  Biso   1.000  O 
  Sb1      1.0000 0.05070  0.30424  0.04155  Biso   1.000  Sb
