data_image0
_cell_length_a       4.98888
_cell_length_b       10.3897
_cell_length_c       10.0244
_cell_angle_alpha    90
_cell_angle_beta     90
_cell_angle_gamma    90

_symmetry_space_group_name_H-M    "P 1"
_symmetry_int_tables_number       1

loop_
  _symmetry_equiv_pos_as_xyz
  'x, y, z'

loop_
  _atom_site_label
  _atom_site_occupancy
  _atom_site_fract_x
  _atom_site_fract_y
  _atom_site_fract_z
  _atom_site_thermal_displace_type
  _atom_site_B_iso_or_equiv
  _atom_site_type_symbol
  Sb1      1.0000 0.25433  0.01849  0.12003  Biso   1.000  Sb
  Hf1      1.0000 0.27342  0.23318  0.37692  Biso   1.000  Hf
  Hf2      1.0000 0.72932  0.26765  0.12606  Biso   1.000  Hf
  Hf3      1.0000 0.73592  0.48300  0.37604  Biso   1.000  Hf
  O1       1.0000 0.07458  0.18628  0.19450  Biso   1.000  O 
  O2       1.0000 0.07562  0.06558  0.44398  Biso   1.000  O 
  O3       1.0000 0.92962  0.43331  0.19489  Biso   1.000  O 
  O4       1.0000 0.93180  0.31574  0.44523  Biso   1.000  O 
  O5       1.0000 0.55322  0.12291  0.25362  Biso   1.000  O 
  O6       1.0000 0.54281  0.13196  0.50133  Biso   1.000  O 
  O7       1.0000 0.46354  0.38201  0.49981  Biso   1.000  O 
  O8       1.0000 0.45894  0.36860  0.24991  Biso   1.000  O 
  Hf4      1.0000 0.26921  0.01565  0.62553  Biso   1.000  Hf
  Hf5      1.0000 0.27252  0.23573  0.87347  Biso   1.000  Hf
  Hf6      1.0000 0.73663  0.26586  0.62528  Biso   1.000  Hf
  Hf7      1.0000 0.73733  0.48310  0.87565  Biso   1.000  Hf
  O9       1.0000 0.07549  0.18385  0.69414  Biso   1.000  O 
  O10      1.0000 0.07153  0.06709  0.94101  Biso   1.000  O 
  O11      1.0000 0.93371  0.43320  0.69518  Biso   1.000  O 
  O12      1.0000 0.93296  0.31590  0.94414  Biso   1.000  O 
  O13      1.0000 0.54261  0.11665  0.74912  Biso   1.000  O 
  O14      1.0000 0.54544  0.13329  0.99738  Biso   1.000  O 
  O15      1.0000 0.46391  0.38235  0.99936  Biso   1.000  O 
  O16      1.0000 0.46477  0.36727  0.74899  Biso   1.000  O 
  Hf8      1.0000 0.26910  0.51632  0.12672  Biso   1.000  Hf
  Hf9      1.0000 0.27296  0.73329  0.37687  Biso   1.000  Hf
  Hf10     1.0000 0.73464  0.76324  0.12563  Biso   1.000  Hf
  Hf11     1.0000 0.73439  0.98353  0.37688  Biso   1.000  Hf
  O17      1.0000 0.07623  0.68413  0.19568  Biso   1.000  O 
  O18      1.0000 0.07597  0.56492  0.44483  Biso   1.000  O 
  O19      1.0000 0.92252  0.93313  0.19378  Biso   1.000  O 
  O20      1.0000 0.93590  0.81634  0.44709  Biso   1.000  O 
  O21      1.0000 0.54396  0.61485  0.24938  Biso   1.000  O 
  O22      1.0000 0.54539  0.63215  0.49966  Biso   1.000  O 
  O23      1.0000 0.46443  0.88233  0.50119  Biso   1.000  O 
  O24      1.0000 0.47764  0.86115  0.25449  Biso   1.000  O 
  Hf12     1.0000 0.27145  0.51603  0.62521  Biso   1.000  Hf
  Hf13     1.0000 0.27136  0.73152  0.87547  Biso   1.000  Hf
  Hf14     1.0000 0.73679  0.76587  0.62551  Biso   1.000  Hf
  Hf15     1.0000 0.73320  0.98143  0.87405  Biso   1.000  Hf
  O25      1.0000 0.07554  0.68287  0.69492  Biso   1.000  O 
  O26      1.0000 0.07488  0.56581  0.94585  Biso   1.000  O 
  O27      1.0000 0.93136  0.93349  0.69476  Biso   1.000  O 
  O28      1.0000 0.93484  0.81629  0.94474  Biso   1.000  O 
  O29      1.0000 0.54460  0.61639  0.74935  Biso   1.000  O 
  O30      1.0000 0.54506  0.63076  0.99921  Biso   1.000  O 
  O31      1.0000 0.46654  0.87870  0.99840  Biso   1.000  O 
  O32      1.0000 0.46241  0.86632  0.74953  Biso   1.000  O 
