data_image0
_cell_length_a       10.1337
_cell_length_b       5.14103
_cell_length_c       10.4809
_cell_angle_alpha    90
_cell_angle_beta     80
_cell_angle_gamma    90

_symmetry_space_group_name_H-M    "P 1"
_symmetry_int_tables_number       1

loop_
  _symmetry_equiv_pos_as_xyz
  'x, y, z'

loop_
  _atom_site_label
  _atom_site_occupancy
  _atom_site_fract_x
  _atom_site_fract_y
  _atom_site_fract_z
  _atom_site_thermal_displace_type
  _atom_site_B_iso_or_equiv
  _atom_site_type_symbol
  Sb1      1.0000 0.12890  0.03774  0.15046  Biso   1.000  Sb
  Hf1      1.0000 0.13594  0.45739  0.39770  Biso   1.000  Hf
  Hf2      1.0000 0.36121  0.54122  0.10294  Biso   1.000  Hf
  Hf3      1.0000 0.35931  0.95617  0.35419  Biso   1.000  Hf
  O1       1.0000 0.03597  0.34138  0.07801  Biso   1.000  O 
  O2       1.0000 0.02942  0.16409  0.33086  Biso   1.000  O 
  O3       1.0000 0.46357  0.83694  0.17114  Biso   1.000  O 
  O4       1.0000 0.46170  0.66253  0.42181  Biso   1.000  O 
  O5       1.0000 0.27540  0.26208  0.24289  Biso   1.000  O 
  O6       1.0000 0.27232  0.24049  0.49103  Biso   1.000  O 
  O7       1.0000 0.22842  0.75398  0.00492  Biso   1.000  O 
  O8       1.0000 0.22288  0.73682  0.26052  Biso   1.000  O 
  Hf4      1.0000 0.13357  0.04142  0.64642  Biso   1.000  Hf
  Hf5      1.0000 0.13356  0.45673  0.89478  Biso   1.000  Hf
  Hf6      1.0000 0.35677  0.54250  0.60473  Biso   1.000  Hf
  Hf7      1.0000 0.35578  0.95782  0.85486  Biso   1.000  Hf
  O9       1.0000 0.03031  0.33489  0.58003  Biso   1.000  O 
  O10      1.0000 0.02933  0.16083  0.83015  Biso   1.000  O 
  O11      1.0000 0.46042  0.83533  0.67166  Biso   1.000  O 
  O12      1.0000 0.46139  0.66904  0.92248  Biso   1.000  O 
  O13      1.0000 0.27034  0.25713  0.73906  Biso   1.000  O 
  O14      1.0000 0.27323  0.25083  0.98535  Biso   1.000  O 
  O15      1.0000 0.21978  0.75685  0.50989  Biso   1.000  O 
  O16      1.0000 0.21865  0.74167  0.75908  Biso   1.000  O 
  Hf8      1.0000 0.63643  0.04107  0.14587  Biso   1.000  Hf
  Hf9      1.0000 0.63434  0.45499  0.39695  Biso   1.000  Hf
  Hf10     1.0000 0.85812  0.53777  0.10365  Biso   1.000  Hf
  Hf11     1.0000 0.85356  0.95471  0.35808  Biso   1.000  Hf
  O17      1.0000 0.53646  0.33707  0.07909  Biso   1.000  O 
  O18      1.0000 0.53285  0.16074  0.33019  Biso   1.000  O 
  O19      1.0000 0.95568  0.83936  0.17258  Biso   1.000  O 
  O20      1.0000 0.96103  0.66495  0.42192  Biso   1.000  O 
  O21      1.0000 0.77321  0.25630  0.24118  Biso   1.000  O 
  O22      1.0000 0.77166  0.24114  0.49189  Biso   1.000  O 
  O23      1.0000 0.72491  0.75761  0.01012  Biso   1.000  O 
  O24      1.0000 0.72069  0.73935  0.26119  Biso   1.000  O 
  Hf12     1.0000 0.63298  0.04251  0.64792  Biso   1.000  Hf
  Hf13     1.0000 0.63184  0.45706  0.89682  Biso   1.000  Hf
  Hf14     1.0000 0.85669  0.54218  0.60572  Biso   1.000  Hf
  Hf15     1.0000 0.85629  0.95548  0.85559  Biso   1.000  Hf
  O25      1.0000 0.53050  0.33512  0.58018  Biso   1.000  O 
  O26      1.0000 0.52922  0.16469  0.82970  Biso   1.000  O 
  O27      1.0000 0.96024  0.83427  0.67217  Biso   1.000  O 
  O28      1.0000 0.95770  0.66195  0.92367  Biso   1.000  O 
  O29      1.0000 0.77114  0.25738  0.74139  Biso   1.000  O 
  O30      1.0000 0.76837  0.23966  0.99176  Biso   1.000  O 
  O31      1.0000 0.71875  0.75613  0.51158  Biso   1.000  O 
  O32      1.0000 0.71901  0.74165  0.76109  Biso   1.000  O 
