data_image0
_cell_length_a       5.05319
_cell_length_b       10.4189
_cell_length_c       10.2392
_cell_angle_alpha    90
_cell_angle_beta     90
_cell_angle_gamma    90

_symmetry_space_group_name_H-M    "P 1"
_symmetry_int_tables_number       1

loop_
  _symmetry_equiv_pos_as_xyz
  'x, y, z'

loop_
  _atom_site_label
  _atom_site_occupancy
  _atom_site_fract_x
  _atom_site_fract_y
  _atom_site_fract_z
  _atom_site_thermal_displace_type
  _atom_site_B_iso_or_equiv
  _atom_site_type_symbol
  Hf1      1.0000 0.19692  0.99702  0.10119  Biso   1.000  Hf
  Hf2      1.0000 0.17937  0.24583  0.40535  Biso   1.000  Hf
  Hf3      1.0000 0.56631  0.26980  0.15679  Biso   1.000  Hf
  Hf4      1.0000 0.65554  0.50624  0.38521  Biso   1.000  Hf
  O1       1.0000 0.85685  0.19351  0.27550  Biso   1.000  O 
  O2       1.0000 0.02373  0.07384  0.46193  Biso   1.000  O 
  O3       1.0000 0.81773  0.45511  0.21222  Biso   1.000  O 
  O4       1.0000 0.87699  0.35299  0.46576  Biso   1.000  O 
  O5       1.0000 0.38333  0.11787  0.25541  Biso   1.000  O 
  O6       1.0000 0.50237  0.15743  0.49949  Biso   1.000  O 
  O7       1.0000 0.39594  0.40397  0.50537  Biso   1.000  O 
  O8       1.0000 0.33437  0.38562  0.26829  Biso   1.000  O 
  Hf5      1.0000 0.23948  0.03078  0.62310  Biso   1.000  Hf
  Hf6      1.0000 0.24285  0.24801  0.85197  Biso   1.000  Hf
  Hf7      1.0000 0.68962  0.29248  0.62963  Biso   1.000  Hf
  Hf8      1.0000 0.63076  0.51103  0.86457  Biso   1.000  Hf
  O9       1.0000 0.05348  0.20720  0.66766  Biso   1.000  O 
  O10      1.0000 0.02942  0.08243  0.91083  Biso   1.000  O 
  O11      1.0000 0.83578  0.47245  0.68576  Biso   1.000  O 
  O12      1.0000 0.87439  0.33356  0.87064  Biso   1.000  O 
  O13      1.0000 0.51038  0.13676  0.74636  Biso   1.000  O 
  O14      1.0000 0.58255  0.11537  0.00544  Biso   1.000  O 
  O15      1.0000 0.38853  0.40698  0.98508  Biso   1.000  O 
  O16      1.0000 0.38858  0.39184  0.74050  Biso   1.000  O 
  Hf9      1.0000 0.17730  0.53231  0.14113  Biso   1.000  Hf
  Hf10     1.0000 0.18384  0.75839  0.37874  Biso   1.000  Hf
  Hf11     1.0000 0.65904  0.76673  0.12972  Biso   1.000  Hf
  Hf12     1.0000 0.70937  0.01575  0.35821  Biso   1.000  Hf
  O17      1.0000 0.99673  0.69524  0.20229  Biso   1.000  O 
  O18      1.0000 0.98644  0.59539  0.44851  Biso   1.000  O 
  O19      1.0000 0.84782  0.94970  0.18466  Biso   1.000  O 
  O20      1.0000 0.83535  0.83869  0.43927  Biso   1.000  O 
  O21      1.0000 0.45525  0.63400  0.25870  Biso   1.000  O 
  O22      1.0000 0.44631  0.65746  0.50321  Biso   1.000  O 
  O23      1.0000 0.36970  0.90818  0.49248  Biso   1.000  O 
  O24      1.0000 0.38918  0.87546  0.24135  Biso   1.000  O 
  Hf13     1.0000 0.18273  0.53785  0.62058  Biso   1.000  Hf
  Hf14     1.0000 0.14436  0.75781  0.87220  Biso   1.000  Hf
  Hf15     1.0000 0.64468  0.79217  0.61784  Biso   1.000  Hf
  Hf16     1.0000 0.61298  0.99943  0.87043  Biso   1.000  Hf
  O25      1.0000 0.96620  0.70690  0.69661  Biso   1.000  O 
  O26      1.0000 0.93592  0.59638  0.95317  Biso   1.000  O 
  O27      1.0000 0.83087  0.95145  0.69793  Biso   1.000  O 
  O28      1.0000 0.81364  0.84462  0.95642  Biso   1.000  O 
  O29      1.0000 0.42816  0.64040  0.75345  Biso   1.000  O 
  O30      1.0000 0.48834  0.62929  0.00912  Biso   1.000  O 
  O31      1.0000 0.32688  0.90646  0.98952  Biso   1.000  O 
  O32      1.0000 0.36278  0.88493  0.74480  Biso   1.000  O 
  Sb1      1.0000 0.03457  0.26181  0.06618  Biso   1.000  Sb
