data_image0
_cell_length_a       10.0746
_cell_length_b       10.3061
_cell_length_c       10.5041
_cell_angle_alpha    90
_cell_angle_beta     90
_cell_angle_gamma    90

_symmetry_space_group_name_H-M    "P 1"
_symmetry_int_tables_number       1

loop_
  _symmetry_equiv_pos_as_xyz
  'x, y, z'

loop_
  _atom_site_label
  _atom_site_occupancy
  _atom_site_fract_x
  _atom_site_fract_y
  _atom_site_fract_z
  _atom_site_thermal_displace_type
  _atom_site_B_iso_or_equiv
  _atom_site_type_symbol
  Hf1      1.0000 0.12912  0.01647  0.17424  Biso   1.000  Hf
  Hf2      1.0000 0.12677  0.22521  0.42965  Biso   1.000  Hf
  Hf3      1.0000 0.32865  0.26057  0.19039  Biso   1.000  Hf
  Hf4      1.0000 0.35537  0.47595  0.42239  Biso   1.000  Hf
  Hf5      1.0000 0.64264  0.00900  0.07927  Biso   1.000  Hf
  Hf6      1.0000 0.62846  0.22340  0.32580  Biso   1.000  Hf
  Hf7      1.0000 0.85792  0.27148  0.07563  Biso   1.000  Hf
  Hf8      1.0000 0.85632  0.47686  0.32793  Biso   1.000  Hf
  O1       1.0000 0.03040  0.16795  0.08746  Biso   1.000  O 
  O2       1.0000 0.02264  0.08279  0.33651  Biso   1.000  O 
  O3       1.0000 0.46932  0.45010  0.09108  Biso   1.000  O 
  O4       1.0000 0.45653  0.33087  0.32734  Biso   1.000  O 
  O5       1.0000 0.25980  0.11922  0.30549  Biso   1.000  O 
  O6       1.0000 0.26441  0.11365  0.05181  Biso   1.000  O 
  O7       1.0000 0.20772  0.37544  0.30588  Biso   1.000  O 
  O8       1.0000 0.22170  0.37747  0.05302  Biso   1.000  O 
  O9       1.0000 0.50976  0.11315  0.19573  Biso   1.000  O 
  O10      1.0000 0.51970  0.09208  0.43070  Biso   1.000  O 
  O11      1.0000 0.96238  0.41602  0.16650  Biso   1.000  O 
  O12      1.0000 0.95926  0.33327  0.41815  Biso   1.000  O 
  O13      1.0000 0.76547  0.12243  0.45227  Biso   1.000  O 
  O14      1.0000 0.76979  0.12583  0.20342  Biso   1.000  O 
  O15      1.0000 0.71584  0.37179  0.45249  Biso   1.000  O 
  O16      1.0000 0.71953  0.38026  0.20462  Biso   1.000  O 
  Hf9      1.0000 0.12828  0.01888  0.67490  Biso   1.000  Hf
  Hf10     1.0000 0.12298  0.22557  0.92591  Biso   1.000  Hf
  Hf11     1.0000 0.35213  0.26931  0.67527  Biso   1.000  Hf
  Hf12     1.0000 0.34582  0.48439  0.92340  Biso   1.000  Hf
  Hf13     1.0000 0.62916  0.01913  0.57885  Biso   1.000  Hf
  Hf14     1.0000 0.63902  0.22938  0.81623  Biso   1.000  Hf
  Hf15     1.0000 0.85223  0.27030  0.57559  Biso   1.000  Hf
  Hf16     1.0000 0.85437  0.47941  0.82603  Biso   1.000  Hf
  O17      1.0000 0.02134  0.16219  0.58635  Biso   1.000  O 
  O18      1.0000 0.02210  0.08002  0.83521  Biso   1.000  O 
  O19      1.0000 0.46220  0.40716  0.57679  Biso   1.000  O 
  O20      1.0000 0.46666  0.34863  0.82158  Biso   1.000  O 
  O21      1.0000 0.26489  0.12307  0.79974  Biso   1.000  O 
  O22      1.0000 0.26541  0.12235  0.55088  Biso   1.000  O 
  O23      1.0000 0.21600  0.37163  0.80043  Biso   1.000  O 
  O24      1.0000 0.21727  0.37244  0.55053  Biso   1.000  O 
  O25      1.0000 0.52206  0.15893  0.67358  Biso   1.000  O 
  O26      1.0000 0.51570  0.07009  0.91491  Biso   1.000  O 
  O27      1.0000 0.95996  0.41296  0.66529  Biso   1.000  O 
  O28      1.0000 0.95325  0.32901  0.91442  Biso   1.000  O 
  O29      1.0000 0.76522  0.11804  0.94804  Biso   1.000  O 
  O30      1.0000 0.77020  0.12196  0.69917  Biso   1.000  O 
  O31      1.0000 0.72166  0.38749  0.94913  Biso   1.000  O 
  O32      1.0000 0.71871  0.37338  0.70052  Biso   1.000  O 
  Hf17     1.0000 0.13443  0.52144  0.17262  Biso   1.000  Hf
  Hf18     1.0000 0.13366  0.72653  0.42151  Biso   1.000  Hf
  Hf19     1.0000 0.36197  0.77030  0.17375  Biso   1.000  Hf
  Hf20     1.0000 0.35863  0.97601  0.42599  Biso   1.000  Hf
  Hf21     1.0000 0.64872  0.53462  0.07663  Biso   1.000  Hf
  Hf22     1.0000 0.63595  0.72866  0.33015  Biso   1.000  Hf
  Hf23     1.0000 0.86633  0.77053  0.07855  Biso   1.000  Hf
  Hf24     1.0000 0.85756  0.97828  0.33094  Biso   1.000  Hf
  O33      1.0000 0.03582  0.66600  0.08314  Biso   1.000  O 
  O34      1.0000 0.02771  0.58432  0.33384  Biso   1.000  O 
  O35      1.0000 0.47329  0.90096  0.07544  Biso   1.000  O 
  O36      1.0000 0.46588  0.83652  0.33461  Biso   1.000  O 
  O37      1.0000 0.27267  0.62212  0.29421  Biso   1.000  O 
  O38      1.0000 0.27689  0.62667  0.04451  Biso   1.000  O 
  O39      1.0000 0.22166  0.87151  0.29722  Biso   1.000  O 
  O40      1.0000 0.22575  0.87225  0.04893  Biso   1.000  O 
  O41      1.0000 0.53862  0.67300  0.16826  Biso   1.000  O 
  O42      1.0000 0.52600  0.58340  0.41493  Biso   1.000  O 
  O43      1.0000 0.96322  0.91696  0.16666  Biso   1.000  O 
  O44      1.0000 0.96196  0.83216  0.41669  Biso   1.000  O 
  O45      1.0000 0.76982  0.62184  0.45428  Biso   1.000  O 
  O46      1.0000 0.77993  0.62939  0.20528  Biso   1.000  O 
  O47      1.0000 0.71993  0.87369  0.45654  Biso   1.000  O 
  O48      1.0000 0.72568  0.87292  0.20738  Biso   1.000  O 
  Hf25     1.0000 0.13066  0.51778  0.67153  Biso   1.000  Hf
  Hf26     1.0000 0.12507  0.72705  0.92174  Biso   1.000  Hf
  Hf27     1.0000 0.35330  0.76805  0.67088  Biso   1.000  Hf
  Hf28     1.0000 0.34545  0.96983  0.92401  Biso   1.000  Hf
  Hf29     1.0000 0.63026  0.51867  0.57470  Biso   1.000  Hf
  Hf30     1.0000 0.62780  0.72745  0.82425  Biso   1.000  Hf
  Hf31     1.0000 0.85621  0.76890  0.57867  Biso   1.000  Hf
  Hf32     1.0000 0.85389  0.97546  0.82840  Biso   1.000  Hf
  O49      1.0000 0.02724  0.66321  0.58413  Biso   1.000  O 
  O50      1.0000 0.02528  0.58090  0.83422  Biso   1.000  O 
  O51      1.0000 0.46341  0.90970  0.58300  Biso   1.000  O 
  O52      1.0000 0.45593  0.83247  0.82817  Biso   1.000  O 
  O53      1.0000 0.26566  0.62311  0.79428  Biso   1.000  O 
  O54      1.0000 0.26851  0.62142  0.54417  Biso   1.000  O 
  O55      1.0000 0.21268  0.87018  0.79653  Biso   1.000  O 
  O56      1.0000 0.21892  0.87341  0.54660  Biso   1.000  O 
  O57      1.0000 0.52316  0.66064  0.66390  Biso   1.000  O 
  O58      1.0000 0.51958  0.58912  0.91438  Biso   1.000  O 
  O59      1.0000 0.96154  0.91222  0.66654  Biso   1.000  O 
  O60      1.0000 0.95528  0.83208  0.91782  Biso   1.000  O 
  O61      1.0000 0.76494  0.62799  0.95085  Biso   1.000  O 
  O62      1.0000 0.76681  0.62337  0.70222  Biso   1.000  O 
  O63      1.0000 0.71272  0.87024  0.95463  Biso   1.000  O 
  O64      1.0000 0.71810  0.87322  0.70521  Biso   1.000  O 
  Sb1      1.0000 0.52262  0.25776  0.03256  Biso   1.000  Sb
