data_image0
_cell_length_a       9.9665
_cell_length_b       10.3779
_cell_length_c       10.0075
_cell_angle_alpha    90
_cell_angle_beta     90
_cell_angle_gamma    90

_symmetry_space_group_name_H-M    "P 1"
_symmetry_int_tables_number       1

loop_
  _symmetry_equiv_pos_as_xyz
  'x, y, z'

loop_
  _atom_site_label
  _atom_site_occupancy
  _atom_site_fract_x
  _atom_site_fract_y
  _atom_site_fract_z
  _atom_site_thermal_displace_type
  _atom_site_B_iso_or_equiv
  _atom_site_type_symbol
  Sb1      1.0000 0.12677  0.01887  0.11941  Biso   1.000  Sb
  Hf1      1.0000 0.13675  0.23331  0.37718  Biso   1.000  Hf
  Hf2      1.0000 0.36664  0.26696  0.12707  Biso   1.000  Hf
  Hf3      1.0000 0.36679  0.48343  0.37628  Biso   1.000  Hf
  O1       1.0000 0.03666  0.18700  0.19397  Biso   1.000  O 
  O2       1.0000 0.03743  0.06526  0.44346  Biso   1.000  O 
  O3       1.0000 0.46448  0.43406  0.19490  Biso   1.000  O 
  O4       1.0000 0.46442  0.31532  0.44449  Biso   1.000  O 
  O5       1.0000 0.27707  0.12284  0.25372  Biso   1.000  O 
  O6       1.0000 0.27106  0.13161  0.50176  Biso   1.000  O 
  O7       1.0000 0.23061  0.38189  0.50015  Biso   1.000  O 
  O8       1.0000 0.22925  0.36864  0.25009  Biso   1.000  O 
  Hf4      1.0000 0.13478  0.01599  0.62664  Biso   1.000  Hf
  Hf5      1.0000 0.13555  0.23618  0.87395  Biso   1.000  Hf
  Hf6      1.0000 0.36747  0.26600  0.62603  Biso   1.000  Hf
  Hf7      1.0000 0.36764  0.48346  0.87620  Biso   1.000  Hf
  O9       1.0000 0.03749  0.18459  0.69359  Biso   1.000  O 
  O10      1.0000 0.03565  0.06652  0.93968  Biso   1.000  O 
  O11      1.0000 0.46510  0.43389  0.69440  Biso   1.000  O 
  O12      1.0000 0.46484  0.31521  0.94357  Biso   1.000  O 
  O13      1.0000 0.27165  0.11771  0.75019  Biso   1.000  O 
  O14      1.0000 0.27148  0.13363  0.99835  Biso   1.000  O 
  O15      1.0000 0.23098  0.38259  0.99970  Biso   1.000  O 
  O16      1.0000 0.23102  0.36806  0.74930  Biso   1.000  O 
  Hf8      1.0000 0.13427  0.51642  0.12634  Biso   1.000  Hf
  Hf9      1.0000 0.13578  0.73313  0.37674  Biso   1.000  Hf
  Hf10     1.0000 0.36743  0.76512  0.12670  Biso   1.000  Hf
  Hf11     1.0000 0.36655  0.98267  0.37557  Biso   1.000  Hf
  O17      1.0000 0.03732  0.68531  0.19417  Biso   1.000  O 
  O18      1.0000 0.03747  0.56480  0.44447  Biso   1.000  O 
  O19      1.0000 0.46578  0.93407  0.19401  Biso   1.000  O 
  O20      1.0000 0.46660  0.81600  0.44697  Biso   1.000  O 
  O21      1.0000 0.27105  0.61541  0.24981  Biso   1.000  O 
  O22      1.0000 0.27217  0.63201  0.50023  Biso   1.000  O 
  O23      1.0000 0.23055  0.88199  0.50150  Biso   1.000  O 
  O24      1.0000 0.23754  0.86124  0.25486  Biso   1.000  O 
  Hf12     1.0000 0.13500  0.51640  0.62577  Biso   1.000  Hf
  Hf13     1.0000 0.13514  0.73246  0.87612  Biso   1.000  Hf
  Hf14     1.0000 0.36706  0.76638  0.62654  Biso   1.000  Hf
  Hf15     1.0000 0.36852  0.98334  0.87581  Biso   1.000  Hf
  O25      1.0000 0.03764  0.68401  0.69387  Biso   1.000  O 
  O26      1.0000 0.03692  0.56555  0.94438  Biso   1.000  O 
  O27      1.0000 0.46493  0.93412  0.69482  Biso   1.000  O 
  O28      1.0000 0.46497  0.81518  0.94366  Biso   1.000  O 
  O29      1.0000 0.27149  0.61719  0.75006  Biso   1.000  O 
  O30      1.0000 0.27068  0.63195  0.00005  Biso   1.000  O 
  O31      1.0000 0.23231  0.87940  0.99930  Biso   1.000  O 
  O32      1.0000 0.23045  0.86751  0.75051  Biso   1.000  O 
  Hf16     1.0000 0.63455  0.01629  0.12652  Biso   1.000  Hf
  Hf17     1.0000 0.63432  0.23325  0.37571  Biso   1.000  Hf
  Hf18     1.0000 0.86408  0.26732  0.12557  Biso   1.000  Hf
  Hf19     1.0000 0.86727  0.48302  0.37618  Biso   1.000  Hf
  O33      1.0000 0.53888  0.18532  0.19245  Biso   1.000  O 
  O34      1.0000 0.53735  0.06545  0.44367  Biso   1.000  O 
  O35      1.0000 0.96355  0.43416  0.19396  Biso   1.000  O 
  O36      1.0000 0.96476  0.31532  0.44408  Biso   1.000  O 
  O37      1.0000 0.77111  0.11805  0.25038  Biso   1.000  O 
  O38      1.0000 0.77117  0.13223  0.49985  Biso   1.000  O 
  O39      1.0000 0.73053  0.38198  0.49985  Biso   1.000  O 
  O40      1.0000 0.72957  0.36807  0.25015  Biso   1.000  O 
  Hf20     1.0000 0.63391  0.01603  0.62515  Biso   1.000  Hf
  Hf21     1.0000 0.63490  0.23282  0.87591  Biso   1.000  Hf
  Hf22     1.0000 0.86692  0.26610  0.62550  Biso   1.000  Hf
  Hf23     1.0000 0.86711  0.48292  0.87564  Biso   1.000  Hf
  O41      1.0000 0.53732  0.18383  0.69424  Biso   1.000  O 
  O42      1.0000 0.53799  0.06502  0.94408  Biso   1.000  O 
  O43      1.0000 0.96517  0.43371  0.69452  Biso   1.000  O 
  O44      1.0000 0.96489  0.31559  0.94430  Biso   1.000  O 
  O45      1.0000 0.77088  0.11679  0.74917  Biso   1.000  O 
  O46      1.0000 0.77232  0.13125  0.99946  Biso   1.000  O 
  O47      1.0000 0.73046  0.38156  0.99992  Biso   1.000  O 
  O48      1.0000 0.73071  0.36690  0.74986  Biso   1.000  O 
  Hf24     1.0000 0.63438  0.51631  0.12675  Biso   1.000  Hf
  Hf25     1.0000 0.63513  0.73348  0.37657  Biso   1.000  Hf
  Hf26     1.0000 0.86585  0.76433  0.12535  Biso   1.000  Hf
  Hf27     1.0000 0.86668  0.98409  0.37744  Biso   1.000  Hf
  O49      1.0000 0.53763  0.68377  0.19550  Biso   1.000  O 
  O50      1.0000 0.53753  0.56527  0.44434  Biso   1.000  O 
  O51      1.0000 0.95757  0.93521  0.19157  Biso   1.000  O 
  O52      1.0000 0.96500  0.81575  0.44374  Biso   1.000  O 
  O53      1.0000 0.77166  0.61702  0.24980  Biso   1.000  O 
  O54      1.0000 0.77169  0.63209  0.49971  Biso   1.000  O 
  O55      1.0000 0.73113  0.88224  0.50024  Biso   1.000  O 
  O56      1.0000 0.73089  0.86710  0.25031  Biso   1.000  O 
  Hf28     1.0000 0.63500  0.51596  0.62575  Biso   1.000  Hf
  Hf29     1.0000 0.63466  0.73240  0.87577  Biso   1.000  Hf
  Hf30     1.0000 0.86755  0.76591  0.62534  Biso   1.000  Hf
  Hf31     1.0000 0.86422  0.98143  0.87462  Biso   1.000  Hf
  O57      1.0000 0.53716  0.68334  0.69482  Biso   1.000  O 
  O58      1.0000 0.53734  0.56529  0.94545  Biso   1.000  O 
  O59      1.0000 0.96419  0.93398  0.69365  Biso   1.000  O 
  O60      1.0000 0.96519  0.81600  0.94433  Biso   1.000  O 
  O61      1.0000 0.77180  0.61696  0.74951  Biso   1.000  O 
  O62      1.0000 0.77152  0.63112  0.99940  Biso   1.000  O 
  O63      1.0000 0.72968  0.88063  0.99964  Biso   1.000  O 
  O64      1.0000 0.73023  0.86664  0.74948  Biso   1.000  O 
