data_image0
_cell_length_a       10.0979
_cell_length_b       5.23164
_cell_length_c       10.307
_cell_angle_alpha    90
_cell_angle_beta     90
_cell_angle_gamma    90

_symmetry_space_group_name_H-M    "P 1"
_symmetry_int_tables_number       1

loop_
  _symmetry_equiv_pos_as_xyz
  'x, y, z'

loop_
  _atom_site_label
  _atom_site_occupancy
  _atom_site_fract_x
  _atom_site_fract_y
  _atom_site_fract_z
  _atom_site_thermal_displace_type
  _atom_site_B_iso_or_equiv
  _atom_site_type_symbol
  Hf1      1.0000 0.16087  0.11918  0.09199  Biso   1.000  Hf
  Hf2      1.0000 0.07412  0.38340  0.37571  Biso   1.000  Hf
  Hf3      1.0000 0.37698  0.55955  0.12289  Biso   1.000  Hf
  Hf4      1.0000 0.34120  0.92233  0.37160  Biso   1.000  Hf
  O1       1.0000 0.00303  0.21006  0.20928  Biso   1.000  O 
  O2       1.0000 0.98157  0.05271  0.44051  Biso   1.000  O 
  O3       1.0000 0.47706  0.85551  0.21385  Biso   1.000  O 
  O4       1.0000 0.43524  0.58943  0.43486  Biso   1.000  O 
  O5       1.0000 0.26228  0.29343  0.24403  Biso   1.000  O 
  O6       1.0000 0.21368  0.18452  0.48849  Biso   1.000  O 
  O7       1.0000 0.19798  0.68817  0.47062  Biso   1.000  O 
  O8       1.0000 0.23483  0.80041  0.21326  Biso   1.000  O 
  Hf5      1.0000 0.07356  0.93048  0.60627  Biso   1.000  Hf
  Hf6      1.0000 0.09739  0.35857  0.83673  Biso   1.000  Hf
  Hf7      1.0000 0.33681  0.43790  0.59425  Biso   1.000  Hf
  Hf8      1.0000 0.32711  0.85505  0.85099  Biso   1.000  Hf
  O9       1.0000 0.99683  0.27087  0.66812  Biso   1.000  O 
  O10      1.0000 0.98419  0.04128  0.90252  Biso   1.000  O 
  O11      1.0000 0.42927  0.76815  0.68172  Biso   1.000  O 
  O12      1.0000 0.42920  0.56351  0.96829  Biso   1.000  O 
  O13      1.0000 0.21546  0.11289  0.72895  Biso   1.000  O 
  O14      1.0000 0.22258  0.15651  0.97568  Biso   1.000  O 
  O15      1.0000 0.18735  0.66295  0.96393  Biso   1.000  O 
  O16      1.0000 0.19722  0.61826  0.71785  Biso   1.000  O 
  Hf9      1.0000 0.63038  0.97978  0.10825  Biso   1.000  Hf
  Hf10     1.0000 0.59892  0.38715  0.38547  Biso   1.000  Hf
  Hf11     1.0000 0.82871  0.41595  0.17278  Biso   1.000  Hf
  Hf12     1.0000 0.83420  0.86228  0.40862  Biso   1.000  Hf
  O17      1.0000 0.53106  0.33710  0.18848  Biso   1.000  O 
  O18      1.0000 0.47075  0.10613  0.47013  Biso   1.000  O 
  O19      1.0000 0.96510  0.67196  0.26307  Biso   1.000  O 
  O20      1.0000 0.92163  0.53163  0.47550  Biso   1.000  O 
  O21      1.0000 0.73243  0.11607  0.26555  Biso   1.000  O 
  O22      1.0000 0.71815  0.17632  0.51508  Biso   1.000  O 
  O23      1.0000 0.68484  0.67225  0.52209  Biso   1.000  O 
  O24      1.0000 0.71440  0.63792  0.28528  Biso   1.000  O 
  Hf13     1.0000 0.57537  0.95633  0.63746  Biso   1.000  Hf
  Hf14     1.0000 0.58256  0.35322  0.88642  Biso   1.000  Hf
  Hf15     1.0000 0.82179  0.45140  0.64813  Biso   1.000  Hf
  Hf16     1.0000 0.83399  0.87632  0.86395  Biso   1.000  Hf
  O25      1.0000 0.47750  0.28341  0.71038  Biso   1.000  O 
  O26      1.0000 0.46618  0.02823  0.93067  Biso   1.000  O 
  O27      1.0000 0.91144  0.81596  0.66797  Biso   1.000  O 
  O28      1.0000 0.91013  0.51807  0.85173  Biso   1.000  O 
  O29      1.0000 0.71461  0.16108  0.75899  Biso   1.000  O 
  O30      1.0000 0.78489  0.21597  0.00913  Biso   1.000  O 
  O31      1.0000 0.76535  0.70360  0.04006  Biso   1.000  O 
  O32      1.0000 0.67688  0.66534  0.77173  Biso   1.000  O 
  Sb1      1.0000 0.04344  0.67486  0.07471  Biso   1.000  Sb
