data_image0
_cell_length_a       10.1168
_cell_length_b       5.15631
_cell_length_c       10.6582
_cell_angle_alpha    90
_cell_angle_beta     90
_cell_angle_gamma    90

_symmetry_space_group_name_H-M    "P 1"
_symmetry_int_tables_number       1

loop_
  _symmetry_equiv_pos_as_xyz
  'x, y, z'

loop_
  _atom_site_label
  _atom_site_occupancy
  _atom_site_fract_x
  _atom_site_fract_y
  _atom_site_fract_z
  _atom_site_thermal_displace_type
  _atom_site_B_iso_or_equiv
  _atom_site_type_symbol
  Hf1      1.0000 0.12315  0.03672  0.17663  Biso   1.000  Hf
  Hf2      1.0000 0.11919  0.45603  0.42795  Biso   1.000  Hf
  Hf3      1.0000 0.33836  0.53384  0.19640  Biso   1.000  Hf
  Hf4      1.0000 0.34711  0.95969  0.43023  Biso   1.000  Hf
  Hf5      1.0000 0.64965  0.04065  0.07398  Biso   1.000  Hf
  Hf6      1.0000 0.62542  0.46313  0.33085  Biso   1.000  Hf
  Hf7      1.0000 0.85966  0.54076  0.07595  Biso   1.000  Hf
  Hf8      1.0000 0.84832  0.96118  0.32900  Biso   1.000  Hf
  O1       1.0000 0.02687  0.32750  0.08426  Biso   1.000  O 
  O2       1.0000 0.01403  0.17816  0.33418  Biso   1.000  O 
  O3       1.0000 0.47075  0.86758  0.09642  Biso   1.000  O 
  O4       1.0000 0.45539  0.68751  0.33450  Biso   1.000  O 
  O5       1.0000 0.25463  0.24832  0.30279  Biso   1.000  O 
  O6       1.0000 0.25965  0.21996  0.05272  Biso   1.000  O 
  O7       1.0000 0.20629  0.75278  0.30917  Biso   1.000  O 
  O8       1.0000 0.21859  0.74155  0.06207  Biso   1.000  O 
  O9       1.0000 0.51214  0.30484  0.19617  Biso   1.000  O 
  O10      1.0000 0.51043  0.19150  0.42896  Biso   1.000  O 
  O11      1.0000 0.95607  0.82875  0.17123  Biso   1.000  O 
  O12      1.0000 0.95310  0.67892  0.42108  Biso   1.000  O 
  O13      1.0000 0.75817  0.25353  0.45089  Biso   1.000  O 
  O14      1.0000 0.76654  0.25742  0.20130  Biso   1.000  O 
  O15      1.0000 0.71122  0.75742  0.45581  Biso   1.000  O 
  O16      1.0000 0.71548  0.75092  0.20703  Biso   1.000  O 
  Hf9      1.0000 0.11736  0.04545  0.67539  Biso   1.000  Hf
  Hf10     1.0000 0.10602  0.46588  0.92845  Biso   1.000  Hf
  Hf11     1.0000 0.34025  0.54350  0.67354  Biso   1.000  Hf
  Hf12     1.0000 0.31602  0.96598  0.93040  Biso   1.000  Hf
  Hf13     1.0000 0.61857  0.04693  0.57415  Biso   1.000  Hf
  Hf14     1.0000 0.62732  0.47279  0.80797  Biso   1.000  Hf
  Hf15     1.0000 0.84648  0.55059  0.57644  Biso   1.000  Hf
  Hf16     1.0000 0.84252  0.96992  0.82776  Biso   1.000  Hf
  O17      1.0000 0.01257  0.32772  0.58331  Biso   1.000  O 
  O18      1.0000 0.00961  0.17787  0.83315  Biso   1.000  O 
  O19      1.0000 0.45525  0.81512  0.57543  Biso   1.000  O 
  O20      1.0000 0.45355  0.70180  0.80820  Biso   1.000  O 
  O21      1.0000 0.25019  0.25570  0.79735  Biso   1.000  O 
  O22      1.0000 0.25446  0.24922  0.54857  Biso   1.000  O 
  O23      1.0000 0.19913  0.74921  0.80310  Biso   1.000  O 
  O24      1.0000 0.20751  0.75311  0.55350  Biso   1.000  O 
  O25      1.0000 0.51030  0.31911  0.66988  Biso   1.000  O 
  O26      1.0000 0.49493  0.13908  0.90796  Biso   1.000  O 
  O27      1.0000 0.95165  0.82848  0.67021  Biso   1.000  O 
  O28      1.0000 0.93882  0.67913  0.92013  Biso   1.000  O 
  O29      1.0000 0.74710  0.26510  0.94231  Biso   1.000  O 
  O30      1.0000 0.75939  0.25386  0.69521  Biso   1.000  O 
  O31      1.0000 0.70604  0.78669  0.95167  Biso   1.000  O 
  O32      1.0000 0.71105  0.75831  0.70161  Biso   1.000  O 
  Sb1      1.0000 0.50386  0.50002  0.00260  Biso   1.000  Sb
