data_image0
_cell_length_a       5.06281
_cell_length_b       10.2917
_cell_length_c       10.4701
_cell_angle_alpha    90
_cell_angle_beta     80
_cell_angle_gamma    90

_symmetry_space_group_name_H-M    "P 1"
_symmetry_int_tables_number       1

loop_
  _symmetry_equiv_pos_as_xyz
  'x, y, z'

loop_
  _atom_site_label
  _atom_site_occupancy
  _atom_site_fract_x
  _atom_site_fract_y
  _atom_site_fract_z
  _atom_site_thermal_displace_type
  _atom_site_B_iso_or_equiv
  _atom_site_type_symbol
  Sb1      1.0000 0.25616  0.01915  0.15087  Biso   1.000  Sb
  Hf1      1.0000 0.27161  0.22993  0.39749  Biso   1.000  Hf
  Hf2      1.0000 0.71822  0.27097  0.10386  Biso   1.000  Hf
  Hf3      1.0000 0.71605  0.47786  0.35395  Biso   1.000  Hf
  O1       1.0000 0.07477  0.17258  0.07946  Biso   1.000  O 
  O2       1.0000 0.06217  0.07940  0.33323  Biso   1.000  O 
  O3       1.0000 0.92406  0.41952  0.16995  Biso   1.000  O 
  O4       1.0000 0.92048  0.33032  0.42061  Biso   1.000  O 
  O5       1.0000 0.55125  0.13135  0.24427  Biso   1.000  O 
  O6       1.0000 0.54294  0.12026  0.49220  Biso   1.000  O 
  O7       1.0000 0.44964  0.38025  0.00897  Biso   1.000  O 
  O8       1.0000 0.44023  0.37107  0.25958  Biso   1.000  O 
  Hf4      1.0000 0.26440  0.02073  0.64747  Biso   1.000  Hf
  Hf5      1.0000 0.26503  0.22829  0.89558  Biso   1.000  Hf
  Hf6      1.0000 0.71275  0.27096  0.60505  Biso   1.000  Hf
  Hf7      1.0000 0.71018  0.47748  0.85553  Biso   1.000  Hf
  O9       1.0000 0.06104  0.16858  0.58048  Biso   1.000  O 
  O10      1.0000 0.05912  0.08005  0.83108  Biso   1.000  O 
  O11      1.0000 0.91898  0.41790  0.67130  Biso   1.000  O 
  O12      1.0000 0.91542  0.33140  0.92237  Biso   1.000  O 
  O13      1.0000 0.54025  0.12861  0.73960  Biso   1.000  O 
  O14      1.0000 0.54606  0.12530  0.98545  Biso   1.000  O 
  O15      1.0000 0.43808  0.37831  0.51012  Biso   1.000  O 
  O16      1.0000 0.43641  0.37056  0.76014  Biso   1.000  O 
  Hf8      1.0000 0.27480  0.52048  0.14543  Biso   1.000  Hf
  Hf9      1.0000 0.26904  0.72594  0.39741  Biso   1.000  Hf
  Hf10     1.0000 0.72184  0.76815  0.10293  Biso   1.000  Hf
  Hf11     1.0000 0.70819  0.97732  0.35850  Biso   1.000  Hf
  O17      1.0000 0.07517  0.67061  0.08026  Biso   1.000  O 
  O18      1.0000 0.06515  0.57987  0.33019  Biso   1.000  O 
  O19      1.0000 0.91108  0.92129  0.17156  Biso   1.000  O 
  O20      1.0000 0.92181  0.83046  0.42111  Biso   1.000  O 
  O21      1.0000 0.54856  0.62699  0.24033  Biso   1.000  O 
  O22      1.0000 0.54487  0.61983  0.49121  Biso   1.000  O 
  O23      1.0000 0.45779  0.87618  0.00532  Biso   1.000  O 
  O24      1.0000 0.44616  0.86574  0.26235  Biso   1.000  O 
  Hf12     1.0000 0.26769  0.52073  0.64726  Biso   1.000  Hf
  Hf13     1.0000 0.26424  0.72847  0.89616  Biso   1.000  Hf
  Hf14     1.0000 0.71305  0.77088  0.60550  Biso   1.000  Hf
  Hf15     1.0000 0.71106  0.97876  0.85541  Biso   1.000  Hf
  O25      1.0000 0.06160  0.66787  0.58142  Biso   1.000  O 
  O26      1.0000 0.05876  0.58000  0.83104  Biso   1.000  O 
  O27      1.0000 0.91870  0.91838  0.67114  Biso   1.000  O 
  O28      1.0000 0.91699  0.83086  0.92207  Biso   1.000  O 
  O29      1.0000 0.54178  0.62850  0.74123  Biso   1.000  O 
  O30      1.0000 0.53662  0.61938  0.99159  Biso   1.000  O 
  O31      1.0000 0.43736  0.87801  0.51143  Biso   1.000  O 
  O32      1.0000 0.43627  0.87035  0.75985  Biso   1.000  O 
