data_image0
_cell_length_a       5.13563
_cell_length_b       10.45
_cell_length_c       10.5487
_cell_angle_alpha    90
_cell_angle_beta     80
_cell_angle_gamma    90

_symmetry_space_group_name_H-M    "P 1"
_symmetry_int_tables_number       1

loop_
  _symmetry_equiv_pos_as_xyz
  'x, y, z'

loop_
  _atom_site_label
  _atom_site_occupancy
  _atom_site_fract_x
  _atom_site_fract_y
  _atom_site_fract_z
  _atom_site_thermal_displace_type
  _atom_site_B_iso_or_equiv
  _atom_site_type_symbol
  Hf1      1.0000 0.26373  0.01146  0.14183  Biso   1.000  Hf
  Hf2      1.0000 0.39406  0.25286  0.40781  Biso   1.000  Hf
  Hf3      1.0000 0.70801  0.26777  0.10148  Biso   1.000  Hf
  Hf4      1.0000 0.75554  0.50220  0.35654  Biso   1.000  Hf
  O1       1.0000 0.05216  0.15455  0.07071  Biso   1.000  O 
  O2       1.0000 0.05223  0.04992  0.32615  Biso   1.000  O 
  O3       1.0000 0.95841  0.42634  0.17469  Biso   1.000  O 
  O4       1.0000 0.01706  0.39672  0.45042  Biso   1.000  O 
  O5       1.0000 0.52776  0.11950  0.23727  Biso   1.000  O 
  O6       1.0000 0.59050  0.11083  0.49277  Biso   1.000  O 
  O7       1.0000 0.44639  0.37871  0.01294  Biso   1.000  O 
  O8       1.0000 0.48248  0.39183  0.25991  Biso   1.000  O 
  Hf5      1.0000 0.30028  0.03321  0.64252  Biso   1.000  Hf
  Hf6      1.0000 0.30969  0.24359  0.89077  Biso   1.000  Hf
  Hf7      1.0000 0.78866  0.29264  0.61090  Biso   1.000  Hf
  Hf8      1.0000 0.76642  0.49427  0.85813  Biso   1.000  Hf
  O9       1.0000 0.12048  0.18360  0.56877  Biso   1.000  O 
  O10      1.0000 0.09104  0.10443  0.81918  Biso   1.000  O 
  O11      1.0000 0.99146  0.42201  0.68965  Biso   1.000  O 
  O12      1.0000 0.97295  0.35365  0.92873  Biso   1.000  O 
  O13      1.0000 0.57803  0.14602  0.73621  Biso   1.000  O 
  O14      1.0000 0.57852  0.14040  0.98489  Biso   1.000  O 
  O15      1.0000 0.51271  0.39462  0.52021  Biso   1.000  O 
  O16      1.0000 0.50123  0.38849  0.76360  Biso   1.000  O 
  Hf9      1.0000 0.30141  0.52755  0.14676  Biso   1.000  Hf
  Hf10     1.0000 0.30068  0.73431  0.39686  Biso   1.000  Hf
  Hf11     1.0000 0.74420  0.77003  0.09920  Biso   1.000  Hf
  Hf12     1.0000 0.73347  0.96716  0.35003  Biso   1.000  Hf
  O17      1.0000 0.08723  0.66764  0.07222  Biso   1.000  O 
  O18      1.0000 0.09136  0.60504  0.31689  Biso   1.000  O 
  O19      1.0000 0.94741  0.90996  0.16531  Biso   1.000  O 
  O20      1.0000 0.94986  0.83055  0.42244  Biso   1.000  O 
  O21      1.0000 0.57888  0.63621  0.24158  Biso   1.000  O 
  O22      1.0000 0.57514  0.63395  0.49246  Biso   1.000  O 
  O23      1.0000 0.47234  0.87694  0.00510  Biso   1.000  O 
  O24      1.0000 0.46410  0.86709  0.25459  Biso   1.000  O 
  Hf13     1.0000 0.31732  0.53774  0.65020  Biso   1.000  Hf
  Hf14     1.0000 0.32756  0.74521  0.89167  Biso   1.000  Hf
  Hf15     1.0000 0.76512  0.78505  0.60462  Biso   1.000  Hf
  Hf16     1.0000 0.78436  0.99634  0.84688  Biso   1.000  Hf
  O25      1.0000 0.09496  0.67218  0.57900  Biso   1.000  O 
  O26      1.0000 0.11166  0.60229  0.82709  Biso   1.000  O 
  O27      1.0000 0.98317  0.93167  0.66632  Biso   1.000  O 
  O28      1.0000 0.99123  0.85230  0.91312  Biso   1.000  O 
  O29      1.0000 0.59311  0.64319  0.73934  Biso   1.000  O 
  O30      1.0000 0.60550  0.63968  0.98737  Biso   1.000  O 
  O31      1.0000 0.47244  0.88114  0.50968  Biso   1.000  O 
  O32      1.0000 0.50480  0.88865  0.75647  Biso   1.000  O 
  Sb1      1.0000 0.97134  0.24358  0.30456  Biso   1.000  Sb
