data_image0
_cell_length_a       10.1161
_cell_length_b       10.2839
_cell_length_c       10.4568
_cell_angle_alpha    90
_cell_angle_beta     80
_cell_angle_gamma    90

_symmetry_space_group_name_H-M    "P 1"
_symmetry_int_tables_number       1

loop_
  _symmetry_equiv_pos_as_xyz
  'x, y, z'

loop_
  _atom_site_label
  _atom_site_occupancy
  _atom_site_fract_x
  _atom_site_fract_y
  _atom_site_fract_z
  _atom_site_thermal_displace_type
  _atom_site_B_iso_or_equiv
  _atom_site_type_symbol
  Sb1      1.0000 0.12889  0.01913  0.15095  Biso   1.000  Sb
  Hf1      1.0000 0.13676  0.22983  0.39727  Biso   1.000  Hf
  Hf2      1.0000 0.35991  0.27074  0.10349  Biso   1.000  Hf
  Hf3      1.0000 0.35808  0.47840  0.35389  Biso   1.000  Hf
  O1       1.0000 0.03683  0.17235  0.07954  Biso   1.000  O 
  O2       1.0000 0.03033  0.08095  0.33198  Biso   1.000  O 
  O3       1.0000 0.46258  0.41915  0.16985  Biso   1.000  O 
  O4       1.0000 0.46048  0.33025  0.42001  Biso   1.000  O 
  O5       1.0000 0.27631  0.13131  0.24387  Biso   1.000  O 
  O6       1.0000 0.27288  0.12062  0.49138  Biso   1.000  O 
  O7       1.0000 0.22392  0.38017  0.00875  Biso   1.000  O 
  O8       1.0000 0.22057  0.37139  0.25935  Biso   1.000  O 
  Hf4      1.0000 0.13367  0.02080  0.64631  Biso   1.000  Hf
  Hf5      1.0000 0.13339  0.22859  0.89532  Biso   1.000  Hf
  Hf6      1.0000 0.35679  0.27125  0.60472  Biso   1.000  Hf
  Hf7      1.0000 0.35511  0.47852  0.85533  Biso   1.000  Hf
  O9       1.0000 0.03114  0.16876  0.58030  Biso   1.000  O 
  O10      1.0000 0.02989  0.08009  0.83121  Biso   1.000  O 
  O11      1.0000 0.45935  0.41908  0.67066  Biso   1.000  O 
  O12      1.0000 0.45846  0.33195  0.92128  Biso   1.000  O 
  O13      1.0000 0.27065  0.12891  0.73940  Biso   1.000  O 
  O14      1.0000 0.27421  0.12565  0.98505  Biso   1.000  O 
  O15      1.0000 0.21931  0.37889  0.50986  Biso   1.000  O 
  O16      1.0000 0.21829  0.37090  0.75985  Biso   1.000  O 
  Hf8      1.0000 0.13803  0.52148  0.14544  Biso   1.000  Hf
  Hf9      1.0000 0.13549  0.72754  0.39700  Biso   1.000  Hf
  Hf10     1.0000 0.36207  0.77122  0.10376  Biso   1.000  Hf
  Hf11     1.0000 0.35961  0.97844  0.35492  Biso   1.000  Hf
  O17      1.0000 0.03624  0.67085  0.08067  Biso   1.000  O 
  O18      1.0000 0.03331  0.58045  0.33054  Biso   1.000  O 
  O19      1.0000 0.46346  0.91964  0.17028  Biso   1.000  O 
  O20      1.0000 0.46148  0.83002  0.42086  Biso   1.000  O 
  O21      1.0000 0.27499  0.62838  0.24042  Biso   1.000  O 
  O22      1.0000 0.27279  0.62032  0.49114  Biso   1.000  O 
  O23      1.0000 0.22800  0.87643  0.00507  Biso   1.000  O 
  O24      1.0000 0.22355  0.86778  0.26116  Biso   1.000  O 
  Hf12     1.0000 0.13419  0.52122  0.64695  Biso   1.000  Hf
  Hf13     1.0000 0.13260  0.72862  0.89639  Biso   1.000  Hf
  Hf14     1.0000 0.35682  0.77133  0.60492  Biso   1.000  Hf
  Hf15     1.0000 0.35528  0.97904  0.85482  Biso   1.000  Hf
  O25      1.0000 0.03148  0.66905  0.58149  Biso   1.000  O 
  O26      1.0000 0.02995  0.57968  0.83147  Biso   1.000  O 
  O27      1.0000 0.45959  0.91918  0.67049  Biso   1.000  O 
  O28      1.0000 0.45913  0.83135  0.92103  Biso   1.000  O 
  O29      1.0000 0.27115  0.62897  0.74124  Biso   1.000  O 
  O30      1.0000 0.26908  0.62034  0.99161  Biso   1.000  O 
  O31      1.0000 0.21997  0.87878  0.51007  Biso   1.000  O 
  O32      1.0000 0.21787  0.87057  0.75940  Biso   1.000  O 
  Hf16     1.0000 0.63745  0.02133  0.14597  Biso   1.000  Hf
  Hf17     1.0000 0.63518  0.22886  0.39657  Biso   1.000  Hf
  Hf18     1.0000 0.85954  0.27158  0.10474  Biso   1.000  Hf
  Hf19     1.0000 0.85871  0.47825  0.35458  Biso   1.000  Hf
  O33      1.0000 0.53597  0.16970  0.08050  Biso   1.000  O 
  O34      1.0000 0.53427  0.07954  0.33144  Biso   1.000  O 
  O35      1.0000 0.96220  0.42015  0.16972  Biso   1.000  O 
  O36      1.0000 0.96084  0.33064  0.42063  Biso   1.000  O 
  O37      1.0000 0.77430  0.12920  0.24152  Biso   1.000  O 
  O38      1.0000 0.77189  0.12066  0.49216  Biso   1.000  O 
  O39      1.0000 0.72398  0.37908  0.00973  Biso   1.000  O 
  O40      1.0000 0.72121  0.37066  0.26004  Biso   1.000  O 
  Hf20     1.0000 0.63315  0.02148  0.64773  Biso   1.000  Hf
  Hf21     1.0000 0.63189  0.22843  0.89726  Biso   1.000  Hf
  Hf22     1.0000 0.85654  0.27129  0.60520  Biso   1.000  Hf
  Hf23     1.0000 0.85529  0.47767  0.85533  Biso   1.000  Hf
  O41      1.0000 0.53142  0.16951  0.58118  Biso   1.000  O 
  O42      1.0000 0.53024  0.08041  0.83117  Biso   1.000  O 
  O43      1.0000 0.95952  0.41864  0.67093  Biso   1.000  O 
  O44      1.0000 0.95682  0.32985  0.92166  Biso   1.000  O 
  O45      1.0000 0.77125  0.12910  0.74171  Biso   1.000  O 
  O46      1.0000 0.76878  0.12043  0.99222  Biso   1.000  O 
  O47      1.0000 0.71956  0.37876  0.51028  Biso   1.000  O 
  O48      1.0000 0.71799  0.37066  0.76063  Biso   1.000  O 
  Hf24     1.0000 0.63725  0.52053  0.14594  Biso   1.000  Hf
  Hf25     1.0000 0.63525  0.72714  0.39667  Biso   1.000  Hf
  Hf26     1.0000 0.85928  0.76869  0.10329  Biso   1.000  Hf
  Hf27     1.0000 0.85341  0.97764  0.35812  Biso   1.000  Hf
  O49      1.0000 0.53668  0.66928  0.07993  Biso   1.000  O 
  O50      1.0000 0.53310  0.57994  0.33042  Biso   1.000  O 
  O51      1.0000 0.95543  0.92042  0.17170  Biso   1.000  O 
  O52      1.0000 0.96075  0.83112  0.42052  Biso   1.000  O 
  O53      1.0000 0.77429  0.62826  0.24072  Biso   1.000  O 
  O54      1.0000 0.77308  0.62051  0.49112  Biso   1.000  O 
  O55      1.0000 0.72417  0.87900  0.00962  Biso   1.000  O 
  O56      1.0000 0.72079  0.86974  0.26075  Biso   1.000  O 
  Hf28     1.0000 0.63417  0.52103  0.64686  Biso   1.000  Hf
  Hf29     1.0000 0.63238  0.72849  0.89653  Biso   1.000  Hf
  Hf30     1.0000 0.85680  0.77109  0.60541  Biso   1.000  Hf
  Hf31     1.0000 0.85561  0.97852  0.85553  Biso   1.000  Hf
  O57      1.0000 0.53152  0.66858  0.58099  Biso   1.000  O 
  O58      1.0000 0.52981  0.58088  0.83090  Biso   1.000  O 
  O59      1.0000 0.95919  0.91907  0.67082  Biso   1.000  O 
  O60      1.0000 0.95725  0.83018  0.92145  Biso   1.000  O 
  O61      1.0000 0.77144  0.62877  0.74137  Biso   1.000  O 
  O62      1.0000 0.76913  0.61995  0.99162  Biso   1.000  O 
  O63      1.0000 0.71864  0.87840  0.51126  Biso   1.000  O 
  O64      1.0000 0.71850  0.87069  0.76066  Biso   1.000  O 
