data_image0
_cell_length_a       10.117
_cell_length_b       10.213
_cell_length_c       5.29636
_cell_angle_alpha    90
_cell_angle_beta     90
_cell_angle_gamma    90

_symmetry_space_group_name_H-M    "P 1"
_symmetry_int_tables_number       1

loop_
  _symmetry_equiv_pos_as_xyz
  'x, y, z'

loop_
  _atom_site_label
  _atom_site_occupancy
  _atom_site_fract_x
  _atom_site_fract_y
  _atom_site_fract_z
  _atom_site_thermal_displace_type
  _atom_site_B_iso_or_equiv
  _atom_site_type_symbol
  Hf1      1.0000 0.13483  0.01832  0.34943  Biso   1.000  Hf
  Hf2      1.0000 0.13509  0.22756  0.84752  Biso   1.000  Hf
  Hf3      1.0000 0.35310  0.26691  0.36194  Biso   1.000  Hf
  Hf4      1.0000 0.35618  0.47837  0.85356  Biso   1.000  Hf
  Hf5      1.0000 0.63485  0.00090  0.15961  Biso   1.000  Hf
  Hf6      1.0000 0.63438  0.22803  0.63521  Biso   1.000  Hf
  Hf7      1.0000 0.87878  0.27577  0.14421  Biso   1.000  Hf
  Hf8      1.0000 0.85791  0.47893  0.64906  Biso   1.000  Hf
  O1       1.0000 0.03294  0.15488  0.15075  Biso   1.000  O 
  O2       1.0000 0.02188  0.09409  0.65284  Biso   1.000  O 
  O3       1.0000 0.47234  0.41042  0.17455  Biso   1.000  O 
  O4       1.0000 0.46630  0.33970  0.66614  Biso   1.000  O 
  O5       1.0000 0.26566  0.12356  0.60149  Biso   1.000  O 
  O6       1.0000 0.27354  0.12280  0.10068  Biso   1.000  O 
  O7       1.0000 0.22085  0.37517  0.60314  Biso   1.000  O 
  O8       1.0000 0.22664  0.37452  0.10010  Biso   1.000  O 
  O9       1.0000 0.50935  0.13421  0.37293  Biso   1.000  O 
  O10      1.0000 0.51644  0.09966  0.87522  Biso   1.000  O 
  O11      1.0000 0.97340  0.41243  0.34674  Biso   1.000  O 
  O12      1.0000 0.97114  0.34344  0.83918  Biso   1.000  O 
  O13      1.0000 0.76078  0.12719  0.90178  Biso   1.000  O 
  O14      1.0000 0.76332  0.12967  0.37938  Biso   1.000  O 
  O15      1.0000 0.72301  0.37936  0.89834  Biso   1.000  O 
  O16      1.0000 0.72330  0.37788  0.39026  Biso   1.000  O 
  Hf9      1.0000 0.14082  0.52227  0.35161  Biso   1.000  Hf
  Hf10     1.0000 0.13313  0.72953  0.84821  Biso   1.000  Hf
  Hf11     1.0000 0.36124  0.76913  0.35346  Biso   1.000  Hf
  Hf12     1.0000 0.35988  0.97859  0.85274  Biso   1.000  Hf
  Hf13     1.0000 0.64440  0.53120  0.15092  Biso   1.000  Hf
  Hf14     1.0000 0.63719  0.72831  0.65614  Biso   1.000  Hf
  Hf15     1.0000 0.86863  0.77151  0.15713  Biso   1.000  Hf
  Hf16     1.0000 0.85985  0.98402  0.65659  Biso   1.000  Hf
  O17      1.0000 0.03547  0.66171  0.16038  Biso   1.000  O 
  O18      1.0000 0.02810  0.59156  0.65904  Biso   1.000  O 
  O19      1.0000 0.47197  0.89585  0.14781  Biso   1.000  O 
  O20      1.0000 0.47173  0.84583  0.65288  Biso   1.000  O 
  O21      1.0000 0.27369  0.62405  0.60117  Biso   1.000  O 
  O22      1.0000 0.27838  0.62428  0.09827  Biso   1.000  O 
  O23      1.0000 0.22426  0.87301  0.59966  Biso   1.000  O 
  O24      1.0000 0.22778  0.87553  0.09934  Biso   1.000  O 
  O25      1.0000 0.53002  0.65909  0.35156  Biso   1.000  O 
  O26      1.0000 0.52421  0.59151  0.84536  Biso   1.000  O 
  O27      1.0000 0.97022  0.91242  0.34530  Biso   1.000  O 
  O28      1.0000 0.96615  0.84374  0.84431  Biso   1.000  O 
  O29      1.0000 0.77410  0.62684  0.90250  Biso   1.000  O 
  O30      1.0000 0.77817  0.62822  0.40619  Biso   1.000  O 
  O31      1.0000 0.72277  0.87280  0.90993  Biso   1.000  O 
  O32      1.0000 0.73048  0.87121  0.41770  Biso   1.000  O 
  Sc1      1.0000 0.61215  0.25689  0.12398  Biso   1.000  Sc
