data_image0
_cell_length_a       10.0001
_cell_length_b       10.2006
_cell_length_c       10.0001
_cell_angle_alpha    90
_cell_angle_beta     90
_cell_angle_gamma    90

_symmetry_space_group_name_H-M    "P 1"
_symmetry_int_tables_number       1

loop_
  _symmetry_equiv_pos_as_xyz
  'x, y, z'

loop_
  _atom_site_label
  _atom_site_occupancy
  _atom_site_fract_x
  _atom_site_fract_y
  _atom_site_fract_z
  _atom_site_thermal_displace_type
  _atom_site_B_iso_or_equiv
  _atom_site_type_symbol
  Sc1      1.0000 0.12496  0.00005  0.12496  Biso   1.000  Sc
  Hf1      1.0000 0.12500  0.24947  0.37313  Biso   1.000  Hf
  Hf2      1.0000 0.37312  0.24948  0.12502  Biso   1.000  Hf
  Hf3      1.0000 0.37220  0.99896  0.37221  Biso   1.000  Hf
  O1       1.0000 0.99589  0.14658  0.99591  Biso   1.000  O 
  O2       1.0000 0.00028  0.10687  0.24962  Biso   1.000  O 
  O3       1.0000 0.00034  0.35489  0.24957  Biso   1.000  O 
  O4       1.0000 0.00008  0.39629  0.00009  Biso   1.000  O 
  O5       1.0000 0.25399  0.14660  0.25401  Biso   1.000  O 
  O6       1.0000 0.24961  0.10688  0.00030  Biso   1.000  O 
  O7       1.0000 0.24957  0.35489  0.00034  Biso   1.000  O 
  O8       1.0000 0.24982  0.39629  0.24983  Biso   1.000  O 
  Hf4      1.0000 0.12494  0.00004  0.62496  Biso   1.000  Hf
  Hf5      1.0000 0.12487  0.24947  0.87679  Biso   1.000  Hf
  Hf6      1.0000 0.37481  0.24952  0.62509  Biso   1.000  Hf
  Hf7      1.0000 0.37219  0.00110  0.87771  Biso   1.000  Hf
  O9       1.0000 0.00139  0.14724  0.49997  Biso   1.000  O 
  O10      1.0000 0.99844  0.10251  0.74848  Biso   1.000  O 
  O11      1.0000 0.00005  0.35235  0.74993  Biso   1.000  O 
  O12      1.0000 0.99966  0.39753  0.49985  Biso   1.000  O 
  O13      1.0000 0.24848  0.14723  0.74995  Biso   1.000  O 
  O14      1.0000 0.25143  0.10251  0.50145  Biso   1.000  O 
  O15      1.0000 0.24983  0.35235  0.49998  Biso   1.000  O 
  O16      1.0000 0.25022  0.39753  0.75006  Biso   1.000  O 
  Hf8      1.0000 0.12495  0.50004  0.12496  Biso   1.000  Hf
  Hf9      1.0000 0.12489  0.75059  0.37313  Biso   1.000  Hf
  Hf10     1.0000 0.37312  0.75059  0.12491  Biso   1.000  Hf
  Hf11     1.0000 0.37494  0.49942  0.37496  Biso   1.000  Hf
  O17      1.0000 0.00034  0.64519  0.00035  Biso   1.000  O 
  O18      1.0000 0.00008  0.60379  0.24983  Biso   1.000  O 
  O19      1.0000 0.99589  0.85349  0.25402  Biso   1.000  O 
  O20      1.0000 0.00031  0.89320  0.00031  Biso   1.000  O 
  O21      1.0000 0.24956  0.64519  0.24957  Biso   1.000  O 
  O22      1.0000 0.24982  0.60379  0.00009  Biso   1.000  O 
  O23      1.0000 0.25399  0.85348  0.99590  Biso   1.000  O 
  O24      1.0000 0.24960  0.89320  0.24962  Biso   1.000  O 
  Hf12     1.0000 0.12494  0.50003  0.62496  Biso   1.000  Hf
  Hf13     1.0000 0.12499  0.75059  0.87680  Biso   1.000  Hf
  Hf14     1.0000 0.37481  0.75054  0.62484  Biso   1.000  Hf
  Hf15     1.0000 0.37493  0.50065  0.87496  Biso   1.000  Hf
  O25      1.0000 0.00005  0.64771  0.49999  Biso   1.000  O 
  O26      1.0000 0.99965  0.60253  0.75007  Biso   1.000  O 
  O27      1.0000 0.00139  0.85283  0.74996  Biso   1.000  O 
  O28      1.0000 0.99844  0.89755  0.50146  Biso   1.000  O 
  O29      1.0000 0.24982  0.64771  0.74993  Biso   1.000  O 
  O30      1.0000 0.25022  0.60253  0.49985  Biso   1.000  O 
  O31      1.0000 0.24849  0.85283  0.49997  Biso   1.000  O 
  O32      1.0000 0.25144  0.89755  0.74847  Biso   1.000  O 
  Hf16     1.0000 0.62495  0.00004  0.12496  Biso   1.000  Hf
  Hf17     1.0000 0.62506  0.24952  0.37483  Biso   1.000  Hf
  Hf18     1.0000 0.87678  0.24948  0.12490  Biso   1.000  Hf
  Hf19     1.0000 0.87769  0.00110  0.37221  Biso   1.000  Hf
  O33      1.0000 0.49996  0.14724  0.00141  Biso   1.000  O 
  O34      1.0000 0.50143  0.10252  0.25146  Biso   1.000  O 
  O35      1.0000 0.49998  0.35236  0.24984  Biso   1.000  O 
  O36      1.0000 0.49983  0.39753  0.99967  Biso   1.000  O 
  O37      1.0000 0.74994  0.14724  0.24851  Biso   1.000  O 
  O38      1.0000 0.74845  0.10251  0.99847  Biso   1.000  O 
  O39      1.0000 0.74993  0.35236  0.00007  Biso   1.000  O 
  O40      1.0000 0.75006  0.39754  0.25025  Biso   1.000  O 
  Hf20     1.0000 0.62494  0.00004  0.62496  Biso   1.000  Hf
  Hf21     1.0000 0.62480  0.24952  0.87509  Biso   1.000  Hf
  Hf22     1.0000 0.87507  0.24952  0.62484  Biso   1.000  Hf
  Hf23     1.0000 0.87770  0.99896  0.87771  Biso   1.000  Hf
  O41      1.0000 0.50173  0.14748  0.50175  Biso   1.000  O 
  O42      1.0000 0.49882  0.10268  0.75108  Biso   1.000  O 
  O43      1.0000 0.50005  0.35293  0.74984  Biso   1.000  O 
  O44      1.0000 0.49992  0.39713  0.49993  Biso   1.000  O 
  O45      1.0000 0.74815  0.14749  0.74817  Biso   1.000  O 
  O46      1.0000 0.75106  0.10268  0.49885  Biso   1.000  O 
  O47      1.0000 0.74983  0.35293  0.50008  Biso   1.000  O 
  O48      1.0000 0.74996  0.39713  0.74998  Biso   1.000  O 
  Hf24     1.0000 0.62495  0.50004  0.12496  Biso   1.000  Hf
  Hf25     1.0000 0.62482  0.75054  0.37483  Biso   1.000  Hf
  Hf26     1.0000 0.87678  0.75060  0.12503  Biso   1.000  Hf
  Hf27     1.0000 0.87494  0.50064  0.37496  Biso   1.000  Hf
  O49      1.0000 0.49998  0.64772  0.00007  Biso   1.000  O 
  O50      1.0000 0.49984  0.60254  0.25024  Biso   1.000  O 
  O51      1.0000 0.49995  0.85284  0.24851  Biso   1.000  O 
  O52      1.0000 0.50142  0.89755  0.99847  Biso   1.000  O 
  O53      1.0000 0.74992  0.64772  0.24984  Biso   1.000  O 
  O54      1.0000 0.75003  0.60253  0.99967  Biso   1.000  O 
  O55      1.0000 0.74996  0.85284  0.00141  Biso   1.000  O 
  O56      1.0000 0.74846  0.89756  0.25146  Biso   1.000  O 
  Hf28     1.0000 0.62494  0.50003  0.62496  Biso   1.000  Hf
  Hf29     1.0000 0.62506  0.75054  0.87510  Biso   1.000  Hf
  Hf30     1.0000 0.87507  0.75054  0.62509  Biso   1.000  Hf
  Hf31     1.0000 0.87494  0.49941  0.87497  Biso   1.000  Hf
  O57      1.0000 0.50005  0.64714  0.50008  Biso   1.000  O 
  O58      1.0000 0.49991  0.60294  0.74998  Biso   1.000  O 
  O59      1.0000 0.50173  0.85258  0.74818  Biso   1.000  O 
  O60      1.0000 0.49882  0.89738  0.49884  Biso   1.000  O 
  O61      1.0000 0.74981  0.64714  0.74984  Biso   1.000  O 
  O62      1.0000 0.74996  0.60294  0.49993  Biso   1.000  O 
  O63      1.0000 0.74815  0.85258  0.50175  Biso   1.000  O 
  O64      1.0000 0.75106  0.89738  0.75108  Biso   1.000  O 
