data_image0
_cell_length_a       10.1522
_cell_length_b       10.2466
_cell_length_c       5.2192
_cell_angle_alpha    90
_cell_angle_beta     80
_cell_angle_gamma    90

_symmetry_space_group_name_H-M    "P 1"
_symmetry_int_tables_number       1

loop_
  _symmetry_equiv_pos_as_xyz
  'x, y, z'

loop_
  _atom_site_label
  _atom_site_occupancy
  _atom_site_fract_x
  _atom_site_fract_y
  _atom_site_fract_z
  _atom_site_thermal_displace_type
  _atom_site_B_iso_or_equiv
  _atom_site_type_symbol
  Sc1      1.0000 0.13868  0.02015  0.29386  Biso   1.000  Sc
  Hf1      1.0000 0.13912  0.22602  0.79293  Biso   1.000  Hf
  Hf2      1.0000 0.35769  0.26809  0.20987  Biso   1.000  Hf
  Hf3      1.0000 0.35952  0.47791  0.70845  Biso   1.000  Hf
  O1       1.0000 0.03421  0.16881  0.15935  Biso   1.000  O 
  O2       1.0000 0.03241  0.08330  0.66264  Biso   1.000  O 
  O3       1.0000 0.46464  0.41632  0.34143  Biso   1.000  O 
  O4       1.0000 0.46487  0.33290  0.84204  Biso   1.000  O 
  O5       1.0000 0.27736  0.12918  0.48566  Biso   1.000  O 
  O6       1.0000 0.27744  0.12296  0.98047  Biso   1.000  O 
  O7       1.0000 0.22345  0.37903  0.01916  Biso   1.000  O 
  O8       1.0000 0.22231  0.37137  0.51924  Biso   1.000  O 
  Hf4      1.0000 0.13971  0.52113  0.29200  Biso   1.000  Hf
  Hf5      1.0000 0.14050  0.73066  0.79160  Biso   1.000  Hf
  Hf6      1.0000 0.35865  0.77342  0.20794  Biso   1.000  Hf
  Hf7      1.0000 0.35672  0.98012  0.70920  Biso   1.000  Hf
  O9       1.0000 0.03436  0.66782  0.16052  Biso   1.000  O 
  O10      1.0000 0.03389  0.58265  0.66033  Biso   1.000  O 
  O11      1.0000 0.46563  0.91730  0.34133  Biso   1.000  O 
  O12      1.0000 0.46561  0.83403  0.84182  Biso   1.000  O 
  O13      1.0000 0.27583  0.62822  0.48106  Biso   1.000  O 
  O14      1.0000 0.27546  0.62082  0.98151  Biso   1.000  O 
  O15      1.0000 0.22473  0.87745  0.01513  Biso   1.000  O 
  O16      1.0000 0.22464  0.86980  0.51857  Biso   1.000  O 
  Hf8      1.0000 0.63895  0.02098  0.29223  Biso   1.000  Hf
  Hf9      1.0000 0.63811  0.22876  0.79232  Biso   1.000  Hf
  Hf10     1.0000 0.86169  0.27010  0.20659  Biso   1.000  Hf
  Hf11     1.0000 0.85962  0.47924  0.70832  Biso   1.000  Hf
  O17      1.0000 0.53440  0.16778  0.16000  Biso   1.000  O 
  O18      1.0000 0.53438  0.08221  0.65985  Biso   1.000  O 
  O19      1.0000 0.96468  0.41879  0.33914  Biso   1.000  O 
  O20      1.0000 0.96463  0.33293  0.83883  Biso   1.000  O 
  O21      1.0000 0.77549  0.12895  0.48125  Biso   1.000  O 
  O22      1.0000 0.77487  0.12155  0.98120  Biso   1.000  O 
  O23      1.0000 0.72359  0.37896  0.01823  Biso   1.000  O 
  O24      1.0000 0.72339  0.37132  0.51870  Biso   1.000  O 
  Hf12     1.0000 0.63798  0.52087  0.29151  Biso   1.000  Hf
  Hf13     1.0000 0.63768  0.72942  0.79260  Biso   1.000  Hf
  Hf14     1.0000 0.86039  0.77202  0.20872  Biso   1.000  Hf
  Hf15     1.0000 0.86138  0.97917  0.70489  Biso   1.000  Hf
  O25      1.0000 0.53342  0.66729  0.15897  Biso   1.000  O 
  O26      1.0000 0.53333  0.58254  0.65892  Biso   1.000  O 
  O27      1.0000 0.96285  0.91757  0.34039  Biso   1.000  O 
  O28      1.0000 0.96443  0.83150  0.83928  Biso   1.000  O 
  O29      1.0000 0.77514  0.62884  0.48099  Biso   1.000  O 
  O30      1.0000 0.77462  0.62108  0.98122  Biso   1.000  O 
  O31      1.0000 0.72399  0.87880  0.01786  Biso   1.000  O 
  O32      1.0000 0.72158  0.87103  0.51849  Biso   1.000  O 
