data_image0
_cell_length_a       10.1269
_cell_length_b       5.1584
_cell_length_c       10.6061
_cell_angle_alpha    90
_cell_angle_beta     80
_cell_angle_gamma    90

_symmetry_space_group_name_H-M    "P 1"
_symmetry_int_tables_number       1

loop_
  _symmetry_equiv_pos_as_xyz
  'x, y, z'

loop_
  _atom_site_label
  _atom_site_occupancy
  _atom_site_fract_x
  _atom_site_fract_y
  _atom_site_fract_z
  _atom_site_thermal_displace_type
  _atom_site_B_iso_or_equiv
  _atom_site_type_symbol
  Hf1      1.0000 0.13746  0.04855  0.14909  Biso   1.000  Hf
  Hf2      1.0000 0.14072  0.46565  0.39669  Biso   1.000  Hf
  Hf3      1.0000 0.34002  0.55341  0.08703  Biso   1.000  Hf
  Hf4      1.0000 0.35019  0.96617  0.35408  Biso   1.000  Hf
  O1       1.0000 0.02876  0.33589  0.07957  Biso   1.000  O 
  O2       1.0000 0.03999  0.16553  0.32997  Biso   1.000  O 
  O3       1.0000 0.45185  0.85012  0.16860  Biso   1.000  O 
  O4       1.0000 0.47111  0.67232  0.42915  Biso   1.000  O 
  O5       1.0000 0.28932  0.27688  0.24427  Biso   1.000  O 
  O6       1.0000 0.28164  0.25096  0.49100  Biso   1.000  O 
  O7       1.0000 0.20289  0.77197  0.00375  Biso   1.000  O 
  O8       1.0000 0.20955  0.74907  0.25454  Biso   1.000  O 
  Hf5      1.0000 0.14789  0.04878  0.64464  Biso   1.000  Hf
  Hf6      1.0000 0.14179  0.46088  0.89281  Biso   1.000  Hf
  Hf7      1.0000 0.36533  0.54853  0.60436  Biso   1.000  Hf
  Hf8      1.0000 0.36048  0.96460  0.84947  Biso   1.000  Hf
  O9       1.0000 0.04159  0.33969  0.58022  Biso   1.000  O 
  O10      1.0000 0.04300  0.16780  0.82673  Biso   1.000  O 
  O11      1.0000 0.46843  0.83532  0.67314  Biso   1.000  O 
  O12      1.0000 0.47060  0.67557  0.91527  Biso   1.000  O 
  O13      1.0000 0.28403  0.26093  0.73910  Biso   1.000  O 
  O14      1.0000 0.28309  0.24963  0.98589  Biso   1.000  O 
  O15      1.0000 0.22294  0.76221  0.50851  Biso   1.000  O 
  O16      1.0000 0.22564  0.74425  0.75514  Biso   1.000  O 
  Hf9      1.0000 0.64379  0.03588  0.14958  Biso   1.000  Hf
  Hf10     1.0000 0.65395  0.44865  0.41662  Biso   1.000  Hf
  Hf11     1.0000 0.85328  0.53644  0.10697  Biso   1.000  Hf
  Hf12     1.0000 0.85653  0.95354  0.35457  Biso   1.000  Hf
  O17      1.0000 0.52289  0.32976  0.07452  Biso   1.000  O 
  O18      1.0000 0.54214  0.15189  0.33508  Biso   1.000  O 
  O19      1.0000 0.95400  0.83656  0.17368  Biso   1.000  O 
  O20      1.0000 0.96523  0.66619  0.42409  Biso   1.000  O 
  O21      1.0000 0.78442  0.25299  0.24910  Biso   1.000  O 
  O22      1.0000 0.79109  0.23011  0.49991  Biso   1.000  O 
  O23      1.0000 0.71235  0.75112  0.01266  Biso   1.000  O 
  O24      1.0000 0.70468  0.72518  0.25939  Biso   1.000  O 
  Hf13     1.0000 0.64996  0.04185  0.65134  Biso   1.000  Hf
  Hf14     1.0000 0.64511  0.45793  0.89645  Biso   1.000  Hf
  Hf15     1.0000 0.86865  0.54558  0.60799  Biso   1.000  Hf
  Hf16     1.0000 0.86255  0.95768  0.85616  Biso   1.000  Hf
  O25      1.0000 0.53985  0.33089  0.58554  Biso   1.000  O 
  O26      1.0000 0.54202  0.17114  0.82767  Biso   1.000  O 
  O27      1.0000 0.96744  0.83866  0.67407  Biso   1.000  O 
  O28      1.0000 0.96885  0.66677  0.92059  Biso   1.000  O 
  O29      1.0000 0.78481  0.26221  0.74566  Biso   1.000  O 
  O30      1.0000 0.78749  0.24425  0.99230  Biso   1.000  O 
  O31      1.0000 0.72735  0.75682  0.51491  Biso   1.000  O 
  O32      1.0000 0.72642  0.74552  0.76171  Biso   1.000  O 
  Sc1      1.0000 0.49694  0.50097  0.25186  Biso   1.000  Sc
