data_image0
_cell_length_a       5.0843
_cell_length_b       10.2932
_cell_length_c       10.6031
_cell_angle_alpha    90
_cell_angle_beta     80
_cell_angle_gamma    90

_symmetry_space_group_name_H-M    "P 1"
_symmetry_int_tables_number       1

loop_
  _symmetry_equiv_pos_as_xyz
  'x, y, z'

loop_
  _atom_site_label
  _atom_site_occupancy
  _atom_site_fract_x
  _atom_site_fract_y
  _atom_site_fract_z
  _atom_site_thermal_displace_type
  _atom_site_B_iso_or_equiv
  _atom_site_type_symbol
  Hf1      1.0000 0.29289  0.01914  0.15058  Biso   1.000  Hf
  Hf2      1.0000 0.32754  0.22828  0.41182  Biso   1.000  Hf
  Hf3      1.0000 0.66640  0.27264  0.09122  Biso   1.000  Hf
  Hf4      1.0000 0.70105  0.48177  0.35247  Biso   1.000  Hf
  O1       1.0000 0.03959  0.16296  0.07339  Biso   1.000  O 
  O2       1.0000 0.10563  0.07759  0.33483  Biso   1.000  O 
  O3       1.0000 0.88831  0.42333  0.16821  Biso   1.000  O 
  O4       1.0000 0.95437  0.33796  0.42965  Biso   1.000  O 
  O5       1.0000 0.60794  0.13376  0.24986  Biso   1.000  O 
  O6       1.0000 0.59744  0.11679  0.49777  Biso   1.000  O 
  O7       1.0000 0.39651  0.38413  0.00527  Biso   1.000  O 
  O8       1.0000 0.38600  0.36715  0.25318  Biso   1.000  O 
  Hf5      1.0000 0.30960  0.02013  0.64742  Biso   1.000  Hf
  Hf6      1.0000 0.28968  0.22932  0.89158  Biso   1.000  Hf
  Hf7      1.0000 0.75038  0.27357  0.60738  Biso   1.000  Hf
  Hf8      1.0000 0.73046  0.48275  0.85153  Biso   1.000  Hf
  O9       1.0000 0.10128  0.16838  0.58406  Biso   1.000  O 
  O10      1.0000 0.09277  0.08369  0.82448  Biso   1.000  O 
  O11      1.0000 0.94729  0.41919  0.67448  Biso   1.000  O 
  O12      1.0000 0.93877  0.33451  0.91491  Biso   1.000  O 
  O13      1.0000 0.57761  0.13018  0.74247  Biso   1.000  O 
  O14      1.0000 0.57450  0.12142  0.98616  Biso   1.000  O 
  O15      1.0000 0.46554  0.38147  0.51280  Biso   1.000  O 
  O16      1.0000 0.46245  0.37271  0.75649  Biso   1.000  O 
  Hf9      1.0000 0.25204  0.52534  0.14761  Biso   1.000  Hf
  Hf10     1.0000 0.26264  0.72764  0.39785  Biso   1.000  Hf
  Hf11     1.0000 0.69523  0.77312  0.10518  Biso   1.000  Hf
  Hf12     1.0000 0.70584  0.97541  0.35543  Biso   1.000  Hf
  O17      1.0000 0.03715  0.66840  0.07934  Biso   1.000  O 
  O18      1.0000 0.04639  0.58425  0.32825  Biso   1.000  O 
  O19      1.0000 0.91148  0.91651  0.17479  Biso   1.000  O 
  O20      1.0000 0.92072  0.83235  0.42370  Biso   1.000  O 
  O21      1.0000 0.53042  0.62993  0.24334  Biso   1.000  O 
  O22      1.0000 0.54256  0.62361  0.49104  Biso   1.000  O 
  O23      1.0000 0.41531  0.87714  0.01201  Biso   1.000  O 
  O24      1.0000 0.42745  0.87083  0.25970  Biso   1.000  O 
  Hf13     1.0000 0.28618  0.52490  0.64685  Biso   1.000  Hf
  Hf14     1.0000 0.28432  0.73027  0.89616  Biso   1.000  Hf
  Hf15     1.0000 0.71967  0.77246  0.60281  Biso   1.000  Hf
  Hf16     1.0000 0.71781  0.97783  0.85211  Biso   1.000  Hf
  O25      1.0000 0.06186  0.66516  0.57790  Biso   1.000  O 
  O26      1.0000 0.07760  0.58712  0.82669  Biso   1.000  O 
  O27      1.0000 0.92638  0.91561  0.67228  Biso   1.000  O 
  O28      1.0000 0.94212  0.83757  0.92106  Biso   1.000  O 
  O29      1.0000 0.55994  0.63058  0.74027  Biso   1.000  O 
  O30      1.0000 0.56814  0.62537  0.98934  Biso   1.000  O 
  O31      1.0000 0.43585  0.87735  0.50962  Biso   1.000  O 
  O32      1.0000 0.44405  0.87215  0.75870  Biso   1.000  O 
  Sc1      1.0000 0.99696  0.25046  0.25152  Biso   1.000  Sc
