data_image0
_cell_length_a       10.1454
_cell_length_b       10.2919
_cell_length_c       10.5263
_cell_angle_alpha    90
_cell_angle_beta     80
_cell_angle_gamma    90

_symmetry_space_group_name_H-M    "P 1"
_symmetry_int_tables_number       1

loop_
  _symmetry_equiv_pos_as_xyz
  'x, y, z'

loop_
  _atom_site_label
  _atom_site_occupancy
  _atom_site_fract_x
  _atom_site_fract_y
  _atom_site_fract_z
  _atom_site_thermal_displace_type
  _atom_site_B_iso_or_equiv
  _atom_site_type_symbol
  Hf1      1.0000 0.13781  0.02146  0.14628  Biso   1.000  Hf
  Hf2      1.0000 0.13890  0.22847  0.39491  Biso   1.000  Hf
  Hf3      1.0000 0.34468  0.27352  0.07823  Biso   1.000  Hf
  Hf4      1.0000 0.36060  0.48838  0.35595  Biso   1.000  Hf
  O1       1.0000 0.03383  0.16764  0.07725  Biso   1.000  O 
  O2       1.0000 0.03742  0.08167  0.32837  Biso   1.000  O 
  O3       1.0000 0.46782  0.41206  0.17468  Biso   1.000  O 
  O4       1.0000 0.47737  0.34679  0.42911  Biso   1.000  O 
  O5       1.0000 0.28088  0.12375  0.23592  Biso   1.000  O 
  O6       1.0000 0.29083  0.12899  0.47891  Biso   1.000  O 
  O7       1.0000 0.21578  0.38847  0.99832  Biso   1.000  O 
  O8       1.0000 0.23517  0.36434  0.25610  Biso   1.000  O 
  Hf5      1.0000 0.14266  0.02209  0.64483  Biso   1.000  Hf
  Hf6      1.0000 0.13912  0.22923  0.89051  Biso   1.000  Hf
  Hf7      1.0000 0.36489  0.27537  0.60430  Biso   1.000  Hf
  Hf8      1.0000 0.36345  0.48438  0.84896  Biso   1.000  Hf
  O9       1.0000 0.04340  0.16992  0.57926  Biso   1.000  O 
  O10      1.0000 0.03742  0.08248  0.82638  Biso   1.000  O 
  O11      1.0000 0.46965  0.42034  0.67139  Biso   1.000  O 
  O12      1.0000 0.47085  0.33838  0.91395  Biso   1.000  O 
  O13      1.0000 0.27977  0.12943  0.73532  Biso   1.000  O 
  O14      1.0000 0.27694  0.11947  0.98259  Biso   1.000  O 
  O15      1.0000 0.22661  0.38241  0.50791  Biso   1.000  O 
  O16      1.0000 0.22759  0.37211  0.75506  Biso   1.000  O 
  Hf9      1.0000 0.13868  0.52237  0.14609  Biso   1.000  Hf
  Hf10     1.0000 0.13770  0.72881  0.39672  Biso   1.000  Hf
  Hf11     1.0000 0.36002  0.77114  0.10310  Biso   1.000  Hf
  Hf12     1.0000 0.36089  0.96960  0.35225  Biso   1.000  Hf
  O17      1.0000 0.03419  0.66689  0.07990  Biso   1.000  O 
  O18      1.0000 0.03716  0.58210  0.32933  Biso   1.000  O 
  O19      1.0000 0.46614  0.91508  0.17223  Biso   1.000  O 
  O20      1.0000 0.46682  0.82921  0.42325  Biso   1.000  O 
  O21      1.0000 0.27755  0.62752  0.24039  Biso   1.000  O 
  O22      1.0000 0.27595  0.62641  0.49254  Biso   1.000  O 
  O23      1.0000 0.22192  0.87848  0.00970  Biso   1.000  O 
  O24      1.0000 0.22122  0.86646  0.25797  Biso   1.000  O 
  Hf13     1.0000 0.14125  0.52339  0.64558  Biso   1.000  Hf
  Hf14     1.0000 0.14271  0.72986  0.89622  Biso   1.000  Hf
  Hf15     1.0000 0.36510  0.77297  0.60422  Biso   1.000  Hf
  Hf16     1.0000 0.36532  0.97744  0.85209  Biso   1.000  Hf
  O25      1.0000 0.03514  0.66796  0.57932  Biso   1.000  O 
  O26      1.0000 0.03931  0.58323  0.82933  Biso   1.000  O 
  O27      1.0000 0.46945  0.91821  0.67151  Biso   1.000  O 
  O28      1.0000 0.47118  0.83450  0.92115  Biso   1.000  O 
  O29      1.0000 0.27948  0.63046  0.73951  Biso   1.000  O 
  O30      1.0000 0.28313  0.62480  0.98916  Biso   1.000  O 
  O31      1.0000 0.22538  0.88163  0.50970  Biso   1.000  O 
  O32      1.0000 0.22689  0.87193  0.75885  Biso   1.000  O 
  Hf17     1.0000 0.64066  0.02060  0.14903  Biso   1.000  Hf
  Hf18     1.0000 0.65327  0.22811  0.40743  Biso   1.000  Hf
  Hf19     1.0000 0.85947  0.27145  0.10734  Biso   1.000  Hf
  Hf20     1.0000 0.86353  0.47873  0.35599  Biso   1.000  Hf
  O33      1.0000 0.52525  0.16921  0.08438  Biso   1.000  O 
  O34      1.0000 0.54296  0.07289  0.33681  Biso   1.000  O 
  O35      1.0000 0.96752  0.41548  0.17396  Biso   1.000  O 
  O36      1.0000 0.96775  0.33310  0.42381  Biso   1.000  O 
  O37      1.0000 0.78342  0.12775  0.24450  Biso   1.000  O 
  O38      1.0000 0.78803  0.11840  0.49800  Biso   1.000  O 
  O39      1.0000 0.71969  0.37825  0.01345  Biso   1.000  O 
  O40      1.0000 0.72714  0.37247  0.26445  Biso   1.000  O 
  Hf21     1.0000 0.64334  0.02261  0.64882  Biso   1.000  Hf
  Hf22     1.0000 0.64330  0.23017  0.89862  Biso   1.000  Hf
  Hf23     1.0000 0.86681  0.27250  0.60883  Biso   1.000  Hf
  Hf24     1.0000 0.86491  0.47963  0.85592  Biso   1.000  Hf
  O41      1.0000 0.54008  0.16960  0.58208  Biso   1.000  O 
  O42      1.0000 0.53795  0.08456  0.83066  Biso   1.000  O 
  O43      1.0000 0.96926  0.41886  0.67308  Biso   1.000  O 
  O44      1.0000 0.96557  0.33111  0.92004  Biso   1.000  O 
  O45      1.0000 0.78009  0.13062  0.74474  Biso   1.000  O 
  O46      1.0000 0.77973  0.12219  0.99359  Biso   1.000  O 
  O47      1.0000 0.73102  0.37965  0.51522  Biso   1.000  O 
  O48      1.0000 0.72753  0.37230  0.76274  Biso   1.000  O 
  Hf25     1.0000 0.63842  0.52157  0.14822  Biso   1.000  Hf
  Hf26     1.0000 0.64179  0.72846  0.39752  Biso   1.000  Hf
  Hf27     1.0000 0.86026  0.77137  0.10592  Biso   1.000  Hf
  Hf28     1.0000 0.86085  0.97834  0.35538  Biso   1.000  Hf
  O49      1.0000 0.53280  0.66500  0.07857  Biso   1.000  O 
  O50      1.0000 0.53572  0.58660  0.32769  Biso   1.000  O 
  O51      1.0000 0.96475  0.91617  0.17265  Biso   1.000  O 
  O52      1.0000 0.96635  0.83324  0.42292  Biso   1.000  O 
  O53      1.0000 0.77819  0.62835  0.24180  Biso   1.000  O 
  O54      1.0000 0.77875  0.62165  0.49157  Biso   1.000  O 
  O55      1.0000 0.72182  0.87816  0.01223  Biso   1.000  O 
  O56      1.0000 0.72395  0.87032  0.26066  Biso   1.000  O 
  Hf29     1.0000 0.64307  0.52349  0.64778  Biso   1.000  Hf
  Hf30     1.0000 0.64373  0.72892  0.89716  Biso   1.000  Hf
  Hf31     1.0000 0.86321  0.77340  0.60544  Biso   1.000  Hf
  Hf32     1.0000 0.86386  0.97888  0.85576  Biso   1.000  Hf
  O57      1.0000 0.53739  0.66743  0.57969  Biso   1.000  O 
  O58      1.0000 0.53813  0.58638  0.82765  Biso   1.000  O 
  O59      1.0000 0.96818  0.91843  0.67240  Biso   1.000  O 
  O60      1.0000 0.97006  0.83374  0.92191  Biso   1.000  O 
  O61      1.0000 0.78034  0.63039  0.74168  Biso   1.000  O 
  O62      1.0000 0.78203  0.62200  0.99106  Biso   1.000  O 
  O63      1.0000 0.72481  0.87872  0.51173  Biso   1.000  O 
  O64      1.0000 0.72695  0.87288  0.76142  Biso   1.000  O 
  Sc1      1.0000 0.44485  0.23393  0.27663  Biso   1.000  Sc
