data_image0
_cell_length_a       9.99661
_cell_length_b       5.082
_cell_length_c       9.99662
_cell_angle_alpha    90
_cell_angle_beta     90
_cell_angle_gamma    90

_symmetry_space_group_name_H-M    "P 1"
_symmetry_int_tables_number       1

loop_
  _symmetry_equiv_pos_as_xyz
  'x, y, z'

loop_
  _atom_site_label
  _atom_site_occupancy
  _atom_site_fract_x
  _atom_site_fract_y
  _atom_site_fract_z
  _atom_site_thermal_displace_type
  _atom_site_B_iso_or_equiv
  _atom_site_type_symbol
  Sc1      1.0000 0.12491  0.99950  0.12489  Biso   1.000  Sc
  Hf1      1.0000 0.12493  0.49954  0.37157  Biso   1.000  Hf
  Hf2      1.0000 0.37159  0.49953  0.12489  Biso   1.000  Hf
  Hf3      1.0000 0.37262  0.99664  0.37257  Biso   1.000  Hf
  O1       1.0000 0.99761  0.28287  0.99751  Biso   1.000  O 
  O2       1.0000 0.99975  0.22048  0.25007  Biso   1.000  O 
  O3       1.0000 0.99755  0.71621  0.25225  Biso   1.000  O 
  O4       1.0000 0.99982  0.77864  0.99970  Biso   1.000  O 
  O5       1.0000 0.25230  0.28286  0.25227  Biso   1.000  O 
  O6       1.0000 0.25017  0.22050  0.99972  Biso   1.000  O 
  O7       1.0000 0.25237  0.71623  0.99752  Biso   1.000  O 
  O8       1.0000 0.25011  0.77861  0.25008  Biso   1.000  O 
  Hf4      1.0000 0.12495  0.99953  0.62489  Biso   1.000  Hf
  Hf5      1.0000 0.12498  0.49956  0.87821  Biso   1.000  Hf
  Hf6      1.0000 0.37472  0.49955  0.62489  Biso   1.000  Hf
  Hf7      1.0000 0.37265  0.00246  0.87721  Biso   1.000  Hf
  O9       1.0000 0.00125  0.29042  0.50027  Biso   1.000  O 
  O10      1.0000 0.99872  0.20833  0.74917  Biso   1.000  O 
  O11      1.0000 0.00128  0.70865  0.74950  Biso   1.000  O 
  O12      1.0000 0.99870  0.79077  0.50060  Biso   1.000  O 
  O13      1.0000 0.24867  0.29041  0.74951  Biso   1.000  O 
  O14      1.0000 0.25119  0.20834  0.50061  Biso   1.000  O 
  O15      1.0000 0.24864  0.70865  0.50028  Biso   1.000  O 
  O16      1.0000 0.25122  0.79076  0.74918  Biso   1.000  O 
  Hf8      1.0000 0.62491  0.99952  0.12488  Biso   1.000  Hf
  Hf9      1.0000 0.62493  0.49954  0.37465  Biso   1.000  Hf
  Hf10     1.0000 0.87823  0.49953  0.12489  Biso   1.000  Hf
  Hf11     1.0000 0.87726  0.00244  0.37256  Biso   1.000  Hf
  O17      1.0000 0.50027  0.29040  0.00120  Biso   1.000  O 
  O18      1.0000 0.50065  0.20833  0.25114  Biso   1.000  O 
  O19      1.0000 0.50031  0.70865  0.24857  Biso   1.000  O 
  O20      1.0000 0.50072  0.79078  0.99863  Biso   1.000  O 
  O21      1.0000 0.74955  0.29040  0.24858  Biso   1.000  O 
  O22      1.0000 0.74927  0.20834  0.99863  Biso   1.000  O 
  O23      1.0000 0.74952  0.70863  0.00120  Biso   1.000  O 
  O24      1.0000 0.74921  0.79075  0.25114  Biso   1.000  O 
  Hf12     1.0000 0.62496  0.99954  0.62488  Biso   1.000  Hf
  Hf13     1.0000 0.62498  0.49956  0.87512  Biso   1.000  Hf
  Hf14     1.0000 0.87519  0.49955  0.62489  Biso   1.000  Hf
  Hf15     1.0000 0.87731  0.99665  0.87721  Biso   1.000  Hf
  O25      1.0000 0.50123  0.29141  0.50118  Biso   1.000  O 
  O26      1.0000 0.49912  0.20782  0.75075  Biso   1.000  O 
  O27      1.0000 0.50126  0.70767  0.74859  Biso   1.000  O 
  O28      1.0000 0.49910  0.79128  0.49903  Biso   1.000  O 
  O29      1.0000 0.74868  0.29141  0.74859  Biso   1.000  O 
  O30      1.0000 0.75080  0.20782  0.49903  Biso   1.000  O 
  O31      1.0000 0.74866  0.70766  0.50118  Biso   1.000  O 
  O32      1.0000 0.75082  0.79128  0.75074  Biso   1.000  O 
