data_image0
_cell_length_a       9.99934
_cell_length_b       10.1863
_cell_length_c       4.99475
_cell_angle_alpha    90
_cell_angle_beta     90
_cell_angle_gamma    90

_symmetry_space_group_name_H-M    "P 1"
_symmetry_int_tables_number       1

loop_
  _symmetry_equiv_pos_as_xyz
  'x, y, z'

loop_
  _atom_site_label
  _atom_site_occupancy
  _atom_site_fract_x
  _atom_site_fract_y
  _atom_site_fract_z
  _atom_site_thermal_displace_type
  _atom_site_B_iso_or_equiv
  _atom_site_type_symbol
  Sc1      1.0000 0.12484  0.00013  0.25153  Biso   1.000  Sc
  Hf1      1.0000 0.12483  0.24882  0.75153  Biso   1.000  Hf
  Hf2      1.0000 0.37305  0.24920  0.25173  Biso   1.000  Hf
  Hf3      1.0000 0.37000  0.00013  0.75152  Biso   1.000  Hf
  O1       1.0000 0.99720  0.14519  0.99510  Biso   1.000  O 
  O2       1.0000 0.99936  0.10783  0.49967  Biso   1.000  O 
  O3       1.0000 0.00032  0.35592  0.50001  Biso   1.000  O 
  O4       1.0000 0.99995  0.39526  0.00062  Biso   1.000  O 
  O5       1.0000 0.25247  0.14518  0.50796  Biso   1.000  O 
  O6       1.0000 0.25032  0.10783  0.00340  Biso   1.000  O 
  O7       1.0000 0.24939  0.35592  0.00301  Biso   1.000  O 
  O8       1.0000 0.24976  0.39526  0.50240  Biso   1.000  O 
  Hf4      1.0000 0.12485  0.50012  0.25151  Biso   1.000  Hf
  Hf5      1.0000 0.12484  0.75142  0.75152  Biso   1.000  Hf
  Hf6      1.0000 0.37305  0.75102  0.25130  Biso   1.000  Hf
  Hf7      1.0000 0.37487  0.50012  0.75150  Biso   1.000  Hf
  O9       1.0000 0.00033  0.64431  0.00302  Biso   1.000  O 
  O10      1.0000 0.99994  0.60497  0.50240  Biso   1.000  O 
  O11      1.0000 0.99720  0.85505  0.50799  Biso   1.000  O 
  O12      1.0000 0.99938  0.89240  0.00343  Biso   1.000  O 
  O13      1.0000 0.24939  0.64431  0.50003  Biso   1.000  O 
  O14      1.0000 0.24977  0.60497  0.00065  Biso   1.000  O 
  O15      1.0000 0.25247  0.85506  0.99507  Biso   1.000  O 
  O16      1.0000 0.25032  0.89240  0.49963  Biso   1.000  O 
  Hf8      1.0000 0.62483  0.00011  0.25154  Biso   1.000  Hf
  Hf9      1.0000 0.62482  0.24916  0.75153  Biso   1.000  Hf
  Hf10     1.0000 0.87662  0.24920  0.25133  Biso   1.000  Hf
  Hf11     1.0000 0.87966  0.00013  0.75155  Biso   1.000  Hf
  O17      1.0000 0.50091  0.14674  0.00665  Biso   1.000  O 
  O18      1.0000 0.50052  0.10320  0.50608  Biso   1.000  O 
  O19      1.0000 0.49988  0.35355  0.50119  Biso   1.000  O 
  O20      1.0000 0.49982  0.39663  0.00095  Biso   1.000  O 
  O21      1.0000 0.74878  0.14674  0.49642  Biso   1.000  O 
  O22      1.0000 0.74914  0.10321  0.99699  Biso   1.000  O 
  O23      1.0000 0.74983  0.35355  0.00180  Biso   1.000  O 
  O24      1.0000 0.74990  0.39663  0.50204  Biso   1.000  O 
  Hf12     1.0000 0.62485  0.50013  0.25151  Biso   1.000  Hf
  Hf13     1.0000 0.62484  0.75109  0.75152  Biso   1.000  Hf
  Hf14     1.0000 0.87664  0.75102  0.25173  Biso   1.000  Hf
  Hf15     1.0000 0.87480  0.50012  0.75151  Biso   1.000  Hf
  O25      1.0000 0.49989  0.64669  0.00185  Biso   1.000  O 
  O26      1.0000 0.49981  0.60360  0.50208  Biso   1.000  O 
  O27      1.0000 0.50091  0.85349  0.49639  Biso   1.000  O 
  O28      1.0000 0.50052  0.89703  0.99695  Biso   1.000  O 
  O29      1.0000 0.74982  0.64669  0.50120  Biso   1.000  O 
  O30      1.0000 0.74991  0.60360  0.00096  Biso   1.000  O 
  O31      1.0000 0.74879  0.85349  0.00668  Biso   1.000  O 
  O32      1.0000 0.74915  0.89703  0.50612  Biso   1.000  O 
