data_image0
_cell_length_a       10.0419
_cell_length_b       10.3263
_cell_length_c       5.26912
_cell_angle_alpha    90
_cell_angle_beta     90
_cell_angle_gamma    90

_symmetry_space_group_name_H-M    "P 1"
_symmetry_int_tables_number       1

loop_
  _symmetry_equiv_pos_as_xyz
  'x, y, z'

loop_
  _atom_site_label
  _atom_site_occupancy
  _atom_site_fract_x
  _atom_site_fract_y
  _atom_site_fract_z
  _atom_site_thermal_displace_type
  _atom_site_B_iso_or_equiv
  _atom_site_type_symbol
  Hf1      1.0000 0.13828  0.02092  0.34576  Biso   1.000  Hf
  Hf2      1.0000 0.12830  0.22988  0.85389  Biso   1.000  Hf
  Hf3      1.0000 0.33885  0.27158  0.36401  Biso   1.000  Hf
  Hf4      1.0000 0.35834  0.48758  0.84124  Biso   1.000  Hf
  Hf5      1.0000 0.64790  0.02206  0.14134  Biso   1.000  Hf
  Hf6      1.0000 0.63159  0.23033  0.64292  Biso   1.000  Hf
  Hf7      1.0000 0.85249  0.26976  0.16713  Biso   1.000  Hf
  Hf8      1.0000 0.86220  0.48386  0.66840  Biso   1.000  Hf
  O1       1.0000 0.03221  0.16495  0.17696  Biso   1.000  O 
  O2       1.0000 0.03373  0.08603  0.66941  Biso   1.000  O 
  O3       1.0000 0.48561  0.39891  0.15688  Biso   1.000  O 
  O4       1.0000 0.46041  0.34690  0.64704  Biso   1.000  O 
  O5       1.0000 0.27136  0.12731  0.59702  Biso   1.000  O 
  O6       1.0000 0.27367  0.12449  0.09065  Biso   1.000  O 
  O7       1.0000 0.21323  0.37716  0.60487  Biso   1.000  O 
  O8       1.0000 0.22887  0.37975  0.10009  Biso   1.000  O 
  O9       1.0000 0.51041  0.16442  0.32770  Biso   1.000  O 
  O10      1.0000 0.53691  0.06674  0.79429  Biso   1.000  O 
  O11      1.0000 0.96422  0.41705  0.34510  Biso   1.000  O 
  O12      1.0000 0.96146  0.33944  0.84649  Biso   1.000  O 
  O13      1.0000 0.78849  0.12302  0.90022  Biso   1.000  O 
  O14      1.0000 0.77818  0.12126  0.41528  Biso   1.000  O 
  O15      1.0000 0.71847  0.38950  0.92067  Biso   1.000  O 
  O16      1.0000 0.72188  0.39386  0.43221  Biso   1.000  O 
  Hf9      1.0000 0.13319  0.52363  0.34785  Biso   1.000  Hf
  Hf10     1.0000 0.13772  0.73420  0.84686  Biso   1.000  Hf
  Hf11     1.0000 0.36064  0.77406  0.34586  Biso   1.000  Hf
  Hf12     1.0000 0.36010  0.98086  0.84599  Biso   1.000  Hf
  Hf13     1.0000 0.64922  0.53685  0.16726  Biso   1.000  Hf
  Hf14     1.0000 0.63678  0.73510  0.65985  Biso   1.000  Hf
  Hf15     1.0000 0.86474  0.77573  0.16068  Biso   1.000  Hf
  Hf16     1.0000 0.85822  0.98177  0.65809  Biso   1.000  Hf
  O17      1.0000 0.03346  0.66566  0.16749  Biso   1.000  O 
  O18      1.0000 0.03256  0.59127  0.66926  Biso   1.000  O 
  O19      1.0000 0.46850  0.91619  0.16889  Biso   1.000  O 
  O20      1.0000 0.46117  0.83082  0.67219  Biso   1.000  O 
  O21      1.0000 0.27529  0.62465  0.59125  Biso   1.000  O 
  O22      1.0000 0.27824  0.62483  0.09365  Biso   1.000  O 
  O23      1.0000 0.22318  0.87621  0.59314  Biso   1.000  O 
  O24      1.0000 0.22338  0.87390  0.09605  Biso   1.000  O 
  O25      1.0000 0.53090  0.66437  0.34370  Biso   1.000  O 
  O26      1.0000 0.53032  0.59265  0.84887  Biso   1.000  O 
  O27      1.0000 0.96806  0.91565  0.33685  Biso   1.000  O 
  O28      1.0000 0.96770  0.83962  0.83795  Biso   1.000  O 
  O29      1.0000 0.77538  0.63476  0.91363  Biso   1.000  O 
  O30      1.0000 0.78014  0.63587  0.41605  Biso   1.000  O 
  O31      1.0000 0.72244  0.87816  0.91255  Biso   1.000  O 
  O32      1.0000 0.72219  0.87799  0.40816  Biso   1.000  O 
  Si1      1.0000 0.58853  0.26932  0.09695  Biso   1.000  Si
