data_image0
_cell_length_a       10.1758
_cell_length_b       10.3889
_cell_length_c       5.2573
_cell_angle_alpha    90
_cell_angle_beta     80
_cell_angle_gamma    90

_symmetry_space_group_name_H-M    "P 1"
_symmetry_int_tables_number       1

loop_
  _symmetry_equiv_pos_as_xyz
  'x, y, z'

loop_
  _atom_site_label
  _atom_site_occupancy
  _atom_site_fract_x
  _atom_site_fract_y
  _atom_site_fract_z
  _atom_site_thermal_displace_type
  _atom_site_B_iso_or_equiv
  _atom_site_type_symbol
  Hf1      1.0000 0.12538  0.01538  0.30125  Biso   1.000  Hf
  Hf2      1.0000 0.14599  0.23364  0.77624  Biso   1.000  Hf
  Hf3      1.0000 0.36541  0.27772  0.23879  Biso   1.000  Hf
  Hf4      1.0000 0.36043  0.48226  0.70692  Biso   1.000  Hf
  O1       1.0000 0.05054  0.16914  0.14712  Biso   1.000  O 
  O2       1.0000 0.03193  0.08209  0.66181  Biso   1.000  O 
  O3       1.0000 0.46582  0.43305  0.34463  Biso   1.000  O 
  O4       1.0000 0.47672  0.35463  0.88339  Biso   1.000  O 
  O5       1.0000 0.26661  0.12008  0.45304  Biso   1.000  O 
  O6       1.0000 0.31928  0.14519  0.91393  Biso   1.000  O 
  O7       1.0000 0.22335  0.38057  0.01486  Biso   1.000  O 
  O8       1.0000 0.21309  0.37983  0.51120  Biso   1.000  O 
  Hf5      1.0000 0.14299  0.52301  0.28488  Biso   1.000  Hf
  Hf6      1.0000 0.14015  0.72845  0.79155  Biso   1.000  Hf
  Hf7      1.0000 0.36522  0.76870  0.20429  Biso   1.000  Hf
  Hf8      1.0000 0.36555  0.96469  0.69509  Biso   1.000  Hf
  O9       1.0000 0.03596  0.67035  0.15950  Biso   1.000  O 
  O10      1.0000 0.03890  0.58606  0.65658  Biso   1.000  O 
  O11      1.0000 0.46922  0.91571  0.32856  Biso   1.000  O 
  O12      1.0000 0.46536  0.82189  0.83351  Biso   1.000  O 
  O13      1.0000 0.27902  0.62984  0.47930  Biso   1.000  O 
  O14      1.0000 0.27769  0.62607  0.97920  Biso   1.000  O 
  O15      1.0000 0.22771  0.88703  0.01619  Biso   1.000  O 
  O16      1.0000 0.22561  0.86549  0.51364  Biso   1.000  O 
  Hf9      1.0000 0.63685  0.01922  0.29091  Biso   1.000  Hf
  Hf10     1.0000 0.66661  0.23840  0.81210  Biso   1.000  Hf
  Hf11     1.0000 0.87034  0.27176  0.21876  Biso   1.000  Hf
  Hf12     1.0000 0.86909  0.48231  0.71435  Biso   1.000  Hf
  O17      1.0000 0.54014  0.16631  0.15057  Biso   1.000  O 
  O18      1.0000 0.52979  0.06078  0.65795  Biso   1.000  O 
  O19      1.0000 0.96963  0.42042  0.34255  Biso   1.000  O 
  O20      1.0000 0.96820  0.33167  0.84276  Biso   1.000  O 
  O21      1.0000 0.77639  0.13071  0.49077  Biso   1.000  O 
  O22      1.0000 0.78728  0.11534  0.00046  Biso   1.000  O 
  O23      1.0000 0.73306  0.38164  0.04057  Biso   1.000  O 
  O24      1.0000 0.73462  0.37608  0.53107  Biso   1.000  O 
  Hf13     1.0000 0.64218  0.52492  0.30315  Biso   1.000  Hf
  Hf14     1.0000 0.64372  0.72794  0.79382  Biso   1.000  Hf
  Hf15     1.0000 0.86222  0.77073  0.21183  Biso   1.000  Hf
  Hf16     1.0000 0.86612  0.97863  0.71560  Biso   1.000  Hf
  O25      1.0000 0.54066  0.67139  0.16414  Biso   1.000  O 
  O26      1.0000 0.54008  0.58357  0.66493  Biso   1.000  O 
  O27      1.0000 0.96549  0.91644  0.34970  Biso   1.000  O 
  O28      1.0000 0.96974  0.83442  0.84699  Biso   1.000  O 
  O29      1.0000 0.78138  0.63101  0.48656  Biso   1.000  O 
  O30      1.0000 0.78157  0.62325  0.98512  Biso   1.000  O 
  O31      1.0000 0.72594  0.87764  0.02099  Biso   1.000  O 
  O32      1.0000 0.72800  0.87126  0.52337  Biso   1.000  O 
  Si1      1.0000 0.44615  0.22403  0.67773  Biso   1.000  Si
