data_image0
_cell_length_a       10.0706
_cell_length_b       10.1745
_cell_length_c       5.24084
_cell_angle_alpha    90
_cell_angle_beta     80
_cell_angle_gamma    90

_symmetry_space_group_name_H-M    "P 1"
_symmetry_int_tables_number       1

loop_
  _symmetry_equiv_pos_as_xyz
  'x, y, z'

loop_
  _atom_site_label
  _atom_site_occupancy
  _atom_site_fract_x
  _atom_site_fract_y
  _atom_site_fract_z
  _atom_site_thermal_displace_type
  _atom_site_B_iso_or_equiv
  _atom_site_type_symbol
  Si1      1.0000 0.11226  0.01939  0.31015  Biso   1.000  Si
  Hf1      1.0000 0.13902  0.21819  0.76598  Biso   1.000  Hf
  Hf2      1.0000 0.35935  0.26627  0.19297  Biso   1.000  Hf
  Hf3      1.0000 0.36376  0.47443  0.70809  Biso   1.000  Hf
  O1       1.0000 0.04923  0.14219  0.13959  Biso   1.000  O 
  O2       1.0000 0.03255  0.07490  0.62217  Biso   1.000  O 
  O3       1.0000 0.46925  0.40970  0.34937  Biso   1.000  O 
  O4       1.0000 0.47444  0.33954  0.85495  Biso   1.000  O 
  O5       1.0000 0.25219  0.10942  0.41137  Biso   1.000  O 
  O6       1.0000 0.29682  0.14447  0.89894  Biso   1.000  O 
  O7       1.0000 0.22714  0.38450  0.01105  Biso   1.000  O 
  O8       1.0000 0.22918  0.36247  0.51355  Biso   1.000  O 
  Hf4      1.0000 0.14577  0.51918  0.29135  Biso   1.000  Hf
  Hf5      1.0000 0.13992  0.72150  0.79754  Biso   1.000  Hf
  Hf6      1.0000 0.36136  0.77857  0.22448  Biso   1.000  Hf
  Hf7      1.0000 0.36780  0.97799  0.71093  Biso   1.000  Hf
  O9       1.0000 0.03892  0.66220  0.16081  Biso   1.000  O 
  O10      1.0000 0.03806  0.57827  0.66032  Biso   1.000  O 
  O11      1.0000 0.47737  0.91213  0.35782  Biso   1.000  O 
  O12      1.0000 0.46324  0.83376  0.86285  Biso   1.000  O 
  O13      1.0000 0.27988  0.62365  0.48134  Biso   1.000  O 
  O14      1.0000 0.27853  0.62453  0.98482  Biso   1.000  O 
  O15      1.0000 0.22491  0.91615  0.07618  Biso   1.000  O 
  O16      1.0000 0.23110  0.86369  0.55285  Biso   1.000  O 
  Hf8      1.0000 0.63738  0.02130  0.29300  Biso   1.000  Hf
  Hf9      1.0000 0.63992  0.22530  0.79382  Biso   1.000  Hf
  Hf10     1.0000 0.87107  0.26465  0.21187  Biso   1.000  Hf
  Hf11     1.0000 0.86362  0.47217  0.71500  Biso   1.000  Hf
  O17      1.0000 0.53418  0.16224  0.14886  Biso   1.000  O 
  O18      1.0000 0.53585  0.08236  0.65101  Biso   1.000  O 
  O19      1.0000 0.97564  0.40509  0.35647  Biso   1.000  O 
  O20      1.0000 0.96846  0.32523  0.85637  Biso   1.000  O 
  O21      1.0000 0.77941  0.12399  0.47867  Biso   1.000  O 
  O22      1.0000 0.77665  0.11461  0.98155  Biso   1.000  O 
  O23      1.0000 0.73344  0.37623  0.02731  Biso   1.000  O 
  O24      1.0000 0.72939  0.36682  0.52257  Biso   1.000  O 
  Hf12     1.0000 0.64035  0.51932  0.29415  Biso   1.000  Hf
  Hf13     1.0000 0.63851  0.72474  0.80144  Biso   1.000  Hf
  Hf14     1.0000 0.86834  0.76951  0.21504  Biso   1.000  Hf
  Hf15     1.0000 0.86727  0.97202  0.71270  Biso   1.000  Hf
  O25      1.0000 0.53705  0.66635  0.15861  Biso   1.000  O 
  O26      1.0000 0.53563  0.58357  0.65487  Biso   1.000  O 
  O27      1.0000 0.98420  0.91376  0.34577  Biso   1.000  O 
  O28      1.0000 0.96898  0.82855  0.85495  Biso   1.000  O 
  O29      1.0000 0.78109  0.62407  0.48562  Biso   1.000  O 
  O30      1.0000 0.77708  0.61563  0.98588  Biso   1.000  O 
  O31      1.0000 0.73136  0.87780  0.02506  Biso   1.000  O 
  O32      1.0000 0.73440  0.86743  0.52481  Biso   1.000  O 
