data_image0
_cell_length_a       4.95268
_cell_length_b       10.3766
_cell_length_c       9.94797
_cell_angle_alpha    90
_cell_angle_beta     90
_cell_angle_gamma    90

_symmetry_space_group_name_H-M    "P 1"
_symmetry_int_tables_number       1

loop_
  _symmetry_equiv_pos_as_xyz
  'x, y, z'

loop_
  _atom_site_label
  _atom_site_occupancy
  _atom_site_fract_x
  _atom_site_fract_y
  _atom_site_fract_z
  _atom_site_thermal_displace_type
  _atom_site_B_iso_or_equiv
  _atom_site_type_symbol
  Si1      1.0000 0.23754  0.03251  0.10870  Biso   1.000  Si
  Hf1      1.0000 0.28328  0.21542  0.37028  Biso   1.000  Hf
  Hf2      1.0000 0.73914  0.25826  0.11579  Biso   1.000  Hf
  Hf3      1.0000 0.74816  0.46989  0.37471  Biso   1.000  Hf
  O1       1.0000 0.06727  0.16854  0.19102  Biso   1.000  O 
  O2       1.0000 0.08885  0.05477  0.44924  Biso   1.000  O 
  O3       1.0000 0.94045  0.42044  0.19365  Biso   1.000  O 
  O4       1.0000 0.94924  0.30203  0.44129  Biso   1.000  O 
  O5       1.0000 0.49805  0.07904  0.23331  Biso   1.000  O 
  O6       1.0000 0.56818  0.12027  0.48931  Biso   1.000  O 
  O7       1.0000 0.47637  0.36859  0.49652  Biso   1.000  O 
  O8       1.0000 0.47448  0.34630  0.24435  Biso   1.000  O 
  Hf4      1.0000 0.28799  0.00078  0.62253  Biso   1.000  Hf
  Hf5      1.0000 0.29312  0.22025  0.86992  Biso   1.000  Hf
  Hf6      1.0000 0.75430  0.25128  0.62050  Biso   1.000  Hf
  Hf7      1.0000 0.75479  0.47128  0.87191  Biso   1.000  Hf
  O9       1.0000 0.09304  0.16938  0.69490  Biso   1.000  O 
  O10      1.0000 0.08147  0.05185  0.96400  Biso   1.000  O 
  O11      1.0000 0.94850  0.41953  0.69226  Biso   1.000  O 
  O12      1.0000 0.95102  0.29861  0.93804  Biso   1.000  O 
  O13      1.0000 0.56469  0.10178  0.74743  Biso   1.000  O 
  O14      1.0000 0.49434  0.13894  0.00066  Biso   1.000  O 
  O15      1.0000 0.49106  0.36543  0.99387  Biso   1.000  O 
  O16      1.0000 0.48072  0.35295  0.74564  Biso   1.000  O 
  Hf8      1.0000 0.26839  0.51180  0.12736  Biso   1.000  Hf
  Hf9      1.0000 0.28898  0.72323  0.37930  Biso   1.000  Hf
  Hf10     1.0000 0.75509  0.75811  0.12328  Biso   1.000  Hf
  Hf11     1.0000 0.74112  0.97263  0.36474  Biso   1.000  Hf
  O17      1.0000 0.07869  0.67734  0.20249  Biso   1.000  O 
  O18      1.0000 0.08875  0.55307  0.44480  Biso   1.000  O 
  O19      1.0000 0.98832  0.93268  0.18768  Biso   1.000  O 
  O20      1.0000 0.95626  0.80982  0.45320  Biso   1.000  O 
  O21      1.0000 0.54944  0.59504  0.24855  Biso   1.000  O 
  O22      1.0000 0.56212  0.62094  0.50126  Biso   1.000  O 
  O23      1.0000 0.48092  0.87271  0.50331  Biso   1.000  O 
  O24      1.0000 0.52943  0.83413  0.26251  Biso   1.000  O 
  Hf12     1.0000 0.28840  0.50355  0.62354  Biso   1.000  Hf
  Hf13     1.0000 0.28281  0.72072  0.88049  Biso   1.000  Hf
  Hf14     1.0000 0.75221  0.75671  0.62832  Biso   1.000  Hf
  Hf15     1.0000 0.72792  0.96938  0.88269  Biso   1.000  Hf
  O25      1.0000 0.08651  0.66848  0.69988  Biso   1.000  O 
  O26      1.0000 0.08453  0.55280  0.95403  Biso   1.000  O 
  O27      1.0000 0.94144  0.92183  0.70386  Biso   1.000  O 
  O28      1.0000 0.92700  0.80066  0.93838  Biso   1.000  O 
  O29      1.0000 0.55499  0.60427  0.75184  Biso   1.000  O 
  O30      1.0000 0.51666  0.64186  0.00132  Biso   1.000  O 
  O31      1.0000 0.40441  0.90609  0.01914  Biso   1.000  O 
  O32      1.0000 0.46995  0.85293  0.75660  Biso   1.000  O 
