data_image0
_cell_length_a       10.1233
_cell_length_b       10.3357
_cell_length_c       10.4787
_cell_angle_alpha    90
_cell_angle_beta     80
_cell_angle_gamma    90

_symmetry_space_group_name_H-M    "P 1"
_symmetry_int_tables_number       1

loop_
  _symmetry_equiv_pos_as_xyz
  'x, y, z'

loop_
  _atom_site_label
  _atom_site_occupancy
  _atom_site_fract_x
  _atom_site_fract_y
  _atom_site_fract_z
  _atom_site_thermal_displace_type
  _atom_site_B_iso_or_equiv
  _atom_site_type_symbol
  Hf1      1.0000 0.13442  0.02096  0.14295  Biso   1.000  Hf
  Hf2      1.0000 0.14089  0.23297  0.38855  Biso   1.000  Hf
  Hf3      1.0000 0.35909  0.27246  0.10845  Biso   1.000  Hf
  Hf4      1.0000 0.34940  0.48300  0.34912  Biso   1.000  Hf
  O1       1.0000 0.03329  0.17087  0.08011  Biso   1.000  O 
  O2       1.0000 0.03316  0.08218  0.32854  Biso   1.000  O 
  O3       1.0000 0.45392  0.43439  0.16119  Biso   1.000  O 
  O4       1.0000 0.47229  0.35775  0.44060  Biso   1.000  O 
  O5       1.0000 0.27108  0.11895  0.23425  Biso   1.000  O 
  O6       1.0000 0.31767  0.14576  0.45873  Biso   1.000  O 
  O7       1.0000 0.22088  0.37950  0.00815  Biso   1.000  O 
  O8       1.0000 0.20034  0.37874  0.25378  Biso   1.000  O 
  Hf5      1.0000 0.12658  0.01566  0.65454  Biso   1.000  Hf
  Hf6      1.0000 0.13237  0.22898  0.89769  Biso   1.000  Hf
  Hf7      1.0000 0.35818  0.27738  0.61545  Biso   1.000  Hf
  Hf8      1.0000 0.35628  0.47805  0.86009  Biso   1.000  Hf
  O9       1.0000 0.04833  0.16802  0.57543  Biso   1.000  O 
  O10      1.0000 0.02811  0.07930  0.83417  Biso   1.000  O 
  O11      1.0000 0.46337  0.41699  0.68094  Biso   1.000  O 
  O12      1.0000 0.45941  0.33028  0.92449  Biso   1.000  O 
  O13      1.0000 0.26973  0.12783  0.73529  Biso   1.000  O 
  O14      1.0000 0.26915  0.12107  0.98723  Biso   1.000  O 
  O15      1.0000 0.22092  0.37990  0.51298  Biso   1.000  O 
  O16      1.0000 0.21945  0.37195  0.76315  Biso   1.000  O 
  Hf9      1.0000 0.13436  0.52232  0.14257  Biso   1.000  Hf
  Hf10     1.0000 0.13180  0.72903  0.39634  Biso   1.000  Hf
  Hf11     1.0000 0.35638  0.77010  0.10240  Biso   1.000  Hf
  Hf12     1.0000 0.36128  0.96474  0.35132  Biso   1.000  Hf
  O17      1.0000 0.03192  0.67189  0.07906  Biso   1.000  O 
  O18      1.0000 0.02990  0.58532  0.32900  Biso   1.000  O 
  O19      1.0000 0.46112  0.91479  0.16840  Biso   1.000  O 
  O20      1.0000 0.45423  0.81623  0.41997  Biso   1.000  O 
  O21      1.0000 0.26973  0.63100  0.24011  Biso   1.000  O 
  O22      1.0000 0.26692  0.62356  0.49154  Biso   1.000  O 
  O23      1.0000 0.22120  0.87925  0.00816  Biso   1.000  O 
  O24      1.0000 0.21790  0.86716  0.25838  Biso   1.000  O 
  Hf13     1.0000 0.13412  0.52323  0.64685  Biso   1.000  Hf
  Hf14     1.0000 0.13045  0.72851  0.89678  Biso   1.000  Hf
  Hf15     1.0000 0.35738  0.76914  0.60599  Biso   1.000  Hf
  Hf16     1.0000 0.35534  0.97827  0.85398  Biso   1.000  Hf
  O25      1.0000 0.02852  0.66982  0.58202  Biso   1.000  O 
  O26      1.0000 0.02936  0.58056  0.83133  Biso   1.000  O 
  O27      1.0000 0.45838  0.91937  0.66842  Biso   1.000  O 
  O28      1.0000 0.45701  0.83094  0.91885  Biso   1.000  O 
  O29      1.0000 0.27167  0.62782  0.74160  Biso   1.000  O 
  O30      1.0000 0.26873  0.62171  0.99089  Biso   1.000  O 
  O31      1.0000 0.22054  0.88975  0.51092  Biso   1.000  O 
  O32      1.0000 0.21744  0.86931  0.76084  Biso   1.000  O 
  Hf17     1.0000 0.63695  0.01839  0.14816  Biso   1.000  Hf
  Hf18     1.0000 0.65352  0.23166  0.40103  Biso   1.000  Hf
  Hf19     1.0000 0.85795  0.27237  0.10588  Biso   1.000  Hf
  Hf20     1.0000 0.85984  0.47943  0.35476  Biso   1.000  Hf
  O33      1.0000 0.53176  0.16168  0.07828  Biso   1.000  O 
  O34      1.0000 0.54385  0.04979  0.33809  Biso   1.000  O 
  O35      1.0000 0.95792  0.42312  0.16803  Biso   1.000  O 
  O36      1.0000 0.96263  0.33082  0.42088  Biso   1.000  O 
  O37      1.0000 0.77512  0.12975  0.24205  Biso   1.000  O 
  O38      1.0000 0.78152  0.11570  0.49518  Biso   1.000  O 
  O39      1.0000 0.72019  0.37822  0.01213  Biso   1.000  O 
  O40      1.0000 0.72175  0.37269  0.26236  Biso   1.000  O 
  Hf21     1.0000 0.63455  0.02211  0.64518  Biso   1.000  Hf
  Hf22     1.0000 0.63280  0.22711  0.89826  Biso   1.000  Hf
  Hf23     1.0000 0.86488  0.26940  0.60635  Biso   1.000  Hf
  Hf24     1.0000 0.85485  0.47737  0.85727  Biso   1.000  Hf
  O41      1.0000 0.53598  0.17275  0.58016  Biso   1.000  O 
  O42      1.0000 0.53023  0.08162  0.82808  Biso   1.000  O 
  O43      1.0000 0.96249  0.41696  0.67295  Biso   1.000  O 
  O44      1.0000 0.95742  0.33029  0.92166  Biso   1.000  O 
  O45      1.0000 0.77378  0.12822  0.74218  Biso   1.000  O 
  O46      1.0000 0.77023  0.12079  0.99319  Biso   1.000  O 
  O47      1.0000 0.72736  0.37859  0.51537  Biso   1.000  O 
  O48      1.0000 0.72145  0.36922  0.76215  Biso   1.000  O 
  Hf25     1.0000 0.63390  0.52290  0.14635  Biso   1.000  Hf
  Hf26     1.0000 0.63495  0.72486  0.39583  Biso   1.000  Hf
  Hf27     1.0000 0.85703  0.77011  0.10491  Biso   1.000  Hf
  Hf28     1.0000 0.85844  0.97712  0.35417  Biso   1.000  Hf
  O49      1.0000 0.53420  0.67307  0.07958  Biso   1.000  O 
  O50      1.0000 0.53012  0.58184  0.32765  Biso   1.000  O 
  O51      1.0000 0.95986  0.91819  0.17018  Biso   1.000  O 
  O52      1.0000 0.95955  0.83288  0.42405  Biso   1.000  O 
  O53      1.0000 0.77294  0.62785  0.24159  Biso   1.000  O 
  O54      1.0000 0.77182  0.61995  0.49174  Biso   1.000  O 
  O55      1.0000 0.72030  0.87889  0.01052  Biso   1.000  O 
  O56      1.0000 0.72253  0.86618  0.25993  Biso   1.000  O 
  Hf29     1.0000 0.63629  0.52059  0.64950  Biso   1.000  Hf
  Hf30     1.0000 0.63158  0.72855  0.89746  Biso   1.000  Hf
  Hf31     1.0000 0.85253  0.77067  0.60558  Biso   1.000  Hf
  Hf32     1.0000 0.85023  0.97795  0.85860  Biso   1.000  Hf
  O57      1.0000 0.53108  0.66631  0.58335  Biso   1.000  O 
  O58      1.0000 0.53130  0.58041  0.83360  Biso   1.000  O 
  O59      1.0000 0.95548  0.91739  0.67451  Biso   1.000  O 
  O60      1.0000 0.95611  0.83093  0.92053  Biso   1.000  O 
  O61      1.0000 0.77159  0.62839  0.74199  Biso   1.000  O 
  O62      1.0000 0.76892  0.62000  0.99190  Biso   1.000  O 
  O63      1.0000 0.71652  0.87717  0.51026  Biso   1.000  O 
  O64      1.0000 0.71582  0.87074  0.76094  Biso   1.000  O 
  Si1      1.0000 0.42799  0.23811  0.33753  Biso   1.000  Si
