data_image0
_cell_length_a       9.92452
_cell_length_b       5.18486
_cell_length_c       9.92622
_cell_angle_alpha    90
_cell_angle_beta     90
_cell_angle_gamma    90

_symmetry_space_group_name_H-M    "P 1"
_symmetry_int_tables_number       1

loop_
  _symmetry_equiv_pos_as_xyz
  'x, y, z'

loop_
  _atom_site_label
  _atom_site_occupancy
  _atom_site_fract_x
  _atom_site_fract_y
  _atom_site_fract_z
  _atom_site_thermal_displace_type
  _atom_site_B_iso_or_equiv
  _atom_site_type_symbol
  Si1      1.0000 0.11664  0.05409  0.11112  Biso   1.000  Si
  Hf1      1.0000 0.14159  0.40559  0.36916  Biso   1.000  Hf
  Hf2      1.0000 0.39232  0.51877  0.10684  Biso   1.000  Hf
  Hf3      1.0000 0.36511  0.91246  0.36852  Biso   1.000  Hf
  O1       1.0000 0.04309  0.34592  0.17975  Biso   1.000  O 
  O2       1.0000 0.03474  0.10458  0.46220  Biso   1.000  O 
  O3       1.0000 0.46953  0.86443  0.18588  Biso   1.000  O 
  O4       1.0000 0.48243  0.61771  0.46256  Biso   1.000  O 
  O5       1.0000 0.21951  0.07659  0.25164  Biso   1.000  O 
  O6       1.0000 0.28162  0.21704  0.49854  Biso   1.000  O 
  O7       1.0000 0.23093  0.71575  0.50363  Biso   1.000  O 
  O8       1.0000 0.28568  0.58518  0.26908  Biso   1.000  O 
  Hf4      1.0000 0.14575  0.99153  0.63032  Biso   1.000  Hf
  Hf5      1.0000 0.14153  0.42010  0.88718  Biso   1.000  Hf
  Hf6      1.0000 0.37083  0.49729  0.63004  Biso   1.000  Hf
  Hf7      1.0000 0.36406  0.92369  0.88746  Biso   1.000  Hf
  O9       1.0000 0.04154  0.31516  0.70764  Biso   1.000  O 
  O10      1.0000 0.04505  0.05872  0.95516  Biso   1.000  O 
  O11      1.0000 0.46484  0.83409  0.70165  Biso   1.000  O 
  O12      1.0000 0.47000  0.59252  0.92813  Biso   1.000  O 
  O13      1.0000 0.27888  0.19771  0.75939  Biso   1.000  O 
  O14      1.0000 0.25290  0.27516  0.01890  Biso   1.000  O 
  O15      1.0000 0.21399  0.80076  0.02360  Biso   1.000  O 
  O16      1.0000 0.23256  0.69248  0.76146  Biso   1.000  O 
  Hf8      1.0000 0.64130  0.03632  0.12696  Biso   1.000  Hf
  Hf9      1.0000 0.64345  0.44407  0.37932  Biso   1.000  Hf
  Hf10     1.0000 0.87351  0.53201  0.12046  Biso   1.000  Hf
  Hf11     1.0000 0.87675  0.94306  0.37106  Biso   1.000  Hf
  O17      1.0000 0.54465  0.36341  0.20292  Biso   1.000  O 
  O18      1.0000 0.54133  0.10171  0.43364  Biso   1.000  O 
  O19      1.0000 0.98671  0.86505  0.18194  Biso   1.000  O 
  O20      1.0000 0.97203  0.59427  0.43070  Biso   1.000  O 
  O21      1.0000 0.78373  0.22313  0.24643  Biso   1.000  O 
  O22      1.0000 0.77413  0.22858  0.49627  Biso   1.000  O 
  O23      1.0000 0.74603  0.73463  0.49446  Biso   1.000  O 
  O24      1.0000 0.73888  0.72422  0.24406  Biso   1.000  O 
  Hf12     1.0000 0.63103  0.98010  0.61355  Biso   1.000  Hf
  Hf13     1.0000 0.64598  0.41019  0.86555  Biso   1.000  Hf
  Hf14     1.0000 0.88147  0.48195  0.61711  Biso   1.000  Hf
  Hf15     1.0000 0.87315  0.91086  0.86779  Biso   1.000  Hf
  O25      1.0000 0.54146  0.32032  0.69001  Biso   1.000  O 
  O26      1.0000 0.52879  0.11271  0.96183  Biso   1.000  O 
  O27      1.0000 0.97480  0.81534  0.69126  Biso   1.000  O 
  O28      1.0000 0.96479  0.56625  0.93602  Biso   1.000  O 
  O29      1.0000 0.77206  0.16938  0.74357  Biso   1.000  O 
  O30      1.0000 0.77793  0.20344  0.99452  Biso   1.000  O 
  O31      1.0000 0.73498  0.70630  0.99113  Biso   1.000  O 
  O32      1.0000 0.73983  0.67258  0.74007  Biso   1.000  O 
