data_image0
_cell_length_a       10.1602
_cell_length_b       5.15437
_cell_length_c       10.4168
_cell_angle_alpha    90
_cell_angle_beta     90
_cell_angle_gamma    90

_symmetry_space_group_name_H-M    "P 1"
_symmetry_int_tables_number       1

loop_
  _symmetry_equiv_pos_as_xyz
  'x, y, z'

loop_
  _atom_site_label
  _atom_site_occupancy
  _atom_site_fract_x
  _atom_site_fract_y
  _atom_site_fract_z
  _atom_site_thermal_displace_type
  _atom_site_B_iso_or_equiv
  _atom_site_type_symbol
  Hf1      1.0000 0.12452  0.03457  0.17346  Biso   1.000  Hf
  Hf2      1.0000 0.12070  0.46056  0.42774  Biso   1.000  Hf
  Hf3      1.0000 0.33987  0.52117  0.18832  Biso   1.000  Hf
  Hf4      1.0000 0.34600  0.96052  0.42920  Biso   1.000  Hf
  Hf5      1.0000 0.65690  0.05463  0.05997  Biso   1.000  Hf
  Hf6      1.0000 0.62497  0.47405  0.34416  Biso   1.000  Hf
  Hf7      1.0000 0.85889  0.54160  0.07928  Biso   1.000  Hf
  Hf8      1.0000 0.84840  0.96832  0.33171  Biso   1.000  Hf
  O1       1.0000 0.02863  0.34985  0.09571  Biso   1.000  O 
  O2       1.0000 0.02226  0.16424  0.34021  Biso   1.000  O 
  O3       1.0000 0.48865  0.78415  0.07633  Biso   1.000  O 
  O4       1.0000 0.44617  0.65769  0.34659  Biso   1.000  O 
  O5       1.0000 0.26064  0.24109  0.29969  Biso   1.000  O 
  O6       1.0000 0.24611  0.22343  0.04281  Biso   1.000  O 
  O7       1.0000 0.20626  0.74699  0.30413  Biso   1.000  O 
  O8       1.0000 0.23529  0.74127  0.05738  Biso   1.000  O 
  O9       1.0000 0.46456  0.24832  0.08581  Biso   1.000  O 
  O10      1.0000 0.52113  0.16402  0.40914  Biso   1.000  O 
  O11      1.0000 0.95217  0.84620  0.16564  Biso   1.000  O 
  O12      1.0000 0.95031  0.66556  0.41572  Biso   1.000  O 
  O13      1.0000 0.76414  0.25414  0.45868  Biso   1.000  O 
  O14      1.0000 0.76505  0.25835  0.21011  Biso   1.000  O 
  O15      1.0000 0.71129  0.76227  0.45759  Biso   1.000  O 
  O16      1.0000 0.71554  0.76480  0.20340  Biso   1.000  O 
  Hf9      1.0000 0.12814  0.04777  0.67670  Biso   1.000  Hf
  Hf10     1.0000 0.11529  0.47073  0.92516  Biso   1.000  Hf
  Hf11     1.0000 0.34841  0.54956  0.67765  Biso   1.000  Hf
  Hf12     1.0000 0.34786  0.98312  0.92871  Biso   1.000  Hf
  Hf13     1.0000 0.62443  0.05123  0.58269  Biso   1.000  Hf
  Hf14     1.0000 0.62310  0.46491  0.82806  Biso   1.000  Hf
  Hf15     1.0000 0.84881  0.54715  0.58133  Biso   1.000  Hf
  Hf16     1.0000 0.84999  0.96598  0.82431  Biso   1.000  Hf
  O17      1.0000 0.01996  0.33997  0.58999  Biso   1.000  O 
  O18      1.0000 0.02029  0.17754  0.83472  Biso   1.000  O 
  O19      1.0000 0.45027  0.85529  0.59312  Biso   1.000  O 
  O20      1.0000 0.44749  0.65449  0.84227  Biso   1.000  O 
  O21      1.0000 0.26445  0.25932  0.79884  Biso   1.000  O 
  O22      1.0000 0.26108  0.25551  0.54866  Biso   1.000  O 
  O23      1.0000 0.21010  0.76366  0.80430  Biso   1.000  O 
  O24      1.0000 0.21123  0.75338  0.55225  Biso   1.000  O 
  O25      1.0000 0.52320  0.36282  0.65491  Biso   1.000  O 
  O26      1.0000 0.53323  0.12509  0.88182  Biso   1.000  O 
  O27      1.0000 0.95668  0.83766  0.66489  Biso   1.000  O 
  O28      1.0000 0.94845  0.67930  0.92016  Biso   1.000  O 
  O29      1.0000 0.77417  0.24951  0.94816  Biso   1.000  O 
  O30      1.0000 0.76186  0.25847  0.70365  Biso   1.000  O 
  O31      1.0000 0.71376  0.76942  0.94777  Biso   1.000  O 
  O32      1.0000 0.71230  0.75781  0.70342  Biso   1.000  O 
  Si1      1.0000 0.57261  0.50916  0.10058  Biso   1.000  Si
