data_image0
_cell_length_a       5.03312
_cell_length_b       10.4188
_cell_length_c       10.0583
_cell_angle_alpha    90
_cell_angle_beta     90
_cell_angle_gamma    90

_symmetry_space_group_name_H-M    "P 1"
_symmetry_int_tables_number       1

loop_
  _symmetry_equiv_pos_as_xyz
  'x, y, z'

loop_
  _atom_site_label
  _atom_site_occupancy
  _atom_site_fract_x
  _atom_site_fract_y
  _atom_site_fract_z
  _atom_site_thermal_displace_type
  _atom_site_B_iso_or_equiv
  _atom_site_type_symbol
  Hf1      1.0000 0.28582  0.01325  0.11768  Biso   1.000  Hf
  Hf2      1.0000 0.24620  0.22444  0.40989  Biso   1.000  Hf
  Hf3      1.0000 0.66236  0.25768  0.13456  Biso   1.000  Hf
  Hf4      1.0000 0.71736  0.48762  0.38560  Biso   1.000  Hf
  O1       1.0000 0.00138  0.17326  0.23369  Biso   1.000  O 
  O2       1.0000 0.08057  0.05400  0.45497  Biso   1.000  O 
  O3       1.0000 0.84923  0.43548  0.20384  Biso   1.000  O 
  O4       1.0000 0.90934  0.31920  0.45214  Biso   1.000  O 
  O5       1.0000 0.49822  0.11659  0.26683  Biso   1.000  O 
  O6       1.0000 0.55734  0.13046  0.51273  Biso   1.000  O 
  O7       1.0000 0.43984  0.38269  0.49817  Biso   1.000  O 
  O8       1.0000 0.34297  0.35595  0.23982  Biso   1.000  O 
  Hf5      1.0000 0.28955  0.01189  0.63280  Biso   1.000  Hf
  Hf6      1.0000 0.23789  0.23683  0.86566  Biso   1.000  Hf
  Hf7      1.0000 0.73436  0.27200  0.64072  Biso   1.000  Hf
  Hf8      1.0000 0.69554  0.48581  0.86418  Biso   1.000  Hf
  O9       1.0000 0.09651  0.18654  0.66664  Biso   1.000  O 
  O10      1.0000 0.10784  0.05785  0.93078  Biso   1.000  O 
  O11      1.0000 0.87365  0.45828  0.66829  Biso   1.000  O 
  O12      1.0000 0.87014  0.30578  0.84953  Biso   1.000  O 
  O13      1.0000 0.53611  0.11950  0.76220  Biso   1.000  O 
  O14      1.0000 0.62776  0.10637  0.01532  Biso   1.000  O 
  O15      1.0000 0.45924  0.37923  0.99695  Biso   1.000  O 
  O16      1.0000 0.41029  0.37816  0.74584  Biso   1.000  O 
  Hf9      1.0000 0.21684  0.52475  0.12444  Biso   1.000  Hf
  Hf10     1.0000 0.23679  0.73802  0.37629  Biso   1.000  Hf
  Hf11     1.0000 0.69141  0.76417  0.12761  Biso   1.000  Hf
  Hf12     1.0000 0.69444  0.98574  0.37473  Biso   1.000  Hf
  O17      1.0000 0.02990  0.68223  0.19597  Biso   1.000  O 
  O18      1.0000 0.04927  0.57049  0.44117  Biso   1.000  O 
  O19      1.0000 0.89449  0.93124  0.19393  Biso   1.000  O 
  O20      1.0000 0.88957  0.81432  0.44298  Biso   1.000  O 
  O21      1.0000 0.49565  0.61453  0.25345  Biso   1.000  O 
  O22      1.0000 0.50590  0.63656  0.50094  Biso   1.000  O 
  O23      1.0000 0.42721  0.88382  0.50019  Biso   1.000  O 
  O24      1.0000 0.42781  0.86664  0.24878  Biso   1.000  O 
  Hf13     1.0000 0.24035  0.52039  0.62180  Biso   1.000  Hf
  Hf14     1.0000 0.22881  0.73319  0.87543  Biso   1.000  Hf
  Hf15     1.0000 0.70345  0.76829  0.62547  Biso   1.000  Hf
  Hf16     1.0000 0.69510  0.97771  0.87803  Biso   1.000  Hf
  O25      1.0000 0.04285  0.68867  0.69434  Biso   1.000  O 
  O26      1.0000 0.03036  0.55985  0.94348  Biso   1.000  O 
  O27      1.0000 0.89105  0.93426  0.69663  Biso   1.000  O 
  O28      1.0000 0.88605  0.81012  0.94783  Biso   1.000  O 
  O29      1.0000 0.50499  0.62290  0.75067  Biso   1.000  O 
  O30      1.0000 0.49806  0.63027  0.00170  Biso   1.000  O 
  O31      1.0000 0.42234  0.87472  0.00069  Biso   1.000  O 
  O32      1.0000 0.42826  0.86614  0.75220  Biso   1.000  O 
  Si1      1.0000 0.16099  0.26695  0.12387  Biso   1.000  Si
