data_image0
_cell_length_a       10.1367
_cell_length_b       5.17632
_cell_length_c       10.5466
_cell_angle_alpha    90
_cell_angle_beta     80
_cell_angle_gamma    90

_symmetry_space_group_name_H-M    "P 1"
_symmetry_int_tables_number       1

loop_
  _symmetry_equiv_pos_as_xyz
  'x, y, z'

loop_
  _atom_site_label
  _atom_site_occupancy
  _atom_site_fract_x
  _atom_site_fract_y
  _atom_site_fract_z
  _atom_site_thermal_displace_type
  _atom_site_B_iso_or_equiv
  _atom_site_type_symbol
  Hf1      1.0000 0.13416  0.04438  0.14420  Biso   1.000  Hf
  Hf2      1.0000 0.13213  0.45869  0.40030  Biso   1.000  Hf
  Hf3      1.0000 0.36333  0.54344  0.09765  Biso   1.000  Hf
  Hf4      1.0000 0.34668  0.85565  0.33396  Biso   1.000  Hf
  O1       1.0000 0.02991  0.34436  0.08016  Biso   1.000  O 
  O2       1.0000 0.03186  0.16491  0.32621  Biso   1.000  O 
  O3       1.0000 0.45926  0.87379  0.14518  Biso   1.000  O 
  O4       1.0000 0.46893  0.63605  0.43030  Biso   1.000  O 
  O5       1.0000 0.27882  0.22237  0.24497  Biso   1.000  O 
  O6       1.0000 0.29241  0.25259  0.48491  Biso   1.000  O 
  O7       1.0000 0.22191  0.76753  0.00549  Biso   1.000  O 
  O8       1.0000 0.19449  0.72448  0.24518  Biso   1.000  O 
  Hf5      1.0000 0.14032  0.03917  0.64768  Biso   1.000  Hf
  Hf6      1.0000 0.13457  0.45446  0.89951  Biso   1.000  Hf
  Hf7      1.0000 0.35933  0.54150  0.61721  Biso   1.000  Hf
  Hf8      1.0000 0.35845  0.95296  0.85828  Biso   1.000  Hf
  O9       1.0000 0.03642  0.33064  0.58317  Biso   1.000  O 
  O10      1.0000 0.03582  0.15590  0.83216  Biso   1.000  O 
  O11      1.0000 0.46332  0.83815  0.67331  Biso   1.000  O 
  O12      1.0000 0.46293  0.65065  0.91351  Biso   1.000  O 
  O13      1.0000 0.27578  0.25312  0.74313  Biso   1.000  O 
  O14      1.0000 0.27108  0.23800  0.99265  Biso   1.000  O 
  O15      1.0000 0.22022  0.75561  0.52061  Biso   1.000  O 
  O16      1.0000 0.22172  0.73835  0.76405  Biso   1.000  O 
  Hf9      1.0000 0.63660  0.04681  0.14152  Biso   1.000  Hf
  Hf10     1.0000 0.65229  0.45893  0.40463  Biso   1.000  Hf
  Hf11     1.0000 0.85636  0.54587  0.10557  Biso   1.000  Hf
  Hf12     1.0000 0.86067  0.95735  0.35388  Biso   1.000  Hf
  O17      1.0000 0.54132  0.35316  0.07775  Biso   1.000  O 
  O18      1.0000 0.51703  0.18371  0.32839  Biso   1.000  O 
  O19      1.0000 0.95458  0.84758  0.16809  Biso   1.000  O 
  O20      1.0000 0.95991  0.67264  0.42703  Biso   1.000  O 
  O21      1.0000 0.76818  0.26207  0.24588  Biso   1.000  O 
  O22      1.0000 0.78018  0.23568  0.49409  Biso   1.000  O 
  O23      1.0000 0.72235  0.76502  0.01031  Biso   1.000  O 
  O24      1.0000 0.71500  0.74768  0.26413  Biso   1.000  O 
  Hf13     1.0000 0.63876  0.04065  0.65105  Biso   1.000  Hf
  Hf14     1.0000 0.63821  0.45406  0.89562  Biso   1.000  Hf
  Hf15     1.0000 0.86308  0.54297  0.60941  Biso   1.000  Hf
  Hf16     1.0000 0.86046  0.95369  0.85696  Biso   1.000  Hf
  O25      1.0000 0.53940  0.33587  0.58555  Biso   1.000  O 
  O26      1.0000 0.53650  0.15458  0.83362  Biso   1.000  O 
  O27      1.0000 0.96566  0.83194  0.67521  Biso   1.000  O 
  O28      1.0000 0.95972  0.65590  0.92257  Biso   1.000  O 
  O29      1.0000 0.77733  0.25600  0.74294  Biso   1.000  O 
  O30      1.0000 0.77557  0.23606  0.99210  Biso   1.000  O 
  O31      1.0000 0.72166  0.75447  0.51392  Biso   1.000  O 
  O32      1.0000 0.72467  0.73978  0.76142  Biso   1.000  O 
  Si1      1.0000 0.38614  0.39295  0.33595  Biso   1.000  Si
