data_image0
_cell_length_a       10.2745
_cell_length_b       10.3612
_cell_length_c       5.11932
_cell_angle_alpha    90
_cell_angle_beta     90
_cell_angle_gamma    90

_symmetry_space_group_name_H-M    "P 1"
_symmetry_int_tables_number       1

loop_
  _symmetry_equiv_pos_as_xyz
  'x, y, z'

loop_
  _atom_site_label
  _atom_site_occupancy
  _atom_site_fract_x
  _atom_site_fract_y
  _atom_site_fract_z
  _atom_site_thermal_displace_type
  _atom_site_B_iso_or_equiv
  _atom_site_type_symbol
  Hf1      1.0000 0.13868  0.98311  0.34036  Biso   1.000  Hf
  Hf2      1.0000 0.11562  0.23642  0.74933  Biso   1.000  Hf
  Hf3      1.0000 0.32023  0.24552  0.24968  Biso   1.000  Hf
  Hf4      1.0000 0.37117  0.99614  0.82420  Biso   1.000  Hf
  O1       1.0000 0.94874  0.18990  0.02562  Biso   1.000  O 
  O2       1.0000 0.02275  0.05460  0.63328  Biso   1.000  O 
  O3       1.0000 0.94874  0.30115  0.47373  Biso   1.000  O 
  O4       1.0000 0.02275  0.41825  0.86540  Biso   1.000  O 
  O5       1.0000 0.26741  0.12397  0.55450  Biso   1.000  O 
  O6       1.0000 0.21840  0.10202  0.02676  Biso   1.000  O 
  O7       1.0000 0.26741  0.34889  0.94419  Biso   1.000  O 
  O8       1.0000 0.21839  0.38902  0.47260  Biso   1.000  O 
  Hf5      1.0000 0.13869  0.50794  0.15901  Biso   1.000  Hf
  Hf6      1.0000 0.17535  0.73642  0.74934  Biso   1.000  Hf
  Hf7      1.0000 0.40117  0.74552  0.24968  Biso   1.000  Hf
  Hf8      1.0000 0.37116  0.47671  0.67449  Biso   1.000  Hf
  O9       1.0000 0.04165  0.66093  0.99058  Biso   1.000  O 
  O10      1.0000 0.98610  0.55932  0.40084  Biso   1.000  O 
  O11      1.0000 0.04165  0.81193  0.50812  Biso   1.000  O 
  O12      1.0000 0.98610  0.93174  0.09854  Biso   1.000  O 
  O13      1.0000 0.25686  0.63119  0.45563  Biso   1.000  O 
  O14      1.0000 0.28802  0.59514  0.95774  Biso   1.000  O 
  O15      1.0000 0.25686  0.85985  0.04374  Biso   1.000  O 
  O16      1.0000 0.28801  0.87772  0.54095  Biso   1.000  O 
  Hf9      1.0000 0.63491  0.97233  0.33107  Biso   1.000  Hf
  Hf10     1.0000 0.58491  0.23642  0.74934  Biso   1.000  Hf
  Hf11     1.0000 0.79166  0.24551  0.24969  Biso   1.000  Hf
  Hf12     1.0000 0.86625  0.99529  0.83450  Biso   1.000  Hf
  O17      1.0000 0.46036  0.17745  0.01107  Biso   1.000  O 
  O18      1.0000 0.51289  0.06286  0.57392  Biso   1.000  O 
  O19      1.0000 0.46035  0.31360  0.48828  Biso   1.000  O 
  O20      1.0000 0.51289  0.41000  0.92476  Biso   1.000  O 
  O21      1.0000 0.73974  0.13087  0.54803  Biso   1.000  O 
  O22      1.0000 0.71010  0.09986  0.04145  Biso   1.000  O 
  O23      1.0000 0.73973  0.34197  0.95069  Biso   1.000  O 
  O24      1.0000 0.71009  0.39118  0.45794  Biso   1.000  O 
  Hf13     1.0000 0.63492  0.51872  0.16832  Biso   1.000  Hf
  Hf14     1.0000 0.67070  0.73642  0.74934  Biso   1.000  Hf
  Hf15     1.0000 0.90836  0.74552  0.24969  Biso   1.000  Hf
  Hf16     1.0000 0.86625  0.47755  0.66418  Biso   1.000  Hf
  O25      1.0000 0.54031  0.65825  0.99358  Biso   1.000  O 
  O26      1.0000 0.49486  0.57307  0.43094  Biso   1.000  O 
  O27      1.0000 0.54031  0.81460  0.50511  Biso   1.000  O 
  O28      1.0000 0.49487  0.91797  0.06842  Biso   1.000  O 
  O29      1.0000 0.76017  0.63679  0.45691  Biso   1.000  O 
  O30      1.0000 0.78398  0.58999  0.95079  Biso   1.000  O 
  O31      1.0000 0.76017  0.85425  0.04245  Biso   1.000  O 
  O32      1.0000 0.78398  0.88286  0.54789  Biso   1.000  O 
  Si1      1.0000 0.05892  0.24552  0.24967  Biso   1.000  Si
