data_image0
_cell_length_a       10.0713
_cell_length_b       5.08252
_cell_length_c       10.5084
_cell_angle_alpha    90
_cell_angle_beta     80
_cell_angle_gamma    90

_symmetry_space_group_name_H-M    "P 1"
_symmetry_int_tables_number       1

loop_
  _symmetry_equiv_pos_as_xyz
  'x, y, z'

loop_
  _atom_site_label
  _atom_site_occupancy
  _atom_site_fract_x
  _atom_site_fract_y
  _atom_site_fract_z
  _atom_site_thermal_displace_type
  _atom_site_B_iso_or_equiv
  _atom_site_type_symbol
  Si1      1.0000 0.11549  0.04336  0.15781  Biso   1.000  Si
  Hf1      1.0000 0.13701  0.43369  0.39073  Biso   1.000  Hf
  Hf2      1.0000 0.35493  0.54979  0.10415  Biso   1.000  Hf
  Hf3      1.0000 0.36389  0.93963  0.35076  Biso   1.000  Hf
  O1       1.0000 0.04930  0.29376  0.07765  Biso   1.000  O 
  O2       1.0000 0.03316  0.14731  0.31419  Biso   1.000  O 
  O3       1.0000 0.47628  0.81088  0.17850  Biso   1.000  O 
  O4       1.0000 0.47041  0.67294  0.42960  Biso   1.000  O 
  O5       1.0000 0.25496  0.21493  0.21551  Biso   1.000  O 
  O6       1.0000 0.27402  0.23036  0.48053  Biso   1.000  O 
  O7       1.0000 0.22423  0.85145  0.03651  Biso   1.000  O 
  O8       1.0000 0.23078  0.71058  0.26776  Biso   1.000  O 
  Hf4      1.0000 0.13208  0.02149  0.64317  Biso   1.000  Hf
  Hf5      1.0000 0.13190  0.43459  0.89023  Biso   1.000  Hf
  Hf6      1.0000 0.36030  0.53416  0.60698  Biso   1.000  Hf
  Hf7      1.0000 0.35855  0.96336  0.86219  Biso   1.000  Hf
  O9       1.0000 0.02582  0.29404  0.56921  Biso   1.000  O 
  O10      1.0000 0.02494  0.15604  0.82362  Biso   1.000  O 
  O11      1.0000 0.46568  0.81317  0.68127  Biso   1.000  O 
  O12      1.0000 0.46472  0.68628  0.93469  Biso   1.000  O 
  O13      1.0000 0.26698  0.23888  0.72992  Biso   1.000  O 
  O14      1.0000 0.28815  0.30195  0.96337  Biso   1.000  O 
  O15      1.0000 0.22287  0.73701  0.51314  Biso   1.000  O 
  O16      1.0000 0.22343  0.73143  0.76937  Biso   1.000  O 
  Hf8      1.0000 0.63531  0.04303  0.14499  Biso   1.000  Hf
  Hf9      1.0000 0.63821  0.44557  0.39560  Biso   1.000  Hf
  Hf10     1.0000 0.87282  0.53401  0.10744  Biso   1.000  Hf
  Hf11     1.0000 0.86346  0.94205  0.35642  Biso   1.000  Hf
  O17      1.0000 0.53003  0.32457  0.07408  Biso   1.000  O 
  O18      1.0000 0.52774  0.17368  0.32220  Biso   1.000  O 
  O19      1.0000 0.98629  0.82266  0.17437  Biso   1.000  O 
  O20      1.0000 0.96648  0.65383  0.42594  Biso   1.000  O 
  O21      1.0000 0.77743  0.24474  0.23967  Biso   1.000  O 
  O22      1.0000 0.77346  0.22664  0.49003  Biso   1.000  O 
  O23      1.0000 0.73366  0.75581  0.01401  Biso   1.000  O 
  O24      1.0000 0.73521  0.73107  0.25991  Biso   1.000  O 
  Hf12     1.0000 0.63144  0.02858  0.64839  Biso   1.000  Hf
  Hf13     1.0000 0.63065  0.44796  0.90117  Biso   1.000  Hf
  Hf14     1.0000 0.85820  0.52338  0.60700  Biso   1.000  Hf
  Hf15     1.0000 0.85956  0.93757  0.85822  Biso   1.000  Hf
  O25      1.0000 0.52963  0.31098  0.57284  Biso   1.000  O 
  O26      1.0000 0.52650  0.17292  0.82327  Biso   1.000  O 
  O27      1.0000 0.96841  0.79445  0.68097  Biso   1.000  O 
  O28      1.0000 0.96513  0.65470  0.93407  Biso   1.000  O 
  O29      1.0000 0.77159  0.23973  0.74196  Biso   1.000  O 
  O30      1.0000 0.77032  0.22767  0.99283  Biso   1.000  O 
  O31      1.0000 0.72341  0.74058  0.51317  Biso   1.000  O 
  O32      1.0000 0.72131  0.72953  0.76476  Biso   1.000  O 
