data_image0
_cell_length_a       10.0774
_cell_length_b       10.2213
_cell_length_c       10.4574
_cell_angle_alpha    90
_cell_angle_beta     80
_cell_angle_gamma    90

_symmetry_space_group_name_H-M    "P 1"
_symmetry_int_tables_number       1

loop_
  _symmetry_equiv_pos_as_xyz
  'x, y, z'

loop_
  _atom_site_label
  _atom_site_occupancy
  _atom_site_fract_x
  _atom_site_fract_y
  _atom_site_fract_z
  _atom_site_thermal_displace_type
  _atom_site_B_iso_or_equiv
  _atom_site_type_symbol
  Si1      1.0000 0.11768  0.01236  0.16499  Biso   1.000  Si
  Hf1      1.0000 0.13447  0.22429  0.38840  Biso   1.000  Hf
  Hf2      1.0000 0.35898  0.26780  0.10057  Biso   1.000  Hf
  Hf3      1.0000 0.36129  0.47689  0.35363  Biso   1.000  Hf
  O1       1.0000 0.05295  0.14506  0.08261  Biso   1.000  O 
  O2       1.0000 0.03449  0.07288  0.31985  Biso   1.000  O 
  O3       1.0000 0.46573  0.41681  0.17133  Biso   1.000  O 
  O4       1.0000 0.46382  0.33204  0.42214  Biso   1.000  O 
  O5       1.0000 0.25731  0.11300  0.21864  Biso   1.000  O 
  O6       1.0000 0.27214  0.12146  0.48037  Biso   1.000  O 
  O7       1.0000 0.22669  0.38535  0.00868  Biso   1.000  O 
  O8       1.0000 0.22589  0.36587  0.25892  Biso   1.000  O 
  Hf4      1.0000 0.12927  0.01836  0.64398  Biso   1.000  Hf
  Hf5      1.0000 0.13511  0.22106  0.89557  Biso   1.000  Hf
  Hf6      1.0000 0.35578  0.26995  0.60294  Biso   1.000  Hf
  Hf7      1.0000 0.35504  0.47766  0.85644  Biso   1.000  Hf
  O9       1.0000 0.02852  0.16093  0.57160  Biso   1.000  O 
  O10      1.0000 0.02534  0.08121  0.82636  Biso   1.000  O 
  O11      1.0000 0.46016  0.41522  0.67308  Biso   1.000  O 
  O12      1.0000 0.46483  0.33931  0.92575  Biso   1.000  O 
  O13      1.0000 0.26692  0.12422  0.73123  Biso   1.000  O 
  O14      1.0000 0.29159  0.14288  0.96543  Biso   1.000  O 
  O15      1.0000 0.21871  0.37623  0.50808  Biso   1.000  O 
  O16      1.0000 0.21948  0.36731  0.76084  Biso   1.000  O 
  Hf8      1.0000 0.14240  0.52256  0.14639  Biso   1.000  Hf
  Hf9      1.0000 0.13862  0.72667  0.39777  Biso   1.000  Hf
  Hf10     1.0000 0.35857  0.77899  0.10606  Biso   1.000  Hf
  Hf11     1.0000 0.36175  0.97650  0.35121  Biso   1.000  Hf
  O17      1.0000 0.03908  0.66761  0.07928  Biso   1.000  O 
  O18      1.0000 0.03613  0.57913  0.33068  Biso   1.000  O 
  O19      1.0000 0.47061  0.91561  0.17352  Biso   1.000  O 
  O20      1.0000 0.46453  0.83116  0.42128  Biso   1.000  O 
  O21      1.0000 0.27799  0.63071  0.24130  Biso   1.000  O 
  O22      1.0000 0.27627  0.61882  0.49161  Biso   1.000  O 
  O23      1.0000 0.22252  0.91599  0.03031  Biso   1.000  O 
  O24      1.0000 0.21525  0.87386  0.26122  Biso   1.000  O 
  Hf12     1.0000 0.13698  0.51767  0.64612  Biso   1.000  Hf
  Hf13     1.0000 0.13145  0.72638  0.89646  Biso   1.000  Hf
  Hf14     1.0000 0.35998  0.77050  0.60736  Biso   1.000  Hf
  Hf15     1.0000 0.35803  0.98337  0.85787  Biso   1.000  Hf
  O25      1.0000 0.03273  0.66375  0.58112  Biso   1.000  O 
  O26      1.0000 0.03101  0.58017  0.83152  Biso   1.000  O 
  O27      1.0000 0.46323  0.91713  0.67299  Biso   1.000  O 
  O28      1.0000 0.45209  0.83118  0.92570  Biso   1.000  O 
  O29      1.0000 0.27190  0.62674  0.74095  Biso   1.000  O 
  O30      1.0000 0.26890  0.62675  0.99185  Biso   1.000  O 
  O31      1.0000 0.22367  0.87662  0.51117  Biso   1.000  O 
  O32      1.0000 0.22065  0.86923  0.76628  Biso   1.000  O 
  Hf16     1.0000 0.63690  0.02228  0.14621  Biso   1.000  Hf
  Hf17     1.0000 0.63668  0.22700  0.39593  Biso   1.000  Hf
  Hf18     1.0000 0.87165  0.26432  0.10687  Biso   1.000  Hf
  Hf19     1.0000 0.86014  0.47688  0.35461  Biso   1.000  Hf
  O33      1.0000 0.53617  0.16787  0.07874  Biso   1.000  O 
  O34      1.0000 0.52877  0.08369  0.32748  Biso   1.000  O 
  O35      1.0000 0.97117  0.41276  0.17341  Biso   1.000  O 
  O36      1.0000 0.96119  0.32771  0.42047  Biso   1.000  O 
  O37      1.0000 0.77574  0.12507  0.24158  Biso   1.000  O 
  O38      1.0000 0.77274  0.11798  0.49108  Biso   1.000  O 
  O39      1.0000 0.73244  0.37681  0.01278  Biso   1.000  O 
  O40      1.0000 0.72690  0.36740  0.25941  Biso   1.000  O 
  Hf20     1.0000 0.63106  0.01932  0.64774  Biso   1.000  Hf
  Hf21     1.0000 0.63209  0.22781  0.89912  Biso   1.000  Hf
  Hf22     1.0000 0.85681  0.26895  0.60562  Biso   1.000  Hf
  Hf23     1.0000 0.85677  0.47380  0.85934  Biso   1.000  Hf
  O41      1.0000 0.53002  0.16585  0.57862  Biso   1.000  O 
  O42      1.0000 0.53107  0.07964  0.83034  Biso   1.000  O 
  O43      1.0000 0.96278  0.41143  0.67597  Biso   1.000  O 
  O44      1.0000 0.96192  0.32736  0.93016  Biso   1.000  O 
  O45      1.0000 0.77097  0.12740  0.74111  Biso   1.000  O 
  O46      1.0000 0.76929  0.11796  0.99370  Biso   1.000  O 
  O47      1.0000 0.72047  0.37649  0.51157  Biso   1.000  O 
  O48      1.0000 0.71921  0.36983  0.76311  Biso   1.000  O 
  Hf24     1.0000 0.63932  0.52039  0.14535  Biso   1.000  Hf
  Hf25     1.0000 0.63889  0.72665  0.39664  Biso   1.000  Hf
  Hf26     1.0000 0.86693  0.77271  0.10555  Biso   1.000  Hf
  Hf27     1.0000 0.86228  0.97484  0.35734  Biso   1.000  Hf
  O49      1.0000 0.53581  0.66965  0.08047  Biso   1.000  O 
  O50      1.0000 0.53710  0.57927  0.33016  Biso   1.000  O 
  O51      1.0000 0.97971  0.91690  0.17323  Biso   1.000  O 
  O52      1.0000 0.96367  0.82855  0.42470  Biso   1.000  O 
  O53      1.0000 0.77920  0.62765  0.24052  Biso   1.000  O 
  O54      1.0000 0.77520  0.61811  0.49227  Biso   1.000  O 
  O55      1.0000 0.72848  0.87984  0.01107  Biso   1.000  O 
  O56      1.0000 0.73082  0.87007  0.26037  Biso   1.000  O 
  Hf28     1.0000 0.63502  0.51919  0.64839  Biso   1.000  Hf
  Hf29     1.0000 0.63031  0.72708  0.90044  Biso   1.000  Hf
  Hf30     1.0000 0.85774  0.76703  0.60796  Biso   1.000  Hf
  Hf31     1.0000 0.85818  0.97668  0.85585  Biso   1.000  Hf
  O57      1.0000 0.53366  0.66636  0.57944  Biso   1.000  O 
  O58      1.0000 0.52814  0.58392  0.82886  Biso   1.000  O 
  O59      1.0000 0.96301  0.91268  0.67387  Biso   1.000  O 
  O60      1.0000 0.95937  0.83066  0.92526  Biso   1.000  O 
  O61      1.0000 0.77273  0.62522  0.74429  Biso   1.000  O 
  O62      1.0000 0.76929  0.61871  0.99311  Biso   1.000  O 
  O63      1.0000 0.72189  0.87578  0.51200  Biso   1.000  O 
  O64      1.0000 0.71967  0.86825  0.76305  Biso   1.000  O 
