data_image0
_cell_length_a       9.98988
_cell_length_b       10.3926
_cell_length_c       10.0477
_cell_angle_alpha    90
_cell_angle_beta     90
_cell_angle_gamma    90

_symmetry_space_group_name_H-M    "P 1"
_symmetry_int_tables_number       1

loop_
  _symmetry_equiv_pos_as_xyz
  'x, y, z'

loop_
  _atom_site_label
  _atom_site_occupancy
  _atom_site_fract_x
  _atom_site_fract_y
  _atom_site_fract_z
  _atom_site_thermal_displace_type
  _atom_site_B_iso_or_equiv
  _atom_site_type_symbol
  Hf1      1.0000 0.14381  0.01686  0.11960  Biso   1.000  Hf
  Hf2      1.0000 0.13208  0.22683  0.40200  Biso   1.000  Hf
  Hf3      1.0000 0.36851  0.25842  0.11688  Biso   1.000  Hf
  Hf4      1.0000 0.36570  0.48463  0.37452  Biso   1.000  Hf
  O1       1.0000 0.01402  0.18090  0.23272  Biso   1.000  O 
  O2       1.0000 0.03813  0.06133  0.45676  Biso   1.000  O 
  O3       1.0000 0.45158  0.43121  0.19394  Biso   1.000  O 
  O4       1.0000 0.46073  0.31560  0.44410  Biso   1.000  O 
  O5       1.0000 0.26686  0.11685  0.25814  Biso   1.000  O 
  O6       1.0000 0.27696  0.12820  0.50765  Biso   1.000  O 
  O7       1.0000 0.22993  0.38300  0.49857  Biso   1.000  O 
  O8       1.0000 0.20111  0.35649  0.24245  Biso   1.000  O 
  Hf5      1.0000 0.14046  0.01260  0.63220  Biso   1.000  Hf
  Hf6      1.0000 0.13385  0.23087  0.87424  Biso   1.000  Hf
  Hf7      1.0000 0.36826  0.26742  0.62968  Biso   1.000  Hf
  Hf8      1.0000 0.36405  0.48672  0.87362  Biso   1.000  Hf
  O9       1.0000 0.04132  0.18451  0.68756  Biso   1.000  O 
  O10      1.0000 0.04342  0.06221  0.94167  Biso   1.000  O 
  O11      1.0000 0.45980  0.43626  0.69338  Biso   1.000  O 
  O12      1.0000 0.46567  0.31514  0.93857  Biso   1.000  O 
  O13      1.0000 0.27230  0.11791  0.75294  Biso   1.000  O 
  O14      1.0000 0.29798  0.11670  0.99301  Biso   1.000  O 
  O15      1.0000 0.23268  0.38622  0.00001  Biso   1.000  O 
  O16      1.0000 0.22612  0.36857  0.74937  Biso   1.000  O 
  Hf9      1.0000 0.11747  0.52599  0.12136  Biso   1.000  Hf
  Hf10     1.0000 0.12613  0.73466  0.37652  Biso   1.000  Hf
  Hf11     1.0000 0.35609  0.76427  0.12640  Biso   1.000  Hf
  Hf12     1.0000 0.35639  0.98242  0.37636  Biso   1.000  Hf
  O17      1.0000 0.02720  0.68959  0.19415  Biso   1.000  O 
  O18      1.0000 0.02968  0.56886  0.44448  Biso   1.000  O 
  O19      1.0000 0.45375  0.93279  0.19469  Biso   1.000  O 
  O20      1.0000 0.45606  0.81517  0.44414  Biso   1.000  O 
  O21      1.0000 0.25979  0.61315  0.24924  Biso   1.000  O 
  O22      1.0000 0.26473  0.63244  0.49824  Biso   1.000  O 
  O23      1.0000 0.22092  0.88143  0.50065  Biso   1.000  O 
  O24      1.0000 0.22261  0.86584  0.24979  Biso   1.000  O 
  Hf13     1.0000 0.12951  0.51732  0.62378  Biso   1.000  Hf
  Hf14     1.0000 0.12624  0.73520  0.87385  Biso   1.000  Hf
  Hf15     1.0000 0.36083  0.76467  0.62425  Biso   1.000  Hf
  Hf16     1.0000 0.36382  0.97844  0.87338  Biso   1.000  Hf
  O25      1.0000 0.03149  0.68653  0.69162  Biso   1.000  O 
  O26      1.0000 0.02915  0.56545  0.94186  Biso   1.000  O 
  O27      1.0000 0.45763  0.93317  0.69000  Biso   1.000  O 
  O28      1.0000 0.45976  0.81464  0.94742  Biso   1.000  O 
  O29      1.0000 0.26403  0.61740  0.74895  Biso   1.000  O 
  O30      1.0000 0.26239  0.63537  0.99777  Biso   1.000  O 
  O31      1.0000 0.22236  0.87949  0.99945  Biso   1.000  O 
  O32      1.0000 0.22585  0.86537  0.75002  Biso   1.000  O 
  Hf17     1.0000 0.63502  0.01611  0.12502  Biso   1.000  Hf
  Hf18     1.0000 0.63250  0.23304  0.37744  Biso   1.000  Hf
  Hf19     1.0000 0.85126  0.27526  0.11993  Biso   1.000  Hf
  Hf20     1.0000 0.85902  0.48611  0.37964  Biso   1.000  Hf
  O33      1.0000 0.53425  0.18100  0.19367  Biso   1.000  O 
  O34      1.0000 0.53893  0.06510  0.44414  Biso   1.000  O 
  O35      1.0000 0.94063  0.45042  0.19855  Biso   1.000  O 
  O36      1.0000 0.96449  0.32134  0.45390  Biso   1.000  O 
  O37      1.0000 0.76601  0.12038  0.24900  Biso   1.000  O 
  O38      1.0000 0.77366  0.13595  0.49942  Biso   1.000  O 
  O39      1.0000 0.72465  0.38212  0.50064  Biso   1.000  O 
  O40      1.0000 0.71723  0.37142  0.25069  Biso   1.000  O 
  Hf21     1.0000 0.63964  0.01739  0.62404  Biso   1.000  Hf
  Hf22     1.0000 0.63672  0.23232  0.87385  Biso   1.000  Hf
  Hf23     1.0000 0.86679  0.26980  0.63147  Biso   1.000  Hf
  Hf24     1.0000 0.85888  0.48510  0.87095  Biso   1.000  Hf
  O41      1.0000 0.53855  0.18424  0.69275  Biso   1.000  O 
  O42      1.0000 0.54856  0.06210  0.93880  Biso   1.000  O 
  O43      1.0000 0.95584  0.44294  0.68783  Biso   1.000  O 
  O44      1.0000 0.94370  0.30957  0.90693  Biso   1.000  O 
  O45      1.0000 0.77381  0.11792  0.74934  Biso   1.000  O 
  O46      1.0000 0.77248  0.13153  0.00002  Biso   1.000  O 
  O47      1.0000 0.72082  0.38398  0.00001  Biso   1.000  O 
  O48      1.0000 0.72127  0.37187  0.74782  Biso   1.000  O 
  Hf25     1.0000 0.62532  0.51868  0.12897  Biso   1.000  Hf
  Hf26     1.0000 0.62776  0.73695  0.37612  Biso   1.000  Hf
  Hf27     1.0000 0.85612  0.76890  0.12644  Biso   1.000  Hf
  Hf28     1.0000 0.85853  0.98898  0.37151  Biso   1.000  Hf
  O49      1.0000 0.52464  0.68210  0.19850  Biso   1.000  O 
  O50      1.0000 0.52877  0.56686  0.44546  Biso   1.000  O 
  O51      1.0000 0.95625  0.93775  0.19118  Biso   1.000  O 
  O52      1.0000 0.95507  0.81774  0.44192  Biso   1.000  O 
  O53      1.0000 0.75943  0.62255  0.25308  Biso   1.000  O 
  O54      1.0000 0.76143  0.63515  0.50089  Biso   1.000  O 
  O55      1.0000 0.72412  0.88601  0.49812  Biso   1.000  O 
  O56      1.0000 0.72048  0.87051  0.24921  Biso   1.000  O 
  Hf29     1.0000 0.63017  0.51747  0.62574  Biso   1.000  Hf
  Hf30     1.0000 0.62942  0.73412  0.87650  Biso   1.000  Hf
  Hf31     1.0000 0.86073  0.76899  0.62432  Biso   1.000  Hf
  Hf32     1.0000 0.85680  0.98365  0.87636  Biso   1.000  Hf
  O57      1.0000 0.52901  0.68334  0.69693  Biso   1.000  O 
  O58      1.0000 0.53053  0.56749  0.94767  Biso   1.000  O 
  O59      1.0000 0.95743  0.93270  0.69938  Biso   1.000  O 
  O60      1.0000 0.95571  0.81492  0.94402  Biso   1.000  O 
  O61      1.0000 0.76444  0.62079  0.74931  Biso   1.000  O 
  O62      1.0000 0.76091  0.63221  0.00201  Biso   1.000  O 
  O63      1.0000 0.72052  0.88124  0.00013  Biso   1.000  O 
  O64      1.0000 0.72243  0.86857  0.74893  Biso   1.000  O 
  Si1      1.0000 0.10486  0.27389  0.12702  Biso   1.000  Si
