data_image0
_cell_length_a       10.0278
_cell_length_b       5.11429
_cell_length_c       10.4526
_cell_angle_alpha    90
_cell_angle_beta     90
_cell_angle_gamma    90

_symmetry_space_group_name_H-M    "P 1"
_symmetry_int_tables_number       1

loop_
  _symmetry_equiv_pos_as_xyz
  'x, y, z'

loop_
  _atom_site_label
  _atom_site_occupancy
  _atom_site_fract_x
  _atom_site_fract_y
  _atom_site_fract_z
  _atom_site_thermal_displace_type
  _atom_site_B_iso_or_equiv
  _atom_site_type_symbol
  Sn1      1.0000 0.13469  0.03635  0.17347  Biso   1.000  Sn
  Hf1      1.0000 0.13654  0.45928  0.42101  Biso   1.000  Hf
  Hf2      1.0000 0.36114  0.54245  0.16982  Biso   1.000  Hf
  Hf3      1.0000 0.36084  0.95968  0.42107  Biso   1.000  Hf
  Hf4      1.0000 0.63896  0.04131  0.07853  Biso   1.000  Hf
  Hf5      1.0000 0.63720  0.45814  0.32873  Biso   1.000  Hf
  Hf6      1.0000 0.86253  0.53844  0.07941  Biso   1.000  Hf
  Hf7      1.0000 0.85816  0.95867  0.33043  Biso   1.000  Hf
  O1       1.0000 0.03640  0.33132  0.08344  Biso   1.000  O 
  O2       1.0000 0.03016  0.16876  0.33577  Biso   1.000  O 
  O3       1.0000 0.46772  0.83201  0.08365  Biso   1.000  O 
  O4       1.0000 0.46401  0.66480  0.33508  Biso   1.000  O 
  O5       1.0000 0.27504  0.24708  0.29350  Biso   1.000  O 
  O6       1.0000 0.27952  0.25862  0.04191  Biso   1.000  O 
  O7       1.0000 0.22235  0.74893  0.29295  Biso   1.000  O 
  O8       1.0000 0.22332  0.75937  0.04429  Biso   1.000  O 
  O9       1.0000 0.53361  0.33282  0.16542  Biso   1.000  O 
  O10      1.0000 0.53240  0.16627  0.41534  Biso   1.000  O 
  O11      1.0000 0.96267  0.83283  0.16607  Biso   1.000  O 
  O12      1.0000 0.96466  0.66924  0.41667  Biso   1.000  O 
  O13      1.0000 0.77457  0.24838  0.45601  Biso   1.000  O 
  O14      1.0000 0.77543  0.25216  0.20575  Biso   1.000  O 
  O15      1.0000 0.72131  0.74758  0.45631  Biso   1.000  O 
  O16      1.0000 0.72337  0.75152  0.20623  Biso   1.000  O 
  Hf8      1.0000 0.13664  0.04308  0.67070  Biso   1.000  Hf
  Hf9      1.0000 0.13730  0.45915  0.92035  Biso   1.000  Hf
  Hf10     1.0000 0.35974  0.54382  0.67080  Biso   1.000  Hf
  Hf11     1.0000 0.35965  0.96132  0.92058  Biso   1.000  Hf
  Hf12     1.0000 0.63660  0.04317  0.57960  Biso   1.000  Hf
  Hf13     1.0000 0.63692  0.45958  0.82897  Biso   1.000  Hf
  Hf14     1.0000 0.85961  0.54306  0.57948  Biso   1.000  Hf
  Hf15     1.0000 0.86052  0.95840  0.82963  Biso   1.000  Hf
  O17      1.0000 0.03180  0.33374  0.58404  Biso   1.000  O 
  O18      1.0000 0.03164  0.16878  0.83362  Biso   1.000  O 
  O19      1.0000 0.46502  0.83557  0.58500  Biso   1.000  O 
  O20      1.0000 0.46464  0.66848  0.83419  Biso   1.000  O 
  O21      1.0000 0.27454  0.24883  0.79311  Biso   1.000  O 
  O22      1.0000 0.27486  0.25428  0.54367  Biso   1.000  O 
  O23      1.0000 0.22228  0.74900  0.79420  Biso   1.000  O 
  O24      1.0000 0.22238  0.75383  0.54384  Biso   1.000  O 
  O25      1.0000 0.53209  0.33533  0.66523  Biso   1.000  O 
  O26      1.0000 0.53132  0.16865  0.91516  Biso   1.000  O 
  O27      1.0000 0.96546  0.83259  0.66651  Biso   1.000  O 
  O28      1.0000 0.96444  0.66667  0.91694  Biso   1.000  O 
  O29      1.0000 0.77391  0.24730  0.95548  Biso   1.000  O 
  O30      1.0000 0.77480  0.25342  0.70581  Biso   1.000  O 
  O31      1.0000 0.72164  0.74741  0.95603  Biso   1.000  O 
  O32      1.0000 0.72236  0.75409  0.70608  Biso   1.000  O 
