data_image0
_cell_length_a       10.1034
_cell_length_b       10.2775
_cell_length_c       10.4426
_cell_angle_alpha    90
_cell_angle_beta     80
_cell_angle_gamma    90

_symmetry_space_group_name_H-M    "P 1"
_symmetry_int_tables_number       1

loop_
  _symmetry_equiv_pos_as_xyz
  'x, y, z'

loop_
  _atom_site_label
  _atom_site_occupancy
  _atom_site_fract_x
  _atom_site_fract_y
  _atom_site_fract_z
  _atom_site_thermal_displace_type
  _atom_site_B_iso_or_equiv
  _atom_site_type_symbol
  Sn1      1.0000 0.13413  0.01790  0.14911  Biso   1.000  Sn
  Hf1      1.0000 0.13505  0.22874  0.39602  Biso   1.000  Hf
  Hf2      1.0000 0.35994  0.27082  0.10346  Biso   1.000  Hf
  Hf3      1.0000 0.35831  0.47861  0.35433  Biso   1.000  Hf
  O1       1.0000 0.03815  0.16953  0.07970  Biso   1.000  O 
  O2       1.0000 0.03115  0.08002  0.33254  Biso   1.000  O 
  O3       1.0000 0.46255  0.41982  0.16925  Biso   1.000  O 
  O4       1.0000 0.46035  0.33014  0.41974  Biso   1.000  O 
  O5       1.0000 0.27321  0.12708  0.23891  Biso   1.000  O 
  O6       1.0000 0.27266  0.12118  0.48986  Biso   1.000  O 
  O7       1.0000 0.22413  0.38055  0.00889  Biso   1.000  O 
  O8       1.0000 0.22178  0.36991  0.25950  Biso   1.000  O 
  Hf4      1.0000 0.13292  0.02123  0.64612  Biso   1.000  Hf
  Hf5      1.0000 0.13231  0.22778  0.89620  Biso   1.000  Hf
  Hf6      1.0000 0.35606  0.27164  0.60462  Biso   1.000  Hf
  Hf7      1.0000 0.35404  0.47884  0.85541  Biso   1.000  Hf
  O9       1.0000 0.03125  0.16997  0.58114  Biso   1.000  O 
  O10      1.0000 0.02912  0.07999  0.83086  Biso   1.000  O 
  O11      1.0000 0.45831  0.41996  0.67031  Biso   1.000  O 
  O12      1.0000 0.45641  0.33031  0.92054  Biso   1.000  O 
  O13      1.0000 0.27036  0.12896  0.73990  Biso   1.000  O 
  O14      1.0000 0.27072  0.12277  0.98859  Biso   1.000  O 
  O15      1.0000 0.21893  0.37934  0.50980  Biso   1.000  O 
  O16      1.0000 0.21739  0.37085  0.76014  Biso   1.000  O 
  Hf8      1.0000 0.13825  0.52165  0.14583  Biso   1.000  Hf
  Hf9      1.0000 0.13533  0.72837  0.39676  Biso   1.000  Hf
  Hf10     1.0000 0.36181  0.77147  0.10424  Biso   1.000  Hf
  Hf11     1.0000 0.35941  0.97857  0.35464  Biso   1.000  Hf
  O17      1.0000 0.03628  0.67011  0.08071  Biso   1.000  O 
  O18      1.0000 0.03401  0.57976  0.33117  Biso   1.000  O 
  O19      1.0000 0.46365  0.91952  0.17005  Biso   1.000  O 
  O20      1.0000 0.46050  0.82936  0.41970  Biso   1.000  O 
  O21      1.0000 0.27531  0.62930  0.24096  Biso   1.000  O 
  O22      1.0000 0.27284  0.62071  0.49134  Biso   1.000  O 
  O23      1.0000 0.22435  0.88238  0.01013  Biso   1.000  O 
  O24      1.0000 0.22112  0.87014  0.25916  Biso   1.000  O 
  Hf12     1.0000 0.13392  0.52123  0.64679  Biso   1.000  Hf
  Hf13     1.0000 0.13137  0.72890  0.89707  Biso   1.000  Hf
  Hf14     1.0000 0.35647  0.77135  0.60523  Biso   1.000  Hf
  Hf15     1.0000 0.35495  0.97973  0.85500  Biso   1.000  Hf
  O25      1.0000 0.03152  0.66962  0.58168  Biso   1.000  O 
  O26      1.0000 0.02962  0.58022  0.83206  Biso   1.000  O 
  O27      1.0000 0.45885  0.92022  0.66963  Biso   1.000  O 
  O28      1.0000 0.45515  0.82935  0.92035  Biso   1.000  O 
  O29      1.0000 0.27066  0.62920  0.74160  Biso   1.000  O 
  O30      1.0000 0.26841  0.62194  0.99186  Biso   1.000  O 
  O31      1.0000 0.21969  0.87908  0.50989  Biso   1.000  O 
  O32      1.0000 0.21759  0.87069  0.76068  Biso   1.000  O 
  Hf16     1.0000 0.63767  0.02146  0.14599  Biso   1.000  Hf
  Hf17     1.0000 0.63546  0.22896  0.39652  Biso   1.000  Hf
  Hf18     1.0000 0.86200  0.27022  0.10487  Biso   1.000  Hf
  Hf19     1.0000 0.85841  0.47862  0.35473  Biso   1.000  Hf
  O33      1.0000 0.53598  0.17007  0.08082  Biso   1.000  O 
  O34      1.0000 0.53307  0.08021  0.33127  Biso   1.000  O 
  O35      1.0000 0.96305  0.41989  0.16987  Biso   1.000  O 
  O36      1.0000 0.96007  0.33033  0.42054  Biso   1.000  O 
  O37      1.0000 0.77408  0.12908  0.24159  Biso   1.000  O 
  O38      1.0000 0.77213  0.12083  0.49205  Biso   1.000  O 
  O39      1.0000 0.72454  0.37859  0.00989  Biso   1.000  O 
  O40      1.0000 0.72185  0.37051  0.25990  Biso   1.000  O 
  Hf20     1.0000 0.63293  0.02153  0.64716  Biso   1.000  Hf
  Hf21     1.0000 0.63146  0.22876  0.89758  Biso   1.000  Hf
  Hf22     1.0000 0.85602  0.27149  0.60551  Biso   1.000  Hf
  Hf23     1.0000 0.85459  0.47793  0.85600  Biso   1.000  Hf
  O41      1.0000 0.53119  0.17014  0.58148  Biso   1.000  O 
  O42      1.0000 0.52967  0.07993  0.83182  Biso   1.000  O 
  O43      1.0000 0.95861  0.41949  0.67107  Biso   1.000  O 
  O44      1.0000 0.95659  0.32946  0.92184  Biso   1.000  O 
  O45      1.0000 0.77052  0.12937  0.74196  Biso   1.000  O 
  O46      1.0000 0.76822  0.12039  0.99241  Biso   1.000  O 
  O47      1.0000 0.71899  0.37911  0.51045  Biso   1.000  O 
  O48      1.0000 0.71718  0.37091  0.76097  Biso   1.000  O 
  Hf24     1.0000 0.63805  0.52052  0.14593  Biso   1.000  Hf
  Hf25     1.0000 0.63573  0.72792  0.39645  Biso   1.000  Hf
  Hf26     1.0000 0.86037  0.77060  0.10407  Biso   1.000  Hf
  Hf27     1.0000 0.85625  0.97825  0.35661  Biso   1.000  Hf
  O49      1.0000 0.53669  0.66994  0.08072  Biso   1.000  O 
  O50      1.0000 0.53390  0.57947  0.33109  Biso   1.000  O 
  O51      1.0000 0.95931  0.91957  0.17060  Biso   1.000  O 
  O52      1.0000 0.96019  0.82986  0.42051  Biso   1.000  O 
  O53      1.0000 0.77496  0.62879  0.24096  Biso   1.000  O 
  O54      1.0000 0.77291  0.62059  0.49148  Biso   1.000  O 
  O55      1.0000 0.72368  0.87912  0.00939  Biso   1.000  O 
  O56      1.0000 0.72157  0.87037  0.26027  Biso   1.000  O 
  Hf28     1.0000 0.63366  0.52122  0.64703  Biso   1.000  Hf
  Hf29     1.0000 0.63149  0.72853  0.89701  Biso   1.000  Hf
  Hf30     1.0000 0.85626  0.77109  0.60551  Biso   1.000  Hf
  Hf31     1.0000 0.85478  0.97870  0.85559  Biso   1.000  Hf
  O57      1.0000 0.53167  0.66975  0.58157  Biso   1.000  O 
  O58      1.0000 0.52940  0.58004  0.83188  Biso   1.000  O 
  O59      1.0000 0.95864  0.91965  0.67037  Biso   1.000  O 
  O60      1.0000 0.95621  0.82996  0.92101  Biso   1.000  O 
  O61      1.0000 0.77078  0.62901  0.74198  Biso   1.000  O 
  O62      1.0000 0.76828  0.62010  0.99188  Biso   1.000  O 
  O63      1.0000 0.71868  0.87881  0.51083  Biso   1.000  O 
  O64      1.0000 0.71741  0.87078  0.76080  Biso   1.000  O 
