data_image0
_cell_length_a       5.05272
_cell_length_b       10.2735
_cell_length_c       10.4488
_cell_angle_alpha    90
_cell_angle_beta     80
_cell_angle_gamma    90

_symmetry_space_group_name_H-M    "P 1"
_symmetry_int_tables_number       1

loop_
  _symmetry_equiv_pos_as_xyz
  'x, y, z'

loop_
  _atom_site_label
  _atom_site_occupancy
  _atom_site_fract_x
  _atom_site_fract_y
  _atom_site_fract_z
  _atom_site_thermal_displace_type
  _atom_site_B_iso_or_equiv
  _atom_site_type_symbol
  Sn1      1.0000 0.26777  0.01792  0.14910  Biso   1.000  Sn
  Hf1      1.0000 0.26894  0.22907  0.39622  Biso   1.000  Hf
  Hf2      1.0000 0.72317  0.26963  0.10402  Biso   1.000  Hf
  Hf3      1.0000 0.71639  0.47861  0.35446  Biso   1.000  Hf
  O1       1.0000 0.07684  0.16946  0.07948  Biso   1.000  O 
  O2       1.0000 0.06040  0.08048  0.33252  Biso   1.000  O 
  O3       1.0000 0.92636  0.41951  0.16984  Biso   1.000  O 
  O4       1.0000 0.91965  0.33070  0.42072  Biso   1.000  O 
  O5       1.0000 0.54447  0.12689  0.23950  Biso   1.000  O 
  O6       1.0000 0.54315  0.12125  0.49064  Biso   1.000  O 
  O7       1.0000 0.45106  0.37993  0.00942  Biso   1.000  O 
  O8       1.0000 0.44462  0.36961  0.25975  Biso   1.000  O 
  Hf4      1.0000 0.26332  0.02138  0.64668  Biso   1.000  Hf
  Hf5      1.0000 0.26287  0.22793  0.89686  Biso   1.000  Hf
  Hf6      1.0000 0.71073  0.27175  0.60523  Biso   1.000  Hf
  Hf7      1.0000 0.70755  0.47817  0.85621  Biso   1.000  Hf
  O9       1.0000 0.06066  0.16992  0.58102  Biso   1.000  O 
  O10      1.0000 0.05698  0.08015  0.83079  Biso   1.000  O 
  O11      1.0000 0.91629  0.41923  0.67151  Biso   1.000  O 
  O12      1.0000 0.91208  0.33000  0.92221  Biso   1.000  O 
  O13      1.0000 0.53901  0.12908  0.74030  Biso   1.000  O 
  O14      1.0000 0.53893  0.12245  0.98908  Biso   1.000  O 
  O15      1.0000 0.43680  0.37922  0.51026  Biso   1.000  O 
  O16      1.0000 0.43382  0.37100  0.76083  Biso   1.000  O 
  Hf8      1.0000 0.27690  0.52074  0.14575  Biso   1.000  Hf
  Hf9      1.0000 0.27009  0.72767  0.39691  Biso   1.000  Hf
  Hf10     1.0000 0.72363  0.77065  0.10402  Biso   1.000  Hf
  Hf11     1.0000 0.71421  0.97818  0.35667  Biso   1.000  Hf
  O17      1.0000 0.07448  0.66981  0.08040  Biso   1.000  O 
  O18      1.0000 0.06797  0.57944  0.33096  Biso   1.000  O 
  O19      1.0000 0.92124  0.91876  0.17142  Biso   1.000  O 
  O20      1.0000 0.92025  0.82946  0.42068  Biso   1.000  O 
  O21      1.0000 0.55048  0.62885  0.24098  Biso   1.000  O 
  O22      1.0000 0.54511  0.62054  0.49158  Biso   1.000  O 
  O23      1.0000 0.44979  0.88228  0.01018  Biso   1.000  O 
  O24      1.0000 0.44282  0.86976  0.25973  Biso   1.000  O 
  Hf12     1.0000 0.26680  0.52105  0.64721  Biso   1.000  Hf
  Hf13     1.0000 0.26098  0.72883  0.89718  Biso   1.000  Hf
  Hf14     1.0000 0.71211  0.77104  0.60586  Biso   1.000  Hf
  Hf15     1.0000 0.70976  0.97984  0.85539  Biso   1.000  Hf
  O25      1.0000 0.06219  0.66916  0.58165  Biso   1.000  O 
  O26      1.0000 0.05747  0.58050  0.83203  Biso   1.000  O 
  O27      1.0000 0.91747  0.91964  0.67012  Biso   1.000  O 
  O28      1.0000 0.90886  0.82955  0.92119  Biso   1.000  O 
  O29      1.0000 0.54016  0.62896  0.74204  Biso   1.000  O 
  O30      1.0000 0.53431  0.62128  0.99188  Biso   1.000  O 
  O31      1.0000 0.43776  0.87867  0.51073  Biso   1.000  O 
  O32      1.0000 0.43465  0.87071  0.76122  Biso   1.000  O 
