data_image0
_cell_length_a       9.95564
_cell_length_b       5.18667
_cell_length_c       10.0039
_cell_angle_alpha    90
_cell_angle_beta     90
_cell_angle_gamma    90

_symmetry_space_group_name_H-M    "P 1"
_symmetry_int_tables_number       1

loop_
  _symmetry_equiv_pos_as_xyz
  'x, y, z'

loop_
  _atom_site_label
  _atom_site_occupancy
  _atom_site_fract_x
  _atom_site_fract_y
  _atom_site_fract_z
  _atom_site_thermal_displace_type
  _atom_site_B_iso_or_equiv
  _atom_site_type_symbol
  Sn1      1.0000 0.13168  0.03593  0.12124  Biso   1.000  Sn
  Hf1      1.0000 0.13624  0.46435  0.37645  Biso   1.000  Hf
  Hf2      1.0000 0.36732  0.53103  0.12714  Biso   1.000  Hf
  Hf3      1.0000 0.36718  0.96389  0.37635  Biso   1.000  Hf
  O1       1.0000 0.03669  0.36683  0.19458  Biso   1.000  O 
  O2       1.0000 0.03821  0.12871  0.44583  Biso   1.000  O 
  O3       1.0000 0.46650  0.86569  0.19497  Biso   1.000  O 
  O4       1.0000 0.46627  0.62976  0.44550  Biso   1.000  O 
  O5       1.0000 0.27039  0.22687  0.24913  Biso   1.000  O 
  O6       1.0000 0.27332  0.26305  0.49972  Biso   1.000  O 
  O7       1.0000 0.23132  0.76267  0.50158  Biso   1.000  O 
  O8       1.0000 0.23449  0.72560  0.25269  Biso   1.000  O 
  Hf4      1.0000 0.13619  0.03158  0.62668  Biso   1.000  Hf
  Hf5      1.0000 0.13632  0.46758  0.87542  Biso   1.000  Hf
  Hf6      1.0000 0.36831  0.53122  0.62647  Biso   1.000  Hf
  Hf7      1.0000 0.36952  0.96659  0.87607  Biso   1.000  Hf
  O9       1.0000 0.03900  0.36829  0.69424  Biso   1.000  O 
  O10      1.0000 0.03783  0.12956  0.94051  Biso   1.000  O 
  O11      1.0000 0.46608  0.86684  0.69452  Biso   1.000  O 
  O12      1.0000 0.46422  0.62718  0.94318  Biso   1.000  O 
  O13      1.0000 0.27343  0.23419  0.74984  Biso   1.000  O 
  O14      1.0000 0.27293  0.26329  0.99920  Biso   1.000  O 
  O15      1.0000 0.22858  0.76862  0.00286  Biso   1.000  O 
  O16      1.0000 0.23218  0.73453  0.75134  Biso   1.000  O 
  Hf8      1.0000 0.63509  0.03201  0.12691  Biso   1.000  Hf
  Hf9      1.0000 0.63609  0.46582  0.37601  Biso   1.000  Hf
  Hf10     1.0000 0.86686  0.53090  0.12477  Biso   1.000  Hf
  Hf11     1.0000 0.86883  0.96644  0.37621  Biso   1.000  Hf
  O17      1.0000 0.53757  0.36751  0.19518  Biso   1.000  O 
  O18      1.0000 0.53854  0.12968  0.44390  Biso   1.000  O 
  O19      1.0000 0.96607  0.86449  0.19387  Biso   1.000  O 
  O20      1.0000 0.96563  0.62895  0.44404  Biso   1.000  O 
  O21      1.0000 0.77183  0.23320  0.24989  Biso   1.000  O 
  O22      1.0000 0.77263  0.26323  0.49960  Biso   1.000  O 
  O23      1.0000 0.73197  0.76347  0.49945  Biso   1.000  O 
  O24      1.0000 0.73302  0.73385  0.24952  Biso   1.000  O 
  Hf12     1.0000 0.63587  0.03079  0.62509  Biso   1.000  Hf
  Hf13     1.0000 0.63622  0.46374  0.87591  Biso   1.000  Hf
  Hf14     1.0000 0.86836  0.53074  0.62530  Biso   1.000  Hf
  Hf15     1.0000 0.86706  0.96333  0.87484  Biso   1.000  Hf
  O25      1.0000 0.53845  0.36594  0.69460  Biso   1.000  O 
  O26      1.0000 0.53944  0.12835  0.94520  Biso   1.000  O 
  O27      1.0000 0.96560  0.86655  0.69364  Biso   1.000  O 
  O28      1.0000 0.96597  0.62923  0.94347  Biso   1.000  O 
  O29      1.0000 0.77246  0.23276  0.74941  Biso   1.000  O 
  O30      1.0000 0.77368  0.26030  0.99944  Biso   1.000  O 
  O31      1.0000 0.73140  0.75953  0.99950  Biso   1.000  O 
  O32      1.0000 0.73128  0.73209  0.74927  Biso   1.000  O 
