data_image0
_cell_length_a       10.0274
_cell_length_b       10.2295
_cell_length_c       5.2258
_cell_angle_alpha    90
_cell_angle_beta     90
_cell_angle_gamma    90

_symmetry_space_group_name_H-M    "P 1"
_symmetry_int_tables_number       1

loop_
  _symmetry_equiv_pos_as_xyz
  'x, y, z'

loop_
  _atom_site_label
  _atom_site_occupancy
  _atom_site_fract_x
  _atom_site_fract_y
  _atom_site_fract_z
  _atom_site_thermal_displace_type
  _atom_site_B_iso_or_equiv
  _atom_site_type_symbol
  Sn1      1.0000 0.13494  0.01801  0.34561  Biso   1.000  Sn
  Hf1      1.0000 0.13901  0.22913  0.84086  Biso   1.000  Hf
  Hf2      1.0000 0.36081  0.27133  0.34057  Biso   1.000  Hf
  Hf3      1.0000 0.36081  0.47971  0.84207  Biso   1.000  Hf
  Hf4      1.0000 0.63847  0.02139  0.15893  Biso   1.000  Hf
  Hf5      1.0000 0.63807  0.22997  0.65776  Biso   1.000  Hf
  Hf6      1.0000 0.86294  0.27011  0.15977  Biso   1.000  Hf
  Hf7      1.0000 0.86177  0.47868  0.65860  Biso   1.000  Hf
  O1       1.0000 0.03618  0.16602  0.16722  Biso   1.000  O 
  O2       1.0000 0.03126  0.08422  0.67030  Biso   1.000  O 
  O3       1.0000 0.46725  0.41671  0.16852  Biso   1.000  O 
  O4       1.0000 0.46571  0.33373  0.66879  Biso   1.000  O 
  O5       1.0000 0.27616  0.12320  0.58557  Biso   1.000  O 
  O6       1.0000 0.27889  0.12786  0.08462  Biso   1.000  O 
  O7       1.0000 0.22372  0.37424  0.58867  Biso   1.000  O 
  O8       1.0000 0.22421  0.37770  0.08838  Biso   1.000  O 
  O9       1.0000 0.53383  0.16733  0.33066  Biso   1.000  O 
  O10      1.0000 0.53308  0.08384  0.83045  Biso   1.000  O 
  O11      1.0000 0.96737  0.41603  0.33347  Biso   1.000  O 
  O12      1.0000 0.96626  0.33370  0.83497  Biso   1.000  O 
  O13      1.0000 0.77514  0.12414  0.91251  Biso   1.000  O 
  O14      1.0000 0.77588  0.12656  0.41217  Biso   1.000  O 
  O15      1.0000 0.72342  0.37378  0.91201  Biso   1.000  O 
  O16      1.0000 0.72432  0.37616  0.41152  Biso   1.000  O 
  Hf8      1.0000 0.13947  0.52147  0.34226  Biso   1.000  Hf
  Hf9      1.0000 0.13777  0.72983  0.84195  Biso   1.000  Hf
  Hf10     1.0000 0.36284  0.77141  0.34088  Biso   1.000  Hf
  Hf11     1.0000 0.36265  0.98052  0.84130  Biso   1.000  Hf
  Hf12     1.0000 0.63987  0.52055  0.15738  Biso   1.000  Hf
  Hf13     1.0000 0.63902  0.72872  0.65769  Biso   1.000  Hf
  Hf14     1.0000 0.86193  0.77043  0.15774  Biso   1.000  Hf
  Hf15     1.0000 0.85986  0.97970  0.66122  Biso   1.000  Hf
  O17      1.0000 0.03457  0.66633  0.16771  Biso   1.000  O 
  O18      1.0000 0.03372  0.58401  0.66860  Biso   1.000  O 
  O19      1.0000 0.46823  0.91672  0.16899  Biso   1.000  O 
  O20      1.0000 0.46585  0.83275  0.66990  Biso   1.000  O 
  O21      1.0000 0.27643  0.62479  0.58866  Biso   1.000  O 
  O22      1.0000 0.27777  0.62757  0.08810  Biso   1.000  O 
  O23      1.0000 0.22380  0.87461  0.58528  Biso   1.000  O 
  O24      1.0000 0.22429  0.87797  0.08786  Biso   1.000  O 
  O25      1.0000 0.53470  0.66641  0.33086  Biso   1.000  O 
  O26      1.0000 0.53349  0.58358  0.83090  Biso   1.000  O 
  O27      1.0000 0.96350  0.91674  0.33074  Biso   1.000  O 
  O28      1.0000 0.96569  0.83374  0.83129  Biso   1.000  O 
  O29      1.0000 0.77629  0.62360  0.91035  Biso   1.000  O 
  O30      1.0000 0.77718  0.62600  0.41088  Biso   1.000  O 
  O31      1.0000 0.72249  0.87368  0.91248  Biso   1.000  O 
  O32      1.0000 0.72423  0.87638  0.41299  Biso   1.000  O 
