data_image0
_cell_length_a       10.1189
_cell_length_b       5.17298
_cell_length_c       10.5822
_cell_angle_alpha    90
_cell_angle_beta     90
_cell_angle_gamma    90

_symmetry_space_group_name_H-M    "P 1"
_symmetry_int_tables_number       1

loop_
  _symmetry_equiv_pos_as_xyz
  'x, y, z'

loop_
  _atom_site_label
  _atom_site_occupancy
  _atom_site_fract_x
  _atom_site_fract_y
  _atom_site_fract_z
  _atom_site_thermal_displace_type
  _atom_site_B_iso_or_equiv
  _atom_site_type_symbol
  Hf1      1.0000 0.12017  0.04098  0.17715  Biso   1.000  Hf
  Hf2      1.0000 0.11633  0.46086  0.42797  Biso   1.000  Hf
  Hf3      1.0000 0.33422  0.54158  0.19297  Biso   1.000  Hf
  Hf4      1.0000 0.34301  0.96384  0.42946  Biso   1.000  Hf
  Hf5      1.0000 0.64757  0.04292  0.07186  Biso   1.000  Hf
  Hf6      1.0000 0.62155  0.46650  0.33039  Biso   1.000  Hf
  Hf7      1.0000 0.85697  0.54101  0.07568  Biso   1.000  Hf
  Hf8      1.0000 0.84427  0.96414  0.32825  Biso   1.000  Hf
  O1       1.0000 0.02695  0.33672  0.08774  Biso   1.000  O 
  O2       1.0000 0.01190  0.17644  0.33741  Biso   1.000  O 
  O3       1.0000 0.46720  0.87814  0.10030  Biso   1.000  O 
  O4       1.0000 0.44955  0.68240  0.33834  Biso   1.000  O 
  O5       1.0000 0.25240  0.25545  0.30327  Biso   1.000  O 
  O6       1.0000 0.25865  0.22055  0.05464  Biso   1.000  O 
  O7       1.0000 0.20286  0.75813  0.30882  Biso   1.000  O 
  O8       1.0000 0.21111  0.74814  0.06235  Biso   1.000  O 
  O9       1.0000 0.50955  0.31950  0.18902  Biso   1.000  O 
  O10      1.0000 0.51009  0.18556  0.42357  Biso   1.000  O 
  O11      1.0000 0.95112  0.83656  0.16837  Biso   1.000  O 
  O12      1.0000 0.94841  0.67688  0.41808  Biso   1.000  O 
  O13      1.0000 0.75523  0.25775  0.45074  Biso   1.000  O 
  O14      1.0000 0.76331  0.25903  0.20113  Biso   1.000  O 
  O15      1.0000 0.70674  0.76044  0.45422  Biso   1.000  O 
  O16      1.0000 0.71211  0.75213  0.20461  Biso   1.000  O 
  Hf9      1.0000 0.11526  0.04990  0.67583  Biso   1.000  Hf
  Hf10     1.0000 0.10257  0.47301  0.92841  Biso   1.000  Hf
  Hf11     1.0000 0.33798  0.54754  0.67369  Biso   1.000  Hf
  Hf12     1.0000 0.31198  0.97110  0.93222  Biso   1.000  Hf
  Hf13     1.0000 0.61652  0.05018  0.57462  Biso   1.000  Hf
  Hf14     1.0000 0.62531  0.47246  0.81111  Biso   1.000  Hf
  Hf15     1.0000 0.84321  0.55317  0.57611  Biso   1.000  Hf
  Hf16     1.0000 0.83937  0.97305  0.82694  Biso   1.000  Hf
  O17      1.0000 0.01112  0.33715  0.58600  Biso   1.000  O 
  O18      1.0000 0.00841  0.17748  0.83571  Biso   1.000  O 
  O19      1.0000 0.44943  0.82848  0.58052  Biso   1.000  O 
  O20      1.0000 0.44998  0.69454  0.81507  Biso   1.000  O 
  O21      1.0000 0.24743  0.26188  0.79948  Biso   1.000  O 
  O22      1.0000 0.25280  0.25359  0.54987  Biso   1.000  O 
  O23      1.0000 0.19622  0.75500  0.80295  Biso   1.000  O 
  O24      1.0000 0.20430  0.75629  0.55335  Biso   1.000  O 
  O25      1.0000 0.50998  0.33164  0.66574  Biso   1.000  O 
  O26      1.0000 0.49234  0.13588  0.90378  Biso   1.000  O 
  O27      1.0000 0.94764  0.83760  0.66668  Biso   1.000  O 
  O28      1.0000 0.93259  0.67730  0.91635  Biso   1.000  O 
  O29      1.0000 0.74842  0.26588  0.94174  Biso   1.000  O 
  O30      1.0000 0.75668  0.25591  0.69526  Biso   1.000  O 
  O31      1.0000 0.70089  0.79347  0.94944  Biso   1.000  O 
  O32      1.0000 0.70714  0.75858  0.70082  Biso   1.000  O 
  Sn1      1.0000 0.50316  0.50004  0.00255  Biso   1.000  Sn
