data_image0
_cell_length_a       4.97796
_cell_length_b       10.3731
_cell_length_c       10.0039
_cell_angle_alpha    90
_cell_angle_beta     90
_cell_angle_gamma    90

_symmetry_space_group_name_H-M    "P 1"
_symmetry_int_tables_number       1

loop_
  _symmetry_equiv_pos_as_xyz
  'x, y, z'

loop_
  _atom_site_label
  _atom_site_occupancy
  _atom_site_fract_x
  _atom_site_fract_y
  _atom_site_fract_z
  _atom_site_thermal_displace_type
  _atom_site_B_iso_or_equiv
  _atom_site_type_symbol
  Sn1      1.0000 0.26376  0.01808  0.12134  Biso   1.000  Sn
  Hf1      1.0000 0.27171  0.23177  0.37635  Biso   1.000  Hf
  Hf2      1.0000 0.73221  0.26632  0.12560  Biso   1.000  Hf
  Hf3      1.0000 0.73587  0.48267  0.37616  Biso   1.000  Hf
  O1       1.0000 0.07180  0.18393  0.19480  Biso   1.000  O 
  O2       1.0000 0.07671  0.06478  0.44540  Biso   1.000  O 
  O3       1.0000 0.93013  0.43291  0.19437  Biso   1.000  O 
  O4       1.0000 0.93089  0.31463  0.44378  Biso   1.000  O 
  O5       1.0000 0.53961  0.11504  0.24920  Biso   1.000  O 
  O6       1.0000 0.54658  0.13154  0.49934  Biso   1.000  O 
  O7       1.0000 0.46277  0.38142  0.49980  Biso   1.000  O 
  O8       1.0000 0.46164  0.36625  0.24994  Biso   1.000  O 
  Hf4      1.0000 0.27178  0.01558  0.62626  Biso   1.000  Hf
  Hf5      1.0000 0.27353  0.23400  0.87455  Biso   1.000  Hf
  Hf6      1.0000 0.73697  0.26567  0.62537  Biso   1.000  Hf
  Hf7      1.0000 0.73738  0.48294  0.87565  Biso   1.000  Hf
  O9       1.0000 0.07856  0.18430  0.69346  Biso   1.000  O 
  O10      1.0000 0.07675  0.06501  0.94022  Biso   1.000  O 
  O11      1.0000 0.93234  0.43344  0.69423  Biso   1.000  O 
  O12      1.0000 0.93193  0.31423  0.94354  Biso   1.000  O 
  O13      1.0000 0.54691  0.11709  0.74919  Biso   1.000  O 
  O14      1.0000 0.54592  0.13088  0.99904  Biso   1.000  O 
  O15      1.0000 0.46516  0.38106  0.99939  Biso   1.000  O 
  O16      1.0000 0.46422  0.36721  0.74929  Biso   1.000  O 
  Hf8      1.0000 0.26997  0.51594  0.12681  Biso   1.000  Hf
  Hf9      1.0000 0.27260  0.73359  0.37607  Biso   1.000  Hf
  Hf10     1.0000 0.73600  0.76482  0.12636  Biso   1.000  Hf
  Hf11     1.0000 0.73592  0.98277  0.37635  Biso   1.000  Hf
  O17      1.0000 0.07637  0.68332  0.19503  Biso   1.000  O 
  O18      1.0000 0.07658  0.56466  0.44438  Biso   1.000  O 
  O19      1.0000 0.93449  0.93230  0.19460  Biso   1.000  O 
  O20      1.0000 0.93250  0.81492  0.44574  Biso   1.000  O 
  O21      1.0000 0.54470  0.61524  0.24984  Biso   1.000  O 
  O22      1.0000 0.54504  0.63190  0.49997  Biso   1.000  O 
  O23      1.0000 0.46341  0.88193  0.50115  Biso   1.000  O 
  O24      1.0000 0.47275  0.86372  0.25213  Biso   1.000  O 
  Hf12     1.0000 0.27228  0.51589  0.62553  Biso   1.000  Hf
  Hf13     1.0000 0.27118  0.73201  0.87677  Biso   1.000  Hf
  Hf14     1.0000 0.73609  0.76556  0.62638  Biso   1.000  Hf
  Hf15     1.0000 0.73538  0.98231  0.87520  Biso   1.000  Hf
  O25      1.0000 0.07608  0.68307  0.69536  Biso   1.000  O 
  O26      1.0000 0.07727  0.56440  0.94553  Biso   1.000  O 
  O27      1.0000 0.93070  0.93351  0.69394  Biso   1.000  O 
  O28      1.0000 0.92846  0.81436  0.94323  Biso   1.000  O 
  O29      1.0000 0.54469  0.61672  0.75012  Biso   1.000  O 
  O30      1.0000 0.54648  0.63116  0.99981  Biso   1.000  O 
  O31      1.0000 0.45469  0.88309  0.00277  Biso   1.000  O 
  O32      1.0000 0.46238  0.86639  0.75122  Biso   1.000  O 
