data_image0
_cell_length_a       9.9565
_cell_length_b       10.3721
_cell_length_c       5.0024
_cell_angle_alpha    90
_cell_angle_beta     90
_cell_angle_gamma    90

_symmetry_space_group_name_H-M    "P 1"
_symmetry_int_tables_number       1

loop_
  _symmetry_equiv_pos_as_xyz
  'x, y, z'

loop_
  _atom_site_label
  _atom_site_occupancy
  _atom_site_fract_x
  _atom_site_fract_y
  _atom_site_fract_z
  _atom_site_thermal_displace_type
  _atom_site_B_iso_or_equiv
  _atom_site_type_symbol
  Sn1      1.0000 0.13152  0.01822  0.24366  Biso   1.000  Sn
  Hf1      1.0000 0.13553  0.23381  0.75008  Biso   1.000  Hf
  Hf2      1.0000 0.36710  0.26646  0.25123  Biso   1.000  Hf
  Hf3      1.0000 0.36756  0.48336  0.75214  Biso   1.000  Hf
  O1       1.0000 0.03655  0.18458  0.38839  Biso   1.000  O 
  O2       1.0000 0.03657  0.06572  0.88326  Biso   1.000  O 
  O3       1.0000 0.46483  0.43398  0.38853  Biso   1.000  O 
  O4       1.0000 0.46489  0.31473  0.88764  Biso   1.000  O 
  O5       1.0000 0.27069  0.11582  0.49680  Biso   1.000  O 
  O6       1.0000 0.27233  0.13209  0.99672  Biso   1.000  O 
  O7       1.0000 0.23127  0.38191  0.99902  Biso   1.000  O 
  O8       1.0000 0.23112  0.36706  0.49910  Biso   1.000  O 
  Hf4      1.0000 0.13472  0.51624  0.25221  Biso   1.000  Hf
  Hf5      1.0000 0.13504  0.73320  0.75350  Biso   1.000  Hf
  Hf6      1.0000 0.36682  0.76577  0.25558  Biso   1.000  Hf
  Hf7      1.0000 0.36744  0.98308  0.75225  Biso   1.000  Hf
  O9       1.0000 0.03710  0.68341  0.39026  Biso   1.000  O 
  O10      1.0000 0.03733  0.56467  0.89027  Biso   1.000  O 
  O11      1.0000 0.46603  0.93334  0.39029  Biso   1.000  O 
  O12      1.0000 0.46383  0.81489  0.88955  Biso   1.000  O 
  O13      1.0000 0.27138  0.61591  0.50041  Biso   1.000  O 
  O14      1.0000 0.27039  0.63334  0.00050  Biso   1.000  O 
  O15      1.0000 0.22878  0.88387  0.00895  Biso   1.000  O 
  O16      1.0000 0.23357  0.86417  0.50814  Biso   1.000  O 
  Hf8      1.0000 0.63437  0.01601  0.25151  Biso   1.000  Hf
  Hf9      1.0000 0.63537  0.23271  0.75154  Biso   1.000  Hf
  Hf10     1.0000 0.86585  0.26626  0.25037  Biso   1.000  Hf
  Hf11     1.0000 0.86740  0.48297  0.75150  Biso   1.000  Hf
  O17      1.0000 0.53675  0.18404  0.38870  Biso   1.000  O 
  O18      1.0000 0.53822  0.06488  0.88835  Biso   1.000  O 
  O19      1.0000 0.96494  0.43304  0.38891  Biso   1.000  O 
  O20      1.0000 0.96494  0.31500  0.88729  Biso   1.000  O 
  O21      1.0000 0.77072  0.11706  0.49909  Biso   1.000  O 
  O22      1.0000 0.77232  0.13135  0.99902  Biso   1.000  O 
  O23      1.0000 0.73096  0.38138  0.99924  Biso   1.000  O 
  O24      1.0000 0.73022  0.36712  0.49919  Biso   1.000  O 
  Hf12     1.0000 0.63482  0.51640  0.25243  Biso   1.000  Hf
  Hf13     1.0000 0.63508  0.73315  0.75228  Biso   1.000  Hf
  Hf14     1.0000 0.86765  0.76549  0.25014  Biso   1.000  Hf
  Hf15     1.0000 0.86676  0.98295  0.75085  Biso   1.000  Hf
  O25      1.0000 0.53747  0.68375  0.39070  Biso   1.000  O 
  O26      1.0000 0.53780  0.56520  0.88972  Biso   1.000  O 
  O27      1.0000 0.96517  0.93320  0.38736  Biso   1.000  O 
  O28      1.0000 0.96495  0.81523  0.88874  Biso   1.000  O 
  O29      1.0000 0.77168  0.61689  0.49959  Biso   1.000  O 
  O30      1.0000 0.77196  0.63147  0.99917  Biso   1.000  O 
  O31      1.0000 0.73055  0.88116  0.99871  Biso   1.000  O 
  O32      1.0000 0.73231  0.86684  0.49843  Biso   1.000  O 
