data_image0
_cell_length_a       10.0174
_cell_length_b       5.09984
_cell_length_c       10.0174
_cell_angle_alpha    90
_cell_angle_beta     90
_cell_angle_gamma    90

_symmetry_space_group_name_H-M    "P 1"
_symmetry_int_tables_number       1

loop_
  _symmetry_equiv_pos_as_xyz
  'x, y, z'

loop_
  _atom_site_label
  _atom_site_occupancy
  _atom_site_fract_x
  _atom_site_fract_y
  _atom_site_fract_z
  _atom_site_thermal_displace_type
  _atom_site_B_iso_or_equiv
  _atom_site_type_symbol
  Sn1      1.0000 0.12491  0.00011  0.12491  Biso   1.000  Sn
  Hf1      1.0000 0.12491  0.50010  0.37564  Biso   1.000  Hf
  Hf2      1.0000 0.37564  0.50011  0.12491  Biso   1.000  Hf
  Hf3      1.0000 0.37558  0.00391  0.37558  Biso   1.000  Hf
  O1       1.0000 0.98974  0.30317  0.98974  Biso   1.000  O 
  O2       1.0000 0.00491  0.20207  0.24490  Biso   1.000  O 
  O3       1.0000 0.98975  0.69705  0.26007  Biso   1.000  O 
  O4       1.0000 0.00491  0.79815  0.00491  Biso   1.000  O 
  O5       1.0000 0.26007  0.30316  0.26007  Biso   1.000  O 
  O6       1.0000 0.24491  0.20206  0.00491  Biso   1.000  O 
  O7       1.0000 0.26007  0.69706  0.98974  Biso   1.000  O 
  O8       1.0000 0.24490  0.79815  0.24491  Biso   1.000  O 
  Hf4      1.0000 0.12491  0.00011  0.62491  Biso   1.000  Hf
  Hf5      1.0000 0.12491  0.50011  0.87418  Biso   1.000  Hf
  Hf6      1.0000 0.37441  0.50011  0.62491  Biso   1.000  Hf
  Hf7      1.0000 0.37558  0.99631  0.87424  Biso   1.000  Hf
  O9       1.0000 0.99436  0.29280  0.49320  Biso   1.000  O 
  O10      1.0000 0.00206  0.20773  0.74475  Biso   1.000  O 
  O11      1.0000 0.99437  0.70743  0.75662  Biso   1.000  O 
  O12      1.0000 0.00206  0.79250  0.50506  Biso   1.000  O 
  O13      1.0000 0.25545  0.29280  0.75662  Biso   1.000  O 
  O14      1.0000 0.24775  0.20771  0.50506  Biso   1.000  O 
  O15      1.0000 0.25545  0.70742  0.49320  Biso   1.000  O 
  O16      1.0000 0.24775  0.79251  0.74476  Biso   1.000  O 
  Hf8      1.0000 0.62491  0.00011  0.12491  Biso   1.000  Hf
  Hf9      1.0000 0.62491  0.50011  0.37441  Biso   1.000  Hf
  Hf10     1.0000 0.87418  0.50011  0.12491  Biso   1.000  Hf
  Hf11     1.0000 0.87424  0.99630  0.37558  Biso   1.000  Hf
  O17      1.0000 0.49320  0.29281  0.99437  Biso   1.000  O 
  O18      1.0000 0.50506  0.20772  0.24775  Biso   1.000  O 
  O19      1.0000 0.49320  0.70742  0.25545  Biso   1.000  O 
  O20      1.0000 0.50506  0.79250  0.00206  Biso   1.000  O 
  O21      1.0000 0.75662  0.29280  0.25545  Biso   1.000  O 
  O22      1.0000 0.74475  0.20772  0.00206  Biso   1.000  O 
  O23      1.0000 0.75662  0.70743  0.99436  Biso   1.000  O 
  O24      1.0000 0.74475  0.79250  0.24776  Biso   1.000  O 
  Hf12     1.0000 0.62491  0.00011  0.62491  Biso   1.000  Hf
  Hf13     1.0000 0.62491  0.50011  0.87541  Biso   1.000  Hf
  Hf14     1.0000 0.87541  0.50011  0.62491  Biso   1.000  Hf
  Hf15     1.0000 0.87424  0.00392  0.87423  Biso   1.000  Hf
  O25      1.0000 0.49515  0.29478  0.49515  Biso   1.000  O 
  O26      1.0000 0.50276  0.20624  0.74706  Biso   1.000  O 
  O27      1.0000 0.49515  0.70544  0.75466  Biso   1.000  O 
  O28      1.0000 0.50276  0.79398  0.50276  Biso   1.000  O 
  O29      1.0000 0.75466  0.29479  0.75466  Biso   1.000  O 
  O30      1.0000 0.74706  0.20623  0.50276  Biso   1.000  O 
  O31      1.0000 0.75467  0.70543  0.49515  Biso   1.000  O 
  O32      1.0000 0.74706  0.79399  0.74706  Biso   1.000  O 
