data_image0
_cell_length_a       10.1063
_cell_length_b       10.2707
_cell_length_c       5.2267
_cell_angle_alpha    90
_cell_angle_beta     80
_cell_angle_gamma    90

_symmetry_space_group_name_H-M    "P 1"
_symmetry_int_tables_number       1

loop_
  _symmetry_equiv_pos_as_xyz
  'x, y, z'

loop_
  _atom_site_label
  _atom_site_occupancy
  _atom_site_fract_x
  _atom_site_fract_y
  _atom_site_fract_z
  _atom_site_thermal_displace_type
  _atom_site_B_iso_or_equiv
  _atom_site_type_symbol
  Sn1      1.0000 0.13277  0.01704  0.29854  Biso   1.000  Sn
  Hf1      1.0000 0.13603  0.22763  0.78950  Biso   1.000  Hf
  Hf2      1.0000 0.36017  0.27096  0.20497  Biso   1.000  Hf
  Hf3      1.0000 0.35852  0.47873  0.70857  Biso   1.000  Hf
  O1       1.0000 0.03889  0.16885  0.15745  Biso   1.000  O 
  O2       1.0000 0.03031  0.08010  0.66326  Biso   1.000  O 
  O3       1.0000 0.46326  0.41925  0.33939  Biso   1.000  O 
  O4       1.0000 0.46137  0.33135  0.84049  Biso   1.000  O 
  O5       1.0000 0.27244  0.12612  0.47153  Biso   1.000  O 
  O6       1.0000 0.27610  0.12463  0.96866  Biso   1.000  O 
  O7       1.0000 0.22472  0.38116  0.01660  Biso   1.000  O 
  O8       1.0000 0.22272  0.36969  0.51808  Biso   1.000  O 
  Hf4      1.0000 0.13923  0.52153  0.29168  Biso   1.000  Hf
  Hf5      1.0000 0.13543  0.72847  0.79396  Biso   1.000  Hf
  Hf6      1.0000 0.36294  0.77159  0.20934  Biso   1.000  Hf
  Hf7      1.0000 0.36100  0.97994  0.70855  Biso   1.000  Hf
  O9       1.0000 0.03683  0.66938  0.16127  Biso   1.000  O 
  O10      1.0000 0.03443  0.58030  0.66231  Biso   1.000  O 
  O11      1.0000 0.46527  0.91942  0.33985  Biso   1.000  O 
  O12      1.0000 0.45965  0.82905  0.84030  Biso   1.000  O 
  O13      1.0000 0.27573  0.62908  0.48162  Biso   1.000  O 
  O14      1.0000 0.27272  0.62208  0.98246  Biso   1.000  O 
  O15      1.0000 0.22590  0.88334  0.02104  Biso   1.000  O 
  O16      1.0000 0.22237  0.86972  0.51997  Biso   1.000  O 
  Hf8      1.0000 0.63722  0.02172  0.29289  Biso   1.000  Hf
  Hf9      1.0000 0.63555  0.22907  0.79426  Biso   1.000  Hf
  Hf10     1.0000 0.86270  0.27017  0.21090  Biso   1.000  Hf
  Hf11     1.0000 0.85929  0.47772  0.71106  Biso   1.000  Hf
  O17      1.0000 0.53592  0.16984  0.16042  Biso   1.000  O 
  O18      1.0000 0.53336  0.08061  0.66145  Biso   1.000  O 
  O19      1.0000 0.96432  0.41873  0.34271  Biso   1.000  O 
  O20      1.0000 0.96083  0.33003  0.84512  Biso   1.000  O 
  O21      1.0000 0.77422  0.12908  0.48379  Biso   1.000  O 
  O22      1.0000 0.77154  0.12021  0.98529  Biso   1.000  O 
  O23      1.0000 0.72547  0.37843  0.02087  Biso   1.000  O 
  O24      1.0000 0.72260  0.37057  0.52115  Biso   1.000  O 
  Hf12     1.0000 0.63853  0.52018  0.29250  Biso   1.000  Hf
  Hf13     1.0000 0.63575  0.72765  0.79293  Biso   1.000  Hf
  Hf14     1.0000 0.86089  0.77001  0.20935  Biso   1.000  Hf
  Hf15     1.0000 0.85714  0.97798  0.71443  Biso   1.000  Hf
  O25      1.0000 0.53741  0.66936  0.16080  Biso   1.000  O 
  O26      1.0000 0.53391  0.57995  0.66127  Biso   1.000  O 
  O27      1.0000 0.96002  0.91850  0.34293  Biso   1.000  O 
  O28      1.0000 0.96059  0.82997  0.84334  Biso   1.000  O 
  O29      1.0000 0.77547  0.62832  0.48260  Biso   1.000  O 
  O30      1.0000 0.77249  0.61961  0.98278  Biso   1.000  O 
  O31      1.0000 0.72416  0.87872  0.02046  Biso   1.000  O 
  O32      1.0000 0.72229  0.87018  0.52174  Biso   1.000  O 
