data_image0
_cell_length_a       10.035
_cell_length_b       10.5398
_cell_length_c       5.10428
_cell_angle_alpha    90
_cell_angle_beta     90
_cell_angle_gamma    90

_symmetry_space_group_name_H-M    "P 1"
_symmetry_int_tables_number       1

loop_
  _symmetry_equiv_pos_as_xyz
  'x, y, z'

loop_
  _atom_site_label
  _atom_site_occupancy
  _atom_site_fract_x
  _atom_site_fract_y
  _atom_site_fract_z
  _atom_site_thermal_displace_type
  _atom_site_B_iso_or_equiv
  _atom_site_type_symbol
  Hf1      1.0000 0.15637  0.00932  0.27635  Biso   1.000  Hf
  Hf2      1.0000 0.16538  0.22213  0.83052  Biso   1.000  Hf
  Hf3      1.0000 0.36347  0.26847  0.25897  Biso   1.000  Hf
  Hf4      1.0000 0.38161  0.48839  0.74697  Biso   1.000  Hf
  O1       1.0000 0.05580  0.10922  0.57632  Biso   1.000  O 
  O2       1.0000 0.02178  0.07364  0.01463  Biso   1.000  O 
  O3       1.0000 0.46403  0.43269  0.38441  Biso   1.000  O 
  O4       1.0000 0.47176  0.31421  0.86529  Biso   1.000  O 
  O5       1.0000 0.29911  0.12319  0.52157  Biso   1.000  O 
  O6       1.0000 0.29093  0.11497  0.01592  Biso   1.000  O 
  O7       1.0000 0.23890  0.39393  0.01582  Biso   1.000  O 
  O8       1.0000 0.22439  0.36489  0.52846  Biso   1.000  O 
  Hf5      1.0000 0.14063  0.53621  0.24745  Biso   1.000  Hf
  Hf6      1.0000 0.14396  0.73718  0.74996  Biso   1.000  Hf
  Hf7      1.0000 0.37127  0.76501  0.24218  Biso   1.000  Hf
  Hf8      1.0000 0.37676  0.97787  0.74852  Biso   1.000  Hf
  O9       1.0000 0.04505  0.69426  0.38869  Biso   1.000  O 
  O10      1.0000 0.04658  0.57644  0.89715  Biso   1.000  O 
  O11      1.0000 0.46675  0.93180  0.37714  Biso   1.000  O 
  O12      1.0000 0.48535  0.82005  0.89227  Biso   1.000  O 
  O13      1.0000 0.27924  0.61838  0.49495  Biso   1.000  O 
  O14      1.0000 0.28682  0.64128  0.98781  Biso   1.000  O 
  O15      1.0000 0.22491  0.87766  0.00247  Biso   1.000  O 
  O16      1.0000 0.24319  0.86415  0.50390  Biso   1.000  O 
  Hf9      1.0000 0.63873  0.00738  0.21687  Biso   1.000  Hf
  Hf10     1.0000 0.62979  0.23056  0.70362  Biso   1.000  Hf
  Hf11     1.0000 0.80228  0.26251  0.18267  Biso   1.000  Hf
  Hf12     1.0000 0.88173  0.48943  0.74109  Biso   1.000  Hf
  O17      1.0000 0.54916  0.18879  0.33783  Biso   1.000  O 
  O18      1.0000 0.55412  0.06353  0.85727  Biso   1.000  O 
  O19      1.0000 0.97511  0.46210  0.39293  Biso   1.000  O 
  O20      1.0000 0.97452  0.32445  0.87831  Biso   1.000  O 
  O21      1.0000 0.77364  0.11049  0.44412  Biso   1.000  O 
  O22      1.0000 0.77573  0.13190  0.92560  Biso   1.000  O 
  O23      1.0000 0.72804  0.39467  0.95688  Biso   1.000  O 
  O24      1.0000 0.72517  0.37570  0.47202  Biso   1.000  O 
  Hf13     1.0000 0.63190  0.52462  0.24540  Biso   1.000  Hf
  Hf14     1.0000 0.65183  0.73692  0.74437  Biso   1.000  Hf
  Hf15     1.0000 0.86875  0.76873  0.24080  Biso   1.000  Hf
  Hf16     1.0000 0.89074  0.99115  0.72304  Biso   1.000  Hf
  O25      1.0000 0.53767  0.68396  0.39559  Biso   1.000  O 
  O26      1.0000 0.54380  0.57332  0.89566  Biso   1.000  O 
  O27      1.0000 0.97182  0.91760  0.38932  Biso   1.000  O 
  O28      1.0000 0.98141  0.82699  0.88157  Biso   1.000  O 
  O29      1.0000 0.77522  0.62022  0.49102  Biso   1.000  O 
  O30      1.0000 0.78421  0.63646  0.99057  Biso   1.000  O 
  O31      1.0000 0.75032  0.88355  0.98543  Biso   1.000  O 
  O32      1.0000 0.73493  0.86747  0.48645  Biso   1.000  O 
  Sn1      1.0000 0.04860  0.26615  0.32636  Biso   1.000  Sn
