data_image0
_cell_length_a       10.1459
_cell_length_b       10.3159
_cell_length_c       10.551
_cell_angle_alpha    90
_cell_angle_beta     80
_cell_angle_gamma    90

_symmetry_space_group_name_H-M    "P 1"
_symmetry_int_tables_number       1

loop_
  _symmetry_equiv_pos_as_xyz
  'x, y, z'

loop_
  _atom_site_label
  _atom_site_occupancy
  _atom_site_fract_x
  _atom_site_fract_y
  _atom_site_fract_z
  _atom_site_thermal_displace_type
  _atom_site_B_iso_or_equiv
  _atom_site_type_symbol
  Hf1      1.0000 0.13523  0.02062  0.14518  Biso   1.000  Hf
  Hf2      1.0000 0.13559  0.22796  0.39333  Biso   1.000  Hf
  Hf3      1.0000 0.34334  0.27292  0.07873  Biso   1.000  Hf
  Hf4      1.0000 0.35970  0.49330  0.35682  Biso   1.000  Hf
  O1       1.0000 0.03370  0.16790  0.07598  Biso   1.000  O 
  O2       1.0000 0.03172  0.08331  0.32773  Biso   1.000  O 
  O3       1.0000 0.45916  0.42808  0.16283  Biso   1.000  O 
  O4       1.0000 0.48106  0.36628  0.44527  Biso   1.000  O 
  O5       1.0000 0.27090  0.12392  0.23275  Biso   1.000  O 
  O6       1.0000 0.29010  0.12896  0.47799  Biso   1.000  O 
  O7       1.0000 0.20956  0.38628  0.00142  Biso   1.000  O 
  O8       1.0000 0.22896  0.36771  0.25740  Biso   1.000  O 
  Hf5      1.0000 0.14412  0.02412  0.64320  Biso   1.000  Hf
  Hf6      1.0000 0.13795  0.23096  0.88895  Biso   1.000  Hf
  Hf7      1.0000 0.36566  0.28090  0.60464  Biso   1.000  Hf
  Hf8      1.0000 0.36309  0.48577  0.85210  Biso   1.000  Hf
  O9       1.0000 0.04375  0.17127  0.57834  Biso   1.000  O 
  O10      1.0000 0.03770  0.08459  0.82501  Biso   1.000  O 
  O11      1.0000 0.47045  0.41939  0.68074  Biso   1.000  O 
  O12      1.0000 0.46932  0.33789  0.91584  Biso   1.000  O 
  O13      1.0000 0.27949  0.13115  0.73495  Biso   1.000  O 
  O14      1.0000 0.27588  0.12277  0.98160  Biso   1.000  O 
  O15      1.0000 0.22542  0.38283  0.50732  Biso   1.000  O 
  O16      1.0000 0.22685  0.37468  0.75629  Biso   1.000  O 
  Hf9      1.0000 0.13774  0.52217  0.14801  Biso   1.000  Hf
  Hf10     1.0000 0.13541  0.73053  0.39651  Biso   1.000  Hf
  Hf11     1.0000 0.35821  0.77280  0.10319  Biso   1.000  Hf
  Hf12     1.0000 0.36256  0.96843  0.35419  Biso   1.000  Hf
  O17      1.0000 0.03281  0.66567  0.07950  Biso   1.000  O 
  O18      1.0000 0.03395  0.58276  0.32983  Biso   1.000  O 
  O19      1.0000 0.46446  0.91595  0.17337  Biso   1.000  O 
  O20      1.0000 0.46375  0.82606  0.42368  Biso   1.000  O 
  O21      1.0000 0.27362  0.63128  0.24154  Biso   1.000  O 
  O22      1.0000 0.27390  0.62783  0.49282  Biso   1.000  O 
  O23      1.0000 0.22027  0.87898  0.00943  Biso   1.000  O 
  O24      1.0000 0.22017  0.86930  0.25901  Biso   1.000  O 
  Hf13     1.0000 0.14032  0.52454  0.64564  Biso   1.000  Hf
  Hf14     1.0000 0.14134  0.73101  0.89640  Biso   1.000  Hf
  Hf15     1.0000 0.36342  0.77300  0.60543  Biso   1.000  Hf
  Hf16     1.0000 0.36325  0.98020  0.85098  Biso   1.000  Hf
  O25      1.0000 0.03385  0.66878  0.57870  Biso   1.000  O 
  O26      1.0000 0.03750  0.58594  0.82840  Biso   1.000  O 
  O27      1.0000 0.46770  0.91883  0.67059  Biso   1.000  O 
  O28      1.0000 0.46863  0.83780  0.92078  Biso   1.000  O 
  O29      1.0000 0.27873  0.63093  0.74049  Biso   1.000  O 
  O30      1.0000 0.28105  0.62726  0.99108  Biso   1.000  O 
  O31      1.0000 0.22454  0.88191  0.51030  Biso   1.000  O 
  O32      1.0000 0.22563  0.87287  0.75912  Biso   1.000  O 
  Hf17     1.0000 0.64191  0.01643  0.14811  Biso   1.000  Hf
  Hf18     1.0000 0.65774  0.22840  0.41584  Biso   1.000  Hf
  Hf19     1.0000 0.85920  0.27146  0.10676  Biso   1.000  Hf
  Hf20     1.0000 0.86043  0.47938  0.35472  Biso   1.000  Hf
  O33      1.0000 0.52914  0.16275  0.07450  Biso   1.000  O 
  O34      1.0000 0.55442  0.06023  0.34248  Biso   1.000  O 
  O35      1.0000 0.96422  0.41616  0.17409  Biso   1.000  O 
  O36      1.0000 0.96466  0.33243  0.42247  Biso   1.000  O 
  O37      1.0000 0.77939  0.12951  0.24278  Biso   1.000  O 
  O38      1.0000 0.79110  0.11705  0.50061  Biso   1.000  O 
  O39      1.0000 0.72057  0.37787  0.01350  Biso   1.000  O 
  O40      1.0000 0.71854  0.36900  0.26387  Biso   1.000  O 
  Hf21     1.0000 0.64305  0.02264  0.64808  Biso   1.000  Hf
  Hf22     1.0000 0.64297  0.22925  0.89729  Biso   1.000  Hf
  Hf23     1.0000 0.86729  0.27379  0.60975  Biso   1.000  Hf
  Hf24     1.0000 0.86351  0.48146  0.85582  Biso   1.000  Hf
  O41      1.0000 0.54030  0.17187  0.58388  Biso   1.000  O 
  O42      1.0000 0.53736  0.08576  0.82722  Biso   1.000  O 
  O43      1.0000 0.96955  0.41966  0.67371  Biso   1.000  O 
  O44      1.0000 0.96570  0.33418  0.92020  Biso   1.000  O 
  O45      1.0000 0.78040  0.13147  0.74481  Biso   1.000  O 
  O46      1.0000 0.78173  0.12354  0.99253  Biso   1.000  O 
  O47      1.0000 0.73181  0.38192  0.51708  Biso   1.000  O 
  O48      1.0000 0.72801  0.37396  0.76337  Biso   1.000  O 
  Hf25     1.0000 0.63487  0.52361  0.14504  Biso   1.000  Hf
  Hf26     1.0000 0.64082  0.72797  0.39736  Biso   1.000  Hf
  Hf27     1.0000 0.85946  0.76955  0.10523  Biso   1.000  Hf
  Hf28     1.0000 0.85715  0.97771  0.35485  Biso   1.000  Hf
  O49      1.0000 0.53355  0.67166  0.07809  Biso   1.000  O 
  O50      1.0000 0.53405  0.59060  0.32365  Biso   1.000  O 
  O51      1.0000 0.96197  0.91485  0.17368  Biso   1.000  O 
  O52      1.0000 0.96423  0.83444  0.42277  Biso   1.000  O 
  O53      1.0000 0.77710  0.62661  0.24110  Biso   1.000  O 
  O54      1.0000 0.77722  0.62200  0.49085  Biso   1.000  O 
  O55      1.0000 0.72188  0.87725  0.01076  Biso   1.000  O 
  O56      1.0000 0.72357  0.86701  0.25904  Biso   1.000  O 
  Hf29     1.0000 0.64158  0.52476  0.64901  Biso   1.000  Hf
  Hf30     1.0000 0.64161  0.73232  0.89642  Biso   1.000  Hf
  Hf31     1.0000 0.86247  0.77471  0.60525  Biso   1.000  Hf
  Hf32     1.0000 0.86367  0.98046  0.85478  Biso   1.000  Hf
  O57      1.0000 0.53537  0.66653  0.57964  Biso   1.000  O 
  O58      1.0000 0.53688  0.58883  0.82954  Biso   1.000  O 
  O59      1.0000 0.96804  0.91935  0.67209  Biso   1.000  O 
  O60      1.0000 0.96925  0.83593  0.92247  Biso   1.000  O 
  O61      1.0000 0.77884  0.63208  0.74104  Biso   1.000  O 
  O62      1.0000 0.77964  0.62391  0.98995  Biso   1.000  O 
  O63      1.0000 0.72310  0.87762  0.51141  Biso   1.000  O 
  O64      1.0000 0.72637  0.87475  0.76074  Biso   1.000  O 
  Sr1      1.0000 0.45312  0.23831  0.28101  Biso   1.000  Sr
