data_image0
_cell_length_a       10.2034
_cell_length_b       10.3425
_cell_length_c       5.12938
_cell_angle_alpha    80
_cell_angle_beta     90
_cell_angle_gamma    90

_symmetry_space_group_name_H-M    "P 1"
_symmetry_int_tables_number       1

loop_
  _symmetry_equiv_pos_as_xyz
  'x, y, z'

loop_
  _atom_site_label
  _atom_site_occupancy
  _atom_site_fract_x
  _atom_site_fract_y
  _atom_site_fract_z
  _atom_site_thermal_displace_type
  _atom_site_B_iso_or_equiv
  _atom_site_type_symbol
  Hf1      1.0000 0.15839  0.96098  0.25175  Biso   1.000  Hf
  Hf2      1.0000 0.14691  0.20567  0.63724  Biso   1.000  Hf
  Hf3      1.0000 0.41854  0.25556  0.24782  Biso   1.000  Hf
  Hf4      1.0000 0.38605  0.97198  0.73676  Biso   1.000  Hf
  O1       1.0000 0.96660  0.15837  0.87105  Biso   1.000  O 
  O2       1.0000 0.01118  0.11107  0.40152  Biso   1.000  O 
  O3       1.0000 0.03583  0.37647  0.61191  Biso   1.000  O 
  O4       1.0000 0.95980  0.42056  0.10358  Biso   1.000  O 
  O5       1.0000 0.26652  0.10693  0.38656  Biso   1.000  O 
  O6       1.0000 0.19592  0.02834  0.89542  Biso   1.000  O 
  O7       1.0000 0.31595  0.25390  0.87611  Biso   1.000  O 
  O8       1.0000 0.26526  0.36878  0.41499  Biso   1.000  O 
  Hf5      1.0000 0.10387  0.52096  0.31196  Biso   1.000  Hf
  Hf6      1.0000 0.14870  0.69895  0.78445  Biso   1.000  Hf
  Hf7      1.0000 0.40765  0.74851  0.31342  Biso   1.000  Hf
  Hf8      1.0000 0.36361  0.44744  0.72437  Biso   1.000  Hf
  O9       1.0000 0.01960  0.68066  0.07942  Biso   1.000  O 
  O10      1.0000 0.99478  0.61329  0.58180  Biso   1.000  O 
  O11      1.0000 0.03095  0.85362  0.55808  Biso   1.000  O 
  O12      1.0000 0.98625  0.92556  0.06727  Biso   1.000  O 
  O13      1.0000 0.25649  0.61381  0.49336  Biso   1.000  O 
  O14      1.0000 0.21693  0.51233  0.96868  Biso   1.000  O 
  O15      1.0000 0.24794  0.81387  0.06427  Biso   1.000  O 
  O16      1.0000 0.27709  0.85103  0.54937  Biso   1.000  O 
  Hf9      1.0000 0.64348  0.98679  0.25803  Biso   1.000  Hf
  Hf10     1.0000 0.64387  0.20535  0.71563  Biso   1.000  Hf
  Hf11     1.0000 0.85290  0.23600  0.18376  Biso   1.000  Hf
  Hf12     1.0000 0.89900  0.99655  0.72829  Biso   1.000  Hf
  O17      1.0000 0.54029  0.16241  0.03761  Biso   1.000  O 
  O18      1.0000 0.50675  0.09230  0.53330  Biso   1.000  O 
  O19      1.0000 0.51835  0.34700  0.53161  Biso   1.000  O 
  O20      1.0000 0.48633  0.43287  0.04619  Biso   1.000  O 
  O21      1.0000 0.75356  0.11071  0.47106  Biso   1.000  O 
  O22      1.0000 0.75422  0.05671  0.98587  Biso   1.000  O 
  O23      1.0000 0.72949  0.31807  0.95175  Biso   1.000  O 
  O24      1.0000 0.76748  0.36141  0.46179  Biso   1.000  O 
  Hf13     1.0000 0.62265  0.50847  0.27647  Biso   1.000  Hf
  Hf14     1.0000 0.65706  0.71329  0.78473  Biso   1.000  Hf
  Hf15     1.0000 0.89328  0.76587  0.31435  Biso   1.000  Hf
  Hf16     1.0000 0.86368  0.45783  0.74519  Biso   1.000  Hf
  O25      1.0000 0.52398  0.67761  0.05806  Biso   1.000  O 
  O26      1.0000 0.50623  0.58945  0.55709  Biso   1.000  O 
  O27      1.0000 0.52542  0.84315  0.55517  Biso   1.000  O 
  O28      1.0000 0.47534  0.92925  0.07437  Biso   1.000  O 
  O29      1.0000 0.75365  0.61900  0.49884  Biso   1.000  O 
  O30      1.0000 0.75105  0.55592  0.99810  Biso   1.000  O 
  O31      1.0000 0.73012  0.83800  0.08524  Biso   1.000  O 
  O32      1.0000 0.77987  0.86767  0.56951  Biso   1.000  O 
  Sr1      1.0000 0.13350  0.28027  0.10605  Biso   1.000  Sr
