data_image0
_cell_length_a       10.03
_cell_length_b       10.4198
_cell_length_c       10.0899
_cell_angle_alpha    90
_cell_angle_beta     90
_cell_angle_gamma    90

_symmetry_space_group_name_H-M    "P 1"
_symmetry_int_tables_number       1

loop_
  _symmetry_equiv_pos_as_xyz
  'x, y, z'

loop_
  _atom_site_label
  _atom_site_occupancy
  _atom_site_fract_x
  _atom_site_fract_y
  _atom_site_fract_z
  _atom_site_thermal_displace_type
  _atom_site_B_iso_or_equiv
  _atom_site_type_symbol
  Hf1      1.0000 0.13541  0.98441  0.11084  Biso   1.000  Hf
  Hf2      1.0000 0.12403  0.23163  0.39712  Biso   1.000  Hf
  Hf3      1.0000 0.37408  0.27306  0.11775  Biso   1.000  Hf
  Hf4      1.0000 0.36348  0.48596  0.37452  Biso   1.000  Hf
  O1       1.0000 0.96057  0.17926  0.27296  Biso   1.000  O 
  O2       1.0000 0.03603  0.06347  0.46489  Biso   1.000  O 
  O3       1.0000 0.46404  0.43836  0.19485  Biso   1.000  O 
  O4       1.0000 0.46535  0.32390  0.44929  Biso   1.000  O 
  O5       1.0000 0.23431  0.10510  0.24857  Biso   1.000  O 
  O6       1.0000 0.27589  0.13519  0.49831  Biso   1.000  O 
  O7       1.0000 0.23239  0.38748  0.50190  Biso   1.000  O 
  O8       1.0000 0.23358  0.36452  0.25662  Biso   1.000  O 
  Hf5      1.0000 0.13890  0.01181  0.62676  Biso   1.000  Hf
  Hf6      1.0000 0.13012  0.23723  0.85129  Biso   1.000  Hf
  Hf7      1.0000 0.37025  0.27127  0.62378  Biso   1.000  Hf
  Hf8      1.0000 0.36409  0.49192  0.87189  Biso   1.000  Hf
  O9       1.0000 0.03284  0.18149  0.68919  Biso   1.000  O 
  O10      1.0000 0.03343  0.07203  0.94996  Biso   1.000  O 
  O11      1.0000 0.46614  0.43817  0.69585  Biso   1.000  O 
  O12      1.0000 0.46321  0.32414  0.94013  Biso   1.000  O 
  O13      1.0000 0.27056  0.11937  0.74526  Biso   1.000  O 
  O14      1.0000 0.26802  0.13466  0.99542  Biso   1.000  O 
  O15      1.0000 0.22984  0.40004  0.99701  Biso   1.000  O 
  O16      1.0000 0.23311  0.37094  0.74548  Biso   1.000  O 
  Hf9      1.0000 0.13080  0.53176  0.12448  Biso   1.000  Hf
  Hf10     1.0000 0.12884  0.73765  0.37702  Biso   1.000  Hf
  Hf11     1.0000 0.36985  0.76009  0.12145  Biso   1.000  Hf
  Hf12     1.0000 0.35817  0.99050  0.36871  Biso   1.000  Hf
  O17      1.0000 0.03086  0.68794  0.19690  Biso   1.000  O 
  O18      1.0000 0.03193  0.57262  0.44221  Biso   1.000  O 
  O19      1.0000 0.45217  0.93325  0.19104  Biso   1.000  O 
  O20      1.0000 0.46274  0.82305  0.44233  Biso   1.000  O 
  O21      1.0000 0.27009  0.61753  0.24662  Biso   1.000  O 
  O22      1.0000 0.26634  0.63695  0.49645  Biso   1.000  O 
  O23      1.0000 0.22849  0.88685  0.49377  Biso   1.000  O 
  O24      1.0000 0.22923  0.85625  0.24269  Biso   1.000  O 
  Hf13     1.0000 0.12847  0.51759  0.62076  Biso   1.000  Hf
  Hf14     1.0000 0.12654  0.73650  0.86635  Biso   1.000  Hf
  Hf15     1.0000 0.36682  0.76870  0.61913  Biso   1.000  Hf
  Hf16     1.0000 0.36478  0.98821  0.87000  Biso   1.000  Hf
  O25      1.0000 0.03097  0.68632  0.68946  Biso   1.000  O 
  O26      1.0000 0.02875  0.57613  0.94661  Biso   1.000  O 
  O27      1.0000 0.46396  0.93633  0.69463  Biso   1.000  O 
  O28      1.0000 0.46878  0.82588  0.94675  Biso   1.000  O 
  O29      1.0000 0.26396  0.61789  0.74464  Biso   1.000  O 
  O30      1.0000 0.26362  0.64253  0.99445  Biso   1.000  O 
  O31      1.0000 0.23394  0.87970  0.98818  Biso   1.000  O 
  O32      1.0000 0.23198  0.86627  0.74396  Biso   1.000  O 
  Hf17     1.0000 0.62586  0.01013  0.11995  Biso   1.000  Hf
  Hf18     1.0000 0.62569  0.23285  0.37879  Biso   1.000  Hf
  Hf19     1.0000 0.83177  0.26202  0.12978  Biso   1.000  Hf
  Hf20     1.0000 0.86453  0.48446  0.37399  Biso   1.000  Hf
  O33      1.0000 0.51487  0.17455  0.20938  Biso   1.000  O 
  O34      1.0000 0.53058  0.06939  0.45183  Biso   1.000  O 
  O35      1.0000 0.96249  0.43040  0.19109  Biso   1.000  O 
  O36      1.0000 0.97179  0.33583  0.46877  Biso   1.000  O 
  O37      1.0000 0.73903  0.11079  0.24849  Biso   1.000  O 
  O38      1.0000 0.76957  0.14259  0.49746  Biso   1.000  O 
  O39      1.0000 0.73065  0.38814  0.50146  Biso   1.000  O 
  O40      1.0000 0.71776  0.37390  0.25589  Biso   1.000  O 
  Hf21     1.0000 0.63779  0.01903  0.62266  Biso   1.000  Hf
  Hf22     1.0000 0.63210  0.23842  0.87235  Biso   1.000  Hf
  Hf23     1.0000 0.86128  0.27397  0.62871  Biso   1.000  Hf
  Hf24     1.0000 0.86289  0.48587  0.87884  Biso   1.000  Hf
  O41      1.0000 0.53690  0.18699  0.69514  Biso   1.000  O 
  O42      1.0000 0.53203  0.07566  0.94434  Biso   1.000  O 
  O43      1.0000 0.96699  0.43614  0.70618  Biso   1.000  O 
  O44      1.0000 0.95548  0.31635  0.93735  Biso   1.000  O 
  O45      1.0000 0.77143  0.12085  0.74863  Biso   1.000  O 
  O46      1.0000 0.76554  0.13332  0.99719  Biso   1.000  O 
  O47      1.0000 0.71870  0.39073  0.99974  Biso   1.000  O 
  O48      1.0000 0.72746  0.37337  0.75040  Biso   1.000  O 
  Hf25     1.0000 0.63169  0.52136  0.12728  Biso   1.000  Hf
  Hf26     1.0000 0.63352  0.73997  0.37706  Biso   1.000  Hf
  Hf27     1.0000 0.85960  0.76746  0.12633  Biso   1.000  Hf
  Hf28     1.0000 0.87497  0.00322  0.36348  Biso   1.000  Hf
  O49      1.0000 0.53649  0.68720  0.19767  Biso   1.000  O 
  O50      1.0000 0.53232  0.57307  0.44611  Biso   1.000  O 
  O51      1.0000 0.96117  0.93612  0.19226  Biso   1.000  O 
  O52      1.0000 0.96265  0.82507  0.44330  Biso   1.000  O 
  O53      1.0000 0.76959  0.61983  0.24974  Biso   1.000  O 
  O54      1.0000 0.76841  0.63801  0.49832  Biso   1.000  O 
  O55      1.0000 0.72973  0.89182  0.49618  Biso   1.000  O 
  O56      1.0000 0.72624  0.86819  0.24634  Biso   1.000  O 
  Hf29     1.0000 0.63272  0.52160  0.62369  Biso   1.000  Hf
  Hf30     1.0000 0.63292  0.73786  0.87290  Biso   1.000  Hf
  Hf31     1.0000 0.86352  0.77399  0.62014  Biso   1.000  Hf
  Hf32     1.0000 0.86112  0.98853  0.87609  Biso   1.000  Hf
  O57      1.0000 0.53198  0.68733  0.69584  Biso   1.000  O 
  O58      1.0000 0.52813  0.57732  0.94958  Biso   1.000  O 
  O59      1.0000 0.96731  0.93157  0.70560  Biso   1.000  O 
  O60      1.0000 0.96835  0.82565  0.95359  Biso   1.000  O 
  O61      1.0000 0.76782  0.62055  0.74892  Biso   1.000  O 
  O62      1.0000 0.76610  0.63930  0.99952  Biso   1.000  O 
  O63      1.0000 0.72735  0.88652  0.99746  Biso   1.000  O 
  O64      1.0000 0.72848  0.87102  0.74702  Biso   1.000  O 
  Sr1      1.0000 0.09913  0.25124  0.11550  Biso   1.000  Sr
