data_image0
_cell_length_a       10.1044
_cell_length_b       5.14877
_cell_length_c       10.4847
_cell_angle_alpha    90
_cell_angle_beta     90
_cell_angle_gamma    90

_symmetry_space_group_name_H-M    "P 1"
_symmetry_int_tables_number       1

loop_
  _symmetry_equiv_pos_as_xyz
  'x, y, z'

loop_
  _atom_site_label
  _atom_site_occupancy
  _atom_site_fract_x
  _atom_site_fract_y
  _atom_site_fract_z
  _atom_site_thermal_displace_type
  _atom_site_B_iso_or_equiv
  _atom_site_type_symbol
  Sr1      1.0000 0.12590  0.01397  0.16119  Biso   1.000  Sr
  Hf1      1.0000 0.13372  0.04206  0.67151  Biso   1.000  Hf
  Hf2      1.0000 0.13579  0.45139  0.42097  Biso   1.000  Hf
  Hf3      1.0000 0.13381  0.46278  0.91914  Biso   1.000  Hf
  Hf4      1.0000 0.35788  0.52671  0.16859  Biso   1.000  Hf
  Hf5      1.0000 0.35240  0.54112  0.67033  Biso   1.000  Hf
  Hf6      1.0000 0.35062  0.95634  0.41907  Biso   1.000  Hf
  Hf7      1.0000 0.35295  0.95911  0.92003  Biso   1.000  Hf
  Hf8      1.0000 0.64113  0.04010  0.07863  Biso   1.000  Hf
  Hf9      1.0000 0.63172  0.03982  0.58084  Biso   1.000  Hf
  Hf10     1.0000 0.63320  0.45543  0.33158  Biso   1.000  Hf
  Hf11     1.0000 0.63022  0.45931  0.82736  Biso   1.000  Hf
  Hf12     1.0000 0.85907  0.52968  0.07382  Biso   1.000  Hf
  Hf13     1.0000 0.85597  0.54257  0.58053  Biso   1.000  Hf
  Hf14     1.0000 0.84885  0.96607  0.33779  Biso   1.000  Hf
  Hf15     1.0000 0.85111  0.95842  0.82873  Biso   1.000  Hf
  O1       1.0000 0.04047  0.40931  0.09066  Biso   1.000  O 
  O2       1.0000 0.02987  0.34783  0.59407  Biso   1.000  O 
  O3       1.0000 0.01965  0.16418  0.35514  Biso   1.000  O 
  O4       1.0000 0.02933  0.15374  0.84187  Biso   1.000  O 
  O5       1.0000 0.47160  0.82027  0.08063  Biso   1.000  O 
  O6       1.0000 0.46040  0.82201  0.57979  Biso   1.000  O 
  O7       1.0000 0.46995  0.68333  0.32830  Biso   1.000  O 
  O8       1.0000 0.46119  0.67396  0.82783  Biso   1.000  O 
  O9       1.0000 0.27880  0.24665  0.30202  Biso   1.000  O 
  O10      1.0000 0.26859  0.24934  0.79160  Biso   1.000  O 
  O11      1.0000 0.28534  0.25097  0.03527  Biso   1.000  O 
  O12      1.0000 0.26926  0.24824  0.54585  Biso   1.000  O 
  O13      1.0000 0.23002  0.72021  0.30046  Biso   1.000  O 
  O14      1.0000 0.21576  0.74891  0.79064  Biso   1.000  O 
  O15      1.0000 0.24325  0.72638  0.03190  Biso   1.000  O 
  O16      1.0000 0.21562  0.75340  0.54520  Biso   1.000  O 
  O17      1.0000 0.53128  0.31934  0.16915  Biso   1.000  O 
  O18      1.0000 0.52412  0.32467  0.66721  Biso   1.000  O 
  O19      1.0000 0.52711  0.17095  0.41910  Biso   1.000  O 
  O20      1.0000 0.52740  0.17272  0.91722  Biso   1.000  O 
  O21      1.0000 0.90849  0.86623  0.15607  Biso   1.000  O 
  O22      1.0000 0.95536  0.84620  0.66101  Biso   1.000  O 
  O23      1.0000 0.95970  0.66380  0.41140  Biso   1.000  O 
  O24      1.0000 0.95451  0.65892  0.90512  Biso   1.000  O 
  O25      1.0000 0.76814  0.24325  0.95409  Biso   1.000  O 
  O26      1.0000 0.76690  0.25091  0.46013  Biso   1.000  O 
  O27      1.0000 0.77263  0.26898  0.20997  Biso   1.000  O 
  O28      1.0000 0.76873  0.25399  0.70626  Biso   1.000  O 
  O29      1.0000 0.71276  0.74595  0.95373  Biso   1.000  O 
  O30      1.0000 0.71814  0.74850  0.45925  Biso   1.000  O 
  O31      1.0000 0.70221  0.76327  0.21301  Biso   1.000  O 
  O32      1.0000 0.71659  0.75090  0.70499  Biso   1.000  O 
