data_image0
_cell_length_a       10.0569
_cell_length_b       10.4235
_cell_length_c       5.02781
_cell_angle_alpha    90
_cell_angle_beta     90
_cell_angle_gamma    90

_symmetry_space_group_name_H-M    "P 1"
_symmetry_int_tables_number       1

loop_
  _symmetry_equiv_pos_as_xyz
  'x, y, z'

loop_
  _atom_site_label
  _atom_site_occupancy
  _atom_site_fract_x
  _atom_site_fract_y
  _atom_site_fract_z
  _atom_site_thermal_displace_type
  _atom_site_B_iso_or_equiv
  _atom_site_type_symbol
  Sr1      1.0000 0.12235  0.00989  0.25121  Biso   1.000  Sr
  Hf1      1.0000 0.13539  0.51624  0.25286  Biso   1.000  Hf
  Hf2      1.0000 0.63338  0.01512  0.25016  Biso   1.000  Hf
  Hf3      1.0000 0.63235  0.51490  0.25413  Biso   1.000  Hf
  Hf4      1.0000 0.13277  0.23690  0.74987  Biso   1.000  Hf
  Hf5      1.0000 0.13731  0.73210  0.75767  Biso   1.000  Hf
  Hf6      1.0000 0.63142  0.23148  0.75033  Biso   1.000  Hf
  Hf7      1.0000 0.63224  0.73020  0.75551  Biso   1.000  Hf
  Hf8      1.0000 0.36641  0.26653  0.25400  Biso   1.000  Hf
  Hf9      1.0000 0.36779  0.76393  0.25135  Biso   1.000  Hf
  Hf10     1.0000 0.85820  0.26860  0.25198  Biso   1.000  Hf
  Hf11     1.0000 0.86327  0.76107  0.25222  Biso   1.000  Hf
  Hf12     1.0000 0.36413  0.48138  0.75411  Biso   1.000  Hf
  Hf13     1.0000 0.36575  0.98107  0.75033  Biso   1.000  Hf
  Hf14     1.0000 0.86460  0.48284  0.75799  Biso   1.000  Hf
  Hf15     1.0000 0.85984  0.97990  0.75304  Biso   1.000  Hf
  O1       1.0000 0.03112  0.21030  0.39466  Biso   1.000  O 
  O2       1.0000 0.03719  0.68610  0.39140  Biso   1.000  O 
  O3       1.0000 0.53965  0.18543  0.38124  Biso   1.000  O 
  O4       1.0000 0.53610  0.68032  0.39537  Biso   1.000  O 
  O5       1.0000 0.03170  0.06948  0.81269  Biso   1.000  O 
  O6       1.0000 0.03310  0.56711  0.89399  Biso   1.000  O 
  O7       1.0000 0.53674  0.06416  0.88461  Biso   1.000  O 
  O8       1.0000 0.53185  0.56501  0.89594  Biso   1.000  O 
  O9       1.0000 0.46472  0.43274  0.39338  Biso   1.000  O 
  O10      1.0000 0.46501  0.93492  0.38870  Biso   1.000  O 
  O11      1.0000 0.96118  0.44069  0.39219  Biso   1.000  O 
  O12      1.0000 0.93093  0.92691  0.39498  Biso   1.000  O 
  O13      1.0000 0.46448  0.31622  0.88937  Biso   1.000  O 
  O14      1.0000 0.47200  0.81769  0.90019  Biso   1.000  O 
  O15      1.0000 0.96272  0.31960  0.89897  Biso   1.000  O 
  O16      1.0000 0.96828  0.81836  0.90231  Biso   1.000  O 
  O17      1.0000 0.28448  0.12996  0.51617  Biso   1.000  O 
  O18      1.0000 0.26953  0.61297  0.50114  Biso   1.000  O 
  O19      1.0000 0.76731  0.11790  0.50080  Biso   1.000  O 
  O20      1.0000 0.77033  0.61555  0.49941  Biso   1.000  O 
  O21      1.0000 0.27544  0.13523  0.99152  Biso   1.000  O 
  O22      1.0000 0.27246  0.62794  0.00298  Biso   1.000  O 
  O23      1.0000 0.77122  0.13239  0.00080  Biso   1.000  O 
  O24      1.0000 0.76663  0.62802  0.99752  Biso   1.000  O 
  O25      1.0000 0.23160  0.38318  0.00208  Biso   1.000  O 
  O26      1.0000 0.24059  0.86945  0.98905  Biso   1.000  O 
  O27      1.0000 0.72840  0.38257  0.00037  Biso   1.000  O 
  O28      1.0000 0.73083  0.87804  0.00400  Biso   1.000  O 
  O29      1.0000 0.22851  0.37043  0.49949  Biso   1.000  O 
  O30      1.0000 0.24349  0.85491  0.51186  Biso   1.000  O 
  O31      1.0000 0.72827  0.36855  0.50378  Biso   1.000  O 
  O32      1.0000 0.71587  0.86513  0.50319  Biso   1.000  O 
