data_image0
_cell_length_a       10.1791
_cell_length_b       10.3697
_cell_length_c       5.32576
_cell_angle_alpha    90
_cell_angle_beta     80
_cell_angle_gamma    90

_symmetry_space_group_name_H-M    "P 1"
_symmetry_int_tables_number       1

loop_
  _symmetry_equiv_pos_as_xyz
  'x, y, z'

loop_
  _atom_site_label
  _atom_site_occupancy
  _atom_site_fract_x
  _atom_site_fract_y
  _atom_site_fract_z
  _atom_site_thermal_displace_type
  _atom_site_B_iso_or_equiv
  _atom_site_type_symbol
  Hf1      1.0000 0.13750  0.02158  0.28831  Biso   1.000  Hf
  Hf2      1.0000 0.13287  0.22894  0.77570  Biso   1.000  Hf
  Hf3      1.0000 0.34234  0.28270  0.15962  Biso   1.000  Hf
  Hf4      1.0000 0.35863  0.49761  0.70877  Biso   1.000  Hf
  O1       1.0000 0.03928  0.16866  0.14991  Biso   1.000  O 
  O2       1.0000 0.03280  0.08399  0.64835  Biso   1.000  O 
  O3       1.0000 0.45931  0.43058  0.34795  Biso   1.000  O 
  O4       1.0000 0.47942  0.36987  0.88034  Biso   1.000  O 
  O5       1.0000 0.27198  0.12543  0.45516  Biso   1.000  O 
  O6       1.0000 0.29070  0.13169  0.93702  Biso   1.000  O 
  O7       1.0000 0.20463  0.38950  0.00262  Biso   1.000  O 
  O8       1.0000 0.22782  0.36932  0.51077  Biso   1.000  O 
  Hf5      1.0000 0.13445  0.52433  0.29651  Biso   1.000  Hf
  Hf6      1.0000 0.13488  0.73088  0.79406  Biso   1.000  Hf
  Hf7      1.0000 0.35610  0.77255  0.21030  Biso   1.000  Hf
  Hf8      1.0000 0.36115  0.96760  0.70553  Biso   1.000  Hf
  O9       1.0000 0.02706  0.66449  0.15787  Biso   1.000  O 
  O10      1.0000 0.03199  0.58554  0.65804  Biso   1.000  O 
  O11      1.0000 0.46297  0.91442  0.34833  Biso   1.000  O 
  O12      1.0000 0.46518  0.83031  0.84973  Biso   1.000  O 
  O13      1.0000 0.27137  0.63169  0.48260  Biso   1.000  O 
  O14      1.0000 0.27545  0.63204  0.98498  Biso   1.000  O 
  O15      1.0000 0.21694  0.88159  0.02294  Biso   1.000  O 
  O16      1.0000 0.21877  0.86944  0.51939  Biso   1.000  O 
  Hf9      1.0000 0.64442  0.01482  0.30089  Biso   1.000  Hf
  Hf10     1.0000 0.66139  0.22630  0.83217  Biso   1.000  Hf
  Hf11     1.0000 0.86205  0.27166  0.22444  Biso   1.000  Hf
  Hf12     1.0000 0.85962  0.47970  0.71367  Biso   1.000  Hf
  O17      1.0000 0.53331  0.16409  0.15707  Biso   1.000  O 
  O18      1.0000 0.55575  0.06058  0.67823  Biso   1.000  O 
  O19      1.0000 0.96517  0.41519  0.35626  Biso   1.000  O 
  O20      1.0000 0.96246  0.33232  0.84523  Biso   1.000  O 
  O21      1.0000 0.78305  0.12939  0.49299  Biso   1.000  O 
  O22      1.0000 0.78683  0.11425  0.00540  Biso   1.000  O 
  O23      1.0000 0.72336  0.37853  0.04283  Biso   1.000  O 
  O24      1.0000 0.72013  0.36935  0.53586  Biso   1.000  O 
  Hf13     1.0000 0.63431  0.52579  0.29753  Biso   1.000  Hf
  Hf14     1.0000 0.64037  0.72935  0.79695  Biso   1.000  Hf
  Hf15     1.0000 0.85669  0.77067  0.21386  Biso   1.000  Hf
  Hf16     1.0000 0.85671  0.97696  0.71142  Biso   1.000  Hf
  O25      1.0000 0.52945  0.66811  0.15762  Biso   1.000  O 
  O26      1.0000 0.53224  0.59595  0.64847  Biso   1.000  O 
  O27      1.0000 0.96153  0.91324  0.35247  Biso   1.000  O 
  O28      1.0000 0.96598  0.83680  0.85138  Biso   1.000  O 
  O29      1.0000 0.77579  0.62725  0.48460  Biso   1.000  O 
  O30      1.0000 0.77753  0.62208  0.98165  Biso   1.000  O 
  O31      1.0000 0.71731  0.87390  0.02654  Biso   1.000  O 
  O32      1.0000 0.72305  0.86805  0.52116  Biso   1.000  O 
  Sr1      1.0000 0.45323  0.23748  0.55965  Biso   1.000  Sr
