data_image0
_cell_length_a       5.12939
_cell_length_b       10.3426
_cell_length_c       10.2035
_cell_angle_alpha    90
_cell_angle_beta     90
_cell_angle_gamma    90

_symmetry_space_group_name_H-M    "P 1"
_symmetry_int_tables_number       1

loop_
  _symmetry_equiv_pos_as_xyz
  'x, y, z'

loop_
  _atom_site_label
  _atom_site_occupancy
  _atom_site_fract_x
  _atom_site_fract_y
  _atom_site_fract_z
  _atom_site_thermal_displace_type
  _atom_site_B_iso_or_equiv
  _atom_site_type_symbol
  Hf1      1.0000 0.10400  0.96586  0.15456  Biso   1.000  Hf
  Hf2      1.0000 0.13439  0.26402  0.40064  Biso   1.000  Hf
  Hf3      1.0000 0.57473  0.27326  0.10428  Biso   1.000  Hf
  Hf4      1.0000 0.74205  0.02443  0.39174  Biso   1.000  Hf
  O1       1.0000 0.83917  0.23338  0.93497  Biso   1.000  O 
  O2       1.0000 0.09212  0.08116  0.29757  Biso   1.000  O 
  O3       1.0000 0.80123  0.31592  0.28267  Biso   1.000  O 
  O4       1.0000 0.79317  0.43992  0.05088  Biso   1.000  O 
  O5       1.0000 0.58830  0.10646  0.21865  Biso   1.000  O 
  O6       1.0000 0.40480  0.13564  0.98968  Biso   1.000  O 
  O7       1.0000 0.31997  0.39687  0.98363  Biso   1.000  O 
  O8       1.0000 0.32174  0.37783  0.23914  Biso   1.000  O 
  Hf5      1.0000 0.07499  0.98880  0.63559  Biso   1.000  Hf
  Hf6      1.0000 0.21073  0.25085  0.83500  Biso   1.000  Hf
  Hf7      1.0000 0.66237  0.28067  0.60687  Biso   1.000  Hf
  Hf8      1.0000 0.72853  0.04515  0.89157  Biso   1.000  Hf
  O9       1.0000 0.92058  0.15904  0.52241  Biso   1.000  O 
  O10      1.0000 0.04647  0.08002  0.77139  Biso   1.000  O 
  O11      1.0000 0.97866  0.34813  0.71237  Biso   1.000  O 
  O12      1.0000 0.89788  0.41723  0.49263  Biso   1.000  O 
  O13      1.0000 0.51167  0.14847  0.73577  Biso   1.000  O 
  O14      1.0000 0.44038  0.13165  0.48726  Biso   1.000  O 
  O15      1.0000 0.39591  0.38083  0.49642  Biso   1.000  O 
  O16      1.0000 0.45873  0.40185  0.74257  Biso   1.000  O 
  Hf9      1.0000 0.13762  0.52940  0.10854  Biso   1.000  Hf
  Hf10     1.0000 0.16310  0.72639  0.36968  Biso   1.000  Hf
  Hf11     1.0000 0.61286  0.77219  0.11114  Biso   1.000  Hf
  Hf12     1.0000 0.62523  0.48288  0.34782  Biso   1.000  Hf
  O17      1.0000 0.91721  0.68020  0.01704  Biso   1.000  O 
  O18      1.0000 0.94921  0.57414  0.28074  Biso   1.000  O 
  O19      1.0000 0.90797  0.81655  0.24276  Biso   1.000  O 
  O20      1.0000 0.75519  0.95022  0.03868  Biso   1.000  O 
  O21      1.0000 0.42256  0.62831  0.23268  Biso   1.000  O 
  O22      1.0000 0.42751  0.64580  0.98636  Biso   1.000  O 
  O23      1.0000 0.30207  0.86452  0.00297  Biso   1.000  O 
  O24      1.0000 0.39516  0.86714  0.26425  Biso   1.000  O 
  Hf13     1.0000 0.15918  0.51351  0.62379  Biso   1.000  Hf
  Hf14     1.0000 0.16760  0.75309  0.85488  Biso   1.000  Hf
  Hf15     1.0000 0.62550  0.76746  0.60293  Biso   1.000  Hf
  Hf16     1.0000 0.63845  0.51716  0.87893  Biso   1.000  Hf
  O25      1.0000 0.95311  0.66556  0.53509  Biso   1.000  O 
  O26      1.0000 0.96674  0.58014  0.79156  Biso   1.000  O 
  O27      1.0000 0.89536  0.82989  0.73827  Biso   1.000  O 
  O28      1.0000 0.80270  0.91492  0.50515  Biso   1.000  O 
  O29      1.0000 0.42692  0.64862  0.73791  Biso   1.000  O 
  O30      1.0000 0.44171  0.61883  0.48392  Biso   1.000  O 
  O31      1.0000 0.31814  0.86891  0.50575  Biso   1.000  O 
  O32      1.0000 0.37459  0.90113  0.75233  Biso   1.000  O 
  Sr1      1.0000 0.06108  0.21714  0.12127  Biso   1.000  Sr
