data_image0
_cell_length_a       10.0728
_cell_length_b       10.3194
_cell_length_c       5.3193
_cell_angle_alpha    90
_cell_angle_beta     90
_cell_angle_gamma    90

_symmetry_space_group_name_H-M    "P 1"
_symmetry_int_tables_number       1

loop_
  _symmetry_equiv_pos_as_xyz
  'x, y, z'

loop_
  _atom_site_label
  _atom_site_occupancy
  _atom_site_fract_x
  _atom_site_fract_y
  _atom_site_fract_z
  _atom_site_thermal_displace_type
  _atom_site_B_iso_or_equiv
  _atom_site_type_symbol
  Hf1      1.0000 0.13681  0.02019  0.35226  Biso   1.000  Hf
  Hf2      1.0000 0.13128  0.22704  0.85756  Biso   1.000  Hf
  Hf3      1.0000 0.34224  0.27475  0.38556  Biso   1.000  Hf
  Hf4      1.0000 0.34551  0.48624  0.85580  Biso   1.000  Hf
  Hf5      1.0000 0.64107  0.00331  0.15752  Biso   1.000  Hf
  Hf6      1.0000 0.64462  0.21796  0.60314  Biso   1.000  Hf
  Hf7      1.0000 0.86752  0.27243  0.14296  Biso   1.000  Hf
  Hf8      1.0000 0.85165  0.47788  0.65286  Biso   1.000  Hf
  O1       1.0000 0.03386  0.16095  0.16598  Biso   1.000  O 
  O2       1.0000 0.02629  0.08688  0.66695  Biso   1.000  O 
  O3       1.0000 0.44716  0.43964  0.19682  Biso   1.000  O 
  O4       1.0000 0.46092  0.33550  0.67047  Biso   1.000  O 
  O5       1.0000 0.26647  0.12406  0.60804  Biso   1.000  O 
  O6       1.0000 0.28209  0.12880  0.10229  Biso   1.000  O 
  O7       1.0000 0.20934  0.37698  0.61553  Biso   1.000  O 
  O8       1.0000 0.21659  0.37657  0.10880  Biso   1.000  O 
  O9       1.0000 0.51700  0.13031  0.37279  Biso   1.000  O 
  O10      1.0000 0.52659  0.07210  0.83830  Biso   1.000  O 
  O11      1.0000 0.96185  0.41226  0.34493  Biso   1.000  O 
  O12      1.0000 0.96220  0.33606  0.84038  Biso   1.000  O 
  O13      1.0000 0.76212  0.12678  0.89996  Biso   1.000  O 
  O14      1.0000 0.78451  0.11777  0.38984  Biso   1.000  O 
  O15      1.0000 0.72015  0.38101  0.89375  Biso   1.000  O 
  O16      1.0000 0.71174  0.37214  0.38021  Biso   1.000  O 
  Hf9      1.0000 0.13171  0.52169  0.35035  Biso   1.000  Hf
  Hf10     1.0000 0.12326  0.72947  0.84745  Biso   1.000  Hf
  Hf11     1.0000 0.35123  0.77091  0.35225  Biso   1.000  Hf
  Hf12     1.0000 0.34686  0.97452  0.85233  Biso   1.000  Hf
  Hf13     1.0000 0.63580  0.53620  0.15431  Biso   1.000  Hf
  Hf14     1.0000 0.62820  0.72978  0.65717  Biso   1.000  Hf
  Hf15     1.0000 0.85988  0.76975  0.16038  Biso   1.000  Hf
  Hf16     1.0000 0.85118  0.97924  0.66065  Biso   1.000  Hf
  O17      1.0000 0.02723  0.66159  0.16565  Biso   1.000  O 
  O18      1.0000 0.02085  0.58689  0.66750  Biso   1.000  O 
  O19      1.0000 0.46251  0.90112  0.15718  Biso   1.000  O 
  O20      1.0000 0.45571  0.83490  0.66515  Biso   1.000  O 
  O21      1.0000 0.26328  0.62646  0.59498  Biso   1.000  O 
  O22      1.0000 0.26831  0.62930  0.09218  Biso   1.000  O 
  O23      1.0000 0.21246  0.87395  0.59914  Biso   1.000  O 
  O24      1.0000 0.21628  0.87807  0.10132  Biso   1.000  O 
  O25      1.0000 0.52586  0.66914  0.34174  Biso   1.000  O 
  O26      1.0000 0.51850  0.58878  0.83830  Biso   1.000  O 
  O27      1.0000 0.96199  0.91097  0.34697  Biso   1.000  O 
  O28      1.0000 0.95541  0.83812  0.84635  Biso   1.000  O 
  O29      1.0000 0.76443  0.62826  0.90462  Biso   1.000  O 
  O30      1.0000 0.77108  0.62534  0.41098  Biso   1.000  O 
  O31      1.0000 0.71267  0.87218  0.91194  Biso   1.000  O 
  O32      1.0000 0.72012  0.86990  0.41536  Biso   1.000  O 
  Sr1      1.0000 0.55385  0.26550  0.04820  Biso   1.000  Sr
