data_image0
_cell_length_a       10.2112
_cell_length_b       5.1615
_cell_length_c       10.4687
_cell_angle_alpha    90
_cell_angle_beta     80
_cell_angle_gamma    90

_symmetry_space_group_name_H-M    "P 1"
_symmetry_int_tables_number       1

loop_
  _symmetry_equiv_pos_as_xyz
  'x, y, z'

loop_
  _atom_site_label
  _atom_site_occupancy
  _atom_site_fract_x
  _atom_site_fract_y
  _atom_site_fract_z
  _atom_site_thermal_displace_type
  _atom_site_B_iso_or_equiv
  _atom_site_type_symbol
  Sr1      1.0000 0.12717  0.01687  0.13896  Biso   1.000  Sr
  Hf1      1.0000 0.13295  0.04348  0.64669  Biso   1.000  Hf
  Hf2      1.0000 0.63953  0.03604  0.14674  Biso   1.000  Hf
  Hf3      1.0000 0.63250  0.04228  0.64876  Biso   1.000  Hf
  Hf4      1.0000 0.13466  0.45056  0.39548  Biso   1.000  Hf
  Hf5      1.0000 0.13118  0.46500  0.89570  Biso   1.000  Hf
  Hf6      1.0000 0.62759  0.45598  0.39994  Biso   1.000  Hf
  Hf7      1.0000 0.63173  0.45885  0.89711  Biso   1.000  Hf
  Hf8      1.0000 0.35947  0.52653  0.10270  Biso   1.000  Hf
  Hf9      1.0000 0.35020  0.54358  0.60436  Biso   1.000  Hf
  Hf10     1.0000 0.85693  0.53219  0.10118  Biso   1.000  Hf
  Hf11     1.0000 0.85468  0.54373  0.60544  Biso   1.000  Hf
  Hf12     1.0000 0.35080  0.95608  0.35146  Biso   1.000  Hf
  Hf13     1.0000 0.35081  0.95810  0.85437  Biso   1.000  Hf
  Hf14     1.0000 0.84695  0.96277  0.36225  Biso   1.000  Hf
  Hf15     1.0000 0.85000  0.95841  0.85548  Biso   1.000  Hf
  O1       1.0000 0.04075  0.41329  0.08442  Biso   1.000  O 
  O2       1.0000 0.03065  0.35137  0.58862  Biso   1.000  O 
  O3       1.0000 0.53671  0.33039  0.07830  Biso   1.000  O 
  O4       1.0000 0.52383  0.33219  0.58280  Biso   1.000  O 
  O5       1.0000 0.01898  0.16318  0.35121  Biso   1.000  O 
  O6       1.0000 0.03003  0.15142  0.83772  Biso   1.000  O 
  O7       1.0000 0.52996  0.16109  0.33042  Biso   1.000  O 
  O8       1.0000 0.52964  0.16443  0.83010  Biso   1.000  O 
  O9       1.0000 0.46331  0.83042  0.16888  Biso   1.000  O 
  O10      1.0000 0.45674  0.83230  0.67143  Biso   1.000  O 
  O11      1.0000 0.90974  0.87019  0.16928  Biso   1.000  O 
  O12      1.0000 0.95308  0.84923  0.66735  Biso   1.000  O 
  O13      1.0000 0.45660  0.66359  0.42288  Biso   1.000  O 
  O14      1.0000 0.46569  0.67438  0.92081  Biso   1.000  O 
  O15      1.0000 0.95724  0.66157  0.41696  Biso   1.000  O 
  O16      1.0000 0.94923  0.65391  0.91210  Biso   1.000  O 
  O17      1.0000 0.27981  0.25343  0.24665  Biso   1.000  O 
  O18      1.0000 0.26768  0.25941  0.73895  Biso   1.000  O 
  O19      1.0000 0.76802  0.27021  0.24589  Biso   1.000  O 
  O20      1.0000 0.76999  0.25973  0.74203  Biso   1.000  O 
  O21      1.0000 0.26843  0.24063  0.49249  Biso   1.000  O 
  O22      1.0000 0.27534  0.24831  0.98042  Biso   1.000  O 
  O23      1.0000 0.76428  0.24583  0.49601  Biso   1.000  O 
  O24      1.0000 0.76560  0.23744  0.99268  Biso   1.000  O 
  O25      1.0000 0.23125  0.73437  0.99366  Biso   1.000  O 
  O26      1.0000 0.21502  0.75979  0.50959  Biso   1.000  O 
  O27      1.0000 0.72165  0.75497  0.00815  Biso   1.000  O 
  O28      1.0000 0.71574  0.75765  0.51345  Biso   1.000  O 
  O29      1.0000 0.22967  0.71490  0.26185  Biso   1.000  O 
  O30      1.0000 0.21316  0.74558  0.75576  Biso   1.000  O 
  O31      1.0000 0.70076  0.74775  0.26917  Biso   1.000  O 
  O32      1.0000 0.71627  0.74231  0.75939  Biso   1.000  O 
