data_image0
_cell_length_a       10.0029
_cell_length_b       10.3782
_cell_length_c       10.0516
_cell_angle_alpha    90
_cell_angle_beta     90
_cell_angle_gamma    90

_symmetry_space_group_name_H-M    "P 1"
_symmetry_int_tables_number       1

loop_
  _symmetry_equiv_pos_as_xyz
  'x, y, z'

loop_
  _atom_site_label
  _atom_site_occupancy
  _atom_site_fract_x
  _atom_site_fract_y
  _atom_site_fract_z
  _atom_site_thermal_displace_type
  _atom_site_B_iso_or_equiv
  _atom_site_type_symbol
  Sr1      1.0000 0.12599  0.00939  0.12264  Biso   1.000  Sr
  Hf1      1.0000 0.13120  0.01615  0.62695  Biso   1.000  Hf
  Hf2      1.0000 0.13453  0.51573  0.12529  Biso   1.000  Hf
  Hf3      1.0000 0.13248  0.51597  0.62627  Biso   1.000  Hf
  Hf4      1.0000 0.63427  0.01529  0.12448  Biso   1.000  Hf
  Hf5      1.0000 0.63088  0.01585  0.62541  Biso   1.000  Hf
  Hf6      1.0000 0.63290  0.51498  0.12596  Biso   1.000  Hf
  Hf7      1.0000 0.63187  0.51456  0.62658  Biso   1.000  Hf
  Hf8      1.0000 0.13384  0.23365  0.37747  Biso   1.000  Hf
  Hf9      1.0000 0.13276  0.23351  0.87205  Biso   1.000  Hf
  Hf10     1.0000 0.13450  0.73302  0.37712  Biso   1.000  Hf
  Hf11     1.0000 0.13449  0.73230  0.87656  Biso   1.000  Hf
  Hf12     1.0000 0.63142  0.23277  0.37462  Biso   1.000  Hf
  Hf13     1.0000 0.63256  0.23162  0.87562  Biso   1.000  Hf
  Hf14     1.0000 0.63052  0.73196  0.37882  Biso   1.000  Hf
  Hf15     1.0000 0.63371  0.73128  0.87468  Biso   1.000  Hf
  Hf16     1.0000 0.36344  0.26490  0.12693  Biso   1.000  Hf
  Hf17     1.0000 0.36412  0.26476  0.62531  Biso   1.000  Hf
  Hf18     1.0000 0.36732  0.76360  0.12476  Biso   1.000  Hf
  Hf19     1.0000 0.36395  0.76675  0.62590  Biso   1.000  Hf
  Hf20     1.0000 0.86209  0.26710  0.12658  Biso   1.000  Hf
  Hf21     1.0000 0.86415  0.26675  0.62457  Biso   1.000  Hf
  Hf22     1.0000 0.86180  0.76381  0.12681  Biso   1.000  Hf
  Hf23     1.0000 0.86492  0.76401  0.62517  Biso   1.000  Hf
  Hf24     1.0000 0.36375  0.48239  0.37593  Biso   1.000  Hf
  Hf25     1.0000 0.36363  0.48126  0.87621  Biso   1.000  Hf
  Hf26     1.0000 0.36312  0.98393  0.37439  Biso   1.000  Hf
  Hf27     1.0000 0.36434  0.98280  0.87550  Biso   1.000  Hf
  Hf28     1.0000 0.86414  0.48374  0.37735  Biso   1.000  Hf
  Hf29     1.0000 0.86399  0.48149  0.87668  Biso   1.000  Hf
  Hf30     1.0000 0.86167  0.98270  0.38077  Biso   1.000  Hf
  Hf31     1.0000 0.86262  0.98095  0.87218  Biso   1.000  Hf
  O1       1.0000 0.02640  0.20022  0.20699  Biso   1.000  O 
  O2       1.0000 0.03844  0.18940  0.68283  Biso   1.000  O 
  O3       1.0000 0.03649  0.68677  0.19450  Biso   1.000  O 
  O4       1.0000 0.03465  0.68349  0.69489  Biso   1.000  O 
  O5       1.0000 0.53882  0.18533  0.19023  Biso   1.000  O 
  O6       1.0000 0.53391  0.18309  0.69486  Biso   1.000  O 
  O7       1.0000 0.53520  0.68073  0.19778  Biso   1.000  O 
  O8       1.0000 0.53362  0.68209  0.69512  Biso   1.000  O 
  O9       1.0000 0.03347  0.06452  0.44237  Biso   1.000  O 
  O10      1.0000 0.03117  0.07040  0.91115  Biso   1.000  O 
  O11      1.0000 0.03420  0.56552  0.44614  Biso   1.000  O 
  O12      1.0000 0.03247  0.56682  0.94498  Biso   1.000  O 
  O13      1.0000 0.53399  0.06541  0.44478  Biso   1.000  O 
  O14      1.0000 0.53637  0.06417  0.94200  Biso   1.000  O 
  O15      1.0000 0.53315  0.56439  0.44647  Biso   1.000  O 
  O16      1.0000 0.53174  0.56570  0.94643  Biso   1.000  O 
  O17      1.0000 0.46409  0.43249  0.19637  Biso   1.000  O 
  O18      1.0000 0.46319  0.43227  0.69533  Biso   1.000  O 
  O19      1.0000 0.46389  0.93560  0.19335  Biso   1.000  O 
  O20      1.0000 0.46322  0.93256  0.69563  Biso   1.000  O 
  O21      1.0000 0.96034  0.44026  0.19421  Biso   1.000  O 
  O22      1.0000 0.96319  0.43401  0.69708  Biso   1.000  O 
  O23      1.0000 0.93440  0.92836  0.20292  Biso   1.000  O 
  O24      1.0000 0.95881  0.93307  0.68874  Biso   1.000  O 
  O25      1.0000 0.46227  0.31478  0.44492  Biso   1.000  O 
  O26      1.0000 0.46452  0.31668  0.94444  Biso   1.000  O 
  O27      1.0000 0.46462  0.81673  0.44894  Biso   1.000  O 
  O28      1.0000 0.47088  0.81727  0.94708  Biso   1.000  O 
  O29      1.0000 0.96283  0.31928  0.44709  Biso   1.000  O 
  O30      1.0000 0.96315  0.31663  0.94761  Biso   1.000  O 
  O31      1.0000 0.96279  0.81399  0.44571  Biso   1.000  O 
  O32      1.0000 0.96668  0.81853  0.94985  Biso   1.000  O 
  O33      1.0000 0.28229  0.12962  0.25822  Biso   1.000  O 
  O34      1.0000 0.27020  0.11696  0.74713  Biso   1.000  O 
  O35      1.0000 0.26887  0.61275  0.24926  Biso   1.000  O 
  O36      1.0000 0.26905  0.61697  0.74995  Biso   1.000  O 
  O37      1.0000 0.76651  0.11667  0.25137  Biso   1.000  O 
  O38      1.0000 0.76832  0.11673  0.74817  Biso   1.000  O 
  O39      1.0000 0.76893  0.61690  0.24990  Biso   1.000  O 
  O40      1.0000 0.76926  0.61514  0.74892  Biso   1.000  O 
  O41      1.0000 0.26767  0.13012  0.50232  Biso   1.000  O 
  O42      1.0000 0.27547  0.13685  0.99071  Biso   1.000  O 
  O43      1.0000 0.26937  0.63205  0.49997  Biso   1.000  O 
  O44      1.0000 0.27199  0.62794  0.00026  Biso   1.000  O 
  O45      1.0000 0.76650  0.13361  0.50022  Biso   1.000  O 
  O46      1.0000 0.77048  0.12988  0.99932  Biso   1.000  O 
  O47      1.0000 0.76820  0.63091  0.49975  Biso   1.000  O 
  O48      1.0000 0.76649  0.62856  0.99842  Biso   1.000  O 
  O49      1.0000 0.22903  0.38259  0.50010  Biso   1.000  O 
  O50      1.0000 0.22730  0.38129  0.99974  Biso   1.000  O 
  O51      1.0000 0.22710  0.88274  0.50047  Biso   1.000  O 
  O52      1.0000 0.24081  0.86796  0.99027  Biso   1.000  O 
  O53      1.0000 0.72720  0.38215  0.49968  Biso   1.000  O 
  O54      1.0000 0.72572  0.38105  0.99915  Biso   1.000  O 
  O55      1.0000 0.72728  0.88046  0.50141  Biso   1.000  O 
  O56      1.0000 0.72828  0.87852  0.99953  Biso   1.000  O 
  O57      1.0000 0.22602  0.36968  0.24975  Biso   1.000  O 
  O58      1.0000 0.22919  0.36788  0.74840  Biso   1.000  O 
  O59      1.0000 0.24371  0.85421  0.25769  Biso   1.000  O 
  O60      1.0000 0.22670  0.86760  0.74707  Biso   1.000  O 
  O61      1.0000 0.72833  0.36814  0.25069  Biso   1.000  O 
  O62      1.0000 0.72838  0.36631  0.74990  Biso   1.000  O 
  O63      1.0000 0.71495  0.86523  0.25040  Biso   1.000  O 
  O64      1.0000 0.72790  0.86513  0.74903  Biso   1.000  O 
