data_image0
_cell_length_a       5.01667
_cell_length_b       10.2749
_cell_length_c       10.0999
_cell_angle_alpha    90
_cell_angle_beta     90
_cell_angle_gamma    90

_symmetry_space_group_name_H-M    "P 1"
_symmetry_int_tables_number       1

loop_
  _symmetry_equiv_pos_as_xyz
  'x, y, z'

loop_
  _atom_site_label
  _atom_site_occupancy
  _atom_site_fract_x
  _atom_site_fract_y
  _atom_site_fract_z
  _atom_site_thermal_displace_type
  _atom_site_B_iso_or_equiv
  _atom_site_type_symbol
  Sr1      1.0000 0.25314  0.00002  0.12562  Biso   1.000  Sr
  Hf1      1.0000 0.25296  0.00002  0.62562  Biso   1.000  Hf
  Hf2      1.0000 0.25307  0.50002  0.12563  Biso   1.000  Hf
  Hf3      1.0000 0.25307  0.50001  0.62563  Biso   1.000  Hf
  Hf4      1.0000 0.25133  0.25374  0.37649  Biso   1.000  Hf
  Hf5      1.0000 0.25482  0.25375  0.87476  Biso   1.000  Hf
  Hf6      1.0000 0.25478  0.74627  0.37650  Biso   1.000  Hf
  Hf7      1.0000 0.25133  0.74627  0.87476  Biso   1.000  Hf
  Hf8      1.0000 0.75309  0.25620  0.12561  Biso   1.000  Hf
  Hf9      1.0000 0.75299  0.24623  0.62564  Biso   1.000  Hf
  Hf10     1.0000 0.75308  0.74385  0.12565  Biso   1.000  Hf
  Hf11     1.0000 0.75299  0.75379  0.62561  Biso   1.000  Hf
  Hf12     1.0000 0.75309  0.00008  0.37552  Biso   1.000  Hf
  Hf13     1.0000 0.75314  0.99989  0.87573  Biso   1.000  Hf
  Hf14     1.0000 0.75306  0.50000  0.37728  Biso   1.000  Hf
  Hf15     1.0000 0.75311  0.50001  0.87398  Biso   1.000  Hf
  O1       1.0000 0.00048  0.15107  0.99587  Biso   1.000  O 
  O2       1.0000 0.02729  0.14982  0.51089  Biso   1.000  O 
  O3       1.0000 0.02481  0.64007  0.00705  Biso   1.000  O 
  O4       1.0000 0.00342  0.64692  0.50566  Biso   1.000  O 
  O5       1.0000 0.97643  0.12336  0.26530  Biso   1.000  O 
  O6       1.0000 0.98703  0.10061  0.75007  Biso   1.000  O 
  O7       1.0000 0.98716  0.60406  0.25227  Biso   1.000  O 
  O8       1.0000 0.00611  0.60202  0.75530  Biso   1.000  O 
  O9       1.0000 0.02486  0.35997  0.24418  Biso   1.000  O 
  O10      1.0000 0.00346  0.35310  0.74558  Biso   1.000  O 
  O11      1.0000 0.00044  0.84893  0.25538  Biso   1.000  O 
  O12      1.0000 0.02725  0.85021  0.74037  Biso   1.000  O 
  O13      1.0000 0.98724  0.39594  0.99896  Biso   1.000  O 
  O14      1.0000 0.00611  0.39801  0.49595  Biso   1.000  O 
  O15      1.0000 0.97648  0.87664  0.98596  Biso   1.000  O 
  O16      1.0000 0.98710  0.89941  0.50116  Biso   1.000  O 
  O17      1.0000 0.50574  0.15115  0.25532  Biso   1.000  O 
  O18      1.0000 0.47841  0.14985  0.74022  Biso   1.000  O 
  O19      1.0000 0.48127  0.64007  0.24422  Biso   1.000  O 
  O20      1.0000 0.50274  0.64691  0.74563  Biso   1.000  O 
  O21      1.0000 0.52981  0.12333  0.98585  Biso   1.000  O 
  O22      1.0000 0.51865  0.10062  0.50107  Biso   1.000  O 
  O23      1.0000 0.51897  0.60402  0.99900  Biso   1.000  O 
  O24      1.0000 0.50010  0.60204  0.49598  Biso   1.000  O 
  O25      1.0000 0.48130  0.35999  0.00703  Biso   1.000  O 
  O26      1.0000 0.50274  0.35312  0.50561  Biso   1.000  O 
  O27      1.0000 0.50580  0.84886  0.99591  Biso   1.000  O 
  O28      1.0000 0.47848  0.85020  0.51100  Biso   1.000  O 
  O29      1.0000 0.51898  0.39599  0.25224  Biso   1.000  O 
  O30      1.0000 0.50014  0.39799  0.75526  Biso   1.000  O 
  O31      1.0000 0.52977  0.87669  0.26538  Biso   1.000  O 
  O32      1.0000 0.51861  0.89941  0.75018  Biso   1.000  O 
