data_image0
_cell_length_a       10.0549
_cell_length_b       10.1664
_cell_length_c       10.0548
_cell_angle_alpha    90
_cell_angle_beta     90
_cell_angle_gamma    90

_symmetry_space_group_name_H-M    "P 1"
_symmetry_int_tables_number       1

loop_
  _symmetry_equiv_pos_as_xyz
  'x, y, z'

loop_
  _atom_site_label
  _atom_site_occupancy
  _atom_site_fract_x
  _atom_site_fract_y
  _atom_site_fract_z
  _atom_site_thermal_displace_type
  _atom_site_B_iso_or_equiv
  _atom_site_type_symbol
  Hf1      1.0000 0.12491  0.98321  0.12491  Biso   1.000  Hf
  Hf2      1.0000 0.12491  0.25005  0.39373  Biso   1.000  Hf
  Hf3      1.0000 0.39372  0.25005  0.12491  Biso   1.000  Hf
  Hf4      1.0000 0.37406  0.00101  0.37406  Biso   1.000  Hf
  O1       1.0000 0.99390  0.14428  0.99392  Biso   1.000  O 
  O2       1.0000 0.00632  0.10989  0.24352  Biso   1.000  O 
  O3       1.0000 0.99390  0.35582  0.25590  Biso   1.000  O 
  O4       1.0000 0.00632  0.39021  0.00630  Biso   1.000  O 
  O5       1.0000 0.25592  0.14429  0.25590  Biso   1.000  O 
  O6       1.0000 0.24350  0.10989  0.00630  Biso   1.000  O 
  O7       1.0000 0.25592  0.35582  0.99391  Biso   1.000  O 
  O8       1.0000 0.24350  0.39022  0.24352  Biso   1.000  O 
  Hf5      1.0000 0.12491  0.99690  0.62491  Biso   1.000  Hf
  Hf6      1.0000 0.12491  0.25005  0.85609  Biso   1.000  Hf
  Hf7      1.0000 0.37841  0.25005  0.62491  Biso   1.000  Hf
  Hf8      1.0000 0.37327  0.00155  0.87655  Biso   1.000  Hf
  O9       1.0000 0.98857  0.14069  0.49619  Biso   1.000  O 
  O10      1.0000 0.00482  0.10548  0.74668  Biso   1.000  O 
  O11      1.0000 0.98857  0.35942  0.75363  Biso   1.000  O 
  O12      1.0000 0.00482  0.39463  0.50313  Biso   1.000  O 
  O13      1.0000 0.26125  0.14069  0.75363  Biso   1.000  O 
  O14      1.0000 0.24500  0.10548  0.50314  Biso   1.000  O 
  O15      1.0000 0.26125  0.35942  0.49619  Biso   1.000  O 
  O16      1.0000 0.24500  0.39463  0.74668  Biso   1.000  O 
  Hf9      1.0000 0.12491  0.51690  0.12491  Biso   1.000  Hf
  Hf10     1.0000 0.12491  0.75006  0.37835  Biso   1.000  Hf
  Hf11     1.0000 0.37834  0.75005  0.12491  Biso   1.000  Hf
  Hf12     1.0000 0.37327  0.49856  0.37327  Biso   1.000  Hf
  O17      1.0000 0.99712  0.64339  0.99715  Biso   1.000  O 
  O18      1.0000 0.99922  0.61104  0.25065  Biso   1.000  O 
  O19      1.0000 0.99712  0.85672  0.25267  Biso   1.000  O 
  O20      1.0000 0.99922  0.88907  0.99917  Biso   1.000  O 
  O21      1.0000 0.25269  0.64339  0.25267  Biso   1.000  O 
  O22      1.0000 0.25059  0.61103  0.99918  Biso   1.000  O 
  O23      1.0000 0.25269  0.85672  0.99715  Biso   1.000  O 
  O24      1.0000 0.25060  0.88907  0.25064  Biso   1.000  O 
  Hf13     1.0000 0.12491  0.50321  0.62491  Biso   1.000  Hf
  Hf14     1.0000 0.12491  0.75005  0.87147  Biso   1.000  Hf
  Hf15     1.0000 0.37614  0.75005  0.62491  Biso   1.000  Hf
  Hf16     1.0000 0.37406  0.49909  0.87576  Biso   1.000  Hf
  O25      1.0000 0.99438  0.64399  0.49780  Biso   1.000  O 
  O26      1.0000 0.00508  0.60683  0.75016  Biso   1.000  O 
  O27      1.0000 0.99438  0.85612  0.75202  Biso   1.000  O 
  O28      1.0000 0.00508  0.89328  0.49966  Biso   1.000  O 
  O29      1.0000 0.25543  0.64399  0.75202  Biso   1.000  O 
  O30      1.0000 0.24473  0.60683  0.49966  Biso   1.000  O 
  O31      1.0000 0.25543  0.85612  0.49780  Biso   1.000  O 
  O32      1.0000 0.24474  0.89328  0.75015  Biso   1.000  O 
  Hf17     1.0000 0.62491  0.99690  0.12491  Biso   1.000  Hf
  Hf18     1.0000 0.62491  0.25005  0.37841  Biso   1.000  Hf
  Hf19     1.0000 0.85610  0.25005  0.12491  Biso   1.000  Hf
  Hf20     1.0000 0.87655  0.00155  0.37326  Biso   1.000  Hf
  O33      1.0000 0.49618  0.14069  0.98858  Biso   1.000  O 
  O34      1.0000 0.50316  0.10548  0.24502  Biso   1.000  O 
  O35      1.0000 0.49618  0.35942  0.26124  Biso   1.000  O 
  O36      1.0000 0.50316  0.39462  0.00480  Biso   1.000  O 
  O37      1.0000 0.75364  0.14069  0.26124  Biso   1.000  O 
  O38      1.0000 0.74666  0.10549  0.00480  Biso   1.000  O 
  O39      1.0000 0.75364  0.35942  0.98858  Biso   1.000  O 
  O40      1.0000 0.74666  0.39462  0.24502  Biso   1.000  O 
  Hf21     1.0000 0.62491  0.99889  0.62491  Biso   1.000  Hf
  Hf22     1.0000 0.62491  0.25005  0.87141  Biso   1.000  Hf
  Hf23     1.0000 0.87141  0.25005  0.62491  Biso   1.000  Hf
  Hf24     1.0000 0.87575  0.00101  0.87575  Biso   1.000  Hf
  O41      1.0000 0.49157  0.14489  0.49158  Biso   1.000  O 
  O42      1.0000 0.50491  0.10497  0.74493  Biso   1.000  O 
  O43      1.0000 0.49157  0.35522  0.75824  Biso   1.000  O 
  O44      1.0000 0.50491  0.39514  0.50489  Biso   1.000  O 
  O45      1.0000 0.75825  0.14489  0.75824  Biso   1.000  O 
  O46      1.0000 0.74491  0.10497  0.50489  Biso   1.000  O 
  O47      1.0000 0.75825  0.35522  0.49158  Biso   1.000  O 
  O48      1.0000 0.74491  0.39514  0.74493  Biso   1.000  O 
  Hf25     1.0000 0.62491  0.50320  0.12491  Biso   1.000  Hf
  Hf26     1.0000 0.62491  0.75006  0.37614  Biso   1.000  Hf
  Hf27     1.0000 0.87147  0.75005  0.12491  Biso   1.000  Hf
  Hf28     1.0000 0.87575  0.49909  0.37406  Biso   1.000  Hf
  O49      1.0000 0.49777  0.64399  0.99441  Biso   1.000  O 
  O50      1.0000 0.49971  0.60683  0.24477  Biso   1.000  O 
  O51      1.0000 0.49777  0.85612  0.25541  Biso   1.000  O 
  O52      1.0000 0.49971  0.89327  0.00505  Biso   1.000  O 
  O53      1.0000 0.75205  0.64399  0.25542  Biso   1.000  O 
  O54      1.0000 0.75011  0.60683  0.00505  Biso   1.000  O 
  O55      1.0000 0.75205  0.85612  0.99440  Biso   1.000  O 
  O56      1.0000 0.75011  0.89328  0.24477  Biso   1.000  O 
  Hf29     1.0000 0.62491  0.50121  0.62491  Biso   1.000  Hf
  Hf30     1.0000 0.62491  0.75005  0.87368  Biso   1.000  Hf
  Hf31     1.0000 0.87367  0.75005  0.62491  Biso   1.000  Hf
  Hf32     1.0000 0.87655  0.49856  0.87655  Biso   1.000  Hf
  O57      1.0000 0.49310  0.64497  0.49312  Biso   1.000  O 
  O58      1.0000 0.50302  0.60500  0.74683  Biso   1.000  O 
  O59      1.0000 0.49310  0.85514  0.75670  Biso   1.000  O 
  O60      1.0000 0.50302  0.89511  0.50299  Biso   1.000  O 
  O61      1.0000 0.75671  0.64497  0.75670  Biso   1.000  O 
  O62      1.0000 0.74679  0.60500  0.50299  Biso   1.000  O 
  O63      1.0000 0.75671  0.85514  0.49312  Biso   1.000  O 
  O64      1.0000 0.74680  0.89511  0.74683  Biso   1.000  O 
  Ta1      1.0000 0.12491  0.25005  0.12491  Biso   1.000  Ta
