data_image0
_cell_length_a       4.9656
_cell_length_b       10.3551
_cell_length_c       9.99447
_cell_angle_alpha    90
_cell_angle_beta     90
_cell_angle_gamma    90

_symmetry_space_group_name_H-M    "P 1"
_symmetry_int_tables_number       1

loop_
  _symmetry_equiv_pos_as_xyz
  'x, y, z'

loop_
  _atom_site_label
  _atom_site_occupancy
  _atom_site_fract_x
  _atom_site_fract_y
  _atom_site_fract_z
  _atom_site_thermal_displace_type
  _atom_site_B_iso_or_equiv
  _atom_site_type_symbol
  Ta1      1.0000 0.27641  0.01916  0.12469  Biso   1.000  Ta
  Hf1      1.0000 0.26762  0.23374  0.37586  Biso   1.000  Hf
  Hf2      1.0000 0.73261  0.26705  0.12569  Biso   1.000  Hf
  Hf3      1.0000 0.73235  0.48446  0.37608  Biso   1.000  Hf
  O1       1.0000 0.07683  0.18245  0.19328  Biso   1.000  O 
  O2       1.0000 0.07026  0.06777  0.44704  Biso   1.000  O 
  O3       1.0000 0.92848  0.43381  0.19426  Biso   1.000  O 
  O4       1.0000 0.92825  0.31685  0.44472  Biso   1.000  O 
  O5       1.0000 0.54216  0.11872  0.24864  Biso   1.000  O 
  O6       1.0000 0.54241  0.13291  0.49918  Biso   1.000  O 
  O7       1.0000 0.45906  0.38280  0.50020  Biso   1.000  O 
  O8       1.0000 0.45933  0.36893  0.25050  Biso   1.000  O 
  Hf4      1.0000 0.26975  0.01728  0.62610  Biso   1.000  Hf
  Hf5      1.0000 0.26952  0.23440  0.87682  Biso   1.000  Hf
  Hf6      1.0000 0.73279  0.26707  0.62628  Biso   1.000  Hf
  Hf7      1.0000 0.73257  0.48480  0.87597  Biso   1.000  Hf
  O9       1.0000 0.07253  0.18436  0.69715  Biso   1.000  O 
  O10      1.0000 0.07612  0.06558  0.95186  Biso   1.000  O 
  O11      1.0000 0.92733  0.43527  0.69371  Biso   1.000  O 
  O12      1.0000 0.92778  0.31615  0.94357  Biso   1.000  O 
  O13      1.0000 0.54224  0.11848  0.75033  Biso   1.000  O 
  O14      1.0000 0.54407  0.12980  0.00017  Biso   1.000  O 
  O15      1.0000 0.45694  0.38109  0.00057  Biso   1.000  O 
  O16      1.0000 0.45897  0.36832  0.75038  Biso   1.000  O 
  Hf8      1.0000 0.26951  0.51733  0.12664  Biso   1.000  Hf
  Hf9      1.0000 0.27065  0.73501  0.37492  Biso   1.000  Hf
  Hf10     1.0000 0.73313  0.76879  0.12450  Biso   1.000  Hf
  Hf11     1.0000 0.73419  0.98448  0.37466  Biso   1.000  Hf
  O17      1.0000 0.07336  0.68535  0.19319  Biso   1.000  O 
  O18      1.0000 0.07468  0.56708  0.44319  Biso   1.000  O 
  O19      1.0000 0.94078  0.93672  0.19166  Biso   1.000  O 
  O20      1.0000 0.92974  0.81736  0.44378  Biso   1.000  O 
  O21      1.0000 0.54338  0.61984  0.25000  Biso   1.000  O 
  O22      1.0000 0.54305  0.63332  0.49981  Biso   1.000  O 
  O23      1.0000 0.46035  0.88360  0.49895  Biso   1.000  O 
  O24      1.0000 0.45823  0.87202  0.24785  Biso   1.000  O 
  Hf12     1.0000 0.26878  0.51733  0.62551  Biso   1.000  Hf
  Hf13     1.0000 0.26801  0.73380  0.87565  Biso   1.000  Hf
  Hf14     1.0000 0.73316  0.76769  0.62571  Biso   1.000  Hf
  Hf15     1.0000 0.73274  0.98392  0.87651  Biso   1.000  Hf
  O25      1.0000 0.07346  0.68512  0.69368  Biso   1.000  O 
  O26      1.0000 0.07505  0.56590  0.94408  Biso   1.000  O 
  O27      1.0000 0.92884  0.93536  0.69541  Biso   1.000  O 
  O28      1.0000 0.92209  0.81561  0.94199  Biso   1.000  O 
  O29      1.0000 0.54208  0.61862  0.74979  Biso   1.000  O 
  O30      1.0000 0.54151  0.63161  0.00025  Biso   1.000  O 
  O31      1.0000 0.44434  0.88183  0.00011  Biso   1.000  O 
  O32      1.0000 0.46013  0.86846  0.74988  Biso   1.000  O 
