data_image0
_cell_length_a       10.0775
_cell_length_b       10.592
_cell_length_c       5.06038
_cell_angle_alpha    90
_cell_angle_beta     90
_cell_angle_gamma    90

_symmetry_space_group_name_H-M    "P 1"
_symmetry_int_tables_number       1

loop_
  _symmetry_equiv_pos_as_xyz
  'x, y, z'

loop_
  _atom_site_label
  _atom_site_occupancy
  _atom_site_fract_x
  _atom_site_fract_y
  _atom_site_fract_z
  _atom_site_thermal_displace_type
  _atom_site_B_iso_or_equiv
  _atom_site_type_symbol
  Hf1      1.0000 0.13023  0.00718  0.24591  Biso   1.000  Hf
  Hf2      1.0000 0.12953  0.21108  0.73007  Biso   1.000  Hf
  Hf3      1.0000 0.39244  0.27657  0.23384  Biso   1.000  Hf
  Hf4      1.0000 0.37318  0.48911  0.73912  Biso   1.000  Hf
  O1       1.0000 0.00119  0.15919  0.41811  Biso   1.000  O 
  O2       1.0000 0.02812  0.05700  0.90760  Biso   1.000  O 
  O3       1.0000 0.48202  0.43540  0.40102  Biso   1.000  O 
  O4       1.0000 0.48221  0.32625  0.89005  Biso   1.000  O 
  O5       1.0000 0.25330  0.08665  0.52348  Biso   1.000  O 
  O6       1.0000 0.25983  0.15529  0.03804  Biso   1.000  O 
  O7       1.0000 0.25912  0.41338  0.03135  Biso   1.000  O 
  O8       1.0000 0.25728  0.34258  0.53074  Biso   1.000  O 
  Hf5      1.0000 0.13234  0.54255  0.21874  Biso   1.000  Hf
  Hf6      1.0000 0.13477  0.74148  0.73411  Biso   1.000  Hf
  Hf7      1.0000 0.37495  0.76235  0.23804  Biso   1.000  Hf
  Hf8      1.0000 0.37964  0.97785  0.74078  Biso   1.000  Hf
  O9       1.0000 0.02830  0.68661  0.40203  Biso   1.000  O 
  O10      1.0000 0.03589  0.57279  0.87466  Biso   1.000  O 
  O11      1.0000 0.47360  0.92695  0.39405  Biso   1.000  O 
  O12      1.0000 0.47889  0.81823  0.89334  Biso   1.000  O 
  O13      1.0000 0.27486  0.61189  0.47931  Biso   1.000  O 
  O14      1.0000 0.27310  0.65053  0.97054  Biso   1.000  O 
  O15      1.0000 0.24152  0.89160  0.98434  Biso   1.000  O 
  O16      1.0000 0.23986  0.85319  0.47911  Biso   1.000  O 
  Hf9      1.0000 0.63139  0.01121  0.24639  Biso   1.000  Hf
  Hf10     1.0000 0.63617  0.23001  0.74565  Biso   1.000  Hf
  Hf11     1.0000 0.85231  0.26164  0.24530  Biso   1.000  Hf
  Hf12     1.0000 0.87283  0.47956  0.74274  Biso   1.000  Hf
  O17      1.0000 0.53175  0.17379  0.41200  Biso   1.000  O 
  O18      1.0000 0.52586  0.07334  0.91102  Biso   1.000  O 
  O19      1.0000 0.97954  0.42460  0.40117  Biso   1.000  O 
  O20      1.0000 0.97608  0.31760  0.91569  Biso   1.000  O 
  O21      1.0000 0.75927  0.10671  0.49748  Biso   1.000  O 
  O22      1.0000 0.76604  0.13167  0.99331  Biso   1.000  O 
  O23      1.0000 0.73701  0.38556  0.99629  Biso   1.000  O 
  O24      1.0000 0.73488  0.36304  0.50363  Biso   1.000  O 
  Hf13     1.0000 0.64032  0.51882  0.24268  Biso   1.000  Hf
  Hf14     1.0000 0.64047  0.73070  0.74573  Biso   1.000  Hf
  Hf15     1.0000 0.86712  0.76635  0.24549  Biso   1.000  Hf
  Hf16     1.0000 0.87179  0.98089  0.74353  Biso   1.000  Hf
  O25      1.0000 0.53994  0.68160  0.39563  Biso   1.000  O 
  O26      1.0000 0.53665  0.57219  0.90110  Biso   1.000  O 
  O27      1.0000 0.97247  0.92225  0.40716  Biso   1.000  O 
  O28      1.0000 0.97235  0.81777  0.90454  Biso   1.000  O 
  O29      1.0000 0.77431  0.61009  0.49485  Biso   1.000  O 
  O30      1.0000 0.77495  0.63394  0.99232  Biso   1.000  O 
  O31      1.0000 0.73688  0.88451  0.99301  Biso   1.000  O 
  O32      1.0000 0.73474  0.86101  0.49391  Biso   1.000  O 
  Ta1      1.0000 0.12044  0.29395  0.22435  Biso   1.000  Ta
