data_image0
_cell_length_a       10.0099
_cell_length_b       5.07828
_cell_length_c       10.0099
_cell_angle_alpha    90
_cell_angle_beta     90
_cell_angle_gamma    90

_symmetry_space_group_name_H-M    "P 1"
_symmetry_int_tables_number       1

loop_
  _symmetry_equiv_pos_as_xyz
  'x, y, z'

loop_
  _atom_site_label
  _atom_site_occupancy
  _atom_site_fract_x
  _atom_site_fract_y
  _atom_site_fract_z
  _atom_site_thermal_displace_type
  _atom_site_B_iso_or_equiv
  _atom_site_type_symbol
  Ta1      1.0000 0.12491  0.00011  0.12491  Biso   1.000  Ta
  Hf1      1.0000 0.12491  0.50011  0.37428  Biso   1.000  Hf
  Hf2      1.0000 0.37431  0.50011  0.12491  Biso   1.000  Hf
  Hf3      1.0000 0.37573  0.00219  0.37574  Biso   1.000  Hf
  O1       1.0000 0.99449  0.29394  0.99453  Biso   1.000  O 
  O2       1.0000 0.00453  0.19991  0.24539  Biso   1.000  O 
  O3       1.0000 0.99449  0.70628  0.25528  Biso   1.000  O 
  O4       1.0000 0.00453  0.80031  0.00443  Biso   1.000  O 
  O5       1.0000 0.25533  0.29393  0.25528  Biso   1.000  O 
  O6       1.0000 0.24528  0.19991  0.00443  Biso   1.000  O 
  O7       1.0000 0.25533  0.70629  0.99454  Biso   1.000  O 
  O8       1.0000 0.24529  0.80030  0.24539  Biso   1.000  O 
  Hf4      1.0000 0.12491  0.00011  0.62491  Biso   1.000  Hf
  Hf5      1.0000 0.12491  0.50012  0.87554  Biso   1.000  Hf
  Hf6      1.0000 0.37465  0.50011  0.62491  Biso   1.000  Hf
  Hf7      1.0000 0.37573  0.99803  0.87408  Biso   1.000  Hf
  O9       1.0000 0.99541  0.29304  0.49373  Biso   1.000  O 
  O10      1.0000 0.00196  0.20836  0.74611  Biso   1.000  O 
  O11      1.0000 0.99541  0.70719  0.75609  Biso   1.000  O 
  O12      1.0000 0.00196  0.79186  0.50370  Biso   1.000  O 
  O13      1.0000 0.25441  0.29304  0.75608  Biso   1.000  O 
  O14      1.0000 0.24785  0.20835  0.50371  Biso   1.000  O 
  O15      1.0000 0.25440  0.70718  0.49374  Biso   1.000  O 
  O16      1.0000 0.24786  0.79188  0.74611  Biso   1.000  O 
  Hf8      1.0000 0.62491  0.00011  0.12491  Biso   1.000  Hf
  Hf9      1.0000 0.62491  0.50011  0.37466  Biso   1.000  Hf
  Hf10     1.0000 0.87551  0.50011  0.12491  Biso   1.000  Hf
  Hf11     1.0000 0.87409  0.99802  0.37574  Biso   1.000  Hf
  O17      1.0000 0.49369  0.29304  0.99543  Biso   1.000  O 
  O18      1.0000 0.50375  0.20835  0.24790  Biso   1.000  O 
  O19      1.0000 0.49369  0.70719  0.25439  Biso   1.000  O 
  O20      1.0000 0.50375  0.79186  0.00192  Biso   1.000  O 
  O21      1.0000 0.75612  0.29302  0.25439  Biso   1.000  O 
  O22      1.0000 0.74606  0.20835  0.00192  Biso   1.000  O 
  O23      1.0000 0.75612  0.70721  0.99543  Biso   1.000  O 
  O24      1.0000 0.74607  0.79187  0.24790  Biso   1.000  O 
  Hf12     1.0000 0.62491  0.00011  0.62491  Biso   1.000  Hf
  Hf13     1.0000 0.62491  0.50012  0.87516  Biso   1.000  Hf
  Hf14     1.0000 0.87517  0.50011  0.62491  Biso   1.000  Hf
  Hf15     1.0000 0.87408  0.00220  0.87408  Biso   1.000  Hf
  O25      1.0000 0.49568  0.29255  0.49570  Biso   1.000  O 
  O26      1.0000 0.50235  0.20819  0.74750  Biso   1.000  O 
  O27      1.0000 0.49568  0.70767  0.75411  Biso   1.000  O 
  O28      1.0000 0.50236  0.79204  0.50231  Biso   1.000  O 
  O29      1.0000 0.75414  0.29256  0.75411  Biso   1.000  O 
  O30      1.0000 0.74746  0.20818  0.50231  Biso   1.000  O 
  O31      1.0000 0.75413  0.70766  0.49570  Biso   1.000  O 
  O32      1.0000 0.74746  0.79205  0.74750  Biso   1.000  O 
