data_image0
_cell_length_a       5.04636
_cell_length_b       10.252
_cell_length_c       10.4536
_cell_angle_alpha    90
_cell_angle_beta     80
_cell_angle_gamma    90

_symmetry_space_group_name_H-M    "P 1"
_symmetry_int_tables_number       1

loop_
  _symmetry_equiv_pos_as_xyz
  'x, y, z'

loop_
  _atom_site_label
  _atom_site_occupancy
  _atom_site_fract_x
  _atom_site_fract_y
  _atom_site_fract_z
  _atom_site_thermal_displace_type
  _atom_site_B_iso_or_equiv
  _atom_site_type_symbol
  Ta1      1.0000 0.28199  0.02267  0.14737  Biso   1.000  Ta
  Hf1      1.0000 0.28217  0.22899  0.39541  Biso   1.000  Hf
  Hf2      1.0000 0.72341  0.27146  0.10454  Biso   1.000  Hf
  Hf3      1.0000 0.72541  0.47881  0.35364  Biso   1.000  Hf
  O1       1.0000 0.07335  0.16430  0.08071  Biso   1.000  O 
  O2       1.0000 0.08374  0.07788  0.32556  Biso   1.000  O 
  O3       1.0000 0.93190  0.41852  0.16936  Biso   1.000  O 
  O4       1.0000 0.92955  0.32891  0.41829  Biso   1.000  O 
  O5       1.0000 0.55894  0.12742  0.24055  Biso   1.000  O 
  O6       1.0000 0.55822  0.12031  0.49008  Biso   1.000  O 
  O7       1.0000 0.44691  0.37847  0.00985  Biso   1.000  O 
  O8       1.0000 0.45018  0.37089  0.25929  Biso   1.000  O 
  Hf4      1.0000 0.27707  0.02062  0.64566  Biso   1.000  Hf
  Hf5      1.0000 0.27728  0.22770  0.89512  Biso   1.000  Hf
  Hf6      1.0000 0.72352  0.27097  0.60373  Biso   1.000  Hf
  Hf7      1.0000 0.72211  0.47809  0.85473  Biso   1.000  Hf
  O9       1.0000 0.07238  0.16768  0.57800  Biso   1.000  O 
  O10      1.0000 0.06786  0.08100  0.82939  Biso   1.000  O 
  O11      1.0000 0.93076  0.41796  0.67018  Biso   1.000  O 
  O12      1.0000 0.92775  0.32902  0.92095  Biso   1.000  O 
  O13      1.0000 0.55243  0.12861  0.74055  Biso   1.000  O 
  O14      1.0000 0.54609  0.11987  0.99237  Biso   1.000  O 
  O15      1.0000 0.44825  0.37862  0.50932  Biso   1.000  O 
  O16      1.0000 0.44709  0.37049  0.75966  Biso   1.000  O 
  Hf8      1.0000 0.28020  0.52274  0.14566  Biso   1.000  Hf
  Hf9      1.0000 0.28349  0.72821  0.39594  Biso   1.000  Hf
  Hf10     1.0000 0.72357  0.77585  0.10412  Biso   1.000  Hf
  Hf11     1.0000 0.72868  0.97782  0.35350  Biso   1.000  Hf
  O17      1.0000 0.07161  0.66970  0.08106  Biso   1.000  O 
  O18      1.0000 0.07503  0.58024  0.33072  Biso   1.000  O 
  O19      1.0000 0.94711  0.92006  0.16897  Biso   1.000  O 
  O20      1.0000 0.93592  0.83161  0.42052  Biso   1.000  O 
  O21      1.0000 0.55630  0.63068  0.24038  Biso   1.000  O 
  O22      1.0000 0.55879  0.62064  0.49098  Biso   1.000  O 
  O23      1.0000 0.43238  0.88157  0.01067  Biso   1.000  O 
  O24      1.0000 0.44858  0.87400  0.25933  Biso   1.000  O 
  Hf12     1.0000 0.28024  0.52120  0.64634  Biso   1.000  Hf
  Hf13     1.0000 0.27800  0.72811  0.89699  Biso   1.000  Hf
  Hf14     1.0000 0.72579  0.77101  0.60462  Biso   1.000  Hf
  Hf15     1.0000 0.72337  0.97830  0.85475  Biso   1.000  Hf
  O25      1.0000 0.07549  0.66874  0.58013  Biso   1.000  O 
  O26      1.0000 0.07179  0.58020  0.83059  Biso   1.000  O 
  O27      1.0000 0.93196  0.91871  0.67049  Biso   1.000  O 
  O28      1.0000 0.92503  0.83028  0.92040  Biso   1.000  O 
  O29      1.0000 0.55556  0.62842  0.74114  Biso   1.000  O 
  O30      1.0000 0.55459  0.62132  0.99109  Biso   1.000  O 
  O31      1.0000 0.45244  0.87842  0.50933  Biso   1.000  O 
  O32      1.0000 0.44829  0.87059  0.75989  Biso   1.000  O 
