data_image0
_cell_length_a       10.2353
_cell_length_b       5.15547
_cell_length_c       10.5692
_cell_angle_alpha    90
_cell_angle_beta     80
_cell_angle_gamma    90

_symmetry_space_group_name_H-M    "P 1"
_symmetry_int_tables_number       1

loop_
  _symmetry_equiv_pos_as_xyz
  'x, y, z'

loop_
  _atom_site_label
  _atom_site_occupancy
  _atom_site_fract_x
  _atom_site_fract_y
  _atom_site_fract_z
  _atom_site_thermal_displace_type
  _atom_site_B_iso_or_equiv
  _atom_site_type_symbol
  Hf1      1.0000 0.13611  0.05010  0.14259  Biso   1.000  Hf
  Hf2      1.0000 0.15476  0.46172  0.38931  Biso   1.000  Hf
  Hf3      1.0000 0.34106  0.54841  0.08166  Biso   1.000  Hf
  Hf4      1.0000 0.36031  0.93161  0.34945  Biso   1.000  Hf
  O1       1.0000 0.02869  0.34212  0.07620  Biso   1.000  O 
  O2       1.0000 0.04793  0.17005  0.32556  Biso   1.000  O 
  O3       1.0000 0.47235  0.78773  0.18084  Biso   1.000  O 
  O4       1.0000 0.48888  0.66169  0.42571  Biso   1.000  O 
  O5       1.0000 0.28715  0.24016  0.23183  Biso   1.000  O 
  O6       1.0000 0.30440  0.26121  0.47412  Biso   1.000  O 
  O7       1.0000 0.24261  0.76534  0.99133  Biso   1.000  O 
  O8       1.0000 0.21244  0.74025  0.24233  Biso   1.000  O 
  Hf5      1.0000 0.15577  0.04013  0.64174  Biso   1.000  Hf
  Hf6      1.0000 0.15443  0.45429  0.88740  Biso   1.000  Hf
  Hf7      1.0000 0.38131  0.53785  0.60288  Biso   1.000  Hf
  Hf8      1.0000 0.38055  0.95673  0.84261  Biso   1.000  Hf
  O9       1.0000 0.05670  0.32949  0.57426  Biso   1.000  O 
  O10      1.0000 0.05474  0.16008  0.82352  Biso   1.000  O 
  O11      1.0000 0.48537  0.83178  0.66704  Biso   1.000  O 
  O12      1.0000 0.49079  0.67134  0.91255  Biso   1.000  O 
  O13      1.0000 0.29524  0.24898  0.73081  Biso   1.000  O 
  O14      1.0000 0.29764  0.24316  0.97537  Biso   1.000  O 
  O15      1.0000 0.23581  0.76081  0.50778  Biso   1.000  O 
  O16      1.0000 0.24420  0.73503  0.75059  Biso   1.000  O 
  Hf9      1.0000 0.64384  0.04917  0.16075  Biso   1.000  Hf
  Hf10     1.0000 0.66687  0.44704  0.40478  Biso   1.000  Hf
  Hf11     1.0000 0.85419  0.54619  0.11003  Biso   1.000  Hf
  Hf12     1.0000 0.87390  0.95251  0.35708  Biso   1.000  Hf
  O17      1.0000 0.51436  0.31935  0.08160  Biso   1.000  O 
  O18      1.0000 0.54875  0.11622  0.35134  Biso   1.000  O 
  O19      1.0000 0.96564  0.83617  0.17057  Biso   1.000  O 
  O20      1.0000 0.98119  0.66798  0.42503  Biso   1.000  O 
  O21      1.0000 0.79417  0.24909  0.24883  Biso   1.000  O 
  O22      1.0000 0.80075  0.22977  0.49872  Biso   1.000  O 
  O23      1.0000 0.71378  0.76217  0.01785  Biso   1.000  O 
  O24      1.0000 0.73509  0.74912  0.26757  Biso   1.000  O 
  Hf13     1.0000 0.66151  0.03972  0.64809  Biso   1.000  Hf
  Hf14     1.0000 0.66180  0.45177  0.89767  Biso   1.000  Hf
  Hf15     1.0000 0.88252  0.53874  0.60572  Biso   1.000  Hf
  Hf16     1.0000 0.87795  0.95190  0.85623  Biso   1.000  Hf
  O25      1.0000 0.55544  0.33229  0.58363  Biso   1.000  O 
  O26      1.0000 0.55601  0.16703  0.82648  Biso   1.000  O 
  O27      1.0000 0.98331  0.82809  0.67412  Biso   1.000  O 
  O28      1.0000 0.98470  0.66164  0.91829  Biso   1.000  O 
  O29      1.0000 0.79763  0.25462  0.74511  Biso   1.000  O 
  O30      1.0000 0.76602  0.25155  0.00008  Biso   1.000  O 
  O31      1.0000 0.74282  0.74770  0.51526  Biso   1.000  O 
  O32      1.0000 0.74365  0.73801  0.76252  Biso   1.000  O 
  Ta1      1.0000 0.45688  0.43329  0.27892  Biso   1.000  Ta
