data_image0
_cell_length_a       9.9438
_cell_length_b       10.3491
_cell_length_c       4.99418
_cell_angle_alpha    90
_cell_angle_beta     90
_cell_angle_gamma    90

_symmetry_space_group_name_H-M    "P 1"
_symmetry_int_tables_number       1

loop_
  _symmetry_equiv_pos_as_xyz
  'x, y, z'

loop_
  _atom_site_label
  _atom_site_occupancy
  _atom_site_fract_x
  _atom_site_fract_y
  _atom_site_fract_z
  _atom_site_thermal_displace_type
  _atom_site_B_iso_or_equiv
  _atom_site_type_symbol
  Ta1      1.0000 0.13509  0.01974  0.26007  Biso   1.000  Ta
  Hf1      1.0000 0.13443  0.23253  0.75365  Biso   1.000  Hf
  Hf2      1.0000 0.36740  0.26773  0.25041  Biso   1.000  Hf
  Hf3      1.0000 0.36662  0.48443  0.75152  Biso   1.000  Hf
  O1       1.0000 0.03766  0.18213  0.39761  Biso   1.000  O 
  O2       1.0000 0.03403  0.06724  0.92200  Biso   1.000  O 
  O3       1.0000 0.46386  0.43510  0.38667  Biso   1.000  O 
  O4       1.0000 0.46407  0.31573  0.88538  Biso   1.000  O 
  O5       1.0000 0.27469  0.11913  0.49163  Biso   1.000  O 
  O6       1.0000 0.26850  0.12965  0.00033  Biso   1.000  O 
  O7       1.0000 0.22969  0.38172  0.00007  Biso   1.000  O 
  O8       1.0000 0.23002  0.36787  0.50072  Biso   1.000  O 
  Hf4      1.0000 0.13457  0.51627  0.25248  Biso   1.000  Hf
  Hf5      1.0000 0.13466  0.73429  0.75202  Biso   1.000  Hf
  Hf6      1.0000 0.36649  0.76717  0.25175  Biso   1.000  Hf
  Hf7      1.0000 0.36525  0.98331  0.75250  Biso   1.000  Hf
  O9       1.0000 0.03729  0.68417  0.38706  Biso   1.000  O 
  O10      1.0000 0.03753  0.56595  0.88827  Biso   1.000  O 
  O11      1.0000 0.46463  0.93411  0.38912  Biso   1.000  O 
  O12      1.0000 0.46272  0.81594  0.88720  Biso   1.000  O 
  O13      1.0000 0.27158  0.61892  0.49968  Biso   1.000  O 
  O14      1.0000 0.27173  0.63308  0.99966  Biso   1.000  O 
  O15      1.0000 0.22438  0.88448  0.00414  Biso   1.000  O 
  O16      1.0000 0.22841  0.86966  0.49691  Biso   1.000  O 
  Hf8      1.0000 0.63449  0.01624  0.25015  Biso   1.000  Hf
  Hf9      1.0000 0.63465  0.23307  0.75046  Biso   1.000  Hf
  Hf10     1.0000 0.86607  0.26547  0.25136  Biso   1.000  Hf
  Hf11     1.0000 0.86697  0.48366  0.75146  Biso   1.000  Hf
  O17      1.0000 0.53835  0.18503  0.38530  Biso   1.000  O 
  O18      1.0000 0.53571  0.06590  0.88723  Biso   1.000  O 
  O19      1.0000 0.96460  0.43300  0.38933  Biso   1.000  O 
  O20      1.0000 0.96559  0.31610  0.89111  Biso   1.000  O 
  O21      1.0000 0.77232  0.11711  0.49769  Biso   1.000  O 
  O22      1.0000 0.77117  0.13245  0.99719  Biso   1.000  O 
  O23      1.0000 0.73068  0.38207  0.99968  Biso   1.000  O 
  O24      1.0000 0.73004  0.36783  0.49923  Biso   1.000  O 
  Hf12     1.0000 0.63501  0.51679  0.25133  Biso   1.000  Hf
  Hf13     1.0000 0.63529  0.73450  0.74998  Biso   1.000  Hf
  Hf14     1.0000 0.86744  0.76665  0.24871  Biso   1.000  Hf
  Hf15     1.0000 0.86986  0.98418  0.75119  Biso   1.000  Hf
  O25      1.0000 0.53710  0.68495  0.38733  Biso   1.000  O 
  O26      1.0000 0.53781  0.56619  0.88686  Biso   1.000  O 
  O27      1.0000 0.96917  0.93465  0.38261  Biso   1.000  O 
  O28      1.0000 0.96329  0.81549  0.88333  Biso   1.000  O 
  O29      1.0000 0.77141  0.61793  0.49934  Biso   1.000  O 
  O30      1.0000 0.77174  0.63273  0.99905  Biso   1.000  O 
  O31      1.0000 0.73018  0.88319  0.99472  Biso   1.000  O 
  O32      1.0000 0.73223  0.86842  0.49604  Biso   1.000  O 
