data_image0
_cell_length_a       10.2198
_cell_length_b       10.3054
_cell_length_c       5.29697
_cell_angle_alpha    90
_cell_angle_beta     80
_cell_angle_gamma    90

_symmetry_space_group_name_H-M    "P 1"
_symmetry_int_tables_number       1

loop_
  _symmetry_equiv_pos_as_xyz
  'x, y, z'

loop_
  _atom_site_label
  _atom_site_occupancy
  _atom_site_fract_x
  _atom_site_fract_y
  _atom_site_fract_z
  _atom_site_thermal_displace_type
  _atom_site_B_iso_or_equiv
  _atom_site_type_symbol
  Hf1      1.0000 0.13403  0.01963  0.30008  Biso   1.000  Hf
  Hf2      1.0000 0.15043  0.23303  0.76329  Biso   1.000  Hf
  Hf3      1.0000 0.34232  0.27938  0.16697  Biso   1.000  Hf
  Hf4      1.0000 0.35212  0.48165  0.69474  Biso   1.000  Hf
  O1       1.0000 0.04609  0.16809  0.14599  Biso   1.000  O 
  O2       1.0000 0.04135  0.08136  0.65468  Biso   1.000  O 
  O3       1.0000 0.46670  0.39783  0.36458  Biso   1.000  O 
  O4       1.0000 0.48794  0.34995  0.85140  Biso   1.000  O 
  O5       1.0000 0.28411  0.12360  0.44267  Biso   1.000  O 
  O6       1.0000 0.30978  0.13368  0.90578  Biso   1.000  O 
  O7       1.0000 0.21841  0.38676  0.99323  Biso   1.000  O 
  O8       1.0000 0.20941  0.37785  0.48055  Biso   1.000  O 
  Hf5      1.0000 0.13145  0.52827  0.28657  Biso   1.000  Hf
  Hf6      1.0000 0.13468  0.72817  0.79452  Biso   1.000  Hf
  Hf7      1.0000 0.35345  0.76907  0.20895  Biso   1.000  Hf
  Hf8      1.0000 0.36124  0.96092  0.70325  Biso   1.000  Hf
  O9       1.0000 0.01938  0.66841  0.15502  Biso   1.000  O 
  O10      1.0000 0.03134  0.58886  0.65100  Biso   1.000  O 
  O11      1.0000 0.46377  0.90872  0.34907  Biso   1.000  O 
  O12      1.0000 0.46599  0.82220  0.84872  Biso   1.000  O 
  O13      1.0000 0.27254  0.62747  0.48077  Biso   1.000  O 
  O14      1.0000 0.27473  0.62571  0.97856  Biso   1.000  O 
  O15      1.0000 0.21358  0.88491  0.02493  Biso   1.000  O 
  O16      1.0000 0.21715  0.86544  0.51711  Biso   1.000  O 
  Hf9      1.0000 0.64334  0.02078  0.31132  Biso   1.000  Hf
  Hf10     1.0000 0.65872  0.22616  0.81731  Biso   1.000  Hf
  Hf11     1.0000 0.86644  0.27001  0.22035  Biso   1.000  Hf
  Hf12     1.0000 0.86648  0.47483  0.71604  Biso   1.000  Hf
  O17      1.0000 0.52284  0.16664  0.18024  Biso   1.000  O 
  O18      1.0000 0.54956  0.06027  0.69524  Biso   1.000  O 
  O19      1.0000 0.96334  0.41923  0.34640  Biso   1.000  O 
  O20      1.0000 0.97228  0.33140  0.84429  Biso   1.000  O 
  O21      1.0000 0.78889  0.12574  0.49800  Biso   1.000  O 
  O22      1.0000 0.77858  0.11818  0.00893  Biso   1.000  O 
  O23      1.0000 0.72405  0.37610  0.04487  Biso   1.000  O 
  O24      1.0000 0.73230  0.37073  0.53780  Biso   1.000  O 
  Hf13     1.0000 0.63677  0.51991  0.30354  Biso   1.000  Hf
  Hf14     1.0000 0.63821  0.72010  0.79696  Biso   1.000  Hf
  Hf15     1.0000 0.84909  0.77239  0.21460  Biso   1.000  Hf
  Hf16     1.0000 0.85566  0.97539  0.71859  Biso   1.000  Hf
  O25      1.0000 0.52197  0.65453  0.15725  Biso   1.000  O 
  O26      1.0000 0.52907  0.58393  0.64837  Biso   1.000  O 
  O27      1.0000 0.95726  0.91278  0.35565  Biso   1.000  O 
  O28      1.0000 0.96554  0.83579  0.85304  Biso   1.000  O 
  O29      1.0000 0.77124  0.62643  0.48497  Biso   1.000  O 
  O30      1.0000 0.77786  0.61703  0.98386  Biso   1.000  O 
  O31      1.0000 0.70974  0.87719  0.03202  Biso   1.000  O 
  O32      1.0000 0.71888  0.86846  0.52868  Biso   1.000  O 
  Ta1      1.0000 0.44767  0.22376  0.57294  Biso   1.000  Ta
