data_image0
_cell_length_a       10.1002
_cell_length_b       10.2423
_cell_length_c       5.3019
_cell_angle_alpha    90
_cell_angle_beta     90
_cell_angle_gamma    90

_symmetry_space_group_name_H-M    "P 1"
_symmetry_int_tables_number       1

loop_
  _symmetry_equiv_pos_as_xyz
  'x, y, z'

loop_
  _atom_site_label
  _atom_site_occupancy
  _atom_site_fract_x
  _atom_site_fract_y
  _atom_site_fract_z
  _atom_site_thermal_displace_type
  _atom_site_B_iso_or_equiv
  _atom_site_type_symbol
  Hf1      1.0000 0.13696  0.02183  0.34756  Biso   1.000  Hf
  Hf2      1.0000 0.13837  0.22675  0.84563  Biso   1.000  Hf
  Hf3      1.0000 0.35941  0.26582  0.35688  Biso   1.000  Hf
  Hf4      1.0000 0.35434  0.47849  0.84602  Biso   1.000  Hf
  Hf5      1.0000 0.63869  0.99433  0.16199  Biso   1.000  Hf
  Hf6      1.0000 0.62699  0.22449  0.64516  Biso   1.000  Hf
  Hf7      1.0000 0.87793  0.27668  0.14624  Biso   1.000  Hf
  Hf8      1.0000 0.86069  0.47864  0.65323  Biso   1.000  Hf
  O1       1.0000 0.03365  0.15647  0.14875  Biso   1.000  O 
  O2       1.0000 0.02276  0.09448  0.65061  Biso   1.000  O 
  O3       1.0000 0.47703  0.40826  0.15882  Biso   1.000  O 
  O4       1.0000 0.46228  0.34019  0.66826  Biso   1.000  O 
  O5       1.0000 0.26886  0.12304  0.60029  Biso   1.000  O 
  O6       1.0000 0.27548  0.12251  0.09769  Biso   1.000  O 
  O7       1.0000 0.21839  0.37504  0.60006  Biso   1.000  O 
  O8       1.0000 0.22769  0.37655  0.09498  Biso   1.000  O 
  O9       1.0000 0.50978  0.11916  0.38674  Biso   1.000  O 
  O10      1.0000 0.51419  0.10475  0.89387  Biso   1.000  O 
  O11      1.0000 0.97173  0.41533  0.34522  Biso   1.000  O 
  O12      1.0000 0.97065  0.34110  0.83579  Biso   1.000  O 
  O13      1.0000 0.76143  0.12327  0.90357  Biso   1.000  O 
  O14      1.0000 0.76123  0.13083  0.37915  Biso   1.000  O 
  O15      1.0000 0.72342  0.37757  0.90934  Biso   1.000  O 
  O16      1.0000 0.72052  0.37924  0.39937  Biso   1.000  O 
  Hf9      1.0000 0.14208  0.52076  0.34898  Biso   1.000  Hf
  Hf10     1.0000 0.13521  0.72860  0.84734  Biso   1.000  Hf
  Hf11     1.0000 0.36010  0.77010  0.35094  Biso   1.000  Hf
  Hf12     1.0000 0.35856  0.97653  0.85133  Biso   1.000  Hf
  Hf13     1.0000 0.64391  0.53283  0.15008  Biso   1.000  Hf
  Hf14     1.0000 0.63696  0.72701  0.65461  Biso   1.000  Hf
  Hf15     1.0000 0.87048  0.77155  0.15777  Biso   1.000  Hf
  Hf16     1.0000 0.86180  0.98197  0.65723  Biso   1.000  Hf
  O17      1.0000 0.03598  0.66200  0.16025  Biso   1.000  O 
  O18      1.0000 0.02848  0.59111  0.65967  Biso   1.000  O 
  O19      1.0000 0.47223  0.88809  0.13359  Biso   1.000  O 
  O20      1.0000 0.47443  0.84908  0.64187  Biso   1.000  O 
  O21      1.0000 0.27391  0.62446  0.59751  Biso   1.000  O 
  O22      1.0000 0.27835  0.62524  0.09686  Biso   1.000  O 
  O23      1.0000 0.22393  0.87231  0.59774  Biso   1.000  O 
  O24      1.0000 0.22642  0.87657  0.09881  Biso   1.000  O 
  O25      1.0000 0.52917  0.65691  0.35220  Biso   1.000  O 
  O26      1.0000 0.52467  0.59346  0.84672  Biso   1.000  O 
  O27      1.0000 0.97060  0.91337  0.34411  Biso   1.000  O 
  O28      1.0000 0.96800  0.84275  0.84406  Biso   1.000  O 
  O29      1.0000 0.77478  0.62492  0.90286  Biso   1.000  O 
  O30      1.0000 0.77796  0.62741  0.40512  Biso   1.000  O 
  O31      1.0000 0.72492  0.86901  0.90883  Biso   1.000  O 
  O32      1.0000 0.73262  0.86961  0.41799  Biso   1.000  O 
  Ta1      1.0000 0.61342  0.25133  0.14600  Biso   1.000  Ta
