data_image0
_cell_length_a       5.05587
_cell_length_b       10.3733
_cell_length_c       10.0994
_cell_angle_alpha    90
_cell_angle_beta     90
_cell_angle_gamma    90

_symmetry_space_group_name_H-M    "P 1"
_symmetry_int_tables_number       1

loop_
  _symmetry_equiv_pos_as_xyz
  'x, y, z'

loop_
  _atom_site_label
  _atom_site_occupancy
  _atom_site_fract_x
  _atom_site_fract_y
  _atom_site_fract_z
  _atom_site_thermal_displace_type
  _atom_site_B_iso_or_equiv
  _atom_site_type_symbol
  Hf1      1.0000 0.24053  0.00177  0.09240  Biso   1.000  Hf
  Hf2      1.0000 0.24054  0.24224  0.40536  Biso   1.000  Hf
  Hf3      1.0000 0.66921  0.25225  0.11990  Biso   1.000  Hf
  Hf4      1.0000 0.72377  0.49484  0.37560  Biso   1.000  Hf
  O1       1.0000 0.90511  0.19291  0.27489  Biso   1.000  O 
  O2       1.0000 0.07447  0.07092  0.46150  Biso   1.000  O 
  O3       1.0000 0.90778  0.43887  0.19104  Biso   1.000  O 
  O4       1.0000 0.94417  0.35201  0.47104  Biso   1.000  O 
  O5       1.0000 0.39836  0.13446  0.23406  Biso   1.000  O 
  O6       1.0000 0.55595  0.14789  0.49527  Biso   1.000  O 
  O7       1.0000 0.46644  0.39760  0.50782  Biso   1.000  O 
  O8       1.0000 0.42195  0.37732  0.26232  Biso   1.000  O 
  Hf5      1.0000 0.28353  0.02502  0.62740  Biso   1.000  Hf
  Hf6      1.0000 0.27651  0.23997  0.86877  Biso   1.000  Hf
  Hf7      1.0000 0.73639  0.28342  0.63194  Biso   1.000  Hf
  Hf8      1.0000 0.72351  0.50041  0.88186  Biso   1.000  Hf
  O9       1.0000 0.08686  0.19989  0.68317  Biso   1.000  O 
  O10      1.0000 0.10870  0.06509  0.90276  Biso   1.000  O 
  O11      1.0000 0.93997  0.44561  0.71625  Biso   1.000  O 
  O12      1.0000 0.93562  0.33104  0.96050  Biso   1.000  O 
  O13      1.0000 0.55670  0.13031  0.74384  Biso   1.000  O 
  O14      1.0000 0.58759  0.13245  0.98720  Biso   1.000  O 
  O15      1.0000 0.44080  0.38229  0.00561  Biso   1.000  O 
  O16      1.0000 0.47182  0.38120  0.75633  Biso   1.000  O 
  Hf9      1.0000 0.25947  0.53726  0.12672  Biso   1.000  Hf
  Hf10     1.0000 0.26058  0.75229  0.37441  Biso   1.000  Hf
  Hf11     1.0000 0.72168  0.77271  0.12583  Biso   1.000  Hf
  Hf12     1.0000 0.74795  0.00955  0.36237  Biso   1.000  Hf
  O17      1.0000 0.06165  0.69696  0.19831  Biso   1.000  O 
  O18      1.0000 0.04852  0.58878  0.44850  Biso   1.000  O 
  O19      1.0000 0.90232  0.95187  0.18199  Biso   1.000  O 
  O20      1.0000 0.91294  0.83644  0.43120  Biso   1.000  O 
  O21      1.0000 0.53540  0.63159  0.25051  Biso   1.000  O 
  O22      1.0000 0.52208  0.64544  0.49606  Biso   1.000  O 
  O23      1.0000 0.45331  0.89927  0.49252  Biso   1.000  O 
  O24      1.0000 0.45176  0.88025  0.24145  Biso   1.000  O 
  Hf13     1.0000 0.25433  0.52802  0.62556  Biso   1.000  Hf
  Hf14     1.0000 0.26224  0.74814  0.86836  Biso   1.000  Hf
  Hf15     1.0000 0.73146  0.77778  0.61137  Biso   1.000  Hf
  Hf16     1.0000 0.73124  0.99029  0.86195  Biso   1.000  Hf
  O25      1.0000 0.06208  0.69694  0.69206  Biso   1.000  O 
  O26      1.0000 0.06122  0.58965  0.94733  Biso   1.000  O 
  O27      1.0000 0.92699  0.93910  0.68658  Biso   1.000  O 
  O28      1.0000 0.94207  0.83724  0.95275  Biso   1.000  O 
  O29      1.0000 0.53042  0.62615  0.74786  Biso   1.000  O 
  O30      1.0000 0.53770  0.65483  0.99760  Biso   1.000  O 
  O31      1.0000 0.46122  0.89242  0.98679  Biso   1.000  O 
  O32      1.0000 0.46551  0.87517  0.74021  Biso   1.000  O 
  Ta1      1.0000 0.16180  0.28043  0.13407  Biso   1.000  Ta
