data_image0
_cell_length_a       9.93679
_cell_length_b       5.17707
_cell_length_c       9.99041
_cell_angle_alpha    90
_cell_angle_beta     90
_cell_angle_gamma    90

_symmetry_space_group_name_H-M    "P 1"
_symmetry_int_tables_number       1

loop_
  _symmetry_equiv_pos_as_xyz
  'x, y, z'

loop_
  _atom_site_label
  _atom_site_occupancy
  _atom_site_fract_x
  _atom_site_fract_y
  _atom_site_fract_z
  _atom_site_thermal_displace_type
  _atom_site_B_iso_or_equiv
  _atom_site_type_symbol
  Ta1      1.0000 0.13610  0.03732  0.12705  Biso   1.000  Ta
  Hf1      1.0000 0.13409  0.46659  0.37553  Biso   1.000  Hf
  Hf2      1.0000 0.36628  0.53658  0.12586  Biso   1.000  Hf
  Hf3      1.0000 0.36665  0.96729  0.37588  Biso   1.000  Hf
  O1       1.0000 0.04118  0.36698  0.19045  Biso   1.000  O 
  O2       1.0000 0.03523  0.13528  0.44731  Biso   1.000  O 
  O3       1.0000 0.46435  0.86934  0.19392  Biso   1.000  O 
  O4       1.0000 0.46439  0.63210  0.44328  Biso   1.000  O 
  O5       1.0000 0.27230  0.23760  0.24784  Biso   1.000  O 
  O6       1.0000 0.27138  0.26453  0.49907  Biso   1.000  O 
  O7       1.0000 0.22991  0.76445  0.49974  Biso   1.000  O 
  O8       1.0000 0.22749  0.74155  0.24934  Biso   1.000  O 
  Hf4      1.0000 0.13470  0.03325  0.62642  Biso   1.000  Hf
  Hf5      1.0000 0.13439  0.46737  0.87695  Biso   1.000  Hf
  Hf6      1.0000 0.36658  0.53363  0.62582  Biso   1.000  Hf
  Hf7      1.0000 0.36615  0.96801  0.87618  Biso   1.000  Hf
  O9       1.0000 0.03593  0.36583  0.69785  Biso   1.000  O 
  O10      1.0000 0.03728  0.13013  0.95312  Biso   1.000  O 
  O11      1.0000 0.46353  0.87031  0.69370  Biso   1.000  O 
  O12      1.0000 0.46240  0.63145  0.94335  Biso   1.000  O 
  O13      1.0000 0.27184  0.23679  0.75016  Biso   1.000  O 
  O14      1.0000 0.26915  0.26055  0.00173  Biso   1.000  O 
  O15      1.0000 0.22449  0.76618  0.00174  Biso   1.000  O 
  O16      1.0000 0.23002  0.73517  0.75051  Biso   1.000  O 
  Hf8      1.0000 0.63536  0.03440  0.12579  Biso   1.000  Hf
  Hf9      1.0000 0.63564  0.46847  0.37499  Biso   1.000  Hf
  Hf10     1.0000 0.86777  0.53351  0.12411  Biso   1.000  Hf
  Hf11     1.0000 0.86718  0.96755  0.37599  Biso   1.000  Hf
  O17      1.0000 0.53776  0.37100  0.19299  Biso   1.000  O 
  O18      1.0000 0.53729  0.13270  0.44308  Biso   1.000  O 
  O19      1.0000 0.97042  0.86943  0.19242  Biso   1.000  O 
  O20      1.0000 0.96542  0.63341  0.44558  Biso   1.000  O 
  O21      1.0000 0.77366  0.23712  0.24947  Biso   1.000  O 
  O22      1.0000 0.77136  0.26504  0.49957  Biso   1.000  O 
  O23      1.0000 0.73007  0.76498  0.49925  Biso   1.000  O 
  O24      1.0000 0.73216  0.73853  0.24890  Biso   1.000  O 
  Hf12     1.0000 0.63447  0.03359  0.62558  Biso   1.000  Hf
  Hf13     1.0000 0.63468  0.46772  0.87578  Biso   1.000  Hf
  Hf14     1.0000 0.86671  0.53301  0.62650  Biso   1.000  Hf
  Hf15     1.0000 0.86754  0.96844  0.87589  Biso   1.000  Hf
  O25      1.0000 0.53721  0.37005  0.69364  Biso   1.000  O 
  O26      1.0000 0.53686  0.13189  0.94383  Biso   1.000  O 
  O27      1.0000 0.96449  0.86846  0.69465  Biso   1.000  O 
  O28      1.0000 0.96289  0.63062  0.94204  Biso   1.000  O 
  O29      1.0000 0.77073  0.23577  0.74975  Biso   1.000  O 
  O30      1.0000 0.77180  0.26542  0.99954  Biso   1.000  O 
  O31      1.0000 0.73006  0.76552  0.99921  Biso   1.000  O 
  O32      1.0000 0.72953  0.73645  0.74941  Biso   1.000  O 
