data_image0
_cell_length_a       5.10998
_cell_length_b       10.2868
_cell_length_c       10.6118
_cell_angle_alpha    90
_cell_angle_beta     80
_cell_angle_gamma    90

_symmetry_space_group_name_H-M    "P 1"
_symmetry_int_tables_number       1

loop_
  _symmetry_equiv_pos_as_xyz
  'x, y, z'

loop_
  _atom_site_label
  _atom_site_occupancy
  _atom_site_fract_x
  _atom_site_fract_y
  _atom_site_fract_z
  _atom_site_thermal_displace_type
  _atom_site_B_iso_or_equiv
  _atom_site_type_symbol
  Hf1      1.0000 0.27529  0.02060  0.14478  Biso   1.000  Hf
  Hf2      1.0000 0.27357  0.23877  0.40616  Biso   1.000  Hf
  Hf3      1.0000 0.71561  0.26771  0.08818  Biso   1.000  Hf
  Hf4      1.0000 0.72563  0.49890  0.35823  Biso   1.000  Hf
  O1       1.0000 0.05924  0.15636  0.06980  Biso   1.000  O 
  O2       1.0000 0.06773  0.08209  0.33188  Biso   1.000  O 
  O3       1.0000 0.96272  0.39483  0.18918  Biso   1.000  O 
  O4       1.0000 0.96709  0.37244  0.44120  Biso   1.000  O 
  O5       1.0000 0.55702  0.11975  0.22984  Biso   1.000  O 
  O6       1.0000 0.57607  0.12209  0.48249  Biso   1.000  O 
  O7       1.0000 0.43962  0.38025  0.00689  Biso   1.000  O 
  O8       1.0000 0.49148  0.36876  0.26172  Biso   1.000  O 
  Hf5      1.0000 0.28235  0.02760  0.64480  Biso   1.000  Hf
  Hf6      1.0000 0.28195  0.23426  0.89115  Biso   1.000  Hf
  Hf7      1.0000 0.73089  0.28229  0.60704  Biso   1.000  Hf
  Hf8      1.0000 0.72713  0.48729  0.85429  Biso   1.000  Hf
  O9       1.0000 0.07365  0.17180  0.58142  Biso   1.000  O 
  O10      1.0000 0.06926  0.09292  0.82266  Biso   1.000  O 
  O11      1.0000 0.94156  0.41938  0.68237  Biso   1.000  O 
  O12      1.0000 0.94960  0.34894  0.92247  Biso   1.000  O 
  O13      1.0000 0.55458  0.13415  0.73667  Biso   1.000  O 
  O14      1.0000 0.55353  0.12829  0.98188  Biso   1.000  O 
  O15      1.0000 0.45715  0.38869  0.51751  Biso   1.000  O 
  O16      1.0000 0.45592  0.37882  0.76107  Biso   1.000  O 
  Hf9      1.0000 0.27967  0.51980  0.14757  Biso   1.000  Hf
  Hf10     1.0000 0.27352  0.73265  0.39837  Biso   1.000  Hf
  Hf11     1.0000 0.72372  0.77062  0.10335  Biso   1.000  Hf
  Hf12     1.0000 0.71643  0.96903  0.35336  Biso   1.000  Hf
  O17      1.0000 0.06013  0.65508  0.07314  Biso   1.000  O 
  O18      1.0000 0.07085  0.59843  0.31795  Biso   1.000  O 
  O19      1.0000 0.93822  0.90817  0.17735  Biso   1.000  O 
  O20      1.0000 0.93438  0.83780  0.42935  Biso   1.000  O 
  O21      1.0000 0.55508  0.62869  0.23938  Biso   1.000  O 
  O22      1.0000 0.54558  0.63202  0.49422  Biso   1.000  O 
  O23      1.0000 0.44936  0.87817  0.01161  Biso   1.000  O 
  O24      1.0000 0.44413  0.86778  0.25901  Biso   1.000  O 
  Hf13     1.0000 0.27851  0.52878  0.64878  Biso   1.000  Hf
  Hf14     1.0000 0.28346  0.73417  0.89707  Biso   1.000  Hf
  Hf15     1.0000 0.72589  0.77742  0.60728  Biso   1.000  Hf
  Hf16     1.0000 0.73201  0.98396  0.85225  Biso   1.000  Hf
  O25      1.0000 0.05966  0.66472  0.57486  Biso   1.000  O 
  O26      1.0000 0.06809  0.59766  0.82502  Biso   1.000  O 
  O27      1.0000 0.94352  0.91796  0.67552  Biso   1.000  O 
  O28      1.0000 0.94522  0.84507  0.92640  Biso   1.000  O 
  O29      1.0000 0.55462  0.63489  0.74181  Biso   1.000  O 
  O30      1.0000 0.55953  0.63053  0.99060  Biso   1.000  O 
  O31      1.0000 0.44705  0.88140  0.51207  Biso   1.000  O 
  O32      1.0000 0.45610  0.87811  0.76122  Biso   1.000  O 
  Ta1      1.0000 0.80089  0.24006  0.32344  Biso   1.000  Ta
