data_image0
_cell_length_a       10.173
_cell_length_b       10.288
_cell_length_c       10.5195
_cell_angle_alpha    90
_cell_angle_beta     80
_cell_angle_gamma    90

_symmetry_space_group_name_H-M    "P 1"
_symmetry_int_tables_number       1

loop_
  _symmetry_equiv_pos_as_xyz
  'x, y, z'

loop_
  _atom_site_label
  _atom_site_occupancy
  _atom_site_fract_x
  _atom_site_fract_y
  _atom_site_fract_z
  _atom_site_thermal_displace_type
  _atom_site_B_iso_or_equiv
  _atom_site_type_symbol
  Hf1      1.0000 0.13689  0.02245  0.14582  Biso   1.000  Hf
  Hf2      1.0000 0.15202  0.23297  0.38812  Biso   1.000  Hf
  Hf3      1.0000 0.34093  0.27392  0.08278  Biso   1.000  Hf
  Hf4      1.0000 0.35379  0.47951  0.35202  Biso   1.000  Hf
  O1       1.0000 0.03350  0.16950  0.07692  Biso   1.000  O 
  O2       1.0000 0.04322  0.08163  0.32797  Biso   1.000  O 
  O3       1.0000 0.46585  0.39890  0.18132  Biso   1.000  O 
  O4       1.0000 0.48567  0.34678  0.42786  Biso   1.000  O 
  O5       1.0000 0.28452  0.12186  0.23063  Biso   1.000  O 
  O6       1.0000 0.31147  0.13608  0.46297  Biso   1.000  O 
  O7       1.0000 0.22224  0.38427  0.99464  Biso   1.000  O 
  O8       1.0000 0.20871  0.37622  0.24440  Biso   1.000  O 
  Hf5      1.0000 0.14008  0.01636  0.64779  Biso   1.000  Hf
  Hf6      1.0000 0.14116  0.22667  0.88789  Biso   1.000  Hf
  Hf7      1.0000 0.36966  0.27186  0.60328  Biso   1.000  Hf
  Hf8      1.0000 0.36558  0.48058  0.84789  Biso   1.000  Hf
  O9       1.0000 0.05380  0.16654  0.57475  Biso   1.000  O 
  O10      1.0000 0.03853  0.07884  0.82759  Biso   1.000  O 
  O11      1.0000 0.47255  0.41635  0.67116  Biso   1.000  O 
  O12      1.0000 0.47321  0.33533  0.91662  Biso   1.000  O 
  O13      1.0000 0.28137  0.12530  0.73093  Biso   1.000  O 
  O14      1.0000 0.27997  0.11946  0.97833  Biso   1.000  O 
  O15      1.0000 0.22834  0.38042  0.50863  Biso   1.000  O 
  O16      1.0000 0.23090  0.36857  0.75315  Biso   1.000  O 
  Hf9      1.0000 0.13542  0.52533  0.14247  Biso   1.000  Hf
  Hf10     1.0000 0.13802  0.72743  0.39636  Biso   1.000  Hf
  Hf11     1.0000 0.35672  0.77067  0.10325  Biso   1.000  Hf
  Hf12     1.0000 0.36201  0.96486  0.35171  Biso   1.000  Hf
  O17      1.0000 0.02889  0.67140  0.07821  Biso   1.000  O 
  O18      1.0000 0.03455  0.58704  0.32588  Biso   1.000  O 
  O19      1.0000 0.46641  0.91159  0.17312  Biso   1.000  O 
  O20      1.0000 0.46322  0.82106  0.42231  Biso   1.000  O 
  O21      1.0000 0.27613  0.62744  0.24015  Biso   1.000  O 
  O22      1.0000 0.27379  0.62346  0.49198  Biso   1.000  O 
  O23      1.0000 0.21985  0.88026  0.00943  Biso   1.000  O 
  O24      1.0000 0.21968  0.86530  0.25721  Biso   1.000  O 
  Hf13     1.0000 0.14246  0.52178  0.64494  Biso   1.000  Hf
  Hf14     1.0000 0.14216  0.72777  0.89567  Biso   1.000  Hf
  Hf15     1.0000 0.36549  0.76869  0.60359  Biso   1.000  Hf
  Hf16     1.0000 0.36654  0.97410  0.85105  Biso   1.000  Hf
  O25      1.0000 0.03393  0.66483  0.57888  Biso   1.000  O 
  O26      1.0000 0.04012  0.58056  0.82892  Biso   1.000  O 
  O27      1.0000 0.46962  0.91491  0.67074  Biso   1.000  O 
  O28      1.0000 0.47271  0.83122  0.92101  Biso   1.000  O 
  O29      1.0000 0.28031  0.62675  0.73912  Biso   1.000  O 
  O30      1.0000 0.28380  0.62228  0.98724  Biso   1.000  O 
  O31      1.0000 0.22520  0.88311  0.50997  Biso   1.000  O 
  O32      1.0000 0.22741  0.86844  0.75867  Biso   1.000  O 
  Hf17     1.0000 0.64082  0.02231  0.15455  Biso   1.000  Hf
  Hf18     1.0000 0.65982  0.22627  0.40546  Biso   1.000  Hf
  Hf19     1.0000 0.85858  0.27202  0.10837  Biso   1.000  Hf
  Hf20     1.0000 0.86715  0.47691  0.35585  Biso   1.000  Hf
  O33      1.0000 0.51864  0.16593  0.08667  Biso   1.000  O 
  O34      1.0000 0.54862  0.05923  0.34774  Biso   1.000  O 
  O35      1.0000 0.96258  0.42132  0.16863  Biso   1.000  O 
  O36      1.0000 0.97336  0.33377  0.42299  Biso   1.000  O 
  O37      1.0000 0.78872  0.12590  0.24567  Biso   1.000  O 
  O38      1.0000 0.79316  0.11454  0.49866  Biso   1.000  O 
  O39      1.0000 0.71708  0.37809  0.01536  Biso   1.000  O 
  O40      1.0000 0.73124  0.37381  0.26571  Biso   1.000  O 
  Hf21     1.0000 0.64690  0.02005  0.64777  Biso   1.000  Hf
  Hf22     1.0000 0.64560  0.22765  0.89857  Biso   1.000  Hf
  Hf23     1.0000 0.87461  0.26825  0.60612  Biso   1.000  Hf
  Hf24     1.0000 0.86662  0.47620  0.85590  Biso   1.000  Hf
  O41      1.0000 0.54520  0.16848  0.58293  Biso   1.000  O 
  O42      1.0000 0.54167  0.08168  0.83046  Biso   1.000  O 
  O43      1.0000 0.97201  0.41518  0.67386  Biso   1.000  O 
  O44      1.0000 0.96802  0.32776  0.91925  Biso   1.000  O 
  O45      1.0000 0.78401  0.12741  0.74495  Biso   1.000  O 
  O46      1.0000 0.78024  0.11996  0.99517  Biso   1.000  O 
  O47      1.0000 0.73685  0.37576  0.51626  Biso   1.000  O 
  O48      1.0000 0.73063  0.36824  0.76316  Biso   1.000  O 
  Hf25     1.0000 0.63713  0.52103  0.15105  Biso   1.000  Hf
  Hf26     1.0000 0.63932  0.72435  0.39685  Biso   1.000  Hf
  Hf27     1.0000 0.85583  0.77257  0.10597  Biso   1.000  Hf
  Hf28     1.0000 0.86314  0.97686  0.35609  Biso   1.000  Hf
  O49      1.0000 0.52723  0.65911  0.07797  Biso   1.000  O 
  O50      1.0000 0.53120  0.58245  0.32689  Biso   1.000  O 
  O51      1.0000 0.96319  0.91630  0.17234  Biso   1.000  O 
  O52      1.0000 0.96684  0.83279  0.42478  Biso   1.000  O 
  O53      1.0000 0.77368  0.62818  0.24126  Biso   1.000  O 
  O54      1.0000 0.77795  0.61904  0.49079  Biso   1.000  O 
  O55      1.0000 0.71676  0.87967  0.01394  Biso   1.000  O 
  O56      1.0000 0.72367  0.86954  0.26192  Biso   1.000  O 
  Hf29     1.0000 0.64542  0.51925  0.64688  Biso   1.000  Hf
  Hf30     1.0000 0.64399  0.72419  0.89738  Biso   1.000  Hf
  Hf31     1.0000 0.86160  0.76964  0.60455  Biso   1.000  Hf
  Hf32     1.0000 0.86015  0.97573  0.85725  Biso   1.000  Hf
  O57      1.0000 0.53765  0.66340  0.57996  Biso   1.000  O 
  O58      1.0000 0.53974  0.58268  0.82644  Biso   1.000  O 
  O59      1.0000 0.96542  0.91425  0.67438  Biso   1.000  O 
  O60      1.0000 0.96950  0.83198  0.92069  Biso   1.000  O 
  O61      1.0000 0.78124  0.62631  0.74160  Biso   1.000  O 
  O62      1.0000 0.78266  0.61841  0.99139  Biso   1.000  O 
  O63      1.0000 0.72382  0.87555  0.51127  Biso   1.000  O 
  O64      1.0000 0.72595  0.86894  0.76162  Biso   1.000  O 
  Ta1      1.0000 0.44887  0.22417  0.28617  Biso   1.000  Ta
