data_image0
_cell_length_a       9.99414
_cell_length_b       10.2052
_cell_length_c       5.23128
_cell_angle_alpha    90
_cell_angle_beta     90
_cell_angle_gamma    90

_symmetry_space_group_name_H-M    "P 1"
_symmetry_int_tables_number       1

loop_
  _symmetry_equiv_pos_as_xyz
  'x, y, z'

loop_
  _atom_site_label
  _atom_site_occupancy
  _atom_site_fract_x
  _atom_site_fract_y
  _atom_site_fract_z
  _atom_site_thermal_displace_type
  _atom_site_B_iso_or_equiv
  _atom_site_type_symbol
  Ta1      1.0000 0.14080  0.02322  0.34637  Biso   1.000  Ta
  Hf1      1.0000 0.14031  0.22957  0.84239  Biso   1.000  Hf
  Hf2      1.0000 0.36171  0.27166  0.34422  Biso   1.000  Hf
  Hf3      1.0000 0.36201  0.47971  0.84414  Biso   1.000  Hf
  Hf4      1.0000 0.63870  0.02101  0.15393  Biso   1.000  Hf
  Hf5      1.0000 0.63893  0.22812  0.65660  Biso   1.000  Hf
  Hf6      1.0000 0.86129  0.27008  0.15686  Biso   1.000  Hf
  Hf7      1.0000 0.86149  0.47826  0.65717  Biso   1.000  Hf
  O1       1.0000 0.03336  0.15842  0.16433  Biso   1.000  O 
  O2       1.0000 0.03809  0.08171  0.66026  Biso   1.000  O 
  O3       1.0000 0.46689  0.41654  0.16941  Biso   1.000  O 
  O4       1.0000 0.46669  0.33398  0.66950  Biso   1.000  O 
  O5       1.0000 0.27734  0.12252  0.59280  Biso   1.000  O 
  O6       1.0000 0.27543  0.12514  0.09468  Biso   1.000  O 
  O7       1.0000 0.22413  0.37382  0.59187  Biso   1.000  O 
  O8       1.0000 0.22347  0.37562  0.09054  Biso   1.000  O 
  O9       1.0000 0.53313  0.16555  0.33227  Biso   1.000  O 
  O10      1.0000 0.53247  0.08394  0.83167  Biso   1.000  O 
  O11      1.0000 0.96860  0.41264  0.33391  Biso   1.000  O 
  O12      1.0000 0.96712  0.33135  0.83171  Biso   1.000  O 
  O13      1.0000 0.77750  0.12285  0.90627  Biso   1.000  O 
  O14      1.0000 0.77755  0.12597  0.40833  Biso   1.000  O 
  O15      1.0000 0.72401  0.37304  0.91059  Biso   1.000  O 
  O16      1.0000 0.72366  0.37588  0.40968  Biso   1.000  O 
  Hf8      1.0000 0.13927  0.52139  0.34424  Biso   1.000  Hf
  Hf9      1.0000 0.13992  0.72860  0.84459  Biso   1.000  Hf
  Hf10     1.0000 0.36039  0.77340  0.34420  Biso   1.000  Hf
  Hf11     1.0000 0.36059  0.97723  0.84500  Biso   1.000  Hf
  Hf12     1.0000 0.63972  0.52202  0.15761  Biso   1.000  Hf
  Hf13     1.0000 0.63964  0.72877  0.65537  Biso   1.000  Hf
  Hf14     1.0000 0.86308  0.77229  0.15553  Biso   1.000  Hf
  Hf15     1.0000 0.86228  0.97795  0.65453  Biso   1.000  Hf
  O17      1.0000 0.03353  0.66449  0.16836  Biso   1.000  O 
  O18      1.0000 0.03363  0.58375  0.66835  Biso   1.000  O 
  O19      1.0000 0.46721  0.91584  0.16546  Biso   1.000  O 
  O20      1.0000 0.46772  0.83547  0.66429  Biso   1.000  O 
  O21      1.0000 0.27764  0.62420  0.59056  Biso   1.000  O 
  O22      1.0000 0.27750  0.62735  0.09246  Biso   1.000  O 
  O23      1.0000 0.21828  0.87493  0.59192  Biso   1.000  O 
  O24      1.0000 0.21661  0.88036  0.09757  Biso   1.000  O 
  O25      1.0000 0.53367  0.66728  0.33012  Biso   1.000  O 
  O26      1.0000 0.53432  0.58409  0.83141  Biso   1.000  O 
  O27      1.0000 0.97365  0.91697  0.33174  Biso   1.000  O 
  O28      1.0000 0.96772  0.83467  0.83298  Biso   1.000  O 
  O29      1.0000 0.77814  0.62358  0.91062  Biso   1.000  O 
  O30      1.0000 0.77771  0.62563  0.40986  Biso   1.000  O 
  O31      1.0000 0.72346  0.87349  0.90661  Biso   1.000  O 
  O32      1.0000 0.72658  0.87631  0.40713  Biso   1.000  O 
