data_image0
_cell_length_a       10.0498
_cell_length_b       5.27266
_cell_length_c       10.1308
_cell_angle_alpha    90
_cell_angle_beta     90
_cell_angle_gamma    90

_symmetry_space_group_name_H-M    "P 1"
_symmetry_int_tables_number       1

loop_
  _symmetry_equiv_pos_as_xyz
  'x, y, z'

loop_
  _atom_site_label
  _atom_site_occupancy
  _atom_site_fract_x
  _atom_site_fract_y
  _atom_site_fract_z
  _atom_site_thermal_displace_type
  _atom_site_B_iso_or_equiv
  _atom_site_type_symbol
  Hf1      1.0000 0.12300  0.13324  0.10844  Biso   1.000  Hf
  Hf2      1.0000 0.14242  0.45447  0.38981  Biso   1.000  Hf
  Hf3      1.0000 0.38666  0.54574  0.12152  Biso   1.000  Hf
  Hf4      1.0000 0.36960  0.96256  0.37603  Biso   1.000  Hf
  O1       1.0000 0.00969  0.38519  0.23211  Biso   1.000  O 
  O2       1.0000 0.04566  0.12040  0.45027  Biso   1.000  O 
  O3       1.0000 0.47688  0.86397  0.20511  Biso   1.000  O 
  O4       1.0000 0.47597  0.63385  0.45380  Biso   1.000  O 
  O5       1.0000 0.26583  0.20106  0.25409  Biso   1.000  O 
  O6       1.0000 0.28313  0.25873  0.50515  Biso   1.000  O 
  O7       1.0000 0.23887  0.76162  0.50566  Biso   1.000  O 
  O8       1.0000 0.25264  0.68455  0.26210  Biso   1.000  O 
  Hf5      1.0000 0.14462  0.02604  0.62724  Biso   1.000  Hf
  Hf6      1.0000 0.12824  0.47952  0.84745  Biso   1.000  Hf
  Hf7      1.0000 0.37721  0.53412  0.62715  Biso   1.000  Hf
  Hf8      1.0000 0.39192  0.99374  0.86484  Biso   1.000  Hf
  O9       1.0000 0.04219  0.36476  0.67044  Biso   1.000  O 
  O10      1.0000 0.04243  0.15150  0.92051  Biso   1.000  O 
  O11      1.0000 0.48118  0.86216  0.69258  Biso   1.000  O 
  O12      1.0000 0.48850  0.67346  0.94152  Biso   1.000  O 
  O13      1.0000 0.27511  0.23756  0.75083  Biso   1.000  O 
  O14      1.0000 0.26493  0.40902  0.99462  Biso   1.000  O 
  O15      1.0000 0.25773  0.87258  0.01547  Biso   1.000  O 
  O16      1.0000 0.24808  0.74282  0.75397  Biso   1.000  O 
  Hf9      1.0000 0.63722  0.03295  0.12907  Biso   1.000  Hf
  Hf10     1.0000 0.63792  0.46839  0.37558  Biso   1.000  Hf
  Hf11     1.0000 0.85123  0.53199  0.12276  Biso   1.000  Hf
  Hf12     1.0000 0.87797  0.97279  0.37127  Biso   1.000  Hf
  O17      1.0000 0.53905  0.36064  0.20344  Biso   1.000  O 
  O18      1.0000 0.54053  0.13587  0.44834  Biso   1.000  O 
  O19      1.0000 0.97077  0.88168  0.19216  Biso   1.000  O 
  O20      1.0000 0.97456  0.64579  0.44822  Biso   1.000  O 
  O21      1.0000 0.76812  0.22652  0.24876  Biso   1.000  O 
  O22      1.0000 0.77640  0.27665  0.49543  Biso   1.000  O 
  O23      1.0000 0.74156  0.77778  0.49800  Biso   1.000  O 
  O24      1.0000 0.73358  0.73657  0.25246  Biso   1.000  O 
  Hf13     1.0000 0.64491  0.03893  0.61853  Biso   1.000  Hf
  Hf14     1.0000 0.64651  0.48105  0.87220  Biso   1.000  Hf
  Hf15     1.0000 0.87258  0.54382  0.61734  Biso   1.000  Hf
  Hf16     1.0000 0.87085  0.98092  0.87008  Biso   1.000  Hf
  O25      1.0000 0.53890  0.35654  0.70565  Biso   1.000  O 
  O26      1.0000 0.53942  0.17865  0.96012  Biso   1.000  O 
  O27      1.0000 0.97912  0.85474  0.70164  Biso   1.000  O 
  O28      1.0000 0.97781  0.66968  0.95168  Biso   1.000  O 
  O29      1.0000 0.77886  0.24156  0.74375  Biso   1.000  O 
  O30      1.0000 0.78303  0.28682  0.99444  Biso   1.000  O 
  O31      1.0000 0.73728  0.79158  0.99822  Biso   1.000  O 
  O32      1.0000 0.74086  0.74223  0.74716  Biso   1.000  O 
  Ta1      1.0000 0.11459  0.63451  0.10466  Biso   1.000  Ta
