data_image0
_cell_length_a       10.073
_cell_length_b       5.17443
_cell_length_c       10.5174
_cell_angle_alpha    90
_cell_angle_beta     90
_cell_angle_gamma    90

_symmetry_space_group_name_H-M    "P 1"
_symmetry_int_tables_number       1

loop_
  _symmetry_equiv_pos_as_xyz
  'x, y, z'

loop_
  _atom_site_label
  _atom_site_occupancy
  _atom_site_fract_x
  _atom_site_fract_y
  _atom_site_fract_z
  _atom_site_thermal_displace_type
  _atom_site_B_iso_or_equiv
  _atom_site_type_symbol
  Hf1      1.0000 0.13791  0.03750  0.17057  Biso   1.000  Hf
  Hf2      1.0000 0.12956  0.45943  0.42101  Biso   1.000  Hf
  Hf3      1.0000 0.35429  0.53771  0.17639  Biso   1.000  Hf
  Hf4      1.0000 0.35233  0.96074  0.42512  Biso   1.000  Hf
  Hf5      1.0000 0.64044  0.06999  0.06899  Biso   1.000  Hf
  Hf6      1.0000 0.62590  0.46185  0.34392  Biso   1.000  Hf
  Hf7      1.0000 0.87827  0.54306  0.06873  Biso   1.000  Hf
  Hf8      1.0000 0.85711  0.95798  0.33392  Biso   1.000  Hf
  O1       1.0000 0.03936  0.32068  0.07588  Biso   1.000  O 
  O2       1.0000 0.02274  0.18294  0.32573  Biso   1.000  O 
  O3       1.0000 0.46387  0.82882  0.07936  Biso   1.000  O 
  O4       1.0000 0.45323  0.66507  0.34282  Biso   1.000  O 
  O5       1.0000 0.26488  0.24814  0.29679  Biso   1.000  O 
  O6       1.0000 0.27983  0.24285  0.04297  Biso   1.000  O 
  O7       1.0000 0.21494  0.74921  0.29515  Biso   1.000  O 
  O8       1.0000 0.22181  0.74592  0.04374  Biso   1.000  O 
  O9       1.0000 0.50947  0.27661  0.18871  Biso   1.000  O 
  O10      1.0000 0.52387  0.16935  0.42808  Biso   1.000  O 
  O11      1.0000 0.96261  0.83251  0.16817  Biso   1.000  O 
  O12      1.0000 0.95786  0.67432  0.41809  Biso   1.000  O 
  O13      1.0000 0.77036  0.24195  0.45544  Biso   1.000  O 
  O14      1.0000 0.75843  0.32058  0.19546  Biso   1.000  O 
  O15      1.0000 0.71589  0.74351  0.46542  Biso   1.000  O 
  O16      1.0000 0.71127  0.81953  0.21911  Biso   1.000  O 
  Hf9      1.0000 0.12994  0.04147  0.66820  Biso   1.000  Hf
  Hf10     1.0000 0.13379  0.45404  0.91679  Biso   1.000  Hf
  Hf11     1.0000 0.35496  0.53999  0.67067  Biso   1.000  Hf
  Hf12     1.0000 0.34605  0.95391  0.91663  Biso   1.000  Hf
  Hf13     1.0000 0.63102  0.04083  0.58412  Biso   1.000  Hf
  Hf14     1.0000 0.62800  0.45641  0.83337  Biso   1.000  Hf
  Hf15     1.0000 0.85227  0.53959  0.58246  Biso   1.000  Hf
  Hf16     1.0000 0.85434  0.96014  0.82652  Biso   1.000  Hf
  O17      1.0000 0.02394  0.32808  0.57968  Biso   1.000  O 
  O18      1.0000 0.02680  0.17005  0.82839  Biso   1.000  O 
  O19      1.0000 0.45662  0.83585  0.58927  Biso   1.000  O 
  O20      1.0000 0.45320  0.65793  0.83608  Biso   1.000  O 
  O21      1.0000 0.26777  0.24517  0.79185  Biso   1.000  O 
  O22      1.0000 0.26604  0.25359  0.54432  Biso   1.000  O 
  O23      1.0000 0.21417  0.74592  0.79153  Biso   1.000  O 
  O24      1.0000 0.21544  0.75209  0.54375  Biso   1.000  O 
  O25      1.0000 0.52646  0.33663  0.66699  Biso   1.000  O 
  O26      1.0000 0.52300  0.14272  0.90207  Biso   1.000  O 
  O27      1.0000 0.95826  0.83174  0.66271  Biso   1.000  O 
  O28      1.0000 0.96330  0.67086  0.90915  Biso   1.000  O 
  O29      1.0000 0.77875  0.24384  0.94660  Biso   1.000  O 
  O30      1.0000 0.76843  0.24959  0.70391  Biso   1.000  O 
  O31      1.0000 0.71752  0.75792  0.96174  Biso   1.000  O 
  O32      1.0000 0.71619  0.74900  0.71192  Biso   1.000  O 
  Tc1      1.0000 0.61152  0.56030  0.10458  Biso   1.000  Tc
