data_image0
_cell_length_a       9.93886
_cell_length_b       10.3336
_cell_length_c       4.98494
_cell_angle_alpha    90
_cell_angle_beta     90
_cell_angle_gamma    90

_symmetry_space_group_name_H-M    "P 1"
_symmetry_int_tables_number       1

loop_
  _symmetry_equiv_pos_as_xyz
  'x, y, z'

loop_
  _atom_site_label
  _atom_site_occupancy
  _atom_site_fract_x
  _atom_site_fract_y
  _atom_site_fract_z
  _atom_site_thermal_displace_type
  _atom_site_B_iso_or_equiv
  _atom_site_type_symbol
  Tc1      1.0000 0.13641  0.02181  0.25053  Biso   1.000  Tc
  Hf1      1.0000 0.13437  0.23322  0.75558  Biso   1.000  Hf
  Hf2      1.0000 0.36604  0.26752  0.25085  Biso   1.000  Hf
  Hf3      1.0000 0.36611  0.48568  0.75181  Biso   1.000  Hf
  O1       1.0000 0.03297  0.17747  0.40920  Biso   1.000  O 
  O2       1.0000 0.03671  0.06760  0.92587  Biso   1.000  O 
  O3       1.0000 0.46266  0.43592  0.38544  Biso   1.000  O 
  O4       1.0000 0.46220  0.31631  0.88511  Biso   1.000  O 
  O5       1.0000 0.26880  0.11774  0.49168  Biso   1.000  O 
  O6       1.0000 0.27197  0.13039  0.99889  Biso   1.000  O 
  O7       1.0000 0.22855  0.38162  0.00074  Biso   1.000  O 
  O8       1.0000 0.22937  0.36786  0.50195  Biso   1.000  O 
  Hf4      1.0000 0.13400  0.51675  0.25282  Biso   1.000  Hf
  Hf5      1.0000 0.13333  0.73589  0.75174  Biso   1.000  Hf
  Hf6      1.0000 0.36364  0.76895  0.25270  Biso   1.000  Hf
  Hf7      1.0000 0.36307  0.98363  0.75260  Biso   1.000  Hf
  O9       1.0000 0.03641  0.68354  0.38701  Biso   1.000  O 
  O10      1.0000 0.03644  0.56700  0.88888  Biso   1.000  O 
  O11      1.0000 0.46380  0.93448  0.39012  Biso   1.000  O 
  O12      1.0000 0.46122  0.81681  0.88652  Biso   1.000  O 
  O13      1.0000 0.27077  0.62033  0.49991  Biso   1.000  O 
  O14      1.0000 0.27109  0.63404  0.99940  Biso   1.000  O 
  O15      1.0000 0.22324  0.88320  0.00588  Biso   1.000  O 
  O16      1.0000 0.22656  0.87256  0.49895  Biso   1.000  O 
  Hf8      1.0000 0.63388  0.01627  0.24823  Biso   1.000  Hf
  Hf9      1.0000 0.63372  0.23418  0.75105  Biso   1.000  Hf
  Hf10     1.0000 0.86601  0.26472  0.25352  Biso   1.000  Hf
  Hf11     1.0000 0.86586  0.48457  0.75214  Biso   1.000  Hf
  O17      1.0000 0.53605  0.18528  0.38602  Biso   1.000  O 
  O18      1.0000 0.53591  0.06676  0.88634  Biso   1.000  O 
  O19      1.0000 0.96488  0.43179  0.39076  Biso   1.000  O 
  O20      1.0000 0.96504  0.31635  0.89277  Biso   1.000  O 
  O21      1.0000 0.76876  0.11781  0.49775  Biso   1.000  O 
  O22      1.0000 0.77173  0.13413  0.99635  Biso   1.000  O 
  O23      1.0000 0.72883  0.38173  0.00009  Biso   1.000  O 
  O24      1.0000 0.72963  0.36830  0.49917  Biso   1.000  O 
  Hf12     1.0000 0.63429  0.51788  0.25123  Biso   1.000  Hf
  Hf13     1.0000 0.63444  0.73598  0.74859  Biso   1.000  Hf
  Hf14     1.0000 0.86845  0.76837  0.24776  Biso   1.000  Hf
  Hf15     1.0000 0.87010  0.98645  0.74633  Biso   1.000  Hf
  O25      1.0000 0.53651  0.68630  0.38536  Biso   1.000  O 
  O26      1.0000 0.53773  0.56704  0.88453  Biso   1.000  O 
  O27      1.0000 0.97055  0.93449  0.38472  Biso   1.000  O 
  O28      1.0000 0.96207  0.81700  0.88085  Biso   1.000  O 
  O29      1.0000 0.77122  0.61878  0.49850  Biso   1.000  O 
  O30      1.0000 0.77112  0.63459  0.99819  Biso   1.000  O 
  O31      1.0000 0.72988  0.88554  0.99243  Biso   1.000  O 
  O32      1.0000 0.73335  0.86951  0.49454  Biso   1.000  O 
