data_image0
_cell_length_a       10.1528
_cell_length_b       10.2656
_cell_length_c       10.5346
_cell_angle_alpha    90
_cell_angle_beta     80
_cell_angle_gamma    90

_symmetry_space_group_name_H-M    "P 1"
_symmetry_int_tables_number       1

loop_
  _symmetry_equiv_pos_as_xyz
  'x, y, z'

loop_
  _atom_site_label
  _atom_site_occupancy
  _atom_site_fract_x
  _atom_site_fract_y
  _atom_site_fract_z
  _atom_site_thermal_displace_type
  _atom_site_B_iso_or_equiv
  _atom_site_type_symbol
  Hf1      1.0000 0.13606  0.02210  0.14538  Biso   1.000  Hf
  Hf2      1.0000 0.13668  0.23375  0.39619  Biso   1.000  Hf
  Hf3      1.0000 0.35727  0.26858  0.09341  Biso   1.000  Hf
  Hf4      1.0000 0.35191  0.48766  0.35717  Biso   1.000  Hf
  O1       1.0000 0.03374  0.16706  0.07585  Biso   1.000  O 
  O2       1.0000 0.03412  0.08657  0.32589  Biso   1.000  O 
  O3       1.0000 0.47221  0.39000  0.19246  Biso   1.000  O 
  O4       1.0000 0.48420  0.36629  0.44048  Biso   1.000  O 
  O5       1.0000 0.27873  0.12407  0.23435  Biso   1.000  O 
  O6       1.0000 0.28566  0.12361  0.48038  Biso   1.000  O 
  O7       1.0000 0.22069  0.38021  0.00522  Biso   1.000  O 
  O8       1.0000 0.21641  0.37565  0.25328  Biso   1.000  O 
  Hf5      1.0000 0.13776  0.02367  0.64601  Biso   1.000  Hf
  Hf6      1.0000 0.13535  0.23239  0.89238  Biso   1.000  Hf
  Hf7      1.0000 0.36043  0.27960  0.60252  Biso   1.000  Hf
  Hf8      1.0000 0.35824  0.48313  0.85414  Biso   1.000  Hf
  O9       1.0000 0.03754  0.16939  0.57749  Biso   1.000  O 
  O10      1.0000 0.03250  0.08628  0.82635  Biso   1.000  O 
  O11      1.0000 0.46623  0.41539  0.68120  Biso   1.000  O 
  O12      1.0000 0.46980  0.34632  0.92726  Biso   1.000  O 
  O13      1.0000 0.27419  0.13231  0.73648  Biso   1.000  O 
  O14      1.0000 0.27266  0.12559  0.98461  Biso   1.000  O 
  O15      1.0000 0.21695  0.38685  0.51513  Biso   1.000  O 
  O16      1.0000 0.22209  0.37566  0.75920  Biso   1.000  O 
  Hf9      1.0000 0.13673  0.52213  0.14437  Biso   1.000  Hf
  Hf10     1.0000 0.13157  0.73078  0.39715  Biso   1.000  Hf
  Hf11     1.0000 0.35753  0.77108  0.10299  Biso   1.000  Hf
  Hf12     1.0000 0.35759  0.96865  0.35383  Biso   1.000  Hf
  O17      1.0000 0.03030  0.66826  0.07832  Biso   1.000  O 
  O18      1.0000 0.03137  0.58746  0.32598  Biso   1.000  O 
  O19      1.0000 0.46490  0.91011  0.17520  Biso   1.000  O 
  O20      1.0000 0.46175  0.83101  0.42581  Biso   1.000  O 
  O21      1.0000 0.27337  0.62926  0.24051  Biso   1.000  O 
  O22      1.0000 0.26855  0.62780  0.49360  Biso   1.000  O 
  O23      1.0000 0.22076  0.87938  0.01013  Biso   1.000  O 
  O24      1.0000 0.21842  0.86905  0.25899  Biso   1.000  O 
  Hf13     1.0000 0.13381  0.52735  0.64860  Biso   1.000  Hf
  Hf14     1.0000 0.13403  0.73313  0.89743  Biso   1.000  Hf
  Hf15     1.0000 0.35825  0.77305  0.60600  Biso   1.000  Hf
  Hf16     1.0000 0.35771  0.98221  0.85254  Biso   1.000  Hf
  O25      1.0000 0.02691  0.66884  0.57808  Biso   1.000  O 
  O26      1.0000 0.02962  0.58857  0.83023  Biso   1.000  O 
  O27      1.0000 0.46287  0.91745  0.67314  Biso   1.000  O 
  O28      1.0000 0.46355  0.84062  0.92462  Biso   1.000  O 
  O29      1.0000 0.27247  0.63231  0.74200  Biso   1.000  O 
  O30      1.0000 0.27201  0.62662  0.99040  Biso   1.000  O 
  O31      1.0000 0.21957  0.88124  0.51108  Biso   1.000  O 
  O32      1.0000 0.21977  0.87486  0.76056  Biso   1.000  O 
  Hf17     1.0000 0.63934  0.02099  0.14554  Biso   1.000  Hf
  Hf18     1.0000 0.64332  0.23425  0.40118  Biso   1.000  Hf
  Hf19     1.0000 0.86068  0.27269  0.10519  Biso   1.000  Hf
  Hf20     1.0000 0.86047  0.48085  0.35512  Biso   1.000  Hf
  O33      1.0000 0.52921  0.15440  0.06798  Biso   1.000  O 
  O34      1.0000 0.54156  0.07190  0.33508  Biso   1.000  O 
  O35      1.0000 0.96413  0.41797  0.17201  Biso   1.000  O 
  O36      1.0000 0.96575  0.33945  0.42513  Biso   1.000  O 
  O37      1.0000 0.77597  0.13023  0.23926  Biso   1.000  O 
  O38      1.0000 0.77953  0.12277  0.49227  Biso   1.000  O 
  O39      1.0000 0.72160  0.37738  0.01274  Biso   1.000  O 
  O40      1.0000 0.72621  0.37415  0.26221  Biso   1.000  O 
  Hf21     1.0000 0.63761  0.02593  0.64486  Biso   1.000  Hf
  Hf22     1.0000 0.63826  0.23071  0.89608  Biso   1.000  Hf
  Hf23     1.0000 0.86233  0.27491  0.60688  Biso   1.000  Hf
  Hf24     1.0000 0.85724  0.48218  0.85664  Biso   1.000  Hf
  O41      1.0000 0.53301  0.16986  0.57744  Biso   1.000  O 
  O42      1.0000 0.53119  0.09149  0.82295  Biso   1.000  O 
  O43      1.0000 0.96331  0.41961  0.67590  Biso   1.000  O 
  O44      1.0000 0.96260  0.33728  0.92210  Biso   1.000  O 
  O45      1.0000 0.77546  0.13171  0.74082  Biso   1.000  O 
  O46      1.0000 0.77554  0.12507  0.99018  Biso   1.000  O 
  O47      1.0000 0.72764  0.38095  0.51430  Biso   1.000  O 
  O48      1.0000 0.72256  0.37483  0.76222  Biso   1.000  O 
  Hf25     1.0000 0.63524  0.52007  0.14935  Biso   1.000  Hf
  Hf26     1.0000 0.63552  0.72845  0.39591  Biso   1.000  Hf
  Hf27     1.0000 0.85746  0.77159  0.10481  Biso   1.000  Hf
  Hf28     1.0000 0.85641  0.98143  0.35416  Biso   1.000  Hf
  O49      1.0000 0.52541  0.65544  0.07339  Biso   1.000  O 
  O50      1.0000 0.52696  0.59258  0.32105  Biso   1.000  O 
  O51      1.0000 0.96144  0.91747  0.17236  Biso   1.000  O 
  O52      1.0000 0.96106  0.83790  0.42368  Biso   1.000  O 
  O53      1.0000 0.77192  0.62810  0.23974  Biso   1.000  O 
  O54      1.0000 0.77263  0.62381  0.48990  Biso   1.000  O 
  O55      1.0000 0.71928  0.87812  0.01142  Biso   1.000  O 
  O56      1.0000 0.72146  0.87084  0.26043  Biso   1.000  O 
  Hf29     1.0000 0.63644  0.52384  0.64735  Biso   1.000  Hf
  Hf30     1.0000 0.63442  0.73088  0.89670  Biso   1.000  Hf
  Hf31     1.0000 0.85550  0.77559  0.60496  Biso   1.000  Hf
  Hf32     1.0000 0.85604  0.98147  0.85462  Biso   1.000  Hf
  O57      1.0000 0.52940  0.66410  0.57617  Biso   1.000  O 
  O58      1.0000 0.52937  0.59220  0.82453  Biso   1.000  O 
  O59      1.0000 0.96195  0.91879  0.67342  Biso   1.000  O 
  O60      1.0000 0.96103  0.83821  0.92328  Biso   1.000  O 
  O61      1.0000 0.77246  0.63212  0.74104  Biso   1.000  O 
  O62      1.0000 0.77108  0.62516  0.99182  Biso   1.000  O 
  O63      1.0000 0.71861  0.88098  0.51022  Biso   1.000  O 
  O64      1.0000 0.71925  0.87498  0.76081  Biso   1.000  O 
  Tc1      1.0000 0.40720  0.23516  0.32740  Biso   1.000  Tc
