data_image0
_cell_length_a       9.99226
_cell_length_b       5.09836
_cell_length_c       10.4446
_cell_angle_alpha    90
_cell_angle_beta     90
_cell_angle_gamma    90

_symmetry_space_group_name_H-M    "P 1"
_symmetry_int_tables_number       1

loop_
  _symmetry_equiv_pos_as_xyz
  'x, y, z'

loop_
  _atom_site_label
  _atom_site_occupancy
  _atom_site_fract_x
  _atom_site_fract_y
  _atom_site_fract_z
  _atom_site_thermal_displace_type
  _atom_site_B_iso_or_equiv
  _atom_site_type_symbol
  Tc1      1.0000 0.13978  0.04407  0.17583  Biso   1.000  Tc
  Hf1      1.0000 0.14043  0.46183  0.42049  Biso   1.000  Hf
  Hf2      1.0000 0.35787  0.54760  0.17189  Biso   1.000  Hf
  Hf3      1.0000 0.36175  0.96068  0.42127  Biso   1.000  Hf
  Hf4      1.0000 0.63832  0.04419  0.07807  Biso   1.000  Hf
  Hf5      1.0000 0.63884  0.45907  0.32736  Biso   1.000  Hf
  Hf6      1.0000 0.86603  0.54067  0.07902  Biso   1.000  Hf
  Hf7      1.0000 0.86286  0.96072  0.32684  Biso   1.000  Hf
  O1       1.0000 0.03436  0.32127  0.08406  Biso   1.000  O 
  O2       1.0000 0.03663  0.17484  0.32513  Biso   1.000  O 
  O3       1.0000 0.46814  0.82865  0.08354  Biso   1.000  O 
  O4       1.0000 0.46618  0.67036  0.33388  Biso   1.000  O 
  O5       1.0000 0.27696  0.24702  0.29499  Biso   1.000  O 
  O6       1.0000 0.27284  0.24480  0.05184  Biso   1.000  O 
  O7       1.0000 0.22168  0.75385  0.29420  Biso   1.000  O 
  O8       1.0000 0.22104  0.75260  0.04513  Biso   1.000  O 
  O9       1.0000 0.53248  0.33379  0.16636  Biso   1.000  O 
  O10      1.0000 0.53438  0.17071  0.41621  Biso   1.000  O 
  O11      1.0000 0.97797  0.83193  0.16602  Biso   1.000  O 
  O12      1.0000 0.96874  0.67453  0.41593  Biso   1.000  O 
  O13      1.0000 0.77890  0.24808  0.45337  Biso   1.000  O 
  O14      1.0000 0.77674  0.25238  0.20433  Biso   1.000  O 
  O15      1.0000 0.72447  0.74867  0.45436  Biso   1.000  O 
  O16      1.0000 0.72968  0.75333  0.20465  Biso   1.000  O 
  Hf8      1.0000 0.14047  0.04428  0.67203  Biso   1.000  Hf
  Hf9      1.0000 0.14116  0.45690  0.92390  Biso   1.000  Hf
  Hf10     1.0000 0.36313  0.54510  0.67223  Biso   1.000  Hf
  Hf11     1.0000 0.36228  0.95837  0.92348  Biso   1.000  Hf
  Hf12     1.0000 0.64012  0.04434  0.57852  Biso   1.000  Hf
  Hf13     1.0000 0.64117  0.46132  0.82938  Biso   1.000  Hf
  Hf14     1.0000 0.86236  0.54405  0.57769  Biso   1.000  Hf
  Hf15     1.0000 0.86356  0.95961  0.82869  Biso   1.000  Hf
  O17      1.0000 0.03245  0.32413  0.57797  Biso   1.000  O 
  O18      1.0000 0.03344  0.17579  0.83069  Biso   1.000  O 
  O19      1.0000 0.46819  0.83417  0.58424  Biso   1.000  O 
  O20      1.0000 0.46886  0.67220  0.83456  Biso   1.000  O 
  O21      1.0000 0.27894  0.24951  0.79749  Biso   1.000  O 
  O22      1.0000 0.27827  0.25579  0.54563  Biso   1.000  O 
  O23      1.0000 0.22535  0.74949  0.79510  Biso   1.000  O 
  O24      1.0000 0.22473  0.75376  0.54452  Biso   1.000  O 
  O25      1.0000 0.53517  0.33395  0.66668  Biso   1.000  O 
  O26      1.0000 0.53408  0.17391  0.91746  Biso   1.000  O 
  O27      1.0000 0.97014  0.82694  0.66750  Biso   1.000  O 
  O28      1.0000 0.97054  0.67145  0.91773  Biso   1.000  O 
  O29      1.0000 0.77933  0.25253  0.95509  Biso   1.000  O 
  O30      1.0000 0.77855  0.25424  0.70464  Biso   1.000  O 
  O31      1.0000 0.72659  0.75146  0.95518  Biso   1.000  O 
  O32      1.0000 0.72529  0.75511  0.70483  Biso   1.000  O 
