data_image0
_cell_length_a       10.0568
_cell_length_b       10.2656
_cell_length_c       10.4953
_cell_angle_alpha    90
_cell_angle_beta     90
_cell_angle_gamma    90

_symmetry_space_group_name_H-M    "P 1"
_symmetry_int_tables_number       1

loop_
  _symmetry_equiv_pos_as_xyz
  'x, y, z'

loop_
  _atom_site_label
  _atom_site_occupancy
  _atom_site_fract_x
  _atom_site_fract_y
  _atom_site_fract_z
  _atom_site_thermal_displace_type
  _atom_site_B_iso_or_equiv
  _atom_site_type_symbol
  Hf1      1.0000 0.13881  0.02100  0.17161  Biso   1.000  Hf
  Hf2      1.0000 0.13333  0.23190  0.42236  Biso   1.000  Hf
  Hf3      1.0000 0.35717  0.26803  0.17654  Biso   1.000  Hf
  Hf4      1.0000 0.35768  0.48240  0.42319  Biso   1.000  Hf
  Hf5      1.0000 0.63641  0.01387  0.06918  Biso   1.000  Hf
  Hf6      1.0000 0.62979  0.23136  0.33991  Biso   1.000  Hf
  Hf7      1.0000 0.87571  0.27169  0.07268  Biso   1.000  Hf
  Hf8      1.0000 0.86065  0.48282  0.33128  Biso   1.000  Hf
  O1       1.0000 0.03892  0.16323  0.07844  Biso   1.000  O 
  O2       1.0000 0.02417  0.09287  0.32737  Biso   1.000  O 
  O3       1.0000 0.46889  0.41891  0.08506  Biso   1.000  O 
  O4       1.0000 0.45841  0.33396  0.34090  Biso   1.000  O 
  O5       1.0000 0.26710  0.12545  0.29815  Biso   1.000  O 
  O6       1.0000 0.27820  0.12249  0.04376  Biso   1.000  O 
  O7       1.0000 0.21933  0.37645  0.29606  Biso   1.000  O 
  O8       1.0000 0.22569  0.37543  0.04384  Biso   1.000  O 
  O9       1.0000 0.50878  0.13155  0.18887  Biso   1.000  O 
  O10      1.0000 0.52571  0.08950  0.42926  Biso   1.000  O 
  O11      1.0000 0.96772  0.41595  0.16883  Biso   1.000  O 
  O12      1.0000 0.96321  0.33953  0.41948  Biso   1.000  O 
  O13      1.0000 0.77378  0.12428  0.45360  Biso   1.000  O 
  O14      1.0000 0.75587  0.14372  0.19228  Biso   1.000  O 
  O15      1.0000 0.72052  0.37537  0.46170  Biso   1.000  O 
  O16      1.0000 0.71942  0.39471  0.21448  Biso   1.000  O 
  Hf9      1.0000 0.13469  0.02404  0.67021  Biso   1.000  Hf
  Hf10     1.0000 0.13863  0.23099  0.91822  Biso   1.000  Hf
  Hf11     1.0000 0.35940  0.27380  0.67172  Biso   1.000  Hf
  Hf12     1.0000 0.35512  0.48285  0.91977  Biso   1.000  Hf
  Hf13     1.0000 0.63432  0.02376  0.58181  Biso   1.000  Hf
  Hf14     1.0000 0.63408  0.22848  0.83366  Biso   1.000  Hf
  Hf15     1.0000 0.85677  0.27318  0.58136  Biso   1.000  Hf
  Hf16     1.0000 0.85696  0.48342  0.82856  Biso   1.000  Hf
  O17      1.0000 0.02799  0.16672  0.58177  Biso   1.000  O 
  O18      1.0000 0.03130  0.08795  0.83054  Biso   1.000  O 
  O19      1.0000 0.46329  0.41953  0.58544  Biso   1.000  O 
  O20      1.0000 0.46254  0.33859  0.83526  Biso   1.000  O 
  O21      1.0000 0.27311  0.12646  0.79361  Biso   1.000  O 
  O22      1.0000 0.27128  0.12908  0.54562  Biso   1.000  O 
  O23      1.0000 0.22025  0.37683  0.79365  Biso   1.000  O 
  O24      1.0000 0.21997  0.37899  0.54532  Biso   1.000  O 
  O25      1.0000 0.52932  0.16844  0.66961  Biso   1.000  O 
  O26      1.0000 0.52742  0.07339  0.90452  Biso   1.000  O 
  O27      1.0000 0.96214  0.41854  0.66680  Biso   1.000  O 
  O28      1.0000 0.96615  0.33941  0.91256  Biso   1.000  O 
  O29      1.0000 0.78372  0.12177  0.94734  Biso   1.000  O 
  O30      1.0000 0.77247  0.12785  0.70278  Biso   1.000  O 
  O31      1.0000 0.72002  0.38133  0.96317  Biso   1.000  O 
  O32      1.0000 0.72004  0.37857  0.71094  Biso   1.000  O 
  Hf17     1.0000 0.13981  0.52132  0.17159  Biso   1.000  Hf
  Hf18     1.0000 0.13561  0.73152  0.42096  Biso   1.000  Hf
  Hf19     1.0000 0.35925  0.77240  0.17256  Biso   1.000  Hf
  Hf20     1.0000 0.35948  0.98111  0.42398  Biso   1.000  Hf
  Hf21     1.0000 0.64327  0.53668  0.07932  Biso   1.000  Hf
  Hf22     1.0000 0.63727  0.73326  0.33011  Biso   1.000  Hf
  Hf23     1.0000 0.86595  0.77447  0.07855  Biso   1.000  Hf
  Hf24     1.0000 0.85942  0.98137  0.32800  Biso   1.000  Hf
  O33      1.0000 0.03460  0.66468  0.08223  Biso   1.000  O 
  O34      1.0000 0.03145  0.58898  0.33133  Biso   1.000  O 
  O35      1.0000 0.46717  0.90627  0.07662  Biso   1.000  O 
  O36      1.0000 0.46591  0.84001  0.33245  Biso   1.000  O 
  O37      1.0000 0.27416  0.62596  0.29566  Biso   1.000  O 
  O38      1.0000 0.27863  0.62444  0.04535  Biso   1.000  O 
  O39      1.0000 0.22194  0.87552  0.29560  Biso   1.000  O 
  O40      1.0000 0.22239  0.87412  0.04600  Biso   1.000  O 
  O41      1.0000 0.53188  0.66848  0.17016  Biso   1.000  O 
  O42      1.0000 0.53050  0.58803  0.41784  Biso   1.000  O 
  O43      1.0000 0.96666  0.91953  0.16613  Biso   1.000  O 
  O44      1.0000 0.96352  0.83994  0.41507  Biso   1.000  O 
  O45      1.0000 0.77356  0.62630  0.45511  Biso   1.000  O 
  O46      1.0000 0.77899  0.63636  0.20561  Biso   1.000  O 
  O47      1.0000 0.72085  0.87663  0.45594  Biso   1.000  O 
  O48      1.0000 0.72527  0.88124  0.20581  Biso   1.000  O 
  Hf25     1.0000 0.13383  0.52355  0.67045  Biso   1.000  Hf
  Hf26     1.0000 0.13354  0.73158  0.92122  Biso   1.000  Hf
  Hf27     1.0000 0.35761  0.77258  0.67111  Biso   1.000  Hf
  Hf28     1.0000 0.35416  0.97836  0.91947  Biso   1.000  Hf
  Hf29     1.0000 0.63555  0.52315  0.57968  Biso   1.000  Hf
  Hf30     1.0000 0.63409  0.73261  0.82614  Biso   1.000  Hf
  Hf31     1.0000 0.85799  0.77439  0.57820  Biso   1.000  Hf
  Hf32     1.0000 0.86037  0.98166  0.82655  Biso   1.000  Hf
  O49      1.0000 0.02872  0.66746  0.58074  Biso   1.000  O 
  O50      1.0000 0.02779  0.58912  0.83117  Biso   1.000  O 
  O51      1.0000 0.46419  0.91572  0.58489  Biso   1.000  O 
  O52      1.0000 0.46080  0.83346  0.83157  Biso   1.000  O 
  O53      1.0000 0.27106  0.62557  0.79449  Biso   1.000  O 
  O54      1.0000 0.27132  0.62871  0.54485  Biso   1.000  O 
  O55      1.0000 0.21893  0.87541  0.79408  Biso   1.000  O 
  O56      1.0000 0.22123  0.87853  0.54423  Biso   1.000  O 
  O57      1.0000 0.52911  0.66705  0.66623  Biso   1.000  O 
  O58      1.0000 0.52760  0.59045  0.91734  Biso   1.000  O 
  O59      1.0000 0.96567  0.91725  0.66370  Biso   1.000  O 
  O60      1.0000 0.96481  0.83931  0.91672  Biso   1.000  O 
  O61      1.0000 0.77286  0.63049  0.95358  Biso   1.000  O 
  O62      1.0000 0.77285  0.62873  0.70414  Biso   1.000  O 
  O63      1.0000 0.72055  0.87475  0.95334  Biso   1.000  O 
  O64      1.0000 0.72168  0.87766  0.70497  Biso   1.000  O 
  Tc1      1.0000 0.60969  0.27092  0.09944  Biso   1.000  Tc
