data_image0
_cell_length_a       10.0958
_cell_length_b       10.2644
_cell_length_c       10.4292
_cell_angle_alpha    90
_cell_angle_beta     80
_cell_angle_gamma    90

_symmetry_space_group_name_H-M    "P 1"
_symmetry_int_tables_number       1

loop_
  _symmetry_equiv_pos_as_xyz
  'x, y, z'

loop_
  _atom_site_label
  _atom_site_occupancy
  _atom_site_fract_x
  _atom_site_fract_y
  _atom_site_fract_z
  _atom_site_thermal_displace_type
  _atom_site_B_iso_or_equiv
  _atom_site_type_symbol
  Tc1      1.0000 0.13965  0.02283  0.15026  Biso   1.000  Tc
  Hf1      1.0000 0.13852  0.22986  0.39533  Biso   1.000  Hf
  Hf2      1.0000 0.35973  0.27104  0.10519  Biso   1.000  Hf
  Hf3      1.0000 0.36042  0.47965  0.35439  Biso   1.000  Hf
  O1       1.0000 0.03658  0.16607  0.08088  Biso   1.000  O 
  O2       1.0000 0.03877  0.08177  0.32153  Biso   1.000  O 
  O3       1.0000 0.46303  0.42045  0.16903  Biso   1.000  O 
  O4       1.0000 0.46186  0.33043  0.41976  Biso   1.000  O 
  O5       1.0000 0.27681  0.12763  0.24138  Biso   1.000  O 
  O6       1.0000 0.27527  0.12168  0.49168  Biso   1.000  O 
  O7       1.0000 0.22301  0.37880  0.01003  Biso   1.000  O 
  O8       1.0000 0.22278  0.37144  0.25973  Biso   1.000  O 
  Hf4      1.0000 0.13606  0.02181  0.64626  Biso   1.000  Hf
  Hf5      1.0000 0.13396  0.22723  0.89868  Biso   1.000  Hf
  Hf6      1.0000 0.35841  0.27209  0.60546  Biso   1.000  Hf
  Hf7      1.0000 0.35663  0.47925  0.85516  Biso   1.000  Hf
  O9       1.0000 0.03226  0.16714  0.57688  Biso   1.000  O 
  O10      1.0000 0.03101  0.08227  0.82885  Biso   1.000  O 
  O11      1.0000 0.46079  0.42109  0.66971  Biso   1.000  O 
  O12      1.0000 0.45769  0.32864  0.91958  Biso   1.000  O 
  O13      1.0000 0.27373  0.12959  0.74353  Biso   1.000  O 
  O14      1.0000 0.26848  0.11783  0.99894  Biso   1.000  O 
  O15      1.0000 0.22087  0.37930  0.50972  Biso   1.000  O 
  O16      1.0000 0.21958  0.37100  0.76047  Biso   1.000  O 
  Hf8      1.0000 0.13887  0.52186  0.14599  Biso   1.000  Hf
  Hf9      1.0000 0.13727  0.72955  0.39575  Biso   1.000  Hf
  Hf10     1.0000 0.35823  0.77498  0.10445  Biso   1.000  Hf
  Hf11     1.0000 0.35941  0.97888  0.35368  Biso   1.000  Hf
  O17      1.0000 0.03581  0.66865  0.08011  Biso   1.000  O 
  O18      1.0000 0.03471  0.58095  0.33077  Biso   1.000  O 
  O19      1.0000 0.46480  0.91924  0.17045  Biso   1.000  O 
  O20      1.0000 0.46298  0.83024  0.41910  Biso   1.000  O 
  O21      1.0000 0.27581  0.63121  0.24116  Biso   1.000  O 
  O22      1.0000 0.27495  0.62138  0.49108  Biso   1.000  O 
  O23      1.0000 0.21904  0.88140  0.00989  Biso   1.000  O 
  O24      1.0000 0.21962  0.87380  0.25785  Biso   1.000  O 
  Hf12     1.0000 0.13619  0.52192  0.64660  Biso   1.000  Hf
  Hf13     1.0000 0.13512  0.73006  0.89661  Biso   1.000  Hf
  Hf14     1.0000 0.35912  0.77189  0.60430  Biso   1.000  Hf
  Hf15     1.0000 0.35591  0.97910  0.85623  Biso   1.000  Hf
  O25      1.0000 0.03333  0.66984  0.58035  Biso   1.000  O 
  O26      1.0000 0.03235  0.58111  0.83112  Biso   1.000  O 
  O27      1.0000 0.46068  0.92060  0.67022  Biso   1.000  O 
  O28      1.0000 0.45840  0.83086  0.92015  Biso   1.000  O 
  O29      1.0000 0.27380  0.62980  0.74122  Biso   1.000  O 
  O30      1.0000 0.27252  0.62252  0.99147  Biso   1.000  O 
  O31      1.0000 0.22159  0.87950  0.50898  Biso   1.000  O 
  O32      1.0000 0.22000  0.87151  0.75942  Biso   1.000  O 
  Hf16     1.0000 0.63820  0.02206  0.14580  Biso   1.000  Hf
  Hf17     1.0000 0.63722  0.22903  0.39597  Biso   1.000  Hf
  Hf18     1.0000 0.86271  0.27010  0.10459  Biso   1.000  Hf
  Hf19     1.0000 0.85963  0.47903  0.35385  Biso   1.000  Hf
  O33      1.0000 0.53579  0.17065  0.08165  Biso   1.000  O 
  O34      1.0000 0.53492  0.08022  0.33149  Biso   1.000  O 
  O35      1.0000 0.96401  0.41976  0.16949  Biso   1.000  O 
  O36      1.0000 0.96238  0.33016  0.41880  Biso   1.000  O 
  O37      1.0000 0.77595  0.12917  0.24072  Biso   1.000  O 
  O38      1.0000 0.77578  0.12077  0.48979  Biso   1.000  O 
  O39      1.0000 0.72358  0.37919  0.00938  Biso   1.000  O 
  O40      1.0000 0.72254  0.37087  0.25931  Biso   1.000  O 
  Hf20     1.0000 0.63538  0.02160  0.64654  Biso   1.000  Hf
  Hf21     1.0000 0.63454  0.22943  0.89669  Biso   1.000  Hf
  Hf22     1.0000 0.85830  0.27173  0.60405  Biso   1.000  Hf
  Hf23     1.0000 0.85739  0.47913  0.85530  Biso   1.000  Hf
  O41      1.0000 0.53427  0.17117  0.58186  Biso   1.000  O 
  O42      1.0000 0.53151  0.08022  0.83261  Biso   1.000  O 
  O43      1.0000 0.96161  0.41879  0.67035  Biso   1.000  O 
  O44      1.0000 0.96077  0.33059  0.92114  Biso   1.000  O 
  O45      1.0000 0.77273  0.12973  0.74078  Biso   1.000  O 
  O46      1.0000 0.77195  0.12199  0.99098  Biso   1.000  O 
  O47      1.0000 0.72132  0.37957  0.50976  Biso   1.000  O 
  O48      1.0000 0.71984  0.37151  0.76008  Biso   1.000  O 
  Hf24     1.0000 0.63848  0.52231  0.14554  Biso   1.000  Hf
  Hf25     1.0000 0.63834  0.72936  0.39594  Biso   1.000  Hf
  Hf26     1.0000 0.86345  0.77298  0.10353  Biso   1.000  Hf
  Hf27     1.0000 0.86113  0.97970  0.35241  Biso   1.000  Hf
  O49      1.0000 0.53456  0.67056  0.08126  Biso   1.000  O 
  O50      1.0000 0.53577  0.58012  0.33149  Biso   1.000  O 
  O51      1.0000 0.97178  0.92096  0.16671  Biso   1.000  O 
  O52      1.0000 0.96320  0.83275  0.41958  Biso   1.000  O 
  O53      1.0000 0.77634  0.63020  0.24044  Biso   1.000  O 
  O54      1.0000 0.77530  0.62143  0.49094  Biso   1.000  O 
  O55      1.0000 0.72314  0.87937  0.00959  Biso   1.000  O 
  O56      1.0000 0.72718  0.87229  0.25880  Biso   1.000  O 
  Hf28     1.0000 0.63637  0.52199  0.64670  Biso   1.000  Hf
  Hf29     1.0000 0.63432  0.72923  0.89764  Biso   1.000  Hf
  Hf30     1.0000 0.85834  0.77211  0.60462  Biso   1.000  Hf
  Hf31     1.0000 0.85707  0.97949  0.85454  Biso   1.000  Hf
  O57      1.0000 0.53459  0.67089  0.58126  Biso   1.000  O 
  O58      1.0000 0.53257  0.58008  0.83211  Biso   1.000  O 
  O59      1.0000 0.96156  0.91974  0.66976  Biso   1.000  O 
  O60      1.0000 0.95971  0.83100  0.91931  Biso   1.000  O 
  O61      1.0000 0.77371  0.62969  0.74166  Biso   1.000  O 
  O62      1.0000 0.77293  0.62248  0.99175  Biso   1.000  O 
  O63      1.0000 0.72149  0.87988  0.50918  Biso   1.000  O 
  O64      1.0000 0.71966  0.87140  0.76001  Biso   1.000  O 
