data_image0
_cell_length_a       10.0853
_cell_length_b       5.12419
_cell_length_c       10.4222
_cell_angle_alpha    90
_cell_angle_beta     80
_cell_angle_gamma    90

_symmetry_space_group_name_H-M    "P 1"
_symmetry_int_tables_number       1

loop_
  _symmetry_equiv_pos_as_xyz
  'x, y, z'

loop_
  _atom_site_label
  _atom_site_occupancy
  _atom_site_fract_x
  _atom_site_fract_y
  _atom_site_fract_z
  _atom_site_thermal_displace_type
  _atom_site_B_iso_or_equiv
  _atom_site_type_symbol
  Tc1      1.0000 0.13951  0.04538  0.15007  Biso   1.000  Tc
  Hf1      1.0000 0.13916  0.46172  0.39478  Biso   1.000  Hf
  Hf2      1.0000 0.35744  0.54935  0.10531  Biso   1.000  Hf
  Hf3      1.0000 0.36087  0.96014  0.35321  Biso   1.000  Hf
  O1       1.0000 0.03726  0.32908  0.08045  Biso   1.000  O 
  O2       1.0000 0.03819  0.16701  0.32118  Biso   1.000  O 
  O3       1.0000 0.46550  0.83886  0.17015  Biso   1.000  O 
  O4       1.0000 0.46391  0.66228  0.41920  Biso   1.000  O 
  O5       1.0000 0.27627  0.25889  0.24082  Biso   1.000  O 
  O6       1.0000 0.27645  0.24499  0.49125  Biso   1.000  O 
  O7       1.0000 0.21845  0.76161  0.01024  Biso   1.000  O 
  O8       1.0000 0.22133  0.74847  0.25821  Biso   1.000  O 
  Hf4      1.0000 0.13736  0.04495  0.64630  Biso   1.000  Hf
  Hf5      1.0000 0.13669  0.45762  0.89832  Biso   1.000  Hf
  Hf6      1.0000 0.36029  0.54566  0.60476  Biso   1.000  Hf
  Hf7      1.0000 0.35695  0.95970  0.85638  Biso   1.000  Hf
  O9       1.0000 0.03285  0.33364  0.57579  Biso   1.000  O 
  O10      1.0000 0.03249  0.16713  0.82840  Biso   1.000  O 
  O11      1.0000 0.46216  0.84323  0.67011  Biso   1.000  O 
  O12      1.0000 0.45822  0.65926  0.91959  Biso   1.000  O 
  O13      1.0000 0.27557  0.26060  0.74303  Biso   1.000  O 
  O14      1.0000 0.27118  0.23935  0.99852  Biso   1.000  O 
  O15      1.0000 0.22251  0.75967  0.50871  Biso   1.000  O 
  O16      1.0000 0.22134  0.74366  0.75953  Biso   1.000  O 
  Hf8      1.0000 0.63853  0.04573  0.14527  Biso   1.000  Hf
  Hf9      1.0000 0.63911  0.45958  0.39552  Biso   1.000  Hf
  Hf10     1.0000 0.86587  0.54243  0.10382  Biso   1.000  Hf
  Hf11     1.0000 0.86197  0.96048  0.35221  Biso   1.000  Hf
  O17      1.0000 0.53453  0.34217  0.08191  Biso   1.000  O 
  O18      1.0000 0.53631  0.16139  0.33150  Biso   1.000  O 
  O19      1.0000 0.97491  0.83787  0.16731  Biso   1.000  O 
  O20      1.0000 0.96452  0.66677  0.41930  Biso   1.000  O 
  O21      1.0000 0.77713  0.25930  0.24007  Biso   1.000  O 
  O22      1.0000 0.77729  0.24301  0.48961  Biso   1.000  O 
  O23      1.0000 0.72363  0.75870  0.00961  Biso   1.000  O 
  O24      1.0000 0.72878  0.74415  0.25836  Biso   1.000  O 
  Hf12     1.0000 0.63677  0.04461  0.64683  Biso   1.000  Hf
  Hf13     1.0000 0.63579  0.46016  0.89752  Biso   1.000  Hf
  Hf14     1.0000 0.85935  0.54510  0.60406  Biso   1.000  Hf
  Hf15     1.0000 0.85925  0.95985  0.85482  Biso   1.000  Hf
  O25      1.0000 0.53621  0.34401  0.58143  Biso   1.000  O 
  O26      1.0000 0.53304  0.16097  0.83297  Biso   1.000  O 
  O27      1.0000 0.96393  0.83670  0.67046  Biso   1.000  O 
  O28      1.0000 0.96296  0.66329  0.92058  Biso   1.000  O 
  O29      1.0000 0.77438  0.26047  0.74107  Biso   1.000  O 
  O30      1.0000 0.77477  0.24727  0.99100  Biso   1.000  O 
  O31      1.0000 0.72276  0.76073  0.50915  Biso   1.000  O 
  O32      1.0000 0.72125  0.74433  0.76000  Biso   1.000  O 
