data_image0
_cell_length_a       10.0953
_cell_length_b       10.2997
_cell_length_c       5.27687
_cell_angle_alpha    90
_cell_angle_beta     90
_cell_angle_gamma    90

_symmetry_space_group_name_H-M    "P 1"
_symmetry_int_tables_number       1

loop_
  _symmetry_equiv_pos_as_xyz
  'x, y, z'

loop_
  _atom_site_label
  _atom_site_occupancy
  _atom_site_fract_x
  _atom_site_fract_y
  _atom_site_fract_z
  _atom_site_thermal_displace_type
  _atom_site_B_iso_or_equiv
  _atom_site_type_symbol
  Hf1      1.0000 0.13867  0.02048  0.34027  Biso   1.000  Hf
  Hf2      1.0000 0.13594  0.22992  0.83538  Biso   1.000  Hf
  Hf3      1.0000 0.35801  0.26836  0.35146  Biso   1.000  Hf
  Hf4      1.0000 0.35293  0.48255  0.84317  Biso   1.000  Hf
  Hf5      1.0000 0.63660  0.01424  0.14825  Biso   1.000  Hf
  Hf6      1.0000 0.62517  0.22706  0.69693  Biso   1.000  Hf
  Hf7      1.0000 0.87618  0.26859  0.14400  Biso   1.000  Hf
  Hf8      1.0000 0.85806  0.48424  0.66074  Biso   1.000  Hf
  O1       1.0000 0.03786  0.15879  0.14662  Biso   1.000  O 
  O2       1.0000 0.02549  0.09304  0.64483  Biso   1.000  O 
  O3       1.0000 0.46969  0.41874  0.17051  Biso   1.000  O 
  O4       1.0000 0.45545  0.33504  0.68159  Biso   1.000  O 
  O5       1.0000 0.26734  0.12419  0.59177  Biso   1.000  O 
  O6       1.0000 0.27724  0.12278  0.08823  Biso   1.000  O 
  O7       1.0000 0.21777  0.37574  0.58759  Biso   1.000  O 
  O8       1.0000 0.22524  0.37544  0.08775  Biso   1.000  O 
  O9       1.0000 0.50899  0.13325  0.37917  Biso   1.000  O 
  O10      1.0000 0.52013  0.07519  0.84034  Biso   1.000  O 
  O11      1.0000 0.96356  0.41489  0.33680  Biso   1.000  O 
  O12      1.0000 0.96485  0.34032  0.82823  Biso   1.000  O 
  O13      1.0000 0.78164  0.11853  0.88966  Biso   1.000  O 
  O14      1.0000 0.75624  0.14483  0.38528  Biso   1.000  O 
  O15      1.0000 0.72043  0.38066  0.94102  Biso   1.000  O 
  O16      1.0000 0.71170  0.39860  0.44833  Biso   1.000  O 
  Hf9      1.0000 0.13640  0.52048  0.33995  Biso   1.000  Hf
  Hf10     1.0000 0.13147  0.72991  0.84111  Biso   1.000  Hf
  Hf11     1.0000 0.35831  0.77057  0.34604  Biso   1.000  Hf
  Hf12     1.0000 0.35265  0.97565  0.84691  Biso   1.000  Hf
  Hf13     1.0000 0.64299  0.53654  0.15949  Biso   1.000  Hf
  Hf14     1.0000 0.63448  0.73350  0.65559  Biso   1.000  Hf
  Hf15     1.0000 0.86532  0.77481  0.15594  Biso   1.000  Hf
  Hf16     1.0000 0.86116  0.98033  0.65201  Biso   1.000  Hf
  O17      1.0000 0.03248  0.66278  0.15574  Biso   1.000  O 
  O18      1.0000 0.02778  0.59053  0.65435  Biso   1.000  O 
  O19      1.0000 0.46756  0.90326  0.15759  Biso   1.000  O 
  O20      1.0000 0.46222  0.83683  0.66043  Biso   1.000  O 
  O21      1.0000 0.27025  0.62400  0.58975  Biso   1.000  O 
  O22      1.0000 0.27594  0.62381  0.09052  Biso   1.000  O 
  O23      1.0000 0.21880  0.87323  0.59086  Biso   1.000  O 
  O24      1.0000 0.22289  0.87318  0.09234  Biso   1.000  O 
  O25      1.0000 0.52982  0.66608  0.34261  Biso   1.000  O 
  O26      1.0000 0.52485  0.59227  0.83949  Biso   1.000  O 
  O27      1.0000 0.96809  0.91742  0.32842  Biso   1.000  O 
  O28      1.0000 0.96306  0.84126  0.83212  Biso   1.000  O 
  O29      1.0000 0.77073  0.62946  0.90503  Biso   1.000  O 
  O30      1.0000 0.77847  0.63709  0.40755  Biso   1.000  O 
  O31      1.0000 0.71871  0.87432  0.91012  Biso   1.000  O 
  O32      1.0000 0.72582  0.88023  0.41307  Biso   1.000  O 
  Tc1      1.0000 0.61289  0.27283  0.21040  Biso   1.000  Tc
