data_image0
_cell_length_a       10.0686
_cell_length_b       5.22316
_cell_length_c       10.0833
_cell_angle_alpha    90
_cell_angle_beta     90
_cell_angle_gamma    90

_symmetry_space_group_name_H-M    "P 1"
_symmetry_int_tables_number       1

loop_
  _symmetry_equiv_pos_as_xyz
  'x, y, z'

loop_
  _atom_site_label
  _atom_site_occupancy
  _atom_site_fract_x
  _atom_site_fract_y
  _atom_site_fract_z
  _atom_site_thermal_displace_type
  _atom_site_B_iso_or_equiv
  _atom_site_type_symbol
  Hf1      1.0000 0.12755  0.86125  0.12488  Biso   1.000  Hf
  Hf2      1.0000 0.14309  0.49816  0.39072  Biso   1.000  Hf
  Hf3      1.0000 0.40071  0.51987  0.14677  Biso   1.000  Hf
  Hf4      1.0000 0.38815  0.02327  0.38246  Biso   1.000  Hf
  O1       1.0000 0.99967  0.30695  0.98039  Biso   1.000  O 
  O2       1.0000 0.02521  0.10157  0.24703  Biso   1.000  O 
  O3       1.0000 0.00856  0.59647  0.24043  Biso   1.000  O 
  O4       1.0000 0.00602  0.79427  0.98591  Biso   1.000  O 
  O5       1.0000 0.27662  0.30695  0.26914  Biso   1.000  O 
  O6       1.0000 0.22990  0.10157  0.00273  Biso   1.000  O 
  O7       1.0000 0.24654  0.59647  0.00933  Biso   1.000  O 
  O8       1.0000 0.27025  0.79428  0.26362  Biso   1.000  O 
  Hf5      1.0000 0.13814  0.99153  0.62477  Biso   1.000  Hf
  Hf6      1.0000 0.13319  0.49816  0.85882  Biso   1.000  Hf
  Hf7      1.0000 0.39528  0.52875  0.63226  Biso   1.000  Hf
  Hf8      1.0000 0.39436  0.01813  0.87127  Biso   1.000  Hf
  O9       1.0000 0.00058  0.30286  0.49092  Biso   1.000  O 
  O10      1.0000 0.01881  0.21532  0.74000  Biso   1.000  O 
  O11      1.0000 0.01449  0.71324  0.73833  Biso   1.000  O 
  O12      1.0000 0.01589  0.80256  0.49081  Biso   1.000  O 
  O13      1.0000 0.27570  0.30286  0.75861  Biso   1.000  O 
  O14      1.0000 0.25747  0.21532  0.50953  Biso   1.000  O 
  O15      1.0000 0.26180  0.71324  0.51121  Biso   1.000  O 
  O16      1.0000 0.26039  0.80256  0.75873  Biso   1.000  O 
  Hf9      1.0000 0.62755  0.99496  0.12488  Biso   1.000  Hf
  Hf10     1.0000 0.64925  0.50052  0.36177  Biso   1.000  Hf
  Hf11     1.0000 0.85440  0.51987  0.10300  Biso   1.000  Hf
  Hf12     1.0000 0.88193  0.01813  0.37828  Biso   1.000  Hf
  O17      1.0000 0.49848  0.28838  0.99786  Biso   1.000  O 
  O18      1.0000 0.51860  0.22554  0.25306  Biso   1.000  O 
  O19      1.0000 0.51462  0.74468  0.27403  Biso   1.000  O 
  O20      1.0000 0.48634  0.80204  0.01500  Biso   1.000  O 
  O21      1.0000 0.77781  0.28838  0.25167  Biso   1.000  O 
  O22      1.0000 0.75769  0.22554  0.99647  Biso   1.000  O 
  O23      1.0000 0.76166  0.74468  0.97551  Biso   1.000  O 
  O24      1.0000 0.76877  0.80204  0.23477  Biso   1.000  O 
  Hf13     1.0000 0.63814  0.03852  0.62477  Biso   1.000  Hf
  Hf14     1.0000 0.62703  0.50053  0.88777  Biso   1.000  Hf
  Hf15     1.0000 0.88099  0.52875  0.61727  Biso   1.000  Hf
  Hf16     1.0000 0.88814  0.02326  0.86708  Biso   1.000  Hf
  O25      1.0000 0.51123  0.34409  0.49636  Biso   1.000  O 
  O26      1.0000 0.51870  0.23395  0.75092  Biso   1.000  O 
  O27      1.0000 0.51426  0.72926  0.76571  Biso   1.000  O 
  O28      1.0000 0.49887  0.84713  0.52606  Biso   1.000  O 
  O29      1.0000 0.76505  0.34409  0.75318  Biso   1.000  O 
  O30      1.0000 0.75759  0.23395  0.49861  Biso   1.000  O 
  O31      1.0000 0.76203  0.72926  0.48383  Biso   1.000  O 
  O32      1.0000 0.77741  0.84713  0.72347  Biso   1.000  O 
  Tc1      1.0000 0.12755  0.34494  0.12488  Biso   1.000  Tc
