data_image0
_cell_length_a       10.0913
_cell_length_b       10.2419
_cell_length_c       5.21408
_cell_angle_alpha    90
_cell_angle_beta     80
_cell_angle_gamma    90

_symmetry_space_group_name_H-M    "P 1"
_symmetry_int_tables_number       1

loop_
  _symmetry_equiv_pos_as_xyz
  'x, y, z'

loop_
  _atom_site_label
  _atom_site_occupancy
  _atom_site_fract_x
  _atom_site_fract_y
  _atom_site_fract_z
  _atom_site_thermal_displace_type
  _atom_site_B_iso_or_equiv
  _atom_site_type_symbol
  Tc1      1.0000 0.13993  0.02277  0.30093  Biso   1.000  Tc
  Hf1      1.0000 0.13888  0.22797  0.79435  Biso   1.000  Hf
  Hf2      1.0000 0.35961  0.27099  0.21225  Biso   1.000  Hf
  Hf3      1.0000 0.36064  0.47968  0.70909  Biso   1.000  Hf
  O1       1.0000 0.03486  0.16120  0.15040  Biso   1.000  O 
  O2       1.0000 0.03690  0.08565  0.63549  Biso   1.000  O 
  O3       1.0000 0.46361  0.42038  0.33866  Biso   1.000  O 
  O4       1.0000 0.46103  0.32885  0.83927  Biso   1.000  O 
  O5       1.0000 0.27833  0.12737  0.48749  Biso   1.000  O 
  O6       1.0000 0.27240  0.11791  0.99825  Biso   1.000  O 
  O7       1.0000 0.22266  0.37818  0.02016  Biso   1.000  O 
  O8       1.0000 0.22304  0.37139  0.52023  Biso   1.000  O 
  Hf4      1.0000 0.13931  0.52190  0.29244  Biso   1.000  Hf
  Hf5      1.0000 0.13861  0.73059  0.79121  Biso   1.000  Hf
  Hf6      1.0000 0.35891  0.77504  0.20783  Biso   1.000  Hf
  Hf7      1.0000 0.35908  0.97869  0.71008  Biso   1.000  Hf
  O9       1.0000 0.03516  0.66728  0.15716  Biso   1.000  O 
  O10      1.0000 0.03499  0.58238  0.65946  Biso   1.000  O 
  O11      1.0000 0.46532  0.91861  0.34278  Biso   1.000  O 
  O12      1.0000 0.46313  0.83101  0.83916  Biso   1.000  O 
  O13      1.0000 0.27676  0.63131  0.48199  Biso   1.000  O 
  O14      1.0000 0.27634  0.62257  0.98171  Biso   1.000  O 
  O15      1.0000 0.21905  0.88122  0.01758  Biso   1.000  O 
  O16      1.0000 0.22070  0.87423  0.51385  Biso   1.000  O 
  Hf8      1.0000 0.63795  0.02182  0.29204  Biso   1.000  Hf
  Hf9      1.0000 0.63783  0.22947  0.79208  Biso   1.000  Hf
  Hf10     1.0000 0.86294  0.26984  0.20802  Biso   1.000  Hf
  Hf11     1.0000 0.86074  0.47901  0.70850  Biso   1.000  Hf
  O17      1.0000 0.53619  0.17074  0.16381  Biso   1.000  O 
  O18      1.0000 0.53473  0.08036  0.66447  Biso   1.000  O 
  O19      1.0000 0.96556  0.41725  0.34154  Biso   1.000  O 
  O20      1.0000 0.96512  0.33100  0.84106  Biso   1.000  O 
  O21      1.0000 0.77574  0.12921  0.48036  Biso   1.000  O 
  O22      1.0000 0.77652  0.12161  0.97825  Biso   1.000  O 
  O23      1.0000 0.72399  0.37899  0.01908  Biso   1.000  O 
  O24      1.0000 0.72325  0.37120  0.51892  Biso   1.000  O 
  Hf12     1.0000 0.63905  0.52238  0.29185  Biso   1.000  Hf
  Hf13     1.0000 0.63884  0.72936  0.79390  Biso   1.000  Hf
  Hf14     1.0000 0.86360  0.77326  0.20695  Biso   1.000  Hf
  Hf15     1.0000 0.86156  0.98033  0.70442  Biso   1.000  Hf
  O25      1.0000 0.53521  0.67036  0.16184  Biso   1.000  O 
  O26      1.0000 0.53640  0.58008  0.66347  Biso   1.000  O 
  O27      1.0000 0.97320  0.92008  0.33433  Biso   1.000  O 
  O28      1.0000 0.96482  0.83421  0.83850  Biso   1.000  O 
  O29      1.0000 0.77711  0.63014  0.48158  Biso   1.000  O 
  O30      1.0000 0.77726  0.62278  0.98229  Biso   1.000  O 
  O31      1.0000 0.72360  0.87949  0.01842  Biso   1.000  O 
  O32      1.0000 0.72774  0.87244  0.51782  Biso   1.000  O 
