data_image0
_cell_length_a       10.0453
_cell_length_b       5.2324
_cell_length_c       10.1086
_cell_angle_alpha    90
_cell_angle_beta     90
_cell_angle_gamma    90

_symmetry_space_group_name_H-M    "P 1"
_symmetry_int_tables_number       1

loop_
  _symmetry_equiv_pos_as_xyz
  'x, y, z'

loop_
  _atom_site_label
  _atom_site_occupancy
  _atom_site_fract_x
  _atom_site_fract_y
  _atom_site_fract_z
  _atom_site_thermal_displace_type
  _atom_site_B_iso_or_equiv
  _atom_site_type_symbol
  Hf1      1.0000 0.12265  0.11967  0.10933  Biso   1.000  Hf
  Hf2      1.0000 0.13388  0.44964  0.38781  Biso   1.000  Hf
  Hf3      1.0000 0.37329  0.52021  0.12039  Biso   1.000  Hf
  Hf4      1.0000 0.36310  0.95220  0.37419  Biso   1.000  Hf
  O1       1.0000 0.00456  0.36224  0.22943  Biso   1.000  O 
  O2       1.0000 0.03461  0.11827  0.45417  Biso   1.000  O 
  O3       1.0000 0.46441  0.85634  0.19619  Biso   1.000  O 
  O4       1.0000 0.46654  0.62354  0.44908  Biso   1.000  O 
  O5       1.0000 0.26346  0.19786  0.24989  Biso   1.000  O 
  O6       1.0000 0.27362  0.25040  0.50020  Biso   1.000  O 
  O7       1.0000 0.23023  0.75502  0.50263  Biso   1.000  O 
  O8       1.0000 0.24571  0.67794  0.26162  Biso   1.000  O 
  Hf5      1.0000 0.13519  0.01702  0.62706  Biso   1.000  Hf
  Hf6      1.0000 0.13762  0.45826  0.86393  Biso   1.000  Hf
  Hf7      1.0000 0.36943  0.52065  0.62393  Biso   1.000  Hf
  Hf8      1.0000 0.36906  0.95702  0.87250  Biso   1.000  Hf
  O9       1.0000 0.03731  0.35807  0.68752  Biso   1.000  O 
  O10      1.0000 0.03423  0.12821  0.92622  Biso   1.000  O 
  O11      1.0000 0.46863  0.85190  0.69574  Biso   1.000  O 
  O12      1.0000 0.47116  0.62671  0.94417  Biso   1.000  O 
  O13      1.0000 0.27151  0.22050  0.74514  Biso   1.000  O 
  O14      1.0000 0.28234  0.25955  0.98472  Biso   1.000  O 
  O15      1.0000 0.23880  0.77146  0.99864  Biso   1.000  O 
  O16      1.0000 0.23537  0.72419  0.74733  Biso   1.000  O 
  Hf9      1.0000 0.63063  0.02357  0.12577  Biso   1.000  Hf
  Hf10     1.0000 0.63152  0.45434  0.37751  Biso   1.000  Hf
  Hf11     1.0000 0.84670  0.52763  0.12551  Biso   1.000  Hf
  Hf12     1.0000 0.86485  0.96341  0.37645  Biso   1.000  Hf
  O17      1.0000 0.53262  0.35227  0.19983  Biso   1.000  O 
  O18      1.0000 0.53459  0.12125  0.44713  Biso   1.000  O 
  O19      1.0000 0.95711  0.88120  0.19413  Biso   1.000  O 
  O20      1.0000 0.96617  0.63426  0.45017  Biso   1.000  O 
  O21      1.0000 0.76064  0.21960  0.25023  Biso   1.000  O 
  O22      1.0000 0.76996  0.25919  0.49799  Biso   1.000  O 
  O23      1.0000 0.73138  0.75823  0.49992  Biso   1.000  O 
  O24      1.0000 0.72335  0.72667  0.25246  Biso   1.000  O 
  Hf13     1.0000 0.63551  0.01982  0.62262  Biso   1.000  Hf
  Hf14     1.0000 0.63369  0.45106  0.87230  Biso   1.000  Hf
  Hf15     1.0000 0.86770  0.52343  0.62288  Biso   1.000  Hf
  Hf16     1.0000 0.86084  0.95238  0.87285  Biso   1.000  Hf
  O25      1.0000 0.53628  0.35174  0.69578  Biso   1.000  O 
  O26      1.0000 0.53786  0.12401  0.94685  Biso   1.000  O 
  O27      1.0000 0.96666  0.84802  0.70139  Biso   1.000  O 
  O28      1.0000 0.96858  0.63040  0.95389  Biso   1.000  O 
  O29      1.0000 0.77149  0.21807  0.74692  Biso   1.000  O 
  O30      1.0000 0.77062  0.24769  0.99717  Biso   1.000  O 
  O31      1.0000 0.72618  0.74915  0.99875  Biso   1.000  O 
  O32      1.0000 0.73222  0.71806  0.74922  Biso   1.000  O 
  Tc1      1.0000 0.09998  0.63610  0.11661  Biso   1.000  Tc
