data_image0
_cell_length_a       10.1732
_cell_length_b       10.2877
_cell_length_c       5.2849
_cell_angle_alpha    90
_cell_angle_beta     80
_cell_angle_gamma    90

_symmetry_space_group_name_H-M    "P 1"
_symmetry_int_tables_number       1

loop_
  _symmetry_equiv_pos_as_xyz
  'x, y, z'

loop_
  _atom_site_label
  _atom_site_occupancy
  _atom_site_fract_x
  _atom_site_fract_y
  _atom_site_fract_z
  _atom_site_thermal_displace_type
  _atom_site_B_iso_or_equiv
  _atom_site_type_symbol
  Hf1      1.0000 0.13577  0.02199  0.29360  Biso   1.000  Hf
  Hf2      1.0000 0.13481  0.23529  0.78756  Biso   1.000  Hf
  Hf3      1.0000 0.35621  0.27573  0.18325  Biso   1.000  Hf
  Hf4      1.0000 0.34867  0.49012  0.71250  Biso   1.000  Hf
  O1       1.0000 0.03708  0.16717  0.15145  Biso   1.000  O 
  O2       1.0000 0.03319  0.08712  0.64957  Biso   1.000  O 
  O3       1.0000 0.47039  0.39170  0.39073  Biso   1.000  O 
  O4       1.0000 0.48352  0.36993  0.88183  Biso   1.000  O 
  O5       1.0000 0.27819  0.12669  0.46423  Biso   1.000  O 
  O6       1.0000 0.28313  0.12441  0.95327  Biso   1.000  O 
  O7       1.0000 0.21164  0.38700  0.02167  Biso   1.000  O 
  O8       1.0000 0.21476  0.37802  0.50566  Biso   1.000  O 
  Hf5      1.0000 0.13125  0.52587  0.29425  Biso   1.000  Hf
  Hf6      1.0000 0.12652  0.73306  0.79727  Biso   1.000  Hf
  Hf7      1.0000 0.35402  0.77044  0.20941  Biso   1.000  Hf
  Hf8      1.0000 0.35384  0.96982  0.70605  Biso   1.000  Hf
  O9       1.0000 0.02201  0.66770  0.15592  Biso   1.000  O 
  O10      1.0000 0.02584  0.59050  0.65586  Biso   1.000  O 
  O11      1.0000 0.46052  0.91064  0.34962  Biso   1.000  O 
  O12      1.0000 0.45908  0.83382  0.85374  Biso   1.000  O 
  O13      1.0000 0.26871  0.63115  0.48446  Biso   1.000  O 
  O14      1.0000 0.26442  0.63005  0.98628  Biso   1.000  O 
  O15      1.0000 0.21601  0.87966  0.02332  Biso   1.000  O 
  O16      1.0000 0.21418  0.87059  0.51982  Biso   1.000  O 
  Hf9      1.0000 0.63926  0.02248  0.28891  Biso   1.000  Hf
  Hf10     1.0000 0.64203  0.23384  0.80280  Biso   1.000  Hf
  Hf11     1.0000 0.86172  0.27322  0.21505  Biso   1.000  Hf
  Hf12     1.0000 0.85660  0.48126  0.71446  Biso   1.000  Hf
  O17      1.0000 0.53061  0.16029  0.14494  Biso   1.000  O 
  O18      1.0000 0.54066  0.07410  0.66347  Biso   1.000  O 
  O19      1.0000 0.96137  0.41821  0.35231  Biso   1.000  O 
  O20      1.0000 0.96335  0.34022  0.85031  Biso   1.000  O 
  O21      1.0000 0.77599  0.13077  0.48027  Biso   1.000  O 
  O22      1.0000 0.77918  0.12296  0.98437  Biso   1.000  O 
  O23      1.0000 0.72505  0.37724  0.03250  Biso   1.000  O 
  O24      1.0000 0.72379  0.37482  0.52778  Biso   1.000  O 
  Hf13     1.0000 0.63280  0.52014  0.29937  Biso   1.000  Hf
  Hf14     1.0000 0.63108  0.72783  0.79285  Biso   1.000  Hf
  Hf15     1.0000 0.85121  0.77318  0.21122  Biso   1.000  Hf
  Hf16     1.0000 0.85097  0.98189  0.70925  Biso   1.000  Hf
  O25      1.0000 0.52085  0.65275  0.14493  Biso   1.000  O 
  O26      1.0000 0.52276  0.59589  0.63717  Biso   1.000  O 
  O27      1.0000 0.95762  0.91682  0.34819  Biso   1.000  O 
  O28      1.0000 0.95650  0.84039  0.85053  Biso   1.000  O 
  O29      1.0000 0.76774  0.62890  0.48120  Biso   1.000  O 
  O30      1.0000 0.76740  0.62435  0.98281  Biso   1.000  O 
  O31      1.0000 0.71349  0.87769  0.02285  Biso   1.000  O 
  O32      1.0000 0.71671  0.87179  0.52216  Biso   1.000  O 
  Tc1      1.0000 0.40599  0.23777  0.65519  Biso   1.000  Tc
