data_image0
_cell_length_a       5.0412
_cell_length_b       10.2523
_cell_length_c       10.4167
_cell_angle_alpha    90
_cell_angle_beta     80
_cell_angle_gamma    90

_symmetry_space_group_name_H-M    "P 1"
_symmetry_int_tables_number       1

loop_
  _symmetry_equiv_pos_as_xyz
  'x, y, z'

loop_
  _atom_site_label
  _atom_site_occupancy
  _atom_site_fract_x
  _atom_site_fract_y
  _atom_site_fract_z
  _atom_site_thermal_displace_type
  _atom_site_B_iso_or_equiv
  _atom_site_type_symbol
  Tc1      1.0000 0.28153  0.02276  0.15034  Biso   1.000  Tc
  Hf1      1.0000 0.27939  0.23031  0.39484  Biso   1.000  Hf
  Hf2      1.0000 0.72505  0.26967  0.10549  Biso   1.000  Hf
  Hf3      1.0000 0.72293  0.47996  0.35364  Biso   1.000  Hf
  O1       1.0000 0.07494  0.16698  0.08230  Biso   1.000  O 
  O2       1.0000 0.08069  0.08072  0.32197  Biso   1.000  O 
  O3       1.0000 0.92884  0.42064  0.16873  Biso   1.000  O 
  O4       1.0000 0.92616  0.32983  0.41830  Biso   1.000  O 
  O5       1.0000 0.55548  0.12835  0.24156  Biso   1.000  O 
  O6       1.0000 0.55538  0.12128  0.49023  Biso   1.000  O 
  O7       1.0000 0.44747  0.37883  0.01001  Biso   1.000  O 
  O8       1.0000 0.44770  0.37165  0.25930  Biso   1.000  O 
  Hf4      1.0000 0.27364  0.02181  0.64624  Biso   1.000  Hf
  Hf5      1.0000 0.27155  0.22766  0.89868  Biso   1.000  Hf
  Hf6      1.0000 0.71937  0.27212  0.60463  Biso   1.000  Hf
  Hf7      1.0000 0.71748  0.47946  0.85545  Biso   1.000  Hf
  O9       1.0000 0.06882  0.16837  0.57741  Biso   1.000  O 
  O10      1.0000 0.06387  0.08192  0.83002  Biso   1.000  O 
  O11      1.0000 0.92621  0.41978  0.66985  Biso   1.000  O 
  O12      1.0000 0.92200  0.32874  0.92037  Biso   1.000  O 
  O13      1.0000 0.54941  0.12990  0.74271  Biso   1.000  O 
  O14      1.0000 0.54102  0.11870  0.99786  Biso   1.000  O 
  O15      1.0000 0.44468  0.37939  0.50949  Biso   1.000  O 
  O16      1.0000 0.44269  0.37136  0.76036  Biso   1.000  O 
  Hf8      1.0000 0.27947  0.52279  0.14551  Biso   1.000  Hf
  Hf9      1.0000 0.27927  0.72989  0.39563  Biso   1.000  Hf
  Hf10     1.0000 0.72318  0.77680  0.10379  Biso   1.000  Hf
  Hf11     1.0000 0.72443  0.97981  0.35159  Biso   1.000  Hf
  O17      1.0000 0.06999  0.66985  0.08102  Biso   1.000  O 
  O18      1.0000 0.07374  0.58048  0.33148  Biso   1.000  O 
  O19      1.0000 0.94669  0.92202  0.16602  Biso   1.000  O 
  O20      1.0000 0.93054  0.83229  0.41840  Biso   1.000  O 
  O21      1.0000 0.55474  0.63221  0.24083  Biso   1.000  O 
  O22      1.0000 0.55414  0.62160  0.49108  Biso   1.000  O 
  O23      1.0000 0.43800  0.88142  0.01015  Biso   1.000  O 
  O24      1.0000 0.45004  0.87490  0.25768  Biso   1.000  O 
  Hf12     1.0000 0.27635  0.52217  0.64692  Biso   1.000  Hf
  Hf13     1.0000 0.27341  0.73040  0.89749  Biso   1.000  Hf
  Hf14     1.0000 0.72118  0.77232  0.60419  Biso   1.000  Hf
  Hf15     1.0000 0.71599  0.97973  0.85557  Biso   1.000  Hf
  O25      1.0000 0.07175  0.67071  0.58064  Biso   1.000  O 
  O26      1.0000 0.06907  0.58057  0.83191  Biso   1.000  O 
  O27      1.0000 0.92626  0.92043  0.66957  Biso   1.000  O 
  O28      1.0000 0.92107  0.83125  0.91878  Biso   1.000  O 
  O29      1.0000 0.55191  0.63007  0.74156  Biso   1.000  O 
  O30      1.0000 0.55100  0.62387  0.99166  Biso   1.000  O 
  O31      1.0000 0.44710  0.87997  0.50832  Biso   1.000  O 
  O32      1.0000 0.44348  0.87179  0.75929  Biso   1.000  O 
