data_image0
_cell_length_a       10.1977
_cell_length_b       10.2367
_cell_length_c       10.5395
_cell_angle_alpha    90
_cell_angle_beta     80
_cell_angle_gamma    90

_symmetry_space_group_name_H-M    "P 1"
_symmetry_int_tables_number       1

loop_
  _symmetry_equiv_pos_as_xyz
  'x, y, z'

loop_
  _atom_site_label
  _atom_site_occupancy
  _atom_site_fract_x
  _atom_site_fract_y
  _atom_site_fract_z
  _atom_site_thermal_displace_type
  _atom_site_B_iso_or_equiv
  _atom_site_type_symbol
  Hf1      1.0000 0.13698  0.02049  0.14494  Biso   1.000  Hf
  Hf2      1.0000 0.12649  0.22412  0.39662  Biso   1.000  Hf
  Hf3      1.0000 0.35877  0.26966  0.09465  Biso   1.000  Hf
  Hf4      1.0000 0.36814  0.49538  0.35417  Biso   1.000  Hf
  O1       1.0000 0.03264  0.16233  0.07291  Biso   1.000  O 
  O2       1.0000 0.02703  0.08484  0.32068  Biso   1.000  O 
  O3       1.0000 0.47879  0.39453  0.19101  Biso   1.000  O 
  O4       1.0000 0.49025  0.36491  0.43979  Biso   1.000  O 
  O5       1.0000 0.27435  0.12378  0.23725  Biso   1.000  O 
  O6       1.0000 0.27831  0.12262  0.48395  Biso   1.000  O 
  O7       1.0000 0.22254  0.37965  0.00592  Biso   1.000  O 
  O8       1.0000 0.23835  0.36651  0.25997  Biso   1.000  O 
  Hf5      1.0000 0.14192  0.02404  0.64433  Biso   1.000  Hf
  Hf6      1.0000 0.14204  0.23055  0.89237  Biso   1.000  Hf
  Hf7      1.0000 0.37038  0.27569  0.60633  Biso   1.000  Hf
  Hf8      1.0000 0.36710  0.48267  0.85362  Biso   1.000  Hf
  O9       1.0000 0.03262  0.16404  0.57697  Biso   1.000  O 
  O10      1.0000 0.03614  0.08801  0.82393  Biso   1.000  O 
  O11      1.0000 0.47560  0.41347  0.68295  Biso   1.000  O 
  O12      1.0000 0.47799  0.34807  0.92811  Biso   1.000  O 
  O13      1.0000 0.27853  0.12967  0.73827  Biso   1.000  O 
  O14      1.0000 0.27821  0.12426  0.98555  Biso   1.000  O 
  O15      1.0000 0.24152  0.37288  0.50014  Biso   1.000  O 
  O16      1.0000 0.22903  0.37526  0.75776  Biso   1.000  O 
  Hf9      1.0000 0.14286  0.52003  0.14679  Biso   1.000  Hf
  Hf10     1.0000 0.13946  0.72976  0.39707  Biso   1.000  Hf
  Hf11     1.0000 0.36463  0.77192  0.10284  Biso   1.000  Hf
  Hf12     1.0000 0.36252  0.97247  0.35286  Biso   1.000  Hf
  O17      1.0000 0.03606  0.66106  0.07494  Biso   1.000  O 
  O18      1.0000 0.03794  0.58685  0.32489  Biso   1.000  O 
  O19      1.0000 0.47228  0.91056  0.17689  Biso   1.000  O 
  O20      1.0000 0.47341  0.83992  0.42813  Biso   1.000  O 
  O21      1.0000 0.27908  0.63021  0.23997  Biso   1.000  O 
  O22      1.0000 0.27598  0.62653  0.49401  Biso   1.000  O 
  O23      1.0000 0.22737  0.87777  0.00929  Biso   1.000  O 
  O24      1.0000 0.22508  0.86938  0.25859  Biso   1.000  O 
  Hf13     1.0000 0.14476  0.52096  0.64458  Biso   1.000  Hf
  Hf14     1.0000 0.14531  0.72976  0.89506  Biso   1.000  Hf
  Hf15     1.0000 0.36701  0.77415  0.60513  Biso   1.000  Hf
  Hf16     1.0000 0.36897  0.98096  0.85254  Biso   1.000  Hf
  O25      1.0000 0.03529  0.66340  0.57578  Biso   1.000  O 
  O26      1.0000 0.04012  0.58794  0.82289  Biso   1.000  O 
  O27      1.0000 0.47499  0.91425  0.67584  Biso   1.000  O 
  O28      1.0000 0.47638  0.84235  0.92613  Biso   1.000  O 
  O29      1.0000 0.28130  0.62996  0.73958  Biso   1.000  O 
  O30      1.0000 0.28316  0.62556  0.99009  Biso   1.000  O 
  O31      1.0000 0.22841  0.87852  0.51030  Biso   1.000  O 
  O32      1.0000 0.23115  0.87380  0.75965  Biso   1.000  O 
  Hf17     1.0000 0.63844  0.02229  0.14560  Biso   1.000  Hf
  Hf18     1.0000 0.64640  0.23549  0.39888  Biso   1.000  Hf
  Hf19     1.0000 0.86401  0.27218  0.10479  Biso   1.000  Hf
  Hf20     1.0000 0.86515  0.48237  0.35454  Biso   1.000  Hf
  O33      1.0000 0.52976  0.15738  0.07202  Biso   1.000  O 
  O34      1.0000 0.52731  0.09516  0.32852  Biso   1.000  O 
  O35      1.0000 0.97333  0.41153  0.17569  Biso   1.000  O 
  O36      1.0000 0.96775  0.34267  0.42782  Biso   1.000  O 
  O37      1.0000 0.77388  0.12938  0.23916  Biso   1.000  O 
  O38      1.0000 0.78074  0.12321  0.49084  Biso   1.000  O 
  O39      1.0000 0.72661  0.37702  0.01173  Biso   1.000  O 
  O40      1.0000 0.73260  0.37489  0.26123  Biso   1.000  O 
  Hf21     1.0000 0.64152  0.02420  0.64640  Biso   1.000  Hf
  Hf22     1.0000 0.64352  0.23088  0.89667  Biso   1.000  Hf
  Hf23     1.0000 0.86318  0.27469  0.60724  Biso   1.000  Hf
  Hf24     1.0000 0.86774  0.48125  0.85379  Biso   1.000  Hf
  O41      1.0000 0.53713  0.16381  0.57325  Biso   1.000  O 
  O42      1.0000 0.53430  0.09302  0.82322  Biso   1.000  O 
  O43      1.0000 0.97382  0.41429  0.67421  Biso   1.000  O 
  O44      1.0000 0.97192  0.33879  0.92341  Biso   1.000  O 
  O45      1.0000 0.77808  0.13050  0.74096  Biso   1.000  O 
  O46      1.0000 0.77988  0.12401  0.98967  Biso   1.000  O 
  O47      1.0000 0.73048  0.38138  0.51359  Biso   1.000  O 
  O48      1.0000 0.73064  0.37479  0.76201  Biso   1.000  O 
  Hf25     1.0000 0.64087  0.51964  0.14708  Biso   1.000  Hf
  Hf26     1.0000 0.64403  0.73167  0.39666  Biso   1.000  Hf
  Hf27     1.0000 0.86492  0.77052  0.10374  Biso   1.000  Hf
  Hf28     1.0000 0.86253  0.97848  0.35360  Biso   1.000  Hf
  O49      1.0000 0.53196  0.65636  0.07238  Biso   1.000  O 
  O50      1.0000 0.53865  0.59864  0.31813  Biso   1.000  O 
  O51      1.0000 0.96909  0.91223  0.17316  Biso   1.000  O 
  O52      1.0000 0.97003  0.83757  0.42432  Biso   1.000  O 
  O53      1.0000 0.78055  0.62897  0.23856  Biso   1.000  O 
  O54      1.0000 0.77984  0.62473  0.48969  Biso   1.000  O 
  O55      1.0000 0.72703  0.87829  0.01182  Biso   1.000  O 
  O56      1.0000 0.72621  0.87347  0.26081  Biso   1.000  O 
  Hf29     1.0000 0.64273  0.52495  0.64672  Biso   1.000  Hf
  Hf30     1.0000 0.64512  0.73037  0.89599  Biso   1.000  Hf
  Hf31     1.0000 0.86700  0.77401  0.60510  Biso   1.000  Hf
  Hf32     1.0000 0.86919  0.98031  0.85376  Biso   1.000  Hf
  O57      1.0000 0.53579  0.66253  0.57308  Biso   1.000  O 
  O58      1.0000 0.53684  0.59456  0.82285  Biso   1.000  O 
  O59      1.0000 0.97421  0.91560  0.67390  Biso   1.000  O 
  O60      1.0000 0.97394  0.83688  0.92275  Biso   1.000  O 
  O61      1.0000 0.78092  0.63052  0.73962  Biso   1.000  O 
  O62      1.0000 0.78207  0.62383  0.98902  Biso   1.000  O 
  O63      1.0000 0.72903  0.88028  0.51153  Biso   1.000  O 
  O64      1.0000 0.73156  0.87432  0.76105  Biso   1.000  O 
  Ti1      1.0000 0.38355  0.24571  0.33919  Biso   1.000  Ti
