data_image0
_cell_length_a       10.1008
_cell_length_b       5.12292
_cell_length_c       10.5449
_cell_angle_alpha    90
_cell_angle_beta     90
_cell_angle_gamma    90

_symmetry_space_group_name_H-M    "P 1"
_symmetry_int_tables_number       1

loop_
  _symmetry_equiv_pos_as_xyz
  'x, y, z'

loop_
  _atom_site_label
  _atom_site_occupancy
  _atom_site_fract_x
  _atom_site_fract_y
  _atom_site_fract_z
  _atom_site_thermal_displace_type
  _atom_site_B_iso_or_equiv
  _atom_site_type_symbol
  Hf1      1.0000 0.13862  0.03994  0.17509  Biso   1.000  Hf
  Hf2      1.0000 0.13248  0.45454  0.42461  Biso   1.000  Hf
  Hf3      1.0000 0.35520  0.52901  0.17852  Biso   1.000  Hf
  Hf4      1.0000 0.35988  0.95159  0.42550  Biso   1.000  Hf
  Hf5      1.0000 0.63881  0.02073  0.07873  Biso   1.000  Hf
  Hf6      1.0000 0.63232  0.44988  0.33220  Biso   1.000  Hf
  Hf7      1.0000 0.87974  0.55133  0.07432  Biso   1.000  Hf
  Hf8      1.0000 0.85944  0.95792  0.32612  Biso   1.000  Hf
  O1       1.0000 0.03725  0.31385  0.07664  Biso   1.000  O 
  O2       1.0000 0.02311  0.18491  0.32849  Biso   1.000  O 
  O3       1.0000 0.47620  0.78334  0.07434  Biso   1.000  O 
  O4       1.0000 0.46824  0.68362  0.32512  Biso   1.000  O 
  O5       1.0000 0.26808  0.24524  0.30074  Biso   1.000  O 
  O6       1.0000 0.27662  0.24394  0.04856  Biso   1.000  O 
  O7       1.0000 0.22163  0.74380  0.29976  Biso   1.000  O 
  O8       1.0000 0.22917  0.75050  0.04730  Biso   1.000  O 
  O9       1.0000 0.51298  0.27213  0.18824  Biso   1.000  O 
  O10      1.0000 0.52101  0.18182  0.43028  Biso   1.000  O 
  O11      1.0000 0.97366  0.82982  0.17377  Biso   1.000  O 
  O12      1.0000 0.96573  0.68313  0.42160  Biso   1.000  O 
  O13      1.0000 0.77091  0.24287  0.45304  Biso   1.000  O 
  O14      1.0000 0.76134  0.26475  0.19670  Biso   1.000  O 
  O15      1.0000 0.72174  0.74686  0.45468  Biso   1.000  O 
  O16      1.0000 0.72757  0.74315  0.20410  Biso   1.000  O 
  Hf9      1.0000 0.12999  0.03870  0.67330  Biso   1.000  Hf
  Hf10     1.0000 0.13421  0.45145  0.92167  Biso   1.000  Hf
  Hf11     1.0000 0.35601  0.53847  0.67335  Biso   1.000  Hf
  Hf12     1.0000 0.35613  0.95458  0.92380  Biso   1.000  Hf
  Hf13     1.0000 0.63189  0.03633  0.57685  Biso   1.000  Hf
  Hf14     1.0000 0.63327  0.45714  0.81751  Biso   1.000  Hf
  Hf15     1.0000 0.85729  0.54286  0.57671  Biso   1.000  Hf
  Hf16     1.0000 0.85646  0.95960  0.82824  Biso   1.000  Hf
  O17      1.0000 0.02484  0.32050  0.58011  Biso   1.000  O 
  O18      1.0000 0.02238  0.17716  0.82939  Biso   1.000  O 
  O19      1.0000 0.46899  0.80029  0.57519  Biso   1.000  O 
  O20      1.0000 0.46788  0.69547  0.82255  Biso   1.000  O 
  O21      1.0000 0.26782  0.24325  0.79773  Biso   1.000  O 
  O22      1.0000 0.26794  0.24638  0.54830  Biso   1.000  O 
  O23      1.0000 0.22090  0.74370  0.79725  Biso   1.000  O 
  O24      1.0000 0.22116  0.74856  0.54835  Biso   1.000  O 
  O25      1.0000 0.51789  0.29631  0.67714  Biso   1.000  O 
  O26      1.0000 0.51259  0.20828  0.93849  Biso   1.000  O 
  O27      1.0000 0.96454  0.82076  0.67107  Biso   1.000  O 
  O28      1.0000 0.96850  0.67851  0.91733  Biso   1.000  O 
  O29      1.0000 0.75620  0.25611  0.95493  Biso   1.000  O 
  O30      1.0000 0.77042  0.24696  0.70012  Biso   1.000  O 
  O31      1.0000 0.72214  0.74729  0.95232  Biso   1.000  O 
  O32      1.0000 0.72231  0.74978  0.70296  Biso   1.000  O 
  Ti1      1.0000 0.62407  0.50199  0.06956  Biso   1.000  Ti
