data_image0
_cell_length_a       9.91698
_cell_length_b       10.3398
_cell_length_c       4.98308
_cell_angle_alpha    90
_cell_angle_beta     90
_cell_angle_gamma    90

_symmetry_space_group_name_H-M    "P 1"
_symmetry_int_tables_number       1

loop_
  _symmetry_equiv_pos_as_xyz
  'x, y, z'

loop_
  _atom_site_label
  _atom_site_occupancy
  _atom_site_fract_x
  _atom_site_fract_y
  _atom_site_fract_z
  _atom_site_thermal_displace_type
  _atom_site_B_iso_or_equiv
  _atom_site_type_symbol
  Ti1      1.0000 0.13082  0.01907  0.25270  Biso   1.000  Ti
  Hf1      1.0000 0.13533  0.23019  0.75225  Biso   1.000  Hf
  Hf2      1.0000 0.36480  0.26467  0.25121  Biso   1.000  Hf
  Hf3      1.0000 0.36711  0.48317  0.75265  Biso   1.000  Hf
  O1       1.0000 0.03830  0.17891  0.38676  Biso   1.000  O 
  O2       1.0000 0.03920  0.06328  0.90749  Biso   1.000  O 
  O3       1.0000 0.46286  0.43444  0.38601  Biso   1.000  O 
  O4       1.0000 0.46435  0.31494  0.88789  Biso   1.000  O 
  O5       1.0000 0.26586  0.11220  0.49142  Biso   1.000  O 
  O6       1.0000 0.27138  0.13114  0.99891  Biso   1.000  O 
  O7       1.0000 0.22998  0.38101  0.99998  Biso   1.000  O 
  O8       1.0000 0.22991  0.36587  0.50116  Biso   1.000  O 
  Hf4      1.0000 0.13531  0.51624  0.25291  Biso   1.000  Hf
  Hf5      1.0000 0.13576  0.73460  0.75494  Biso   1.000  Hf
  Hf6      1.0000 0.36391  0.76893  0.25684  Biso   1.000  Hf
  Hf7      1.0000 0.36233  0.98343  0.75624  Biso   1.000  Hf
  O9       1.0000 0.03744  0.68446  0.38832  Biso   1.000  O 
  O10      1.0000 0.03762  0.56475  0.88926  Biso   1.000  O 
  O11      1.0000 0.46578  0.93350  0.39483  Biso   1.000  O 
  O12      1.0000 0.46196  0.81569  0.89004  Biso   1.000  O 
  O13      1.0000 0.27131  0.61779  0.50215  Biso   1.000  O 
  O14      1.0000 0.27087  0.63316  0.00200  Biso   1.000  O 
  O15      1.0000 0.22365  0.88671  0.01480  Biso   1.000  O 
  O16      1.0000 0.22906  0.86872  0.50666  Biso   1.000  O 
  Hf8      1.0000 0.63371  0.01599  0.25074  Biso   1.000  Hf
  Hf9      1.0000 0.63479  0.23273  0.75171  Biso   1.000  Hf
  Hf10     1.0000 0.86732  0.26528  0.25061  Biso   1.000  Hf
  Hf11     1.0000 0.86693  0.48316  0.75080  Biso   1.000  Hf
  O17      1.0000 0.53622  0.18409  0.38914  Biso   1.000  O 
  O18      1.0000 0.53676  0.06524  0.88917  Biso   1.000  O 
  O19      1.0000 0.96492  0.43241  0.38676  Biso   1.000  O 
  O20      1.0000 0.96433  0.31313  0.88389  Biso   1.000  O 
  O21      1.0000 0.77273  0.11671  0.49672  Biso   1.000  O 
  O22      1.0000 0.77279  0.13144  0.99691  Biso   1.000  O 
  O23      1.0000 0.73109  0.38154  0.99951  Biso   1.000  O 
  O24      1.0000 0.72986  0.36699  0.49836  Biso   1.000  O 
  Hf12     1.0000 0.63379  0.51677  0.25178  Biso   1.000  Hf
  Hf13     1.0000 0.63426  0.73485  0.74961  Biso   1.000  Hf
  Hf14     1.0000 0.86858  0.76597  0.24717  Biso   1.000  Hf
  Hf15     1.0000 0.86962  0.98500  0.75178  Biso   1.000  Hf
  O25      1.0000 0.53697  0.68548  0.38710  Biso   1.000  O 
  O26      1.0000 0.53887  0.56542  0.88486  Biso   1.000  O 
  O27      1.0000 0.97629  0.93721  0.37958  Biso   1.000  O 
  O28      1.0000 0.96260  0.81448  0.87907  Biso   1.000  O 
  O29      1.0000 0.77185  0.61743  0.49830  Biso   1.000  O 
  O30      1.0000 0.77197  0.63297  0.99879  Biso   1.000  O 
  O31      1.0000 0.73120  0.88323  0.99587  Biso   1.000  O 
  O32      1.0000 0.73609  0.86799  0.49576  Biso   1.000  O 
