data_image0
_cell_length_a       4.95831
_cell_length_b       10.3424
_cell_length_c       9.96643
_cell_angle_alpha    90
_cell_angle_beta     90
_cell_angle_gamma    90

_symmetry_space_group_name_H-M    "P 1"
_symmetry_int_tables_number       1

loop_
  _symmetry_equiv_pos_as_xyz
  'x, y, z'

loop_
  _atom_site_label
  _atom_site_occupancy
  _atom_site_fract_x
  _atom_site_fract_y
  _atom_site_fract_z
  _atom_site_thermal_displace_type
  _atom_site_B_iso_or_equiv
  _atom_site_type_symbol
  Ti1      1.0000 0.26188  0.01926  0.12435  Biso   1.000  Ti
  Hf1      1.0000 0.27020  0.23065  0.37396  Biso   1.000  Hf
  Hf2      1.0000 0.73247  0.26374  0.12491  Biso   1.000  Hf
  Hf3      1.0000 0.73531  0.48239  0.37614  Biso   1.000  Hf
  O1       1.0000 0.07716  0.17963  0.19105  Biso   1.000  O 
  O2       1.0000 0.07509  0.06504  0.44567  Biso   1.000  O 
  O3       1.0000 0.92997  0.43184  0.19388  Biso   1.000  O 
  O4       1.0000 0.93057  0.31371  0.44295  Biso   1.000  O 
  O5       1.0000 0.53469  0.11114  0.24440  Biso   1.000  O 
  O6       1.0000 0.54701  0.13118  0.49754  Biso   1.000  O 
  O7       1.0000 0.46112  0.38074  0.49964  Biso   1.000  O 
  O8       1.0000 0.46196  0.36517  0.24943  Biso   1.000  O 
  Hf4      1.0000 0.27064  0.01561  0.62639  Biso   1.000  Hf
  Hf5      1.0000 0.27354  0.23151  0.87781  Biso   1.000  Hf
  Hf6      1.0000 0.73512  0.26542  0.62602  Biso   1.000  Hf
  Hf7      1.0000 0.73634  0.48301  0.87566  Biso   1.000  Hf
  O9       1.0000 0.07540  0.18289  0.69679  Biso   1.000  O 
  O10      1.0000 0.08016  0.06270  0.95237  Biso   1.000  O 
  O11      1.0000 0.92909  0.43406  0.69258  Biso   1.000  O 
  O12      1.0000 0.93011  0.31337  0.94296  Biso   1.000  O 
  O13      1.0000 0.54567  0.11699  0.74982  Biso   1.000  O 
  O14      1.0000 0.53711  0.13189  0.00040  Biso   1.000  O 
  O15      1.0000 0.45751  0.38241  0.00015  Biso   1.000  O 
  O16      1.0000 0.46115  0.36687  0.75030  Biso   1.000  O 
  Hf8      1.0000 0.26885  0.51609  0.12667  Biso   1.000  Hf
  Hf9      1.0000 0.27321  0.73429  0.37504  Biso   1.000  Hf
  Hf10     1.0000 0.73319  0.76721  0.12513  Biso   1.000  Hf
  Hf11     1.0000 0.73323  0.98348  0.37444  Biso   1.000  Hf
  O17      1.0000 0.07460  0.68495  0.19363  Biso   1.000  O 
  O18      1.0000 0.07783  0.56498  0.44292  Biso   1.000  O 
  O19      1.0000 0.95723  0.93620  0.19054  Biso   1.000  O 
  O20      1.0000 0.93056  0.81581  0.44316  Biso   1.000  O 
  O21      1.0000 0.54448  0.61617  0.24961  Biso   1.000  O 
  O22      1.0000 0.54599  0.63194  0.50004  Biso   1.000  O 
  O23      1.0000 0.46244  0.88209  0.50047  Biso   1.000  O 
  O24      1.0000 0.47317  0.86712  0.24985  Biso   1.000  O 
  Hf12     1.0000 0.27263  0.51608  0.62577  Biso   1.000  Hf
  Hf13     1.0000 0.27058  0.73422  0.87754  Biso   1.000  Hf
  Hf14     1.0000 0.73571  0.76658  0.62699  Biso   1.000  Hf
  Hf15     1.0000 0.73262  0.98392  0.87946  Biso   1.000  Hf
  O25      1.0000 0.07759  0.68423  0.69426  Biso   1.000  O 
  O26      1.0000 0.07868  0.56415  0.94427  Biso   1.000  O 
  O27      1.0000 0.92996  0.93422  0.69587  Biso   1.000  O 
  O28      1.0000 0.92203  0.81353  0.94121  Biso   1.000  O 
  O29      1.0000 0.54521  0.61786  0.75068  Biso   1.000  O 
  O30      1.0000 0.53940  0.63412  0.00053  Biso   1.000  O 
  O31      1.0000 0.44673  0.88769  0.00528  Biso   1.000  O 
  O32      1.0000 0.46130  0.86779  0.75206  Biso   1.000  O 
