data_image0
_cell_length_a       10.0769
_cell_length_b       10.2001
_cell_length_c       10.5302
_cell_angle_alpha    90
_cell_angle_beta     90
_cell_angle_gamma    90

_symmetry_space_group_name_H-M    "P 1"
_symmetry_int_tables_number       1

loop_
  _symmetry_equiv_pos_as_xyz
  'x, y, z'

loop_
  _atom_site_label
  _atom_site_occupancy
  _atom_site_fract_x
  _atom_site_fract_y
  _atom_site_fract_z
  _atom_site_thermal_displace_type
  _atom_site_B_iso_or_equiv
  _atom_site_type_symbol
  Hf1      1.0000 0.13719  0.01927  0.17324  Biso   1.000  Hf
  Hf2      1.0000 0.13514  0.22784  0.42369  Biso   1.000  Hf
  Hf3      1.0000 0.35676  0.26583  0.17692  Biso   1.000  Hf
  Hf4      1.0000 0.36032  0.47753  0.42389  Biso   1.000  Hf
  Hf5      1.0000 0.63518  0.00374  0.08052  Biso   1.000  Hf
  Hf6      1.0000 0.63305  0.22636  0.33130  Biso   1.000  Hf
  Hf7      1.0000 0.87714  0.27674  0.07399  Biso   1.000  Hf
  Hf8      1.0000 0.86056  0.47820  0.32642  Biso   1.000  Hf
  O1       1.0000 0.03491  0.15719  0.07685  Biso   1.000  O 
  O2       1.0000 0.02500  0.09137  0.32778  Biso   1.000  O 
  O3       1.0000 0.47762  0.40216  0.08033  Biso   1.000  O 
  O4       1.0000 0.46739  0.34051  0.32772  Biso   1.000  O 
  O5       1.0000 0.26878  0.12311  0.29950  Biso   1.000  O 
  O6       1.0000 0.27474  0.12303  0.04791  Biso   1.000  O 
  O7       1.0000 0.22230  0.37352  0.29833  Biso   1.000  O 
  O8       1.0000 0.22839  0.37544  0.04641  Biso   1.000  O 
  O9       1.0000 0.51256  0.13593  0.18815  Biso   1.000  O 
  O10      1.0000 0.52418  0.09136  0.42982  Biso   1.000  O 
  O11      1.0000 0.97431  0.41430  0.17344  Biso   1.000  O 
  O12      1.0000 0.96749  0.33907  0.42019  Biso   1.000  O 
  O13      1.0000 0.77284  0.12210  0.45298  Biso   1.000  O 
  O14      1.0000 0.75954  0.13392  0.19556  Biso   1.000  O 
  O15      1.0000 0.72318  0.37444  0.45339  Biso   1.000  O 
  O16      1.0000 0.72327  0.37771  0.19952  Biso   1.000  O 
  Hf9      1.0000 0.13320  0.02018  0.67327  Biso   1.000  Hf
  Hf10     1.0000 0.13778  0.22667  0.92144  Biso   1.000  Hf
  Hf11     1.0000 0.35810  0.27011  0.67244  Biso   1.000  Hf
  Hf12     1.0000 0.35823  0.47735  0.92244  Biso   1.000  Hf
  Hf13     1.0000 0.63447  0.01870  0.57806  Biso   1.000  Hf
  Hf14     1.0000 0.63645  0.22975  0.81793  Biso   1.000  Hf
  Hf15     1.0000 0.85940  0.27142  0.57567  Biso   1.000  Hf
  Hf16     1.0000 0.85942  0.47856  0.82675  Biso   1.000  Hf
  O17      1.0000 0.02738  0.16027  0.57985  Biso   1.000  O 
  O18      1.0000 0.02566  0.08868  0.83041  Biso   1.000  O 
  O19      1.0000 0.46943  0.40598  0.57744  Biso   1.000  O 
  O20      1.0000 0.46796  0.34382  0.82531  Biso   1.000  O 
  O21      1.0000 0.27054  0.12348  0.79640  Biso   1.000  O 
  O22      1.0000 0.27110  0.12466  0.54756  Biso   1.000  O 
  O23      1.0000 0.22266  0.37325  0.79610  Biso   1.000  O 
  O24      1.0000 0.22260  0.37551  0.54700  Biso   1.000  O 
  O25      1.0000 0.52141  0.15071  0.67565  Biso   1.000  O 
  O26      1.0000 0.51736  0.10530  0.93844  Biso   1.000  O 
  O27      1.0000 0.96701  0.41162  0.66861  Biso   1.000  O 
  O28      1.0000 0.97166  0.33986  0.91656  Biso   1.000  O 
  O29      1.0000 0.75912  0.12812  0.95574  Biso   1.000  O 
  O30      1.0000 0.77360  0.12422  0.70039  Biso   1.000  O 
  O31      1.0000 0.72377  0.37687  0.95213  Biso   1.000  O 
  O32      1.0000 0.72369  0.37628  0.70100  Biso   1.000  O 
  Hf17     1.0000 0.14212  0.52171  0.17463  Biso   1.000  Hf
  Hf18     1.0000 0.13708  0.72875  0.42365  Biso   1.000  Hf
  Hf19     1.0000 0.36180  0.76867  0.17435  Biso   1.000  Hf
  Hf20     1.0000 0.36247  0.97756  0.42432  Biso   1.000  Hf
  Hf21     1.0000 0.64447  0.52797  0.07657  Biso   1.000  Hf
  Hf22     1.0000 0.63888  0.72762  0.32929  Biso   1.000  Hf
  Hf23     1.0000 0.86779  0.77056  0.07786  Biso   1.000  Hf
  Hf24     1.0000 0.86192  0.97996  0.32728  Biso   1.000  Hf
  O33      1.0000 0.03615  0.66230  0.08096  Biso   1.000  O 
  O34      1.0000 0.03069  0.58939  0.33171  Biso   1.000  O 
  O35      1.0000 0.47052  0.89781  0.07302  Biso   1.000  O 
  O36      1.0000 0.47187  0.84199  0.32707  Biso   1.000  O 
  O37      1.0000 0.27566  0.62348  0.29844  Biso   1.000  O 
  O38      1.0000 0.27950  0.62420  0.04738  Biso   1.000  O 
  O39      1.0000 0.22515  0.87229  0.29763  Biso   1.000  O 
  O40      1.0000 0.22673  0.87582  0.04686  Biso   1.000  O 
  O41      1.0000 0.53070  0.65734  0.17499  Biso   1.000  O 
  O42      1.0000 0.52850  0.59034  0.42294  Biso   1.000  O 
  O43      1.0000 0.97018  0.91339  0.16949  Biso   1.000  O 
  O44      1.0000 0.96795  0.84106  0.42053  Biso   1.000  O 
  O45      1.0000 0.77502  0.62332  0.45403  Biso   1.000  O 
  O46      1.0000 0.77889  0.62738  0.20395  Biso   1.000  O 
  O47      1.0000 0.72388  0.87337  0.45526  Biso   1.000  O 
  O48      1.0000 0.73066  0.87102  0.20765  Biso   1.000  O 
  Hf25     1.0000 0.13613  0.52097  0.67274  Biso   1.000  Hf
  Hf26     1.0000 0.13619  0.72841  0.92258  Biso   1.000  Hf
  Hf27     1.0000 0.36028  0.77080  0.67340  Biso   1.000  Hf
  Hf28     1.0000 0.36052  0.97892  0.92415  Biso   1.000  Hf
  Hf29     1.0000 0.63696  0.52078  0.57673  Biso   1.000  Hf
  Hf30     1.0000 0.63634  0.72772  0.82660  Biso   1.000  Hf
  Hf31     1.0000 0.86043  0.77180  0.57881  Biso   1.000  Hf
  Hf32     1.0000 0.85924  0.98088  0.82961  Biso   1.000  Hf
  O49      1.0000 0.02992  0.66282  0.58131  Biso   1.000  O 
  O50      1.0000 0.02894  0.58838  0.83007  Biso   1.000  O 
  O51      1.0000 0.47031  0.90434  0.57701  Biso   1.000  O 
  O52      1.0000 0.47105  0.84501  0.82562  Biso   1.000  O 
  O53      1.0000 0.27408  0.62273  0.79769  Biso   1.000  O 
  O54      1.0000 0.27369  0.62518  0.54731  Biso   1.000  O 
  O55      1.0000 0.22352  0.87287  0.79721  Biso   1.000  O 
  O56      1.0000 0.22382  0.87583  0.54750  Biso   1.000  O 
  O57      1.0000 0.52757  0.65703  0.67309  Biso   1.000  O 
  O58      1.0000 0.52587  0.59098  0.92278  Biso   1.000  O 
  O59      1.0000 0.96699  0.91167  0.67168  Biso   1.000  O 
  O60      1.0000 0.96705  0.83837  0.91981  Biso   1.000  O 
  O61      1.0000 0.77426  0.62534  0.95209  Biso   1.000  O 
  O62      1.0000 0.77354  0.62589  0.70321  Biso   1.000  O 
  O63      1.0000 0.72337  0.87139  0.95405  Biso   1.000  O 
  O64      1.0000 0.72385  0.87499  0.70593  Biso   1.000  O 
  Ti1      1.0000 0.62185  0.25279  0.06892  Biso   1.000  Ti
