data_image0
_cell_length_a       5.09437
_cell_length_b       10.0524
_cell_length_c       10.0524
_cell_angle_alpha    90
_cell_angle_beta     90
_cell_angle_gamma    90

_symmetry_space_group_name_H-M    "P 1"
_symmetry_int_tables_number       1

loop_
  _symmetry_equiv_pos_as_xyz
  'x, y, z'

loop_
  _atom_site_label
  _atom_site_occupancy
  _atom_site_fract_x
  _atom_site_fract_y
  _atom_site_fract_z
  _atom_site_thermal_displace_type
  _atom_site_B_iso_or_equiv
  _atom_site_type_symbol
  Hf1      1.0000 0.24982  0.98758  0.12491  Biso   1.000  Hf
  Hf2      1.0000 0.24982  0.25005  0.38739  Biso   1.000  Hf
  Hf3      1.0000 0.74982  0.25006  0.12491  Biso   1.000  Hf
  Hf4      1.0000 0.74679  0.00340  0.37157  Biso   1.000  Hf
  O1       1.0000 0.98529  0.12804  0.00290  Biso   1.000  O 
  O2       1.0000 0.02601  0.12318  0.25179  Biso   1.000  O 
  O3       1.0000 0.98529  0.37207  0.24692  Biso   1.000  O 
  O4       1.0000 0.02601  0.37693  0.99803  Biso   1.000  O 
  O5       1.0000 0.51435  0.12804  0.24692  Biso   1.000  O 
  O6       1.0000 0.47363  0.12318  0.99803  Biso   1.000  O 
  O7       1.0000 0.51435  0.37207  0.00290  Biso   1.000  O 
  O8       1.0000 0.47363  0.37693  0.25179  Biso   1.000  O 
  Hf5      1.0000 0.24982  0.99706  0.62491  Biso   1.000  Hf
  Hf6      1.0000 0.24982  0.25005  0.86243  Biso   1.000  Hf
  Hf7      1.0000 0.74982  0.25005  0.62491  Biso   1.000  Hf
  Hf8      1.0000 0.75284  0.00340  0.87825  Biso   1.000  Hf
  O9       1.0000 0.96270  0.12979  0.50090  Biso   1.000  O 
  O10      1.0000 0.03259  0.11722  0.75032  Biso   1.000  O 
  O11      1.0000 0.96269  0.37032  0.74891  Biso   1.000  O 
  O12      1.0000 0.03259  0.38289  0.49950  Biso   1.000  O 
  O13      1.0000 0.53694  0.12979  0.74891  Biso   1.000  O 
  O14      1.0000 0.46704  0.11722  0.49950  Biso   1.000  O 
  O15      1.0000 0.53694  0.37031  0.50090  Biso   1.000  O 
  O16      1.0000 0.46704  0.38288  0.75032  Biso   1.000  O 
  Hf9      1.0000 0.24982  0.51253  0.12491  Biso   1.000  Hf
  Hf10     1.0000 0.24982  0.75005  0.37790  Biso   1.000  Hf
  Hf11     1.0000 0.74982  0.75005  0.12491  Biso   1.000  Hf
  Hf12     1.0000 0.75284  0.49671  0.37157  Biso   1.000  Hf
  O17      1.0000 0.96269  0.62604  0.00465  Biso   1.000  O 
  O18      1.0000 0.03259  0.62465  0.25774  Biso   1.000  O 
  O19      1.0000 0.96269  0.87407  0.24517  Biso   1.000  O 
  O20      1.0000 0.03259  0.87546  0.99207  Biso   1.000  O 
  O21      1.0000 0.53694  0.62604  0.24517  Biso   1.000  O 
  O22      1.0000 0.46704  0.62465  0.99207  Biso   1.000  O 
  O23      1.0000 0.53694  0.87406  0.00465  Biso   1.000  O 
  O24      1.0000 0.46705  0.87546  0.25774  Biso   1.000  O 
  Hf13     1.0000 0.24982  0.50304  0.62491  Biso   1.000  Hf
  Hf14     1.0000 0.24982  0.75005  0.87192  Biso   1.000  Hf
  Hf15     1.0000 0.74982  0.75005  0.62491  Biso   1.000  Hf
  Hf16     1.0000 0.74679  0.49671  0.87825  Biso   1.000  Hf
  O25      1.0000 0.95831  0.62858  0.50344  Biso   1.000  O 
  O26      1.0000 0.04096  0.61868  0.75629  Biso   1.000  O 
  O27      1.0000 0.95831  0.87153  0.74638  Biso   1.000  O 
  O28      1.0000 0.04096  0.88143  0.49353  Biso   1.000  O 
  O29      1.0000 0.54132  0.62858  0.74637  Biso   1.000  O 
  O30      1.0000 0.45868  0.61867  0.49353  Biso   1.000  O 
  O31      1.0000 0.54132  0.87153  0.50344  Biso   1.000  O 
  O32      1.0000 0.45868  0.88143  0.75629  Biso   1.000  O 
  Ti1      1.0000 0.24982  0.25005  0.12491  Biso   1.000  Ti
