data_image0
_cell_length_a       10.24
_cell_length_b       5.13335
_cell_length_c       10.5645
_cell_angle_alpha    90
_cell_angle_beta     80
_cell_angle_gamma    90

_symmetry_space_group_name_H-M    "P 1"
_symmetry_int_tables_number       1

loop_
  _symmetry_equiv_pos_as_xyz
  'x, y, z'

loop_
  _atom_site_label
  _atom_site_occupancy
  _atom_site_fract_x
  _atom_site_fract_y
  _atom_site_fract_z
  _atom_site_thermal_displace_type
  _atom_site_B_iso_or_equiv
  _atom_site_type_symbol
  Hf1      1.0000 0.13917  0.03859  0.14575  Biso   1.000  Hf
  Hf2      1.0000 0.12701  0.45138  0.39737  Biso   1.000  Hf
  Hf3      1.0000 0.36062  0.53980  0.09457  Biso   1.000  Hf
  Hf4      1.0000 0.36798  0.97963  0.35374  Biso   1.000  Hf
  O1       1.0000 0.03247  0.31475  0.07058  Biso   1.000  O 
  O2       1.0000 0.02881  0.17689  0.31800  Biso   1.000  O 
  O3       1.0000 0.48125  0.78713  0.19226  Biso   1.000  O 
  O4       1.0000 0.49288  0.73104  0.44008  Biso   1.000  O 
  O5       1.0000 0.27543  0.25055  0.23752  Biso   1.000  O 
  O6       1.0000 0.27726  0.25827  0.48886  Biso   1.000  O 
  O7       1.0000 0.22417  0.75707  0.00591  Biso   1.000  O 
  O8       1.0000 0.23846  0.73122  0.25919  Biso   1.000  O 
  Hf5      1.0000 0.14674  0.04852  0.64283  Biso   1.000  Hf
  Hf6      1.0000 0.14771  0.46501  0.89159  Biso   1.000  Hf
  Hf7      1.0000 0.37414  0.55683  0.60701  Biso   1.000  Hf
  Hf8      1.0000 0.37356  0.97093  0.85198  Biso   1.000  Hf
  O9       1.0000 0.03294  0.32553  0.57579  Biso   1.000  O 
  O10      1.0000 0.04114  0.18481  0.81986  Biso   1.000  O 
  O11      1.0000 0.48242  0.82886  0.68338  Biso   1.000  O 
  O12      1.0000 0.48598  0.70850  0.92978  Biso   1.000  O 
  O13      1.0000 0.28259  0.26365  0.73821  Biso   1.000  O 
  O14      1.0000 0.28428  0.25744  0.98598  Biso   1.000  O 
  O15      1.0000 0.24387  0.74973  0.50103  Biso   1.000  O 
  O16      1.0000 0.23499  0.75644  0.75737  Biso   1.000  O 
  Hf9      1.0000 0.63868  0.03989  0.14641  Biso   1.000  Hf
  Hf10     1.0000 0.65026  0.47497  0.39925  Biso   1.000  Hf
  Hf11     1.0000 0.86572  0.54181  0.10442  Biso   1.000  Hf
  Hf12     1.0000 0.86514  0.96397  0.35390  Biso   1.000  Hf
  O17      1.0000 0.52786  0.30204  0.06936  Biso   1.000  O 
  O18      1.0000 0.53136  0.21264  0.32108  Biso   1.000  O 
  O19      1.0000 0.97474  0.81499  0.17654  Biso   1.000  O 
  O20      1.0000 0.97077  0.69305  0.42940  Biso   1.000  O 
  O21      1.0000 0.77577  0.25844  0.23800  Biso   1.000  O 
  O22      1.0000 0.78294  0.25327  0.49054  Biso   1.000  O 
  O23      1.0000 0.72787  0.75430  0.01324  Biso   1.000  O 
  O24      1.0000 0.73288  0.75162  0.26134  Biso   1.000  O 
  Hf13     1.0000 0.64431  0.05608  0.64695  Biso   1.000  Hf
  Hf14     1.0000 0.64860  0.46712  0.89631  Biso   1.000  Hf
  Hf15     1.0000 0.86790  0.55580  0.60777  Biso   1.000  Hf
  Hf16     1.0000 0.87463  0.96796  0.85319  Biso   1.000  Hf
  O25      1.0000 0.53804  0.32562  0.56976  Biso   1.000  O 
  O26      1.0000 0.53688  0.20372  0.81997  Biso   1.000  O 
  O27      1.0000 0.98055  0.83015  0.67520  Biso   1.000  O 
  O28      1.0000 0.97879  0.68443  0.92355  Biso   1.000  O 
  O29      1.0000 0.78155  0.26685  0.74044  Biso   1.000  O 
  O30      1.0000 0.78479  0.25437  0.98849  Biso   1.000  O 
  O31      1.0000 0.73299  0.76584  0.51402  Biso   1.000  O 
  O32      1.0000 0.73703  0.75663  0.76239  Biso   1.000  O 
  Ti1      1.0000 0.38393  0.49657  0.34059  Biso   1.000  Ti
