data_image0
_cell_length_a       10.1858
_cell_length_b       10.2792
_cell_length_c       5.2978
_cell_angle_alpha    90
_cell_angle_beta     80
_cell_angle_gamma    90

_symmetry_space_group_name_H-M    "P 1"
_symmetry_int_tables_number       1

loop_
  _symmetry_equiv_pos_as_xyz
  'x, y, z'

loop_
  _atom_site_label
  _atom_site_occupancy
  _atom_site_fract_x
  _atom_site_fract_y
  _atom_site_fract_z
  _atom_site_thermal_displace_type
  _atom_site_B_iso_or_equiv
  _atom_site_type_symbol
  Hf1      1.0000 0.13327  0.01754  0.29925  Biso   1.000  Hf
  Hf2      1.0000 0.13802  0.22634  0.77699  Biso   1.000  Hf
  Hf3      1.0000 0.35263  0.27702  0.16788  Biso   1.000  Hf
  Hf4      1.0000 0.36510  0.49015  0.70070  Biso   1.000  Hf
  O1       1.0000 0.04109  0.16385  0.14802  Biso   1.000  O 
  O2       1.0000 0.03299  0.08152  0.65355  Biso   1.000  O 
  O3       1.0000 0.47656  0.40633  0.35989  Biso   1.000  O 
  O4       1.0000 0.48282  0.35102  0.84781  Biso   1.000  O 
  O5       1.0000 0.27864  0.12074  0.44747  Biso   1.000  O 
  O6       1.0000 0.29853  0.13593  0.91369  Biso   1.000  O 
  O7       1.0000 0.21598  0.39039  0.00255  Biso   1.000  O 
  O8       1.0000 0.24417  0.36108  0.51112  Biso   1.000  O 
  Hf5      1.0000 0.14078  0.52440  0.28975  Biso   1.000  Hf
  Hf6      1.0000 0.14258  0.72876  0.79431  Biso   1.000  Hf
  Hf7      1.0000 0.36580  0.77148  0.20688  Biso   1.000  Hf
  Hf8      1.0000 0.37047  0.96733  0.69962  Biso   1.000  Hf
  O9       1.0000 0.03351  0.66374  0.15636  Biso   1.000  O 
  O10      1.0000 0.04110  0.58497  0.65464  Biso   1.000  O 
  O11      1.0000 0.47462  0.91181  0.34948  Biso   1.000  O 
  O12      1.0000 0.47559  0.83005  0.85205  Biso   1.000  O 
  O13      1.0000 0.28089  0.62653  0.47672  Biso   1.000  O 
  O14      1.0000 0.28255  0.62888  0.98057  Biso   1.000  O 
  O15      1.0000 0.22659  0.88488  0.02034  Biso   1.000  O 
  O16      1.0000 0.22704  0.86500  0.51701  Biso   1.000  O 
  Hf9      1.0000 0.63853  0.02511  0.30532  Biso   1.000  Hf
  Hf10     1.0000 0.64964  0.22988  0.80688  Biso   1.000  Hf
  Hf11     1.0000 0.86479  0.27106  0.22098  Biso   1.000  Hf
  Hf12     1.0000 0.86879  0.47812  0.71642  Biso   1.000  Hf
  O17      1.0000 0.52508  0.16927  0.18130  Biso   1.000  O 
  O18      1.0000 0.54150  0.07399  0.68335  Biso   1.000  O 
  O19      1.0000 0.97587  0.41056  0.35770  Biso   1.000  O 
  O20      1.0000 0.97148  0.33549  0.85514  Biso   1.000  O 
  O21      1.0000 0.78305  0.12759  0.49168  Biso   1.000  O 
  O22      1.0000 0.77709  0.12073  0.00033  Biso   1.000  O 
  O23      1.0000 0.72790  0.37759  0.03619  Biso   1.000  O 
  O24      1.0000 0.73597  0.37307  0.53338  Biso   1.000  O 
  Hf13     1.0000 0.64296  0.52004  0.30071  Biso   1.000  Hf
  Hf14     1.0000 0.64743  0.72621  0.79843  Biso   1.000  Hf
  Hf15     1.0000 0.86150  0.77200  0.21706  Biso   1.000  Hf
  Hf16     1.0000 0.86357  0.97690  0.71877  Biso   1.000  Hf
  O25      1.0000 0.53455  0.65963  0.15570  Biso   1.000  O 
  O26      1.0000 0.53972  0.58986  0.65008  Biso   1.000  O 
  O27      1.0000 0.96965  0.91047  0.35925  Biso   1.000  O 
  O28      1.0000 0.97317  0.83584  0.85638  Biso   1.000  O 
  O29      1.0000 0.78252  0.62774  0.48627  Biso   1.000  O 
  O30      1.0000 0.78468  0.62039  0.98560  Biso   1.000  O 
  O31      1.0000 0.72432  0.87873  0.03246  Biso   1.000  O 
  O32      1.0000 0.72845  0.87097  0.52873  Biso   1.000  O 
  Ti1      1.0000 0.42234  0.22923  0.58691  Biso   1.000  Ti
