data_image0
_cell_length_a       10.0524
_cell_length_b       5.09435
_cell_length_c       10.0524
_cell_angle_alpha    90
_cell_angle_beta     90
_cell_angle_gamma    90

_symmetry_space_group_name_H-M    "P 1"
_symmetry_int_tables_number       1

loop_
  _symmetry_equiv_pos_as_xyz
  'x, y, z'

loop_
  _atom_site_label
  _atom_site_occupancy
  _atom_site_fract_x
  _atom_site_fract_y
  _atom_site_fract_z
  _atom_site_thermal_displace_type
  _atom_site_B_iso_or_equiv
  _atom_site_type_symbol
  Hf1      1.0000 0.12505  0.00019  0.10717  Biso   1.000  Hf
  Hf2      1.0000 0.12506  0.50019  0.36966  Biso   1.000  Hf
  Hf3      1.0000 0.38753  0.50018  0.10718  Biso   1.000  Hf
  Hf4      1.0000 0.37171  0.00321  0.35383  Biso   1.000  Hf
  O1       1.0000 0.99816  0.27639  0.23404  Biso   1.000  O 
  O2       1.0000 0.00481  0.21307  0.48316  Biso   1.000  O 
  O3       1.0000 0.50106  0.78731  0.22744  Biso   1.000  O 
  O4       1.0000 0.49366  0.70905  0.47579  Biso   1.000  O 
  O5       1.0000 0.24705  0.23567  0.22920  Biso   1.000  O 
  O6       1.0000 0.25790  0.28295  0.48177  Biso   1.000  O 
  O7       1.0000 0.24530  0.78730  0.48316  Biso   1.000  O 
  O8       1.0000 0.25194  0.72401  0.23404  Biso   1.000  O 
  Hf5      1.0000 0.12506  0.00018  0.60717  Biso   1.000  Hf
  Hf6      1.0000 0.12506  0.50019  0.84470  Biso   1.000  Hf
  Hf7      1.0000 0.37805  0.50017  0.60718  Biso   1.000  Hf
  Hf8      1.0000 0.37171  0.99716  0.86052  Biso   1.000  Hf
  O9       1.0000 0.99222  0.28296  0.73258  Biso   1.000  O 
  O10      1.0000 0.00305  0.23567  0.98515  Biso   1.000  O 
  O11      1.0000 0.50359  0.79167  0.72865  Biso   1.000  O 
  O12      1.0000 0.49964  0.71741  0.97434  Biso   1.000  O 
  O13      1.0000 0.24531  0.21307  0.73119  Biso   1.000  O 
  O14      1.0000 0.25194  0.27638  0.98031  Biso   1.000  O 
  O15      1.0000 0.24706  0.76471  0.98516  Biso   1.000  O 
  O16      1.0000 0.25790  0.71742  0.73258  Biso   1.000  O 
  Hf9      1.0000 0.62505  0.00018  0.10717  Biso   1.000  Hf
  Hf10     1.0000 0.62505  0.50018  0.36016  Biso   1.000  Hf
  Hf11     1.0000 0.86258  0.50019  0.10718  Biso   1.000  Hf
  Hf12     1.0000 0.87839  0.99717  0.35383  Biso   1.000  Hf
  O17      1.0000 0.49963  0.28296  0.24001  Biso   1.000  O 
  O18      1.0000 0.50360  0.20870  0.48570  Biso   1.000  O 
  O19      1.0000 0.00305  0.76472  0.22920  Biso   1.000  O 
  O20      1.0000 0.99221  0.71741  0.48177  Biso   1.000  O 
  O21      1.0000 0.74905  0.21307  0.22744  Biso   1.000  O 
  O22      1.0000 0.75645  0.29131  0.47578  Biso   1.000  O 
  O23      1.0000 0.74652  0.79167  0.48570  Biso   1.000  O 
  O24      1.0000 0.75047  0.71742  0.24001  Biso   1.000  O 
  Hf13     1.0000 0.62506  0.00018  0.60718  Biso   1.000  Hf
  Hf14     1.0000 0.62505  0.50020  0.85418  Biso   1.000  Hf
  Hf15     1.0000 0.87206  0.50018  0.60717  Biso   1.000  Hf
  Hf16     1.0000 0.87840  0.00322  0.86052  Biso   1.000  Hf
  O25      1.0000 0.49366  0.29131  0.73856  Biso   1.000  O 
  O26      1.0000 0.50106  0.21306  0.98691  Biso   1.000  O 
  O27      1.0000 0.00480  0.78731  0.73119  Biso   1.000  O 
  O28      1.0000 0.99817  0.72400  0.98031  Biso   1.000  O 
  O29      1.0000 0.74652  0.20870  0.72864  Biso   1.000  O 
  O30      1.0000 0.75047  0.28297  0.97434  Biso   1.000  O 
  O31      1.0000 0.74905  0.78731  0.98691  Biso   1.000  O 
  O32      1.0000 0.75644  0.70906  0.73855  Biso   1.000  O 
  Ti1      1.0000 0.12506  0.50019  0.10718  Biso   1.000  Ti
