data_image0
_cell_length_a       10.0642
_cell_length_b       10.247
_cell_length_c       5.20486
_cell_angle_alpha    90
_cell_angle_beta     80
_cell_angle_gamma    90

_symmetry_space_group_name_H-M    "P 1"
_symmetry_int_tables_number       1

loop_
  _symmetry_equiv_pos_as_xyz
  'x, y, z'

loop_
  _atom_site_label
  _atom_site_occupancy
  _atom_site_fract_x
  _atom_site_fract_y
  _atom_site_fract_z
  _atom_site_thermal_displace_type
  _atom_site_B_iso_or_equiv
  _atom_site_type_symbol
  Ti1      1.0000 0.13062  0.02408  0.29172  Biso   1.000  Ti
  Hf1      1.0000 0.13867  0.22545  0.78763  Biso   1.000  Hf
  Hf2      1.0000 0.35923  0.26920  0.20747  Biso   1.000  Hf
  Hf3      1.0000 0.35944  0.47814  0.70965  Biso   1.000  Hf
  O1       1.0000 0.03784  0.16024  0.16120  Biso   1.000  O 
  O2       1.0000 0.03662  0.07869  0.64726  Biso   1.000  O 
  O3       1.0000 0.46253  0.42018  0.33716  Biso   1.000  O 
  O4       1.0000 0.46086  0.32821  0.83797  Biso   1.000  O 
  O5       1.0000 0.27107  0.12483  0.47225  Biso   1.000  O 
  O6       1.0000 0.27268  0.12080  0.98078  Biso   1.000  O 
  O7       1.0000 0.22295  0.37921  0.01796  Biso   1.000  O 
  O8       1.0000 0.22261  0.36871  0.51920  Biso   1.000  O 
  Hf4      1.0000 0.14011  0.52143  0.29246  Biso   1.000  Hf
  Hf5      1.0000 0.13838  0.72964  0.79312  Biso   1.000  Hf
  Hf6      1.0000 0.35852  0.77488  0.21145  Biso   1.000  Hf
  Hf7      1.0000 0.35683  0.97877  0.70917  Biso   1.000  Hf
  O9       1.0000 0.03702  0.66964  0.16396  Biso   1.000  O 
  O10      1.0000 0.03589  0.57909  0.66491  Biso   1.000  O 
  O11      1.0000 0.46503  0.91982  0.33974  Biso   1.000  O 
  O12      1.0000 0.45937  0.82931  0.83910  Biso   1.000  O 
  O13      1.0000 0.27669  0.62923  0.48287  Biso   1.000  O 
  O14      1.0000 0.27471  0.62121  0.98362  Biso   1.000  O 
  O15      1.0000 0.22006  0.88580  0.02853  Biso   1.000  O 
  O16      1.0000 0.22094  0.87137  0.52088  Biso   1.000  O 
  Hf8      1.0000 0.63732  0.02106  0.29242  Biso   1.000  Hf
  Hf9      1.0000 0.63652  0.22751  0.79227  Biso   1.000  Hf
  Hf10     1.0000 0.86126  0.27039  0.20979  Biso   1.000  Hf
  Hf11     1.0000 0.86032  0.47757  0.71089  Biso   1.000  Hf
  O17      1.0000 0.53696  0.17087  0.16263  Biso   1.000  O 
  O18      1.0000 0.53334  0.07920  0.66310  Biso   1.000  O 
  O19      1.0000 0.96579  0.41647  0.34178  Biso   1.000  O 
  O20      1.0000 0.96258  0.32693  0.84295  Biso   1.000  O 
  O21      1.0000 0.77630  0.12823  0.48134  Biso   1.000  O 
  O22      1.0000 0.77527  0.11946  0.98161  Biso   1.000  O 
  O23      1.0000 0.72502  0.37908  0.01996  Biso   1.000  O 
  O24      1.0000 0.72277  0.36996  0.51937  Biso   1.000  O 
  Hf12     1.0000 0.63781  0.52201  0.29261  Biso   1.000  Hf
  Hf13     1.0000 0.63648  0.72895  0.79506  Biso   1.000  Hf
  Hf14     1.0000 0.86307  0.77149  0.20902  Biso   1.000  Hf
  Hf15     1.0000 0.86273  0.97834  0.70708  Biso   1.000  Hf
  O25      1.0000 0.53633  0.67180  0.16373  Biso   1.000  O 
  O26      1.0000 0.53558  0.57861  0.66504  Biso   1.000  O 
  O27      1.0000 0.97286  0.92146  0.33427  Biso   1.000  O 
  O28      1.0000 0.96195  0.82876  0.83906  Biso   1.000  O 
  O29      1.0000 0.77700  0.62873  0.48363  Biso   1.000  O 
  O30      1.0000 0.77495  0.62049  0.98455  Biso   1.000  O 
  O31      1.0000 0.72503  0.87957  0.01867  Biso   1.000  O 
  O32      1.0000 0.72683  0.87091  0.51812  Biso   1.000  O 
