data_image0
_cell_length_a       10.0646
_cell_length_b       5.12305
_cell_length_c       10.409
_cell_angle_alpha    90
_cell_angle_beta     80
_cell_angle_gamma    90

_symmetry_space_group_name_H-M    "P 1"
_symmetry_int_tables_number       1

loop_
  _symmetry_equiv_pos_as_xyz
  'x, y, z'

loop_
  _atom_site_label
  _atom_site_occupancy
  _atom_site_fract_x
  _atom_site_fract_y
  _atom_site_fract_z
  _atom_site_thermal_displace_type
  _atom_site_B_iso_or_equiv
  _atom_site_type_symbol
  Ti1      1.0000 0.13202  0.04922  0.14646  Biso   1.000  Ti
  Hf1      1.0000 0.13749  0.45478  0.39315  Biso   1.000  Hf
  Hf2      1.0000 0.35578  0.54441  0.10553  Biso   1.000  Hf
  Hf3      1.0000 0.35756  0.95567  0.35229  Biso   1.000  Hf
  O1       1.0000 0.03809  0.32507  0.08449  Biso   1.000  O 
  O2       1.0000 0.03782  0.15393  0.32474  Biso   1.000  O 
  O3       1.0000 0.46415  0.83780  0.16883  Biso   1.000  O 
  O4       1.0000 0.46164  0.65924  0.41885  Biso   1.000  O 
  O5       1.0000 0.27123  0.25022  0.23700  Biso   1.000  O 
  O6       1.0000 0.27430  0.24104  0.48977  Biso   1.000  O 
  O7       1.0000 0.21866  0.77104  0.01436  Biso   1.000  O 
  O8       1.0000 0.22070  0.74037  0.25911  Biso   1.000  O 
  Hf4      1.0000 0.13482  0.04102  0.64610  Biso   1.000  Hf
  Hf5      1.0000 0.13470  0.45417  0.89791  Biso   1.000  Hf
  Hf6      1.0000 0.35756  0.54228  0.60455  Biso   1.000  Hf
  Hf7      1.0000 0.35355  0.95672  0.85785  Biso   1.000  Hf
  O9       1.0000 0.03153  0.33254  0.57835  Biso   1.000  O 
  O10      1.0000 0.03033  0.16053  0.83154  Biso   1.000  O 
  O11      1.0000 0.45841  0.84075  0.67013  Biso   1.000  O 
  O12      1.0000 0.45367  0.65382  0.92008  Biso   1.000  O 
  O13      1.0000 0.27211  0.25663  0.74150  Biso   1.000  O 
  O14      1.0000 0.26777  0.24028  0.99387  Biso   1.000  O 
  O15      1.0000 0.21955  0.75633  0.50951  Biso   1.000  O 
  O16      1.0000 0.21785  0.73883  0.76154  Biso   1.000  O 
  Hf8      1.0000 0.63686  0.04486  0.14599  Biso   1.000  Hf
  Hf9      1.0000 0.63709  0.45639  0.39601  Biso   1.000  Hf
  Hf10     1.0000 0.86289  0.54349  0.10500  Biso   1.000  Hf
  Hf11     1.0000 0.86186  0.95655  0.35353  Biso   1.000  Hf
  O17      1.0000 0.53483  0.34271  0.08194  Biso   1.000  O 
  O18      1.0000 0.53401  0.15898  0.33118  Biso   1.000  O 
  O19      1.0000 0.97310  0.84079  0.16727  Biso   1.000  O 
  O20      1.0000 0.96094  0.65480  0.41823  Biso   1.000  O 
  O21      1.0000 0.77697  0.25744  0.24072  Biso   1.000  O 
  O22      1.0000 0.77466  0.23819  0.49082  Biso   1.000  O 
  O23      1.0000 0.72463  0.75902  0.01004  Biso   1.000  O 
  O24      1.0000 0.72668  0.74152  0.25832  Biso   1.000  O 
  Hf12     1.0000 0.63389  0.03963  0.64712  Biso   1.000  Hf
  Hf13     1.0000 0.63133  0.45515  0.89818  Biso   1.000  Hf
  Hf14     1.0000 0.85692  0.53912  0.60494  Biso   1.000  Hf
  Hf15     1.0000 0.85627  0.95427  0.85584  Biso   1.000  Hf
  O25      1.0000 0.53368  0.34078  0.58191  Biso   1.000  O 
  O26      1.0000 0.53027  0.15499  0.83361  Biso   1.000  O 
  O27      1.0000 0.96051  0.83426  0.67103  Biso   1.000  O 
  O28      1.0000 0.95885  0.65572  0.92288  Biso   1.000  O 
  O29      1.0000 0.77162  0.25546  0.74233  Biso   1.000  O 
  O30      1.0000 0.77095  0.24058  0.99273  Biso   1.000  O 
  O31      1.0000 0.72047  0.75641  0.50990  Biso   1.000  O 
  O32      1.0000 0.71789  0.73907  0.76107  Biso   1.000  O 
