data_image0
_cell_length_a       10.1089
_cell_length_b       10.191
_cell_length_c       5.2919
_cell_angle_alpha    90
_cell_angle_beta     90
_cell_angle_gamma    90

_symmetry_space_group_name_H-M    "P 1"
_symmetry_int_tables_number       1

loop_
  _symmetry_equiv_pos_as_xyz
  'x, y, z'

loop_
  _atom_site_label
  _atom_site_occupancy
  _atom_site_fract_x
  _atom_site_fract_y
  _atom_site_fract_z
  _atom_site_thermal_displace_type
  _atom_site_B_iso_or_equiv
  _atom_site_type_symbol
  Hf1      1.0000 0.13552  0.01960  0.34872  Biso   1.000  Hf
  Hf2      1.0000 0.13824  0.22729  0.84642  Biso   1.000  Hf
  Hf3      1.0000 0.35773  0.26621  0.35421  Biso   1.000  Hf
  Hf4      1.0000 0.36061  0.47756  0.84876  Biso   1.000  Hf
  Hf5      1.0000 0.63494  0.00200  0.16123  Biso   1.000  Hf
  Hf6      1.0000 0.63430  0.22696  0.64366  Biso   1.000  Hf
  Hf7      1.0000 0.87735  0.27740  0.14660  Biso   1.000  Hf
  Hf8      1.0000 0.86230  0.47871  0.65246  Biso   1.000  Hf
  O1       1.0000 0.03342  0.15491  0.15002  Biso   1.000  O 
  O2       1.0000 0.02342  0.09439  0.65310  Biso   1.000  O 
  O3       1.0000 0.47901  0.40153  0.16109  Biso   1.000  O 
  O4       1.0000 0.46852  0.34301  0.65406  Biso   1.000  O 
  O5       1.0000 0.26845  0.12344  0.59904  Biso   1.000  O 
  O6       1.0000 0.27419  0.12308  0.09849  Biso   1.000  O 
  O7       1.0000 0.22426  0.37439  0.59794  Biso   1.000  O 
  O8       1.0000 0.22959  0.37544  0.09606  Biso   1.000  O 
  O9       1.0000 0.51251  0.13370  0.37649  Biso   1.000  O 
  O10      1.0000 0.51727  0.10552  0.88538  Biso   1.000  O 
  O11      1.0000 0.97551  0.41378  0.34815  Biso   1.000  O 
  O12      1.0000 0.97503  0.34362  0.83897  Biso   1.000  O 
  O13      1.0000 0.76087  0.12707  0.90998  Biso   1.000  O 
  O14      1.0000 0.76352  0.13025  0.38573  Biso   1.000  O 
  O15      1.0000 0.72563  0.37678  0.90211  Biso   1.000  O 
  O16      1.0000 0.72512  0.37716  0.39368  Biso   1.000  O 
  Hf9      1.0000 0.14264  0.52226  0.35104  Biso   1.000  Hf
  Hf10     1.0000 0.13822  0.72959  0.84857  Biso   1.000  Hf
  Hf11     1.0000 0.36385  0.76930  0.35146  Biso   1.000  Hf
  Hf12     1.0000 0.36445  0.97864  0.85175  Biso   1.000  Hf
  Hf13     1.0000 0.64579  0.52782  0.15162  Biso   1.000  Hf
  Hf14     1.0000 0.64024  0.72733  0.65581  Biso   1.000  Hf
  Hf15     1.0000 0.86978  0.77164  0.15741  Biso   1.000  Hf
  Hf16     1.0000 0.86288  0.98318  0.65759  Biso   1.000  Hf
  O17      1.0000 0.03685  0.66209  0.16057  Biso   1.000  O 
  O18      1.0000 0.03122  0.59224  0.65994  Biso   1.000  O 
  O19      1.0000 0.47370  0.89426  0.14190  Biso   1.000  O 
  O20      1.0000 0.47667  0.84797  0.64707  Biso   1.000  O 
  O21      1.0000 0.27726  0.62348  0.60045  Biso   1.000  O 
  O22      1.0000 0.28008  0.62453  0.09800  Biso   1.000  O 
  O23      1.0000 0.22807  0.87275  0.59860  Biso   1.000  O 
  O24      1.0000 0.22918  0.87621  0.09785  Biso   1.000  O 
  O25      1.0000 0.53136  0.65572  0.35352  Biso   1.000  O 
  O26      1.0000 0.52793  0.59217  0.84900  Biso   1.000  O 
  O27      1.0000 0.97247  0.91182  0.34732  Biso   1.000  O 
  O28      1.0000 0.97079  0.84390  0.84550  Biso   1.000  O 
  O29      1.0000 0.77737  0.62563  0.90388  Biso   1.000  O 
  O30      1.0000 0.77956  0.62694  0.40611  Biso   1.000  O 
  O31      1.0000 0.72710  0.87159  0.90928  Biso   1.000  O 
  O32      1.0000 0.73344  0.87100  0.41744  Biso   1.000  O 
  Ti1      1.0000 0.62200  0.25191  0.13509  Biso   1.000  Ti
