data_image0
_cell_length_a       10.0683
_cell_length_b       10.2762
_cell_length_c       5.0765
_cell_angle_alpha    90
_cell_angle_beta     90
_cell_angle_gamma    90

_symmetry_space_group_name_H-M    "P 1"
_symmetry_int_tables_number       1

loop_
  _symmetry_equiv_pos_as_xyz
  'x, y, z'

loop_
  _atom_site_label
  _atom_site_occupancy
  _atom_site_fract_x
  _atom_site_fract_y
  _atom_site_fract_z
  _atom_site_thermal_displace_type
  _atom_site_B_iso_or_equiv
  _atom_site_type_symbol
  Hf1      1.0000 0.12157  0.98631  0.24572  Biso   1.000  Hf
  Hf2      1.0000 0.12015  0.24031  0.70440  Biso   1.000  Hf
  Hf3      1.0000 0.38368  0.26497  0.21099  Biso   1.000  Hf
  Hf4      1.0000 0.36301  0.48421  0.72963  Biso   1.000  Hf
  O1       1.0000 0.99882  0.14044  0.43663  Biso   1.000  O 
  O2       1.0000 0.01194  0.08790  0.93949  Biso   1.000  O 
  O3       1.0000 0.47408  0.43272  0.38573  Biso   1.000  O 
  O4       1.0000 0.46840  0.32533  0.88006  Biso   1.000  O 
  O5       1.0000 0.24716  0.11550  0.44753  Biso   1.000  O 
  O6       1.0000 0.25695  0.14235  0.95181  Biso   1.000  O 
  O7       1.0000 0.22517  0.38397  0.96751  Biso   1.000  O 
  O8       1.0000 0.24245  0.36217  0.45944  Biso   1.000  O 
  Hf5      1.0000 0.14069  0.51853  0.23315  Biso   1.000  Hf
  Hf6      1.0000 0.12440  0.74000  0.73818  Biso   1.000  Hf
  Hf7      1.0000 0.37573  0.76649  0.23260  Biso   1.000  Hf
  Hf8      1.0000 0.36228  0.99149  0.73218  Biso   1.000  Hf
  O9       1.0000 0.02591  0.65945  0.41514  Biso   1.000  O 
  O10      1.0000 0.02268  0.57935  0.90304  Biso   1.000  O 
  O11      1.0000 0.47116  0.93247  0.39557  Biso   1.000  O 
  O12      1.0000 0.47176  0.82564  0.89478  Biso   1.000  O 
  O13      1.0000 0.27328  0.61651  0.47693  Biso   1.000  O 
  O14      1.0000 0.26224  0.63566  0.97619  Biso   1.000  O 
  O15      1.0000 0.23618  0.88738  0.97964  Biso   1.000  O 
  O16      1.0000 0.24185  0.85723  0.48610  Biso   1.000  O 
  Hf9      1.0000 0.62521  0.01008  0.24596  Biso   1.000  Hf
  Hf10     1.0000 0.62764  0.23115  0.74393  Biso   1.000  Hf
  Hf11     1.0000 0.85704  0.25735  0.25414  Biso   1.000  Hf
  Hf12     1.0000 0.86761  0.47727  0.75432  Biso   1.000  Hf
  O17      1.0000 0.53005  0.17586  0.40615  Biso   1.000  O 
  O18      1.0000 0.51430  0.07467  0.90775  Biso   1.000  O 
  O19      1.0000 0.99528  0.39251  0.44185  Biso   1.000  O 
  O20      1.0000 0.96790  0.32780  0.94471  Biso   1.000  O 
  O21      1.0000 0.75592  0.10585  0.50324  Biso   1.000  O 
  O22      1.0000 0.75063  0.12896  0.99930  Biso   1.000  O 
  O23      1.0000 0.72591  0.38083  0.99354  Biso   1.000  O 
  O24      1.0000 0.73464  0.36398  0.49819  Biso   1.000  O 
  Hf13     1.0000 0.63618  0.51626  0.24043  Biso   1.000  Hf
  Hf14     1.0000 0.63125  0.73372  0.74705  Biso   1.000  Hf
  Hf15     1.0000 0.86861  0.75886  0.26523  Biso   1.000  Hf
  Hf16     1.0000 0.87184  0.98665  0.76696  Biso   1.000  Hf
  O25      1.0000 0.54046  0.68413  0.38824  Biso   1.000  O 
  O26      1.0000 0.52695  0.57164  0.88998  Biso   1.000  O 
  O27      1.0000 0.98874  0.89377  0.49530  Biso   1.000  O 
  O28      1.0000 0.98742  0.83654  0.98868  Biso   1.000  O 
  O29      1.0000 0.77109  0.60864  0.49513  Biso   1.000  O 
  O30      1.0000 0.76565  0.63109  0.99288  Biso   1.000  O 
  O31      1.0000 0.73710  0.88009  0.99790  Biso   1.000  O 
  O32      1.0000 0.73727  0.86235  0.49835  Biso   1.000  O 
  Ti1      1.0000 0.12294  0.24916  0.20250  Biso   1.000  Ti
