data_image0
_cell_length_a       10.0975
_cell_length_b       10.4108
_cell_length_c       5.28088
_cell_angle_alpha    90
_cell_angle_beta     90
_cell_angle_gamma    90

_symmetry_space_group_name_H-M    "P 1"
_symmetry_int_tables_number       1

loop_
  _symmetry_equiv_pos_as_xyz
  'x, y, z'

loop_
  _atom_site_label
  _atom_site_occupancy
  _atom_site_fract_x
  _atom_site_fract_y
  _atom_site_fract_z
  _atom_site_thermal_displace_type
  _atom_site_B_iso_or_equiv
  _atom_site_type_symbol
  Hf1      1.0000 0.13046  0.01556  0.35223  Biso   1.000  Hf
  Hf2      1.0000 0.12435  0.22359  0.86438  Biso   1.000  Hf
  Hf3      1.0000 0.33405  0.26017  0.39081  Biso   1.000  Hf
  Hf4      1.0000 0.35328  0.48557  0.84765  Biso   1.000  Hf
  Hf5      1.0000 0.63831  0.01052  0.15568  Biso   1.000  Hf
  Hf6      1.0000 0.64165  0.21980  0.62530  Biso   1.000  Hf
  Hf7      1.0000 0.86161  0.27211  0.14631  Biso   1.000  Hf
  Hf8      1.0000 0.85973  0.47895  0.65322  Biso   1.000  Hf
  O1       1.0000 0.03166  0.16476  0.17574  Biso   1.000  O 
  O2       1.0000 0.02431  0.07991  0.67254  Biso   1.000  O 
  O3       1.0000 0.46179  0.46356  0.19127  Biso   1.000  O 
  O4       1.0000 0.46518  0.33802  0.63881  Biso   1.000  O 
  O5       1.0000 0.26098  0.11941  0.61555  Biso   1.000  O 
  O6       1.0000 0.27120  0.11617  0.11169  Biso   1.000  O 
  O7       1.0000 0.21215  0.37327  0.61847  Biso   1.000  O 
  O8       1.0000 0.22592  0.37210  0.11682  Biso   1.000  O 
  O9       1.0000 0.51409  0.12587  0.39784  Biso   1.000  O 
  O10      1.0000 0.52064  0.05952  0.83527  Biso   1.000  O 
  O11      1.0000 0.96581  0.41349  0.33474  Biso   1.000  O 
  O12      1.0000 0.95929  0.33087  0.83450  Biso   1.000  O 
  O13      1.0000 0.77091  0.12034  0.88556  Biso   1.000  O 
  O14      1.0000 0.77613  0.12119  0.39022  Biso   1.000  O 
  O15      1.0000 0.72808  0.38952  0.90245  Biso   1.000  O 
  O16      1.0000 0.72255  0.37333  0.40456  Biso   1.000  O 
  Hf9      1.0000 0.13704  0.51866  0.34324  Biso   1.000  Hf
  Hf10     1.0000 0.12983  0.72670  0.84271  Biso   1.000  Hf
  Hf11     1.0000 0.36220  0.76811  0.34810  Biso   1.000  Hf
  Hf12     1.0000 0.35406  0.96852  0.85729  Biso   1.000  Hf
  Hf13     1.0000 0.64669  0.53542  0.14984  Biso   1.000  Hf
  Hf14     1.0000 0.63629  0.73107  0.65339  Biso   1.000  Hf
  Hf15     1.0000 0.86929  0.76981  0.15852  Biso   1.000  Hf
  Hf16     1.0000 0.86153  0.97596  0.65979  Biso   1.000  Hf
  O17      1.0000 0.03750  0.66292  0.16557  Biso   1.000  O 
  O18      1.0000 0.02989  0.58259  0.66625  Biso   1.000  O 
  O19      1.0000 0.47217  0.90769  0.17287  Biso   1.000  O 
  O20      1.0000 0.45996  0.82534  0.67510  Biso   1.000  O 
  O21      1.0000 0.27194  0.62177  0.58603  Biso   1.000  O 
  O22      1.0000 0.27649  0.62602  0.08401  Biso   1.000  O 
  O23      1.0000 0.22054  0.87006  0.59727  Biso   1.000  O 
  O24      1.0000 0.22846  0.87144  0.10068  Biso   1.000  O 
  O25      1.0000 0.54284  0.68085  0.32119  Biso   1.000  O 
  O26      1.0000 0.52829  0.58266  0.81444  Biso   1.000  O 
  O27      1.0000 0.96995  0.91313  0.33567  Biso   1.000  O 
  O28      1.0000 0.96080  0.83192  0.83848  Biso   1.000  O 
  O29      1.0000 0.76894  0.62961  0.90249  Biso   1.000  O 
  O30      1.0000 0.77960  0.62564  0.40673  Biso   1.000  O 
  O31      1.0000 0.71981  0.87220  0.91454  Biso   1.000  O 
  O32      1.0000 0.72932  0.87240  0.41473  Biso   1.000  O 
  Tl1      1.0000 0.54022  0.26828  0.06559  Biso   1.000  Tl
