data_image0
_cell_length_a       10.0594
_cell_length_b       10.2395
_cell_length_c       10.4695
_cell_angle_alpha    90
_cell_angle_beta     90
_cell_angle_gamma    90

_symmetry_space_group_name_H-M    "P 1"
_symmetry_int_tables_number       1

loop_
  _symmetry_equiv_pos_as_xyz
  'x, y, z'

loop_
  _atom_site_label
  _atom_site_occupancy
  _atom_site_fract_x
  _atom_site_fract_y
  _atom_site_fract_z
  _atom_site_thermal_displace_type
  _atom_site_B_iso_or_equiv
  _atom_site_type_symbol
  Tl1      1.0000 0.13586  0.01621  0.16905  Biso   1.000  Tl
  Hf1      1.0000 0.13852  0.22885  0.42217  Biso   1.000  Hf
  Hf2      1.0000 0.35850  0.26898  0.17157  Biso   1.000  Hf
  Hf3      1.0000 0.35990  0.47895  0.42111  Biso   1.000  Hf
  Hf4      1.0000 0.63971  0.02085  0.07914  Biso   1.000  Hf
  Hf5      1.0000 0.63766  0.23010  0.32822  Biso   1.000  Hf
  Hf6      1.0000 0.86086  0.27143  0.07783  Biso   1.000  Hf
  Hf7      1.0000 0.86056  0.47984  0.32798  Biso   1.000  Hf
  O1       1.0000 0.03321  0.17591  0.08105  Biso   1.000  O 
  O2       1.0000 0.02498  0.08706  0.34780  Biso   1.000  O 
  O3       1.0000 0.46745  0.41276  0.08258  Biso   1.000  O 
  O4       1.0000 0.46762  0.33741  0.33247  Biso   1.000  O 
  O5       1.0000 0.28217  0.12820  0.30253  Biso   1.000  O 
  O6       1.0000 0.28469  0.13254  0.03731  Biso   1.000  O 
  O7       1.0000 0.22221  0.37397  0.29513  Biso   1.000  O 
  O8       1.0000 0.22289  0.37765  0.04508  Biso   1.000  O 
  O9       1.0000 0.53262  0.16480  0.16691  Biso   1.000  O 
  O10      1.0000 0.53259  0.08577  0.41746  Biso   1.000  O 
  O11      1.0000 0.96498  0.41832  0.16543  Biso   1.000  O 
  O12      1.0000 0.96666  0.33736  0.41726  Biso   1.000  O 
  O13      1.0000 0.77329  0.12604  0.45677  Biso   1.000  O 
  O14      1.0000 0.77536  0.12736  0.20597  Biso   1.000  O 
  O15      1.0000 0.72303  0.37553  0.45417  Biso   1.000  O 
  O16      1.0000 0.72305  0.37673  0.20479  Biso   1.000  O 
  Hf8      1.0000 0.13831  0.02177  0.67157  Biso   1.000  Hf
  Hf9      1.0000 0.13831  0.23078  0.92075  Biso   1.000  Hf
  Hf10     1.0000 0.35991  0.27154  0.67169  Biso   1.000  Hf
  Hf11     1.0000 0.35932  0.47957  0.92229  Biso   1.000  Hf
  Hf12     1.0000 0.63797  0.02188  0.57923  Biso   1.000  Hf
  Hf13     1.0000 0.63819  0.22999  0.82839  Biso   1.000  Hf
  Hf14     1.0000 0.86025  0.27215  0.57817  Biso   1.000  Hf
  Hf15     1.0000 0.85954  0.48014  0.82753  Biso   1.000  Hf
  O17      1.0000 0.03305  0.16988  0.58858  Biso   1.000  O 
  O18      1.0000 0.03252  0.08447  0.83477  Biso   1.000  O 
  O19      1.0000 0.46721  0.41453  0.58258  Biso   1.000  O 
  O20      1.0000 0.46682  0.33653  0.83258  Biso   1.000  O 
  O21      1.0000 0.27498  0.12463  0.79338  Biso   1.000  O 
  O22      1.0000 0.27515  0.12616  0.54680  Biso   1.000  O 
  O23      1.0000 0.22349  0.37539  0.79488  Biso   1.000  O 
  O24      1.0000 0.22362  0.37713  0.54566  Biso   1.000  O 
  O25      1.0000 0.53155  0.16547  0.66689  Biso   1.000  O 
  O26      1.0000 0.53359  0.08551  0.91565  Biso   1.000  O 
  O27      1.0000 0.96574  0.41762  0.66518  Biso   1.000  O 
  O28      1.0000 0.96485  0.33655  0.91393  Biso   1.000  O 
  O29      1.0000 0.77552  0.12502  0.95513  Biso   1.000  O 
  O30      1.0000 0.77521  0.12701  0.70559  Biso   1.000  O 
  O31      1.0000 0.72167  0.37499  0.95394  Biso   1.000  O 
  O32      1.0000 0.72307  0.37677  0.70396  Biso   1.000  O 
  Hf16     1.0000 0.13871  0.52096  0.17137  Biso   1.000  Hf
  Hf17     1.0000 0.13858  0.72935  0.42148  Biso   1.000  Hf
  Hf18     1.0000 0.36236  0.77026  0.17113  Biso   1.000  Hf
  Hf19     1.0000 0.36028  0.97992  0.42145  Biso   1.000  Hf
  Hf20     1.0000 0.63812  0.51968  0.07798  Biso   1.000  Hf
  Hf21     1.0000 0.63864  0.72963  0.32819  Biso   1.000  Hf
  Hf22     1.0000 0.85899  0.76926  0.07756  Biso   1.000  Hf
  Hf23     1.0000 0.85775  0.98015  0.33074  Biso   1.000  Hf
  O33      1.0000 0.03294  0.66593  0.08319  Biso   1.000  O 
  O34      1.0000 0.03203  0.58580  0.33367  Biso   1.000  O 
  O35      1.0000 0.46943  0.91454  0.08274  Biso   1.000  O 
  O36      1.0000 0.46895  0.83650  0.33305  Biso   1.000  O 
  O37      1.0000 0.27612  0.62222  0.29498  Biso   1.000  O 
  O38      1.0000 0.27600  0.62339  0.04572  Biso   1.000  O 
  O39      1.0000 0.22862  0.86787  0.29814  Biso   1.000  O 
  O40      1.0000 0.23347  0.86777  0.03848  Biso   1.000  O 
  O41      1.0000 0.53213  0.66247  0.16762  Biso   1.000  O 
  O42      1.0000 0.53099  0.58642  0.41735  Biso   1.000  O 
  O43      1.0000 0.95151  0.91387  0.16697  Biso   1.000  O 
  O44      1.0000 0.96617  0.83441  0.41644  Biso   1.000  O 
  O45      1.0000 0.77525  0.62488  0.45445  Biso   1.000  O 
  O46      1.0000 0.77511  0.62623  0.20418  Biso   1.000  O 
  O47      1.0000 0.72301  0.87466  0.45613  Biso   1.000  O 
  O48      1.0000 0.71745  0.87574  0.20568  Biso   1.000  O 
  Hf24     1.0000 0.13799  0.52177  0.67162  Biso   1.000  Hf
  Hf25     1.0000 0.13841  0.72982  0.92130  Biso   1.000  Hf
  Hf26     1.0000 0.35954  0.77184  0.67126  Biso   1.000  Hf
  Hf27     1.0000 0.36080  0.98066  0.92065  Biso   1.000  Hf
  Hf28     1.0000 0.63786  0.52161  0.57748  Biso   1.000  Hf
  Hf29     1.0000 0.63744  0.72982  0.82758  Biso   1.000  Hf
  Hf30     1.0000 0.86058  0.77177  0.57850  Biso   1.000  Hf
  Hf31     1.0000 0.86023  0.98008  0.82912  Biso   1.000  Hf
  O49      1.0000 0.03210  0.66648  0.58464  Biso   1.000  O 
  O50      1.0000 0.03140  0.58492  0.83320  Biso   1.000  O 
  O51      1.0000 0.46693  0.91501  0.58363  Biso   1.000  O 
  O52      1.0000 0.46708  0.83652  0.83174  Biso   1.000  O 
  O53      1.0000 0.27487  0.62499  0.79522  Biso   1.000  O 
  O54      1.0000 0.27507  0.62654  0.54518  Biso   1.000  O 
  O55      1.0000 0.22292  0.87475  0.79325  Biso   1.000  O 
  O56      1.0000 0.22300  0.87678  0.54536  Biso   1.000  O 
  O57      1.0000 0.53092  0.66447  0.66690  Biso   1.000  O 
  O58      1.0000 0.52986  0.58719  0.91741  Biso   1.000  O 
  O59      1.0000 0.96556  0.91694  0.66592  Biso   1.000  O 
  O60      1.0000 0.96629  0.83519  0.91585  Biso   1.000  O 
  O61      1.0000 0.77317  0.62349  0.95329  Biso   1.000  O 
  O62      1.0000 0.77448  0.62714  0.70383  Biso   1.000  O 
  O63      1.0000 0.72249  0.87455  0.95435  Biso   1.000  O 
  O64      1.0000 0.72326  0.87674  0.70517  Biso   1.000  O 
