data_image0
_cell_length_a       10.1655
_cell_length_b       10.3666
_cell_length_c       10.1095
_cell_angle_alpha    90
_cell_angle_beta     90
_cell_angle_gamma    90

_symmetry_space_group_name_H-M    "P 1"
_symmetry_int_tables_number       1

loop_
  _symmetry_equiv_pos_as_xyz
  'x, y, z'

loop_
  _atom_site_label
  _atom_site_occupancy
  _atom_site_fract_x
  _atom_site_fract_y
  _atom_site_fract_z
  _atom_site_thermal_displace_type
  _atom_site_B_iso_or_equiv
  _atom_site_type_symbol
  Hf1      1.0000 0.09615  0.88757  0.09264  Biso   1.000  Hf
  Hf2      1.0000 0.11375  0.29265  0.37331  Biso   1.000  Hf
  Hf3      1.0000 0.36697  0.27399  0.13609  Biso   1.000  Hf
  Hf4      1.0000 0.34321  0.01635  0.37553  Biso   1.000  Hf
  O1       1.0000 0.95014  0.23422  0.98489  Biso   1.000  O 
  O2       1.0000 0.94997  0.17094  0.29296  Biso   1.000  O 
  O3       1.0000 0.98843  0.40278  0.25404  Biso   1.000  O 
  O4       1.0000 0.95800  0.44419  0.01066  Biso   1.000  O 
  O5       1.0000 0.29483  0.20288  0.33290  Biso   1.000  O 
  O6       1.0000 0.19692  0.07794  0.94470  Biso   1.000  O 
  O7       1.0000 0.23975  0.36484  0.98481  Biso   1.000  O 
  O8       1.0000 0.23545  0.43320  0.23476  Biso   1.000  O 
  Hf5      1.0000 0.13643  0.03482  0.65307  Biso   1.000  Hf
  Hf6      1.0000 0.10820  0.28232  0.85635  Biso   1.000  Hf
  Hf7      1.0000 0.38153  0.25076  0.59897  Biso   1.000  Hf
  Hf8      1.0000 0.38280  0.04272  0.88283  Biso   1.000  Hf
  O9       1.0000 0.04590  0.16431  0.51745  Biso   1.000  O 
  O10      1.0000 0.99188  0.13452  0.75539  Biso   1.000  O 
  O11      1.0000 0.95722  0.38557  0.74834  Biso   1.000  O 
  O12      1.0000 0.98579  0.40650  0.49828  Biso   1.000  O 
  O13      1.0000 0.24329  0.19015  0.73953  Biso   1.000  O 
  O14      1.0000 0.29970  0.07671  0.53997  Biso   1.000  O 
  O15      1.0000 0.23916  0.37399  0.51714  Biso   1.000  O 
  O16      1.0000 0.19426  0.43323  0.76103  Biso   1.000  O 
  Hf9      1.0000 0.08224  0.54258  0.13362  Biso   1.000  Hf
  Hf10     1.0000 0.09005  0.75839  0.38981  Biso   1.000  Hf
  Hf11     1.0000 0.36732  0.77644  0.14091  Biso   1.000  Hf
  Hf12     1.0000 0.35308  0.50458  0.38540  Biso   1.000  Hf
  O17      1.0000 0.00037  0.71459  0.02302  Biso   1.000  O 
  O18      1.0000 0.94001  0.63291  0.25396  Biso   1.000  O 
  O19      1.0000 0.97401  0.86826  0.26250  Biso   1.000  O 
  O20      1.0000 0.91050  0.93654  0.03141  Biso   1.000  O 
  O21      1.0000 0.18308  0.70916  0.20789  Biso   1.000  O 
  O22      1.0000 0.20817  0.62051  0.96745  Biso   1.000  O 
  O23      1.0000 0.25025  0.86150  0.97315  Biso   1.000  O 
  O24      1.0000 0.24298  0.94038  0.22012  Biso   1.000  O 
  Hf13     1.0000 0.09397  0.52340  0.62149  Biso   1.000  Hf
  Hf14     1.0000 0.12363  0.76350  0.84455  Biso   1.000  Hf
  Hf15     1.0000 0.36406  0.79633  0.63164  Biso   1.000  Hf
  Hf16     1.0000 0.33755  0.51420  0.86820  Biso   1.000  Hf
  O25      1.0000 0.95532  0.65703  0.51342  Biso   1.000  O 
  O26      1.0000 0.97819  0.63769  0.76227  Biso   1.000  O 
  O27      1.0000 0.98549  0.88607  0.76328  Biso   1.000  O 
  O28      1.0000 0.99500  0.90799  0.51254  Biso   1.000  O 
  O29      1.0000 0.22565  0.66527  0.70149  Biso   1.000  O 
  O30      1.0000 0.18403  0.59265  0.44750  Biso   1.000  O 
  O31      1.0000 0.25340  0.84014  0.46444  Biso   1.000  O 
  O32      1.0000 0.22961  0.91156  0.73539  Biso   1.000  O 
  Hf17     1.0000 0.63529  0.01456  0.14315  Biso   1.000  Hf
  Hf18     1.0000 0.61552  0.27746  0.35323  Biso   1.000  Hf
  Hf19     1.0000 0.86174  0.29814  0.13311  Biso   1.000  Hf
  Hf20     1.0000 0.85943  0.99948  0.38521  Biso   1.000  Hf
  O33      1.0000 0.44486  0.21496  0.97623  Biso   1.000  O 
  O34      1.0000 0.49436  0.12960  0.23313  Biso   1.000  O 
  O35      1.0000 0.48841  0.38880  0.24899  Biso   1.000  O 
  O36      1.0000 0.46892  0.41294  0.00490  Biso   1.000  O 
  O37      1.0000 0.72197  0.18354  0.21784  Biso   1.000  O 
  O38      1.0000 0.69875  0.14815  0.97282  Biso   1.000  O 
  O39      1.0000 0.72636  0.40209  0.99147  Biso   1.000  O 
  O40      1.0000 0.73398  0.43309  0.24037  Biso   1.000  O 
  Hf21     1.0000 0.63831  0.03793  0.63963  Biso   1.000  Hf
  Hf22     1.0000 0.60252  0.29225  0.86857  Biso   1.000  Hf
  Hf23     1.0000 0.88297  0.25377  0.60668  Biso   1.000  Hf
  Hf24     1.0000 0.85638  0.06277  0.89208  Biso   1.000  Hf
  O41      1.0000 0.53397  0.15510  0.49047  Biso   1.000  O 
  O42      1.0000 0.49896  0.14317  0.74108  Biso   1.000  O 
  O43      1.0000 0.45349  0.38958  0.74235  Biso   1.000  O 
  O44      1.0000 0.49105  0.40195  0.49552  Biso   1.000  O 
  O45      1.0000 0.74154  0.18974  0.74138  Biso   1.000  O 
  O46      1.0000 0.79318  0.08966  0.51834  Biso   1.000  O 
  O47      1.0000 0.75613  0.34148  0.47740  Biso   1.000  O 
  O48      1.0000 0.69943  0.43113  0.74738  Biso   1.000  O 
  Hf25     1.0000 0.58912  0.53176  0.12739  Biso   1.000  Hf
  Hf26     1.0000 0.59428  0.75657  0.39526  Biso   1.000  Hf
  Hf27     1.0000 0.82670  0.77442  0.12799  Biso   1.000  Hf
  Hf28     1.0000 0.84977  0.51187  0.38833  Biso   1.000  Hf
  O49      1.0000 0.48631  0.67185  0.01659  Biso   1.000  O 
  O50      1.0000 0.44694  0.62651  0.25699  Biso   1.000  O 
  O51      1.0000 0.48293  0.87762  0.27179  Biso   1.000  O 
  O52      1.0000 0.44087  0.92931  0.03089  Biso   1.000  O 
  O53      1.0000 0.68284  0.68376  0.23287  Biso   1.000  O 
  O54      1.0000 0.74186  0.65985  0.99109  Biso   1.000  O 
  O55      1.0000 0.68581  0.86015  0.00265  Biso   1.000  O 
  O56      1.0000 0.73489  0.92984  0.24606  Biso   1.000  O 
  Hf29     1.0000 0.57463  0.52983  0.63466  Biso   1.000  Hf
  Hf30     1.0000 0.61185  0.78398  0.86749  Biso   1.000  Hf
  Hf31     1.0000 0.86296  0.78649  0.64344  Biso   1.000  Hf
  Hf32     1.0000 0.83365  0.52646  0.86128  Biso   1.000  Hf
  O57      1.0000 0.45062  0.65443  0.50965  Biso   1.000  O 
  O58      1.0000 0.47198  0.64677  0.76500  Biso   1.000  O 
  O59      1.0000 0.47815  0.90082  0.76895  Biso   1.000  O 
  O60      1.0000 0.49394  0.90636  0.51526  Biso   1.000  O 
  O61      1.0000 0.72328  0.67333  0.73532  Biso   1.000  O 
  O62      1.0000 0.69018  0.59060  0.47926  Biso   1.000  O 
  O63      1.0000 0.75060  0.83852  0.48539  Biso   1.000  O 
  O64      1.0000 0.72962  0.92663  0.74687  Biso   1.000  O 
  Tl1      1.0000 0.12210  0.14061  0.14719  Biso   1.000  Tl
