data_image0
_cell_length_a       10.1812
_cell_length_b       5.14655
_cell_length_c       10.4741
_cell_angle_alpha    90
_cell_angle_beta     80
_cell_angle_gamma    90

_symmetry_space_group_name_H-M    "P 1"
_symmetry_int_tables_number       1

loop_
  _symmetry_equiv_pos_as_xyz
  'x, y, z'

loop_
  _atom_site_label
  _atom_site_occupancy
  _atom_site_fract_x
  _atom_site_fract_y
  _atom_site_fract_z
  _atom_site_thermal_displace_type
  _atom_site_B_iso_or_equiv
  _atom_site_type_symbol
  Tl1      1.0000 0.13297  0.03022  0.14344  Biso   1.000  Tl
  Hf1      1.0000 0.13661  0.45419  0.39649  Biso   1.000  Hf
  Hf2      1.0000 0.36030  0.53500  0.10386  Biso   1.000  Hf
  Hf3      1.0000 0.35615  0.95570  0.35337  Biso   1.000  Hf
  O1       1.0000 0.03647  0.36812  0.07828  Biso   1.000  O 
  O2       1.0000 0.02448  0.16502  0.34438  Biso   1.000  O 
  O3       1.0000 0.46444  0.83162  0.17073  Biso   1.000  O 
  O4       1.0000 0.46012  0.66253  0.42228  Biso   1.000  O 
  O5       1.0000 0.27971  0.25584  0.24474  Biso   1.000  O 
  O6       1.0000 0.27129  0.24027  0.49199  Biso   1.000  O 
  O7       1.0000 0.23295  0.75009  0.00178  Biso   1.000  O 
  O8       1.0000 0.22683  0.72474  0.26194  Biso   1.000  O 
  Hf4      1.0000 0.13474  0.04143  0.64655  Biso   1.000  Hf
  Hf5      1.0000 0.13339  0.45926  0.89581  Biso   1.000  Hf
  Hf6      1.0000 0.35515  0.54208  0.60465  Biso   1.000  Hf
  Hf7      1.0000 0.35568  0.95812  0.85434  Biso   1.000  Hf
  O9       1.0000 0.03069  0.34108  0.58450  Biso   1.000  O 
  O10      1.0000 0.02936  0.15991  0.83148  Biso   1.000  O 
  O11      1.0000 0.46042  0.83359  0.67098  Biso   1.000  O 
  O12      1.0000 0.46261  0.66819  0.92127  Biso   1.000  O 
  O13      1.0000 0.27001  0.25692  0.73916  Biso   1.000  O 
  O14      1.0000 0.27683  0.25205  0.98196  Biso   1.000  O 
  O15      1.0000 0.21868  0.75718  0.51057  Biso   1.000  O 
  O16      1.0000 0.21827  0.74328  0.75845  Biso   1.000  O 
  Hf8      1.0000 0.63769  0.03800  0.14644  Biso   1.000  Hf
  Hf9      1.0000 0.63283  0.45629  0.39696  Biso   1.000  Hf
  Hf10     1.0000 0.85722  0.53746  0.10371  Biso   1.000  Hf
  Hf11     1.0000 0.85249  0.95747  0.35784  Biso   1.000  Hf
  O17      1.0000 0.53628  0.33334  0.07858  Biso   1.000  O 
  O18      1.0000 0.53151  0.16179  0.33005  Biso   1.000  O 
  O19      1.0000 0.94189  0.84713  0.17170  Biso   1.000  O 
  O20      1.0000 0.96062  0.66361  0.42077  Biso   1.000  O 
  O21      1.0000 0.77135  0.25923  0.24250  Biso   1.000  O 
  O22      1.0000 0.76911  0.24383  0.49307  Biso   1.000  O 
  O23      1.0000 0.72342  0.75687  0.00878  Biso   1.000  O 
  O24      1.0000 0.71432  0.74056  0.26282  Biso   1.000  O 
  Hf12     1.0000 0.63388  0.04271  0.64717  Biso   1.000  Hf
  Hf13     1.0000 0.63256  0.45768  0.89691  Biso   1.000  Hf
  Hf14     1.0000 0.85571  0.54213  0.60509  Biso   1.000  Hf
  Hf15     1.0000 0.85384  0.95734  0.85543  Biso   1.000  Hf
  O25      1.0000 0.52840  0.33327  0.58076  Biso   1.000  O 
  O26      1.0000 0.53058  0.16444  0.82913  Biso   1.000  O 
  O27      1.0000 0.95881  0.83865  0.66989  Biso   1.000  O 
  O28      1.0000 0.95613  0.66171  0.91827  Biso   1.000  O 
  O29      1.0000 0.77119  0.25798  0.74118  Biso   1.000  O 
  O30      1.0000 0.76784  0.23828  0.99147  Biso   1.000  O 
  O31      1.0000 0.71845  0.75696  0.51140  Biso   1.000  O 
  O32      1.0000 0.71884  0.74194  0.75983  Biso   1.000  O 
