data_image0
_cell_length_a       10.0938
_cell_length_b       5.1679
_cell_length_c       10.6444
_cell_angle_alpha    90
_cell_angle_beta     90
_cell_angle_gamma    90

_symmetry_space_group_name_H-M    "P 1"
_symmetry_int_tables_number       1

loop_
  _symmetry_equiv_pos_as_xyz
  'x, y, z'

loop_
  _atom_site_label
  _atom_site_occupancy
  _atom_site_fract_x
  _atom_site_fract_y
  _atom_site_fract_z
  _atom_site_thermal_displace_type
  _atom_site_B_iso_or_equiv
  _atom_site_type_symbol
  Hf1      1.0000 0.12679  0.03808  0.17320  Biso   1.000  Hf
  Hf2      1.0000 0.11510  0.45836  0.42787  Biso   1.000  Hf
  Hf3      1.0000 0.33316  0.53657  0.19665  Biso   1.000  Hf
  Hf4      1.0000 0.34335  0.96475  0.43054  Biso   1.000  Hf
  Hf5      1.0000 0.65238  0.04444  0.06862  Biso   1.000  Hf
  Hf6      1.0000 0.62176  0.46123  0.33422  Biso   1.000  Hf
  Hf7      1.0000 0.86047  0.53975  0.07660  Biso   1.000  Hf
  Hf8      1.0000 0.84453  0.96303  0.32805  Biso   1.000  Hf
  O1       1.0000 0.03030  0.33112  0.08488  Biso   1.000  O 
  O2       1.0000 0.01344  0.17783  0.33275  Biso   1.000  O 
  O3       1.0000 0.46521  0.89822  0.08807  Biso   1.000  O 
  O4       1.0000 0.45207  0.69582  0.33460  Biso   1.000  O 
  O5       1.0000 0.25153  0.25170  0.30327  Biso   1.000  O 
  O6       1.0000 0.26685  0.23586  0.04920  Biso   1.000  O 
  O7       1.0000 0.20255  0.75544  0.30736  Biso   1.000  O 
  O8       1.0000 0.22088  0.74639  0.05783  Biso   1.000  O 
  O9       1.0000 0.50142  0.29802  0.21025  Biso   1.000  O 
  O10      1.0000 0.51025  0.19169  0.43330  Biso   1.000  O 
  O11      1.0000 0.95467  0.83209  0.16984  Biso   1.000  O 
  O12      1.0000 0.94851  0.67837  0.41977  Biso   1.000  O 
  O13      1.0000 0.75764  0.25429  0.45162  Biso   1.000  O 
  O14      1.0000 0.76524  0.25904  0.20201  Biso   1.000  O 
  O15      1.0000 0.70673  0.75947  0.45651  Biso   1.000  O 
  O16      1.0000 0.71227  0.75268  0.20509  Biso   1.000  O 
  Hf9      1.0000 0.11841  0.04860  0.67521  Biso   1.000  Hf
  Hf10     1.0000 0.10985  0.47190  0.92656  Biso   1.000  Hf
  Hf11     1.0000 0.33909  0.54805  0.67328  Biso   1.000  Hf
  Hf12     1.0000 0.33112  0.97849  0.92037  Biso   1.000  Hf
  Hf13     1.0000 0.62003  0.04631  0.57707  Biso   1.000  Hf
  Hf14     1.0000 0.62221  0.45632  0.81043  Biso   1.000  Hf
  Hf15     1.0000 0.84302  0.55132  0.57706  Biso   1.000  Hf
  Hf16     1.0000 0.84212  0.96828  0.82667  Biso   1.000  Hf
  O17      1.0000 0.01066  0.33067  0.58349  Biso   1.000  O 
  O18      1.0000 0.01217  0.18223  0.83221  Biso   1.000  O 
  O19      1.0000 0.44924  0.82803  0.58225  Biso   1.000  O 
  O20      1.0000 0.44522  0.67869  0.82205  Biso   1.000  O 
  O21      1.0000 0.25318  0.26242  0.79750  Biso   1.000  O 
  O22      1.0000 0.25336  0.25453  0.54925  Biso   1.000  O 
  O23      1.0000 0.20018  0.75868  0.80113  Biso   1.000  O 
  O24      1.0000 0.20449  0.75611  0.55161  Biso   1.000  O 
  O25      1.0000 0.51164  0.33609  0.66279  Biso   1.000  O 
  O26      1.0000 0.51580  0.12840  0.88765  Biso   1.000  O 
  O27      1.0000 0.94973  0.83093  0.66848  Biso   1.000  O 
  O28      1.0000 0.94207  0.68378  0.92005  Biso   1.000  O 
  O29      1.0000 0.75841  0.26414  0.94228  Biso   1.000  O 
  O30      1.0000 0.75850  0.25153  0.69607  Biso   1.000  O 
  O31      1.0000 0.70923  0.78593  0.95230  Biso   1.000  O 
  O32      1.0000 0.70783  0.75237  0.70285  Biso   1.000  O 
  Tl1      1.0000 0.53477  0.50898  0.02885  Biso   1.000  Tl
