data_image0
_cell_length_a       10.3512
_cell_length_b       5.32572
_cell_length_c       10.3735
_cell_angle_alpha    90
_cell_angle_beta     90
_cell_angle_gamma    90

_symmetry_space_group_name_H-M    "P 1"
_symmetry_int_tables_number       1

loop_
  _symmetry_equiv_pos_as_xyz
  'x, y, z'

loop_
  _atom_site_label
  _atom_site_occupancy
  _atom_site_fract_x
  _atom_site_fract_y
  _atom_site_fract_z
  _atom_site_thermal_displace_type
  _atom_site_B_iso_or_equiv
  _atom_site_type_symbol
  Hf1      1.0000 0.16852  0.03674  0.10448  Biso   1.000  Hf
  Hf2      1.0000 0.11628  0.33114  0.38882  Biso   1.000  Hf
  Hf3      1.0000 0.36102  0.54480  0.09239  Biso   1.000  Hf
  Hf4      1.0000 0.41001  0.85717  0.37262  Biso   1.000  Hf
  O1       1.0000 0.95665  0.02400  0.94065  Biso   1.000  O 
  O2       1.0000 0.03364  0.02294  0.25349  Biso   1.000  O 
  O3       1.0000 0.95343  0.48156  0.29467  Biso   1.000  O 
  O4       1.0000 0.05266  0.54917  0.94468  Biso   1.000  O 
  O5       1.0000 0.24722  0.32575  0.22561  Biso   1.000  O 
  O6       1.0000 0.26504  0.90726  0.94985  Biso   1.000  O 
  O7       1.0000 0.28449  0.40199  0.93688  Biso   1.000  O 
  O8       1.0000 0.30106  0.84667  0.20743  Biso   1.000  O 
  Hf5      1.0000 0.16348  0.83734  0.59252  Biso   1.000  Hf
  Hf6      1.0000 0.11264  0.21726  0.84392  Biso   1.000  Hf
  Hf7      1.0000 0.36767  0.34648  0.58906  Biso   1.000  Hf
  Hf8      1.0000 0.41230  0.68083  0.86158  Biso   1.000  Hf
  O9       1.0000 0.99970  0.11228  0.49640  Biso   1.000  O 
  O10      1.0000 0.02072  0.91774  0.72378  Biso   1.000  O 
  O11      1.0000 0.99312  0.40899  0.72654  Biso   1.000  O 
  O12      1.0000 0.03451  0.63425  0.48805  Biso   1.000  O 
  O13      1.0000 0.23727  0.15590  0.69602  Biso   1.000  O 
  O14      1.0000 0.25551  0.06569  0.45967  Biso   1.000  O 
  O15      1.0000 0.26986  0.56727  0.45898  Biso   1.000  O 
  O16      1.0000 0.28853  0.64999  0.70096  Biso   1.000  O 
  Hf9      1.0000 0.64623  0.85641  0.15181  Biso   1.000  Hf
  Hf10     1.0000 0.61211  0.34423  0.36608  Biso   1.000  Hf
  Hf11     1.0000 0.83248  0.35010  0.13821  Biso   1.000  Hf
  Hf12     1.0000 0.90077  0.82753  0.37427  Biso   1.000  Hf
  O17      1.0000 0.50497  0.94818  0.97396  Biso   1.000  O 
  O18      1.0000 0.52397  0.07330  0.25446  Biso   1.000  O 
  O19      1.0000 0.50051  0.58236  0.24359  Biso   1.000  O 
  O20      1.0000 0.50615  0.81699  0.00230  Biso   1.000  O 
  O21      1.0000 0.76240  0.11094  0.28151  Biso   1.000  O 
  O22      1.0000 0.77794  0.04388  0.03569  Biso   1.000  O 
  O23      1.0000 0.70787  0.55327  0.03893  Biso   1.000  O 
  O24      1.0000 0.74213  0.62552  0.27840  Biso   1.000  O 
  Hf13     1.0000 0.65535  0.67498  0.63975  Biso   1.000  Hf
  Hf14     1.0000 0.61492  0.16569  0.85272  Biso   1.000  Hf
  Hf15     1.0000 0.86044  0.18077  0.63758  Biso   1.000  Hf
  Hf16     1.0000 0.90751  0.68857  0.84506  Biso   1.000  Hf
  O25      1.0000 0.49516  0.13410  0.48677  Biso   1.000  O 
  O26      1.0000 0.52638  0.89321  0.73792  Biso   1.000  O 
  O27      1.0000 0.50607  0.40564  0.73265  Biso   1.000  O 
  O28      1.0000 0.51904  0.62039  0.49291  Biso   1.000  O 
  O29      1.0000 0.76275  0.94721  0.76509  Biso   1.000  O 
  O30      1.0000 0.78554  0.86936  0.52942  Biso   1.000  O 
  O31      1.0000 0.73487  0.37278  0.52643  Biso   1.000  O 
  O32      1.0000 0.75383  0.44663  0.77011  Biso   1.000  O 
  Tl1      1.0000 0.07894  0.56304  0.13106  Biso   1.000  Tl
