data_image0
_cell_length_a       10.0014
_cell_length_b       5.18945
_cell_length_c       10.0553
_cell_angle_alpha    90
_cell_angle_beta     90
_cell_angle_gamma    90

_symmetry_space_group_name_H-M    "P 1"
_symmetry_int_tables_number       1

loop_
  _symmetry_equiv_pos_as_xyz
  'x, y, z'

loop_
  _atom_site_label
  _atom_site_occupancy
  _atom_site_fract_x
  _atom_site_fract_y
  _atom_site_fract_z
  _atom_site_thermal_displace_type
  _atom_site_B_iso_or_equiv
  _atom_site_type_symbol
  Tl1      1.0000 0.12711  0.03043  0.12151  Biso   1.000  Tl
  Hf1      1.0000 0.13710  0.46643  0.37796  Biso   1.000  Hf
  Hf2      1.0000 0.36652  0.53003  0.12828  Biso   1.000  Hf
  Hf3      1.0000 0.36428  0.96644  0.37586  Biso   1.000  Hf
  O1       1.0000 0.03147  0.38579  0.20186  Biso   1.000  O 
  O2       1.0000 0.03533  0.12996  0.44665  Biso   1.000  O 
  O3       1.0000 0.46661  0.86612  0.19589  Biso   1.000  O 
  O4       1.0000 0.46510  0.63156  0.44731  Biso   1.000  O 
  O5       1.0000 0.27795  0.24338  0.25436  Biso   1.000  O 
  O6       1.0000 0.27078  0.26276  0.50213  Biso   1.000  O 
  O7       1.0000 0.22966  0.76591  0.50235  Biso   1.000  O 
  O8       1.0000 0.23776  0.72270  0.25637  Biso   1.000  O 
  Hf4      1.0000 0.13410  0.03413  0.62817  Biso   1.000  Hf
  Hf5      1.0000 0.13520  0.46969  0.87441  Biso   1.000  Hf
  Hf6      1.0000 0.36676  0.53282  0.62655  Biso   1.000  Hf
  Hf7      1.0000 0.36791  0.96622  0.87595  Biso   1.000  Hf
  O9       1.0000 0.03907  0.37648  0.68906  Biso   1.000  O 
  O10      1.0000 0.03571  0.13520  0.92033  Biso   1.000  O 
  O11      1.0000 0.46536  0.86653  0.69534  Biso   1.000  O 
  O12      1.0000 0.46698  0.62966  0.94400  Biso   1.000  O 
  O13      1.0000 0.27283  0.23616  0.74911  Biso   1.000  O 
  O14      1.0000 0.27657  0.26841  0.99475  Biso   1.000  O 
  O15      1.0000 0.23615  0.75420  0.99809  Biso   1.000  O 
  O16      1.0000 0.23077  0.73696  0.74959  Biso   1.000  O 
  Hf8      1.0000 0.63434  0.02978  0.12638  Biso   1.000  Hf
  Hf9      1.0000 0.63274  0.46580  0.37643  Biso   1.000  Hf
  Hf10     1.0000 0.86171  0.53040  0.12601  Biso   1.000  Hf
  Hf11     1.0000 0.86541  0.96817  0.37845  Biso   1.000  Hf
  O17      1.0000 0.53871  0.36726  0.19395  Biso   1.000  O 
  O18      1.0000 0.53559  0.13057  0.44536  Biso   1.000  O 
  O19      1.0000 0.95061  0.86685  0.19754  Biso   1.000  O 
  O20      1.0000 0.96473  0.63260  0.44527  Biso   1.000  O 
  O21      1.0000 0.76848  0.23316  0.25085  Biso   1.000  O 
  O22      1.0000 0.76917  0.26627  0.49967  Biso   1.000  O 
  O23      1.0000 0.72965  0.76467  0.50014  Biso   1.000  O 
  O24      1.0000 0.72713  0.73297  0.25092  Biso   1.000  O 
  Hf12     1.0000 0.63338  0.03165  0.62551  Biso   1.000  Hf
  Hf13     1.0000 0.63538  0.46271  0.87555  Biso   1.000  Hf
  Hf14     1.0000 0.86616  0.53159  0.62444  Biso   1.000  Hf
  Hf15     1.0000 0.86464  0.96156  0.87367  Biso   1.000  Hf
  O25      1.0000 0.53641  0.36610  0.69525  Biso   1.000  O 
  O26      1.0000 0.53855  0.12782  0.94443  Biso   1.000  O 
  O27      1.0000 0.96258  0.86765  0.69170  Biso   1.000  O 
  O28      1.0000 0.96568  0.63349  0.94697  Biso   1.000  O 
  O29      1.0000 0.77097  0.23272  0.74833  Biso   1.000  O 
  O30      1.0000 0.77267  0.25780  0.99902  Biso   1.000  O 
  O31      1.0000 0.72856  0.75808  0.99977  Biso   1.000  O 
  O32      1.0000 0.72987  0.73192  0.74932  Biso   1.000  O 
