data_image0
_cell_length_a       5.12576
_cell_length_b       10.3817
_cell_length_c       10.5819
_cell_angle_alpha    90
_cell_angle_beta     80
_cell_angle_gamma    90

_symmetry_space_group_name_H-M    "P 1"
_symmetry_int_tables_number       1

loop_
  _symmetry_equiv_pos_as_xyz
  'x, y, z'

loop_
  _atom_site_label
  _atom_site_occupancy
  _atom_site_fract_x
  _atom_site_fract_y
  _atom_site_fract_z
  _atom_site_thermal_displace_type
  _atom_site_B_iso_or_equiv
  _atom_site_type_symbol
  Hf1      1.0000 0.26749  0.01407  0.14532  Biso   1.000  Hf
  Hf2      1.0000 0.36263  0.24313  0.40546  Biso   1.000  Hf
  Hf3      1.0000 0.69751  0.27432  0.09728  Biso   1.000  Hf
  Hf4      1.0000 0.74640  0.48985  0.35233  Biso   1.000  Hf
  O1       1.0000 0.05139  0.16021  0.07342  Biso   1.000  O 
  O2       1.0000 0.08698  0.03989  0.33775  Biso   1.000  O 
  O3       1.0000 0.92581  0.43486  0.15871  Biso   1.000  O 
  O4       1.0000 0.00658  0.38454  0.45858  Biso   1.000  O 
  O5       1.0000 0.52673  0.12512  0.23637  Biso   1.000  O 
  O6       1.0000 0.59712  0.11344  0.49136  Biso   1.000  O 
  O7       1.0000 0.43371  0.38103  0.00927  Biso   1.000  O 
  O8       1.0000 0.44587  0.38176  0.25752  Biso   1.000  O 
  Hf5      1.0000 0.30402  0.02552  0.64219  Biso   1.000  Hf
  Hf6      1.0000 0.30388  0.23298  0.89113  Biso   1.000  Hf
  Hf7      1.0000 0.77818  0.28447  0.61180  Biso   1.000  Hf
  Hf8      1.0000 0.75698  0.48576  0.85703  Biso   1.000  Hf
  O9       1.0000 0.11267  0.17276  0.57069  Biso   1.000  O 
  O10      1.0000 0.09194  0.09257  0.81969  Biso   1.000  O 
  O11      1.0000 0.98336  0.41270  0.69261  Biso   1.000  O 
  O12      1.0000 0.96174  0.34006  0.92361  Biso   1.000  O 
  O13      1.0000 0.57664  0.13491  0.73734  Biso   1.000  O 
  O14      1.0000 0.57721  0.13030  0.98426  Biso   1.000  O 
  O15      1.0000 0.50401  0.38219  0.51640  Biso   1.000  O 
  O16      1.0000 0.49201  0.37840  0.76153  Biso   1.000  O 
  Hf9      1.0000 0.27986  0.52681  0.14392  Biso   1.000  Hf
  Hf10     1.0000 0.29460  0.72697  0.39587  Biso   1.000  Hf
  Hf11     1.0000 0.72624  0.77082  0.10150  Biso   1.000  Hf
  Hf12     1.0000 0.73421  0.96318  0.35444  Biso   1.000  Hf
  O17      1.0000 0.07628  0.67448  0.07561  Biso   1.000  O 
  O18      1.0000 0.08041  0.59405  0.31938  Biso   1.000  O 
  O19      1.0000 0.93036  0.91531  0.16826  Biso   1.000  O 
  O20      1.0000 0.93678  0.81991  0.42176  Biso   1.000  O 
  O21      1.0000 0.56441  0.63059  0.24117  Biso   1.000  O 
  O22      1.0000 0.56677  0.62280  0.48977  Biso   1.000  O 
  O23      1.0000 0.45434  0.88007  0.00819  Biso   1.000  O 
  O24      1.0000 0.45840  0.86444  0.25683  Biso   1.000  O 
  Hf13     1.0000 0.30781  0.52684  0.64804  Biso   1.000  Hf
  Hf14     1.0000 0.31289  0.73665  0.89257  Biso   1.000  Hf
  Hf15     1.0000 0.75346  0.77449  0.60498  Biso   1.000  Hf
  Hf16     1.0000 0.76333  0.98589  0.84851  Biso   1.000  Hf
  O25      1.0000 0.08846  0.66438  0.57865  Biso   1.000  O 
  O26      1.0000 0.10227  0.59304  0.82735  Biso   1.000  O 
  O27      1.0000 0.96704  0.92116  0.66728  Biso   1.000  O 
  O28      1.0000 0.97316  0.84246  0.91587  Biso   1.000  O 
  O29      1.0000 0.58328  0.63253  0.73841  Biso   1.000  O 
  O30      1.0000 0.59134  0.63020  0.98762  Biso   1.000  O 
  O31      1.0000 0.46563  0.87563  0.51040  Biso   1.000  O 
  O32      1.0000 0.48718  0.87809  0.75750  Biso   1.000  O 
  Tl1      1.0000 0.93255  0.23625  0.30222  Biso   1.000  Tl
