data_image0
_cell_length_a       5.05164
_cell_length_b       10.431
_cell_length_c       10.1639
_cell_angle_alpha    90
_cell_angle_beta     90
_cell_angle_gamma    90

_symmetry_space_group_name_H-M    "P 1"
_symmetry_int_tables_number       1

loop_
  _symmetry_equiv_pos_as_xyz
  'x, y, z'

loop_
  _atom_site_label
  _atom_site_occupancy
  _atom_site_fract_x
  _atom_site_fract_y
  _atom_site_fract_z
  _atom_site_thermal_displace_type
  _atom_site_B_iso_or_equiv
  _atom_site_type_symbol
  Hf1      1.0000 0.21316  0.98686  0.10322  Biso   1.000  Hf
  Hf2      1.0000 0.19384  0.23616  0.41005  Biso   1.000  Hf
  Hf3      1.0000 0.56817  0.25882  0.15518  Biso   1.000  Hf
  Hf4      1.0000 0.67726  0.49306  0.38175  Biso   1.000  Hf
  O1       1.0000 0.84705  0.18788  0.28488  Biso   1.000  O 
  O2       1.0000 0.03925  0.06280  0.46212  Biso   1.000  O 
  O3       1.0000 0.85100  0.44538  0.20215  Biso   1.000  O 
  O4       1.0000 0.90005  0.34673  0.47240  Biso   1.000  O 
  O5       1.0000 0.38404  0.10787  0.25888  Biso   1.000  O 
  O6       1.0000 0.51565  0.14657  0.50533  Biso   1.000  O 
  O7       1.0000 0.41835  0.39284  0.50636  Biso   1.000  O 
  O8       1.0000 0.34786  0.37913  0.26770  Biso   1.000  O 
  Hf5      1.0000 0.25256  0.01876  0.62457  Biso   1.000  Hf
  Hf6      1.0000 0.22688  0.24097  0.85040  Biso   1.000  Hf
  Hf7      1.0000 0.70293  0.28761  0.63971  Biso   1.000  Hf
  Hf8      1.0000 0.64157  0.49664  0.86904  Biso   1.000  Hf
  O9       1.0000 0.06369  0.19510  0.66663  Biso   1.000  O 
  O10      1.0000 0.03553  0.07112  0.92146  Biso   1.000  O 
  O11      1.0000 0.83895  0.47201  0.68161  Biso   1.000  O 
  O12      1.0000 0.84378  0.31738  0.85199  Biso   1.000  O 
  O13      1.0000 0.50710  0.12657  0.75251  Biso   1.000  O 
  O14      1.0000 0.57012  0.11702  0.00872  Biso   1.000  O 
  O15      1.0000 0.38523  0.39614  0.99752  Biso   1.000  O 
  O16      1.0000 0.38021  0.38629  0.74453  Biso   1.000  O 
  Hf9      1.0000 0.21247  0.52837  0.13515  Biso   1.000  Hf
  Hf10     1.0000 0.20420  0.74896  0.37782  Biso   1.000  Hf
  Hf11     1.0000 0.68547  0.76361  0.12818  Biso   1.000  Hf
  Hf12     1.0000 0.71621  0.00833  0.36313  Biso   1.000  Hf
  O17      1.0000 0.02687  0.69116  0.19606  Biso   1.000  O 
  O18      1.0000 0.00720  0.58526  0.44090  Biso   1.000  O 
  O19      1.0000 0.86236  0.94625  0.18668  Biso   1.000  O 
  O20      1.0000 0.85672  0.82861  0.43905  Biso   1.000  O 
  O21      1.0000 0.48580  0.62557  0.25410  Biso   1.000  O 
  O22      1.0000 0.46756  0.64581  0.49994  Biso   1.000  O 
  O23      1.0000 0.39107  0.89667  0.49379  Biso   1.000  O 
  O24      1.0000 0.40973  0.86728  0.24173  Biso   1.000  O 
  Hf13     1.0000 0.19476  0.52780  0.61752  Biso   1.000  Hf
  Hf14     1.0000 0.17173  0.74165  0.87015  Biso   1.000  Hf
  Hf15     1.0000 0.66361  0.77986  0.61788  Biso   1.000  Hf
  Hf16     1.0000 0.63292  0.98898  0.87122  Biso   1.000  Hf
  O25      1.0000 0.99506  0.69995  0.69188  Biso   1.000  O 
  O26      1.0000 0.96618  0.57695  0.94957  Biso   1.000  O 
  O27      1.0000 0.84870  0.94207  0.69978  Biso   1.000  O 
  O28      1.0000 0.84928  0.83154  0.95758  Biso   1.000  O 
  O29      1.0000 0.45164  0.62954  0.75138  Biso   1.000  O 
  O30      1.0000 0.50604  0.62928  0.00412  Biso   1.000  O 
  O31      1.0000 0.36441  0.88602  0.99015  Biso   1.000  O 
  O32      1.0000 0.38355  0.87352  0.74584  Biso   1.000  O 
  Tl1      1.0000 0.04494  0.24734  0.08104  Biso   1.000  Tl
