data_image0
_cell_length_a       10.2325
_cell_length_b       10.4259
_cell_length_c       5.281
_cell_angle_alpha    90
_cell_angle_beta     80
_cell_angle_gamma    90

_symmetry_space_group_name_H-M    "P 1"
_symmetry_int_tables_number       1

loop_
  _symmetry_equiv_pos_as_xyz
  'x, y, z'

loop_
  _atom_site_label
  _atom_site_occupancy
  _atom_site_fract_x
  _atom_site_fract_y
  _atom_site_fract_z
  _atom_site_thermal_displace_type
  _atom_site_B_iso_or_equiv
  _atom_site_type_symbol
  Hf1      1.0000 0.13512  0.02000  0.28419  Biso   1.000  Hf
  Hf2      1.0000 0.14214  0.22871  0.77195  Biso   1.000  Hf
  Hf3      1.0000 0.35090  0.27891  0.18381  Biso   1.000  Hf
  Hf4      1.0000 0.36755  0.48855  0.70647  Biso   1.000  Hf
  O1       1.0000 0.03974  0.17027  0.15356  Biso   1.000  O 
  O2       1.0000 0.03372  0.08285  0.65502  Biso   1.000  O 
  O3       1.0000 0.46503  0.43765  0.34653  Biso   1.000  O 
  O4       1.0000 0.48957  0.37548  0.90228  Biso   1.000  O 
  O5       1.0000 0.26470  0.12347  0.45747  Biso   1.000  O 
  O6       1.0000 0.28482  0.12339  0.95637  Biso   1.000  O 
  O7       1.0000 0.21806  0.38225  0.00120  Biso   1.000  O 
  O8       1.0000 0.21951  0.37467  0.49982  Biso   1.000  O 
  Hf5      1.0000 0.14306  0.52412  0.29048  Biso   1.000  Hf
  Hf6      1.0000 0.14557  0.73059  0.79160  Biso   1.000  Hf
  Hf7      1.0000 0.36393  0.76982  0.20816  Biso   1.000  Hf
  Hf8      1.0000 0.37007  0.96656  0.70499  Biso   1.000  Hf
  O9       1.0000 0.03537  0.66799  0.15811  Biso   1.000  O 
  O10      1.0000 0.04243  0.58675  0.65533  Biso   1.000  O 
  O11      1.0000 0.46749  0.91938  0.32862  Biso   1.000  O 
  O12      1.0000 0.46663  0.81891  0.83428  Biso   1.000  O 
  O13      1.0000 0.27995  0.63082  0.48239  Biso   1.000  O 
  O14      1.0000 0.28353  0.62582  0.98159  Biso   1.000  O 
  O15      1.0000 0.22496  0.87776  0.01979  Biso   1.000  O 
  O16      1.0000 0.22936  0.86880  0.51683  Biso   1.000  O 
  Hf9      1.0000 0.63900  0.01398  0.29790  Biso   1.000  Hf
  Hf10     1.0000 0.67507  0.23985  0.83218  Biso   1.000  Hf
  Hf11     1.0000 0.86925  0.27361  0.22982  Biso   1.000  Hf
  Hf12     1.0000 0.87222  0.48467  0.71382  Biso   1.000  Hf
  O17      1.0000 0.53270  0.16210  0.13251  Biso   1.000  O 
  O18      1.0000 0.55192  0.03624  0.67899  Biso   1.000  O 
  O19      1.0000 0.97122  0.42136  0.34520  Biso   1.000  O 
  O20      1.0000 0.96875  0.33159  0.84131  Biso   1.000  O 
  O21      1.0000 0.78072  0.13328  0.50212  Biso   1.000  O 
  O22      1.0000 0.78413  0.11621  0.00906  Biso   1.000  O 
  O23      1.0000 0.73203  0.38168  0.05032  Biso   1.000  O 
  O24      1.0000 0.73575  0.37784  0.54111  Biso   1.000  O 
  Hf13     1.0000 0.64089  0.52873  0.30199  Biso   1.000  Hf
  Hf14     1.0000 0.64820  0.73036  0.79263  Biso   1.000  Hf
  Hf15     1.0000 0.86538  0.77161  0.20957  Biso   1.000  Hf
  Hf16     1.0000 0.86942  0.97883  0.70871  Biso   1.000  Hf
  O25      1.0000 0.54016  0.67426  0.16357  Biso   1.000  O 
  O26      1.0000 0.54194  0.59094  0.65793  Biso   1.000  O 
  O27      1.0000 0.96899  0.91725  0.34469  Biso   1.000  O 
  O28      1.0000 0.97511  0.83505  0.84257  Biso   1.000  O 
  O29      1.0000 0.78338  0.63088  0.48482  Biso   1.000  O 
  O30      1.0000 0.78557  0.62450  0.98162  Biso   1.000  O 
  O31      1.0000 0.72564  0.87761  0.02174  Biso   1.000  O 
  O32      1.0000 0.73448  0.86858  0.51559  Biso   1.000  O 
  Tl1      1.0000 0.46902  0.23120  0.58240  Biso   1.000  Tl
