data_image0
_cell_length_a       10.1772
_cell_length_b       10.2993
_cell_length_c       5.23817
_cell_angle_alpha    90
_cell_angle_beta     80
_cell_angle_gamma    90

_symmetry_space_group_name_H-M    "P 1"
_symmetry_int_tables_number       1

loop_
  _symmetry_equiv_pos_as_xyz
  'x, y, z'

loop_
  _atom_site_label
  _atom_site_occupancy
  _atom_site_fract_x
  _atom_site_fract_y
  _atom_site_fract_z
  _atom_site_thermal_displace_type
  _atom_site_B_iso_or_equiv
  _atom_site_type_symbol
  Tl1      1.0000 0.13387  0.01534  0.29038  Biso   1.000  Tl
  Hf1      1.0000 0.13698  0.22947  0.79116  Biso   1.000  Hf
  Hf2      1.0000 0.35844  0.26891  0.20712  Biso   1.000  Hf
  Hf3      1.0000 0.35754  0.47760  0.70733  Biso   1.000  Hf
  O1       1.0000 0.03572  0.18283  0.15947  Biso   1.000  O 
  O2       1.0000 0.02615  0.08183  0.69080  Biso   1.000  O 
  O3       1.0000 0.46364  0.41560  0.34241  Biso   1.000  O 
  O4       1.0000 0.46328  0.33375  0.84312  Biso   1.000  O 
  O5       1.0000 0.27946  0.13094  0.48665  Biso   1.000  O 
  O6       1.0000 0.28055  0.12727  0.96527  Biso   1.000  O 
  O7       1.0000 0.22430  0.38058  0.01642  Biso   1.000  O 
  O8       1.0000 0.22074  0.37130  0.51655  Biso   1.000  O 
  Hf4      1.0000 0.13806  0.52103  0.29007  Biso   1.000  Hf
  Hf5      1.0000 0.13681  0.72769  0.79206  Biso   1.000  Hf
  Hf6      1.0000 0.36143  0.77053  0.20875  Biso   1.000  Hf
  Hf7      1.0000 0.35822  0.97932  0.70731  Biso   1.000  Hf
  O9       1.0000 0.03437  0.66972  0.16165  Biso   1.000  O 
  O10      1.0000 0.03191  0.58131  0.65911  Biso   1.000  O 
  O11      1.0000 0.46534  0.91717  0.34089  Biso   1.000  O 
  O12      1.0000 0.46413  0.83271  0.84356  Biso   1.000  O 
  O13      1.0000 0.27433  0.62522  0.47872  Biso   1.000  O 
  O14      1.0000 0.27201  0.61976  0.98067  Biso   1.000  O 
  O15      1.0000 0.23058  0.87328  0.00842  Biso   1.000  O 
  O16      1.0000 0.22875  0.86246  0.52387  Biso   1.000  O 
  Hf8      1.0000 0.63860  0.02136  0.29419  Biso   1.000  Hf
  Hf9      1.0000 0.63531  0.22916  0.79414  Biso   1.000  Hf
  Hf10     1.0000 0.85875  0.27194  0.20811  Biso   1.000  Hf
  Hf11     1.0000 0.85763  0.47880  0.70762  Biso   1.000  Hf
  O17      1.0000 0.53441  0.16777  0.15900  Biso   1.000  O 
  O18      1.0000 0.53458  0.08180  0.65917  Biso   1.000  O 
  O19      1.0000 0.96103  0.42206  0.33740  Biso   1.000  O 
  O20      1.0000 0.96024  0.33343  0.83819  Biso   1.000  O 
  O21      1.0000 0.77434  0.13017  0.48489  Biso   1.000  O 
  O22      1.0000 0.77040  0.12144  0.98651  Biso   1.000  O 
  O23      1.0000 0.72284  0.37934  0.01820  Biso   1.000  O 
  O24      1.0000 0.72113  0.37143  0.51977  Biso   1.000  O 
  Hf12     1.0000 0.63645  0.51949  0.29139  Biso   1.000  Hf
  Hf13     1.0000 0.63442  0.72754  0.79124  Biso   1.000  Hf
  Hf14     1.0000 0.85755  0.76840  0.20685  Biso   1.000  Hf
  Hf15     1.0000 0.85344  0.97819  0.71694  Biso   1.000  Hf
  O25      1.0000 0.53412  0.66567  0.15693  Biso   1.000  O 
  O26      1.0000 0.53071  0.58215  0.65672  Biso   1.000  O 
  O27      1.0000 0.94535  0.91890  0.34676  Biso   1.000  O 
  O28      1.0000 0.96098  0.83024  0.84122  Biso   1.000  O 
  O29      1.0000 0.77224  0.62815  0.47981  Biso   1.000  O 
  O30      1.0000 0.77093  0.61969  0.97990  Biso   1.000  O 
  O31      1.0000 0.72240  0.87802  0.02022  Biso   1.000  O 
  O32      1.0000 0.71632  0.86979  0.52324  Biso   1.000  O 
