data_image0
_cell_length_a       5.12504
_cell_length_b       10.6667
_cell_length_c       10.2892
_cell_angle_alpha    90
_cell_angle_beta     90
_cell_angle_gamma    90

_symmetry_space_group_name_H-M    "P 1"
_symmetry_int_tables_number       1

loop_
  _symmetry_equiv_pos_as_xyz
  'x, y, z'

loop_
  _atom_site_label
  _atom_site_occupancy
  _atom_site_fract_x
  _atom_site_fract_y
  _atom_site_fract_z
  _atom_site_thermal_displace_type
  _atom_site_B_iso_or_equiv
  _atom_site_type_symbol
  Hf1      1.0000 0.24467  0.96404  0.13476  Biso   1.000  Hf
  Hf2      1.0000 0.10672  0.26174  0.37076  Biso   1.000  Hf
  Hf3      1.0000 0.76280  0.19305  0.10952  Biso   1.000  Hf
  Hf4      1.0000 0.77996  0.98118  0.35572  Biso   1.000  Hf
  O1       1.0000 0.95889  0.05655  0.94749  Biso   1.000  O 
  O2       1.0000 0.02901  0.08722  0.22671  Biso   1.000  O 
  O3       1.0000 0.79077  0.33321  0.25216  Biso   1.000  O 
  O4       1.0000 0.02565  0.32118  0.94908  Biso   1.000  O 
  O5       1.0000 0.53231  0.09494  0.24764  Biso   1.000  O 
  O6       1.0000 0.57746  0.05037  0.00694  Biso   1.000  O 
  O7       1.0000 0.54730  0.21130  0.95089  Biso   1.000  O 
  O8       1.0000 0.30619  0.42131  0.29775  Biso   1.000  O 
  Hf5      1.0000 0.20088  0.90300  0.62955  Biso   1.000  Hf
  Hf6      1.0000 0.17611  0.16286  0.82502  Biso   1.000  Hf
  Hf7      1.0000 0.64589  0.16034  0.61150  Biso   1.000  Hf
  Hf8      1.0000 0.76971  0.91030  0.84524  Biso   1.000  Hf
  O9       1.0000 0.89301  0.13656  0.46440  Biso   1.000  O 
  O10      1.0000 0.97631  0.02068  0.70890  Biso   1.000  O 
  O11      1.0000 0.92672  0.26477  0.71404  Biso   1.000  O 
  O12      1.0000 0.92845  0.38851  0.48606  Biso   1.000  O 
  O13      1.0000 0.46421  0.04546  0.75049  Biso   1.000  O 
  O14      1.0000 0.52777  0.99565  0.51540  Biso   1.000  O 
  O15      1.0000 0.37448  0.25516  0.51009  Biso   1.000  O 
  O16      1.0000 0.42874  0.30187  0.74167  Biso   1.000  O 
  Hf9      1.0000 0.17992  0.53049  0.12790  Biso   1.000  Hf
  Hf10     1.0000 0.11421  0.72945  0.37765  Biso   1.000  Hf
  Hf11     1.0000 0.66153  0.72669  0.14435  Biso   1.000  Hf
  Hf12     1.0000 0.65690  0.48398  0.36974  Biso   1.000  Hf
  O17      1.0000 0.96757  0.66296  0.00957  Biso   1.000  O 
  O18      1.0000 0.90130  0.59642  0.25177  Biso   1.000  O 
  O19      1.0000 0.94019  0.84188  0.22954  Biso   1.000  O 
  O20      1.0000 0.93199  0.81203  0.96843  Biso   1.000  O 
  O21      1.0000 0.40815  0.63586  0.26881  Biso   1.000  O 
  O22      1.0000 0.52817  0.56071  0.04323  Biso   1.000  O 
  O23      1.0000 0.40969  0.80891  0.02632  Biso   1.000  O 
  O24      1.0000 0.44349  0.86044  0.27036  Biso   1.000  O 
  Hf13     1.0000 0.17432  0.41614  0.64361  Biso   1.000  Hf
  Hf14     1.0000 0.10696  0.66218  0.86583  Biso   1.000  Hf
  Hf15     1.0000 0.60961  0.64973  0.64579  Biso   1.000  Hf
  Hf16     1.0000 0.67453  0.38612  0.87961  Biso   1.000  Hf
  O25      1.0000 0.84604  0.63471  0.48509  Biso   1.000  O 
  O26      1.0000 0.88727  0.51897  0.74498  Biso   1.000  O 
  O27      1.0000 0.90186  0.76963  0.72612  Biso   1.000  O 
  O28      1.0000 0.96875  0.88529  0.47114  Biso   1.000  O 
  O29      1.0000 0.38354  0.54296  0.78009  Biso   1.000  O 
  O30      1.0000 0.44144  0.50515  0.53628  Biso   1.000  O 
  O31      1.0000 0.35358  0.74655  0.53192  Biso   1.000  O 
  O32      1.0000 0.40677  0.79168  0.76930  Biso   1.000  O 
  Tl1      1.0000 0.28642  0.27763  0.11565  Biso   1.000  Tl
