data_image0
_cell_length_a       10.0429
_cell_length_b       10.0551
_cell_length_c       5.08486
_cell_angle_alpha    90
_cell_angle_beta     90
_cell_angle_gamma    90

_symmetry_space_group_name_H-M    "P 1"
_symmetry_int_tables_number       1

loop_
  _symmetry_equiv_pos_as_xyz
  'x, y, z'

loop_
  _atom_site_label
  _atom_site_occupancy
  _atom_site_fract_x
  _atom_site_fract_y
  _atom_site_fract_z
  _atom_site_thermal_displace_type
  _atom_site_B_iso_or_equiv
  _atom_site_type_symbol
  Hf1      1.0000 0.12488  0.98822  0.24982  Biso   1.000  Hf
  Hf2      1.0000 0.12488  0.25009  0.74982  Biso   1.000  Hf
  Hf3      1.0000 0.39242  0.25008  0.24982  Biso   1.000  Hf
  Hf4      1.0000 0.37266  0.00009  0.74863  Biso   1.000  Hf
  O1       1.0000 0.00584  0.12873  0.98512  Biso   1.000  O 
  O2       1.0000 0.99909  0.12522  0.46848  Biso   1.000  O 
  O3       1.0000 0.00583  0.37142  0.51452  Biso   1.000  O 
  O4       1.0000 0.99910  0.37493  0.03117  Biso   1.000  O 
  O5       1.0000 0.24393  0.12873  0.51451  Biso   1.000  O 
  O6       1.0000 0.25067  0.12522  0.03115  Biso   1.000  O 
  O7       1.0000 0.24394  0.37142  0.98511  Biso   1.000  O 
  O8       1.0000 0.25066  0.37492  0.46846  Biso   1.000  O 
  Hf5      1.0000 0.12489  0.51193  0.24983  Biso   1.000  Hf
  Hf6      1.0000 0.12488  0.75008  0.74983  Biso   1.000  Hf
  Hf7      1.0000 0.37989  0.75009  0.24981  Biso   1.000  Hf
  Hf8      1.0000 0.37267  0.50009  0.75102  Biso   1.000  Hf
  O9       1.0000 0.00612  0.62644  0.96560  Biso   1.000  O 
  O10      1.0000 0.99154  0.62357  0.46763  Biso   1.000  O 
  O11      1.0000 0.00611  0.87371  0.53404  Biso   1.000  O 
  O12      1.0000 0.99154  0.87658  0.03200  Biso   1.000  O 
  O13      1.0000 0.24365  0.62643  0.53407  Biso   1.000  O 
  O14      1.0000 0.25821  0.62357  0.03204  Biso   1.000  O 
  O15      1.0000 0.24368  0.87371  0.96561  Biso   1.000  O 
  O16      1.0000 0.25822  0.87658  0.46764  Biso   1.000  O 
  Hf9      1.0000 0.62488  0.00348  0.24982  Biso   1.000  Hf
  Hf10     1.0000 0.62489  0.25008  0.74982  Biso   1.000  Hf
  Hf11     1.0000 0.85732  0.25008  0.24981  Biso   1.000  Hf
  Hf12     1.0000 0.87711  0.00009  0.75101  Biso   1.000  Hf
  O17      1.0000 0.49980  0.12999  0.96415  Biso   1.000  O 
  O18      1.0000 0.49367  0.11215  0.47609  Biso   1.000  O 
  O19      1.0000 0.49978  0.37016  0.53550  Biso   1.000  O 
  O20      1.0000 0.49367  0.38801  0.02356  Biso   1.000  O 
  O21      1.0000 0.74998  0.12999  0.53548  Biso   1.000  O 
  O22      1.0000 0.75609  0.11215  0.02354  Biso   1.000  O 
  O23      1.0000 0.74999  0.37016  0.96415  Biso   1.000  O 
  O24      1.0000 0.75609  0.38801  0.47609  Biso   1.000  O 
  Hf13     1.0000 0.62488  0.49668  0.24982  Biso   1.000  Hf
  Hf14     1.0000 0.62489  0.75010  0.74982  Biso   1.000  Hf
  Hf15     1.0000 0.86989  0.75008  0.24982  Biso   1.000  Hf
  Hf16     1.0000 0.87710  0.50009  0.74863  Biso   1.000  Hf
  O25      1.0000 0.50265  0.63208  0.96062  Biso   1.000  O 
  O26      1.0000 0.49178  0.61487  0.46060  Biso   1.000  O 
  O27      1.0000 0.50264  0.86808  0.53899  Biso   1.000  O 
  O28      1.0000 0.49180  0.88528  0.03901  Biso   1.000  O 
  O29      1.0000 0.74712  0.63207  0.53901  Biso   1.000  O 
  O30      1.0000 0.75796  0.61488  0.03903  Biso   1.000  O 
  O31      1.0000 0.74714  0.86809  0.96063  Biso   1.000  O 
  O32      1.0000 0.75797  0.88528  0.46061  Biso   1.000  O 
  V1       1.0000 0.12487  0.25007  0.24981  Biso   1.000  V 
