data_image0
_cell_length_a       9.97205
_cell_length_b       10.1979
_cell_length_c       5.20264
_cell_angle_alpha    90
_cell_angle_beta     90
_cell_angle_gamma    90

_symmetry_space_group_name_H-M    "P 1"
_symmetry_int_tables_number       1

loop_
  _symmetry_equiv_pos_as_xyz
  'x, y, z'

loop_
  _atom_site_label
  _atom_site_occupancy
  _atom_site_fract_x
  _atom_site_fract_y
  _atom_site_fract_z
  _atom_site_thermal_displace_type
  _atom_site_B_iso_or_equiv
  _atom_site_type_symbol
  V1       1.0000 0.13014  0.02540  0.34985  Biso   1.000  V 
  Hf1      1.0000 0.14182  0.22701  0.84345  Biso   1.000  Hf
  Hf2      1.0000 0.35945  0.26883  0.34352  Biso   1.000  Hf
  Hf3      1.0000 0.36189  0.47989  0.84354  Biso   1.000  Hf
  Hf4      1.0000 0.63787  0.02110  0.15372  Biso   1.000  Hf
  Hf5      1.0000 0.63884  0.22947  0.65791  Biso   1.000  Hf
  Hf6      1.0000 0.86270  0.26978  0.16007  Biso   1.000  Hf
  Hf7      1.0000 0.86288  0.47902  0.66062  Biso   1.000  Hf
  O1       1.0000 0.03587  0.15641  0.16930  Biso   1.000  O 
  O2       1.0000 0.03709  0.08441  0.64773  Biso   1.000  O 
  O3       1.0000 0.46562  0.41771  0.17380  Biso   1.000  O 
  O4       1.0000 0.46548  0.33185  0.67321  Biso   1.000  O 
  O5       1.0000 0.27368  0.12219  0.58731  Biso   1.000  O 
  O6       1.0000 0.27275  0.12283  0.09883  Biso   1.000  O 
  O7       1.0000 0.22377  0.37413  0.59126  Biso   1.000  O 
  O8       1.0000 0.22331  0.37485  0.08961  Biso   1.000  O 
  O9       1.0000 0.53450  0.16780  0.32922  Biso   1.000  O 
  O10      1.0000 0.53225  0.08440  0.83012  Biso   1.000  O 
  O11      1.0000 0.96910  0.41365  0.33416  Biso   1.000  O 
  O12      1.0000 0.96811  0.33038  0.83383  Biso   1.000  O 
  O13      1.0000 0.77894  0.12352  0.90722  Biso   1.000  O 
  O14      1.0000 0.77736  0.12593  0.40794  Biso   1.000  O 
  O15      1.0000 0.72487  0.37384  0.91407  Biso   1.000  O 
  O16      1.0000 0.72468  0.37630  0.41250  Biso   1.000  O 
  Hf8      1.0000 0.14070  0.52166  0.34379  Biso   1.000  Hf
  Hf9      1.0000 0.14135  0.73252  0.84161  Biso   1.000  Hf
  Hf10     1.0000 0.35808  0.77625  0.34180  Biso   1.000  Hf
  Hf11     1.0000 0.35776  0.97986  0.84348  Biso   1.000  Hf
  Hf12     1.0000 0.63875  0.52203  0.16117  Biso   1.000  Hf
  Hf13     1.0000 0.63855  0.72993  0.65706  Biso   1.000  Hf
  Hf14     1.0000 0.86445  0.77158  0.15586  Biso   1.000  Hf
  Hf15     1.0000 0.86390  0.97997  0.65349  Biso   1.000  Hf
  O17      1.0000 0.03451  0.66600  0.16912  Biso   1.000  O 
  O18      1.0000 0.03507  0.58380  0.67113  Biso   1.000  O 
  O19      1.0000 0.46808  0.91675  0.16806  Biso   1.000  O 
  O20      1.0000 0.46530  0.83457  0.67070  Biso   1.000  O 
  O21      1.0000 0.27798  0.62572  0.58967  Biso   1.000  O 
  O22      1.0000 0.27800  0.62749  0.08941  Biso   1.000  O 
  O23      1.0000 0.22007  0.87879  0.58417  Biso   1.000  O 
  O24      1.0000 0.22024  0.87907  0.09138  Biso   1.000  O 
  O25      1.0000 0.53435  0.66983  0.32870  Biso   1.000  O 
  O26      1.0000 0.53600  0.58239  0.82845  Biso   1.000  O 
  O27      1.0000 0.97981  0.91970  0.32747  Biso   1.000  O 
  O28      1.0000 0.96741  0.83485  0.82823  Biso   1.000  O 
  O29      1.0000 0.77863  0.62540  0.91384  Biso   1.000  O 
  O30      1.0000 0.77843  0.62619  0.41305  Biso   1.000  O 
  O31      1.0000 0.72463  0.87492  0.90768  Biso   1.000  O 
  O32      1.0000 0.73044  0.87686  0.40788  Biso   1.000  O 
