data_image0
_cell_length_a       5.09621
_cell_length_b       10.2231
_cell_length_c       10.6107
_cell_angle_alpha    90
_cell_angle_beta     80
_cell_angle_gamma    90

_symmetry_space_group_name_H-M    "P 1"
_symmetry_int_tables_number       1

loop_
  _symmetry_equiv_pos_as_xyz
  'x, y, z'

loop_
  _atom_site_label
  _atom_site_occupancy
  _atom_site_fract_x
  _atom_site_fract_y
  _atom_site_fract_z
  _atom_site_thermal_displace_type
  _atom_site_B_iso_or_equiv
  _atom_site_type_symbol
  Hf1      1.0000 0.27608  0.02158  0.14437  Biso   1.000  Hf
  Hf2      1.0000 0.26413  0.23728  0.40261  Biso   1.000  Hf
  Hf3      1.0000 0.72181  0.26765  0.09358  Biso   1.000  Hf
  Hf4      1.0000 0.72000  0.49470  0.35825  Biso   1.000  Hf
  O1       1.0000 0.05948  0.15331  0.06591  Biso   1.000  O 
  O2       1.0000 0.05308  0.09425  0.32307  Biso   1.000  O 
  O3       1.0000 0.96097  0.38980  0.19370  Biso   1.000  O 
  O4       1.0000 0.94938  0.36403  0.44049  Biso   1.000  O 
  O5       1.0000 0.55213  0.12399  0.23378  Biso   1.000  O 
  O6       1.0000 0.56977  0.13104  0.48112  Biso   1.000  O 
  O7       1.0000 0.44395  0.37833  0.00903  Biso   1.000  O 
  O8       1.0000 0.48477  0.36740  0.26340  Biso   1.000  O 
  Hf5      1.0000 0.27461  0.02933  0.64518  Biso   1.000  Hf
  Hf6      1.0000 0.27469  0.23586  0.89319  Biso   1.000  Hf
  Hf7      1.0000 0.72058  0.28310  0.60878  Biso   1.000  Hf
  Hf8      1.0000 0.72080  0.48845  0.85610  Biso   1.000  Hf
  O9       1.0000 0.06199  0.16917  0.57732  Biso   1.000  O 
  O10      1.0000 0.05965  0.09726  0.82092  Biso   1.000  O 
  O11      1.0000 0.93697  0.41839  0.68311  Biso   1.000  O 
  O12      1.0000 0.94514  0.35352  0.92697  Biso   1.000  O 
  O13      1.0000 0.54739  0.13515  0.73721  Biso   1.000  O 
  O14      1.0000 0.54754  0.12962  0.98400  Biso   1.000  O 
  O15      1.0000 0.44804  0.38823  0.51724  Biso   1.000  O 
  O16      1.0000 0.44976  0.38073  0.76242  Biso   1.000  O 
  Hf9      1.0000 0.27605  0.51786  0.14858  Biso   1.000  Hf
  Hf10     1.0000 0.26940  0.73365  0.39768  Biso   1.000  Hf
  Hf11     1.0000 0.72337  0.77046  0.10432  Biso   1.000  Hf
  Hf12     1.0000 0.71426  0.97572  0.35264  Biso   1.000  Hf
  O17      1.0000 0.05817  0.65277  0.07284  Biso   1.000  O 
  O18      1.0000 0.06612  0.59686  0.31956  Biso   1.000  O 
  O19      1.0000 0.93787  0.90805  0.17867  Biso   1.000  O 
  O20      1.0000 0.93467  0.84409  0.43001  Biso   1.000  O 
  O21      1.0000 0.55078  0.62831  0.23924  Biso   1.000  O 
  O22      1.0000 0.54209  0.63291  0.49344  Biso   1.000  O 
  O23      1.0000 0.44919  0.87725  0.01183  Biso   1.000  O 
  O24      1.0000 0.44302  0.87038  0.25974  Biso   1.000  O 
  Hf13     1.0000 0.27290  0.53033  0.64870  Biso   1.000  Hf
  Hf14     1.0000 0.27602  0.73564  0.89771  Biso   1.000  Hf
  Hf15     1.0000 0.72001  0.77935  0.60654  Biso   1.000  Hf
  Hf16     1.0000 0.72394  0.98527  0.85363  Biso   1.000  Hf
  O25      1.0000 0.05416  0.66561  0.57363  Biso   1.000  O 
  O26      1.0000 0.05979  0.60056  0.82376  Biso   1.000  O 
  O27      1.0000 0.93834  0.91738  0.67794  Biso   1.000  O 
  O28      1.0000 0.93783  0.84777  0.92896  Biso   1.000  O 
  O29      1.0000 0.54868  0.63635  0.74164  Biso   1.000  O 
  O30      1.0000 0.54975  0.63135  0.99129  Biso   1.000  O 
  O31      1.0000 0.44490  0.88556  0.51145  Biso   1.000  O 
  O32      1.0000 0.44838  0.87970  0.76180  Biso   1.000  O 
  V1       1.0000 0.77829  0.24360  0.32569  Biso   1.000  V 
