data_image0
_cell_length_a       10.0569
_cell_length_b       10.2415
_cell_length_c       5.19721
_cell_angle_alpha    90
_cell_angle_beta     80
_cell_angle_gamma    90

_symmetry_space_group_name_H-M    "P 1"
_symmetry_int_tables_number       1

loop_
  _symmetry_equiv_pos_as_xyz
  'x, y, z'

loop_
  _atom_site_label
  _atom_site_occupancy
  _atom_site_fract_x
  _atom_site_fract_y
  _atom_site_fract_z
  _atom_site_thermal_displace_type
  _atom_site_B_iso_or_equiv
  _atom_site_type_symbol
  V1       1.0000 0.13024  0.02529  0.29441  Biso   1.000  V 
  Hf1      1.0000 0.13939  0.22536  0.78858  Biso   1.000  Hf
  Hf2      1.0000 0.35908  0.26905  0.20890  Biso   1.000  Hf
  Hf3      1.0000 0.35987  0.47858  0.70992  Biso   1.000  Hf
  O1       1.0000 0.03834  0.15906  0.16016  Biso   1.000  O 
  O2       1.0000 0.03830  0.07911  0.63872  Biso   1.000  O 
  O3       1.0000 0.46249  0.42093  0.33627  Biso   1.000  O 
  O4       1.0000 0.46041  0.32728  0.83705  Biso   1.000  O 
  O5       1.0000 0.27136  0.12454  0.47448  Biso   1.000  O 
  O6       1.0000 0.27178  0.11969  0.98713  Biso   1.000  O 
  O7       1.0000 0.22282  0.37881  0.01837  Biso   1.000  O 
  O8       1.0000 0.22292  0.36889  0.51972  Biso   1.000  O 
  Hf4      1.0000 0.14054  0.52158  0.29274  Biso   1.000  Hf
  Hf5      1.0000 0.13919  0.73062  0.79281  Biso   1.000  Hf
  Hf6      1.0000 0.35790  0.77601  0.21133  Biso   1.000  Hf
  Hf7      1.0000 0.35637  0.97890  0.71001  Biso   1.000  Hf
  O9       1.0000 0.03712  0.66925  0.16356  Biso   1.000  O 
  O10      1.0000 0.03643  0.57916  0.66529  Biso   1.000  O 
  O11      1.0000 0.46532  0.92009  0.33998  Biso   1.000  O 
  O12      1.0000 0.45958  0.82921  0.83787  Biso   1.000  O 
  O13      1.0000 0.27714  0.63015  0.48340  Biso   1.000  O 
  O14      1.0000 0.27551  0.62156  0.98388  Biso   1.000  O 
  O15      1.0000 0.21887  0.88550  0.02808  Biso   1.000  O 
  O16      1.0000 0.22023  0.87287  0.51906  Biso   1.000  O 
  Hf8      1.0000 0.63720  0.02109  0.29255  Biso   1.000  Hf
  Hf9      1.0000 0.63688  0.22784  0.79214  Biso   1.000  Hf
  Hf10     1.0000 0.86174  0.27013  0.20973  Biso   1.000  Hf
  Hf11     1.0000 0.86088  0.47790  0.71062  Biso   1.000  Hf
  O17      1.0000 0.53753  0.17173  0.16429  Biso   1.000  O 
  O18      1.0000 0.53354  0.07889  0.66480  Biso   1.000  O 
  O19      1.0000 0.96627  0.41641  0.34118  Biso   1.000  O 
  O20      1.0000 0.96312  0.32628  0.84195  Biso   1.000  O 
  O21      1.0000 0.77646  0.12833  0.48116  Biso   1.000  O 
  O22      1.0000 0.77631  0.11965  0.98065  Biso   1.000  O 
  O23      1.0000 0.72512  0.37915  0.01972  Biso   1.000  O 
  O24      1.0000 0.72313  0.37005  0.51895  Biso   1.000  O 
  Hf12     1.0000 0.63812  0.52241  0.29251  Biso   1.000  Hf
  Hf13     1.0000 0.63705  0.72930  0.79546  Biso   1.000  Hf
  Hf14     1.0000 0.86415  0.77203  0.20827  Biso   1.000  Hf
  Hf15     1.0000 0.86338  0.97891  0.70542  Biso   1.000  Hf
  O25      1.0000 0.53652  0.67248  0.16449  Biso   1.000  O 
  O26      1.0000 0.53646  0.57814  0.66639  Biso   1.000  O 
  O27      1.0000 0.97621  0.92208  0.33096  Biso   1.000  O 
  O28      1.0000 0.96261  0.82945  0.83727  Biso   1.000  O 
  O29      1.0000 0.77756  0.62917  0.48375  Biso   1.000  O 
  O30      1.0000 0.77606  0.62115  0.98468  Biso   1.000  O 
  O31      1.0000 0.72509  0.87975  0.01819  Biso   1.000  O 
  O32      1.0000 0.72865  0.87147  0.51730  Biso   1.000  O 
