data_image0
_cell_length_a       5.02747
_cell_length_b       10.2386
_cell_length_c       10.4015
_cell_angle_alpha    90
_cell_angle_beta     80
_cell_angle_gamma    90

_symmetry_space_group_name_H-M    "P 1"
_symmetry_int_tables_number       1

loop_
  _symmetry_equiv_pos_as_xyz
  'x, y, z'

loop_
  _atom_site_label
  _atom_site_occupancy
  _atom_site_fract_x
  _atom_site_fract_y
  _atom_site_fract_z
  _atom_site_thermal_displace_type
  _atom_site_B_iso_or_equiv
  _atom_site_type_symbol
  V1       1.0000 0.26274  0.02586  0.14795  Biso   1.000  V 
  Hf1      1.0000 0.27561  0.22666  0.39310  Biso   1.000  Hf
  Hf2      1.0000 0.72016  0.26802  0.10559  Biso   1.000  Hf
  Hf3      1.0000 0.72045  0.47832  0.35425  Biso   1.000  Hf
  O1       1.0000 0.07916  0.16200  0.08467  Biso   1.000  O 
  O2       1.0000 0.07620  0.07838  0.32026  Biso   1.000  O 
  O3       1.0000 0.92966  0.41764  0.16909  Biso   1.000  O 
  O4       1.0000 0.92342  0.32764  0.41808  Biso   1.000  O 
  O5       1.0000 0.54360  0.12404  0.23650  Biso   1.000  O 
  O6       1.0000 0.55130  0.11985  0.48850  Biso   1.000  O 
  O7       1.0000 0.44813  0.37902  0.01032  Biso   1.000  O 
  O8       1.0000 0.44702  0.36903  0.25898  Biso   1.000  O 
  Hf4      1.0000 0.26784  0.01973  0.64639  Biso   1.000  Hf
  Hf5      1.0000 0.26971  0.22563  0.89767  Biso   1.000  Hf
  Hf6      1.0000 0.71535  0.27040  0.60415  Biso   1.000  Hf
  Hf7      1.0000 0.71383  0.47728  0.85672  Biso   1.000  Hf
  O9       1.0000 0.06468  0.16625  0.57702  Biso   1.000  O 
  O10      1.0000 0.05882  0.07977  0.83155  Biso   1.000  O 
  O11      1.0000 0.92196  0.41797  0.67079  Biso   1.000  O 
  O12      1.0000 0.91720  0.32603  0.92278  Biso   1.000  O 
  O13      1.0000 0.54404  0.12801  0.74134  Biso   1.000  O 
  O14      1.0000 0.53653  0.11868  0.99527  Biso   1.000  O 
  O15      1.0000 0.44077  0.37801  0.50953  Biso   1.000  O 
  O16      1.0000 0.43835  0.36921  0.76104  Biso   1.000  O 
  Hf8      1.0000 0.27766  0.52242  0.14613  Biso   1.000  Hf
  Hf9      1.0000 0.27823  0.72973  0.39530  Biso   1.000  Hf
  Hf10     1.0000 0.72085  0.77676  0.10519  Biso   1.000  Hf
  Hf11     1.0000 0.72282  0.97855  0.35071  Biso   1.000  Hf
  O17      1.0000 0.07069  0.67085  0.08276  Biso   1.000  O 
  O18      1.0000 0.07303  0.57839  0.33243  Biso   1.000  O 
  O19      1.0000 0.95419  0.92265  0.16528  Biso   1.000  O 
  O20      1.0000 0.92575  0.82981  0.41798  Biso   1.000  O 
  O21      1.0000 0.55483  0.63014  0.24112  Biso   1.000  O 
  O22      1.0000 0.55172  0.62008  0.49164  Biso   1.000  O 
  O23      1.0000 0.43830  0.88597  0.01446  Biso   1.000  O 
  O24      1.0000 0.45155  0.87336  0.25795  Biso   1.000  O 
  Hf12     1.0000 0.27294  0.52084  0.64715  Biso   1.000  Hf
  Hf13     1.0000 0.26731  0.72928  0.89950  Biso   1.000  Hf
  Hf14     1.0000 0.71732  0.77057  0.60528  Biso   1.000  Hf
  Hf15     1.0000 0.70925  0.97841  0.85763  Biso   1.000  Hf
  O25      1.0000 0.06928  0.66991  0.58169  Biso   1.000  O 
  O26      1.0000 0.06534  0.57853  0.83359  Biso   1.000  O 
  O27      1.0000 0.92064  0.91924  0.67041  Biso   1.000  O 
  O28      1.0000 0.91193  0.82837  0.92024  Biso   1.000  O 
  O29      1.0000 0.54796  0.62829  0.74288  Biso   1.000  O 
  O30      1.0000 0.54402  0.62165  0.99322  Biso   1.000  O 
  O31      1.0000 0.44314  0.87857  0.50948  Biso   1.000  O 
  O32      1.0000 0.43730  0.86996  0.76145  Biso   1.000  O 
