data_image0
_cell_length_a       10.0509
_cell_length_b       5.08815
_cell_length_c       10.0509
_cell_angle_alpha    90
_cell_angle_beta     90
_cell_angle_gamma    90

_symmetry_space_group_name_H-M    "P 1"
_symmetry_int_tables_number       1

loop_
  _symmetry_equiv_pos_as_xyz
  'x, y, z'

loop_
  _atom_site_label
  _atom_site_occupancy
  _atom_site_fract_x
  _atom_site_fract_y
  _atom_site_fract_z
  _atom_site_thermal_displace_type
  _atom_site_B_iso_or_equiv
  _atom_site_type_symbol
  Hf1      1.0000 0.12491  0.00016  0.12491  Biso   1.000  Hf
  Hf2      1.0000 0.12492  0.50016  0.38902  Biso   1.000  Hf
  Hf3      1.0000 0.38902  0.50016  0.12491  Biso   1.000  Hf
  Hf4      1.0000 0.37240  0.99497  0.37239  Biso   1.000  Hf
  O1       1.0000 0.00048  0.27995  0.00047  Biso   1.000  O 
  O2       1.0000 0.00468  0.23787  0.24516  Biso   1.000  O 
  O3       1.0000 0.00048  0.72039  0.24936  Biso   1.000  O 
  O4       1.0000 0.00467  0.76247  0.00468  Biso   1.000  O 
  O5       1.0000 0.24936  0.27995  0.24935  Biso   1.000  O 
  O6       1.0000 0.24516  0.23787  0.00467  Biso   1.000  O 
  O7       1.0000 0.24936  0.72039  0.00046  Biso   1.000  O 
  O8       1.0000 0.24517  0.76247  0.24515  Biso   1.000  O 
  Hf5      1.0000 0.12493  0.00015  0.62491  Biso   1.000  Hf
  Hf6      1.0000 0.12495  0.50016  0.86081  Biso   1.000  Hf
  Hf7      1.0000 0.38445  0.50019  0.62492  Biso   1.000  Hf
  Hf8      1.0000 0.37242  0.00538  0.87743  Biso   1.000  Hf
  O9       1.0000 0.98962  0.28606  0.49864  Biso   1.000  O 
  O10      1.0000 0.00797  0.21073  0.75138  Biso   1.000  O 
  O11      1.0000 0.98963  0.71426  0.75119  Biso   1.000  O 
  O12      1.0000 0.00795  0.78957  0.49846  Biso   1.000  O 
  O13      1.0000 0.26025  0.28605  0.75119  Biso   1.000  O 
  O14      1.0000 0.24191  0.21074  0.49845  Biso   1.000  O 
  O15      1.0000 0.26023  0.71426  0.49863  Biso   1.000  O 
  O16      1.0000 0.24192  0.78958  0.75136  Biso   1.000  O 
  Hf9      1.0000 0.62491  0.00014  0.12491  Biso   1.000  Hf
  Hf10     1.0000 0.62493  0.50019  0.38443  Biso   1.000  Hf
  Hf11     1.0000 0.86081  0.50016  0.12492  Biso   1.000  Hf
  Hf12     1.0000 0.87744  0.00538  0.37240  Biso   1.000  Hf
  O17      1.0000 0.49867  0.28606  0.98960  Biso   1.000  O 
  O18      1.0000 0.49845  0.21073  0.24188  Biso   1.000  O 
  O19      1.0000 0.49865  0.71426  0.26022  Biso   1.000  O 
  O20      1.0000 0.49846  0.78958  0.00793  Biso   1.000  O 
  O21      1.0000 0.75119  0.28605  0.26023  Biso   1.000  O 
  O22      1.0000 0.75138  0.21073  0.00795  Biso   1.000  O 
  O23      1.0000 0.75122  0.71426  0.98961  Biso   1.000  O 
  O24      1.0000 0.75138  0.78958  0.24190  Biso   1.000  O 
  Hf13     1.0000 0.62493  0.00018  0.62491  Biso   1.000  Hf
  Hf14     1.0000 0.62494  0.50019  0.86540  Biso   1.000  Hf
  Hf15     1.0000 0.86542  0.50019  0.62491  Biso   1.000  Hf
  Hf16     1.0000 0.87747  0.99497  0.87744  Biso   1.000  Hf
  O25      1.0000 0.48812  0.27784  0.48810  Biso   1.000  O 
  O26      1.0000 0.50358  0.21259  0.74628  Biso   1.000  O 
  O27      1.0000 0.48814  0.72257  0.76171  Biso   1.000  O 
  O28      1.0000 0.50356  0.78782  0.50354  Biso   1.000  O 
  O29      1.0000 0.76175  0.27784  0.76173  Biso   1.000  O 
  O30      1.0000 0.74630  0.21259  0.50355  Biso   1.000  O 
  O31      1.0000 0.76173  0.72256  0.48812  Biso   1.000  O 
  O32      1.0000 0.74631  0.78783  0.74628  Biso   1.000  O 
  V1       1.0000 0.12491  0.50016  0.12491  Biso   1.000  V 
