data_image0
_cell_length_a       5.0378
_cell_length_b       10.413
_cell_length_c       10.0775
_cell_angle_alpha    90
_cell_angle_beta     90
_cell_angle_gamma    90

_symmetry_space_group_name_H-M    "P 1"
_symmetry_int_tables_number       1

loop_
  _symmetry_equiv_pos_as_xyz
  'x, y, z'

loop_
  _atom_site_label
  _atom_site_occupancy
  _atom_site_fract_x
  _atom_site_fract_y
  _atom_site_fract_z
  _atom_site_thermal_displace_type
  _atom_site_B_iso_or_equiv
  _atom_site_type_symbol
  Hf1      1.0000 0.25024  0.00403  0.12967  Biso   1.000  Hf
  Hf2      1.0000 0.24874  0.21534  0.39456  Biso   1.000  Hf
  Hf3      1.0000 0.81203  0.26416  0.08996  Biso   1.000  Hf
  Hf4      1.0000 0.74557  0.47325  0.37988  Biso   1.000  Hf
  O1       1.0000 0.03118  0.15711  0.21962  Biso   1.000  O 
  O2       1.0000 0.05327  0.05145  0.45687  Biso   1.000  O 
  O3       1.0000 0.05852  0.39961  0.19119  Biso   1.000  O 
  O4       1.0000 0.92263  0.30941  0.45411  Biso   1.000  O 
  O5       1.0000 0.49803  0.11059  0.25643  Biso   1.000  O 
  O6       1.0000 0.53671  0.11988  0.50951  Biso   1.000  O 
  O7       1.0000 0.45572  0.37312  0.49157  Biso   1.000  O 
  O8       1.0000 0.57264  0.37757  0.22673  Biso   1.000  O 
  Hf5      1.0000 0.25169  0.00227  0.63086  Biso   1.000  Hf
  Hf6      1.0000 0.26517  0.22211  0.86933  Biso   1.000  Hf
  Hf7      1.0000 0.72874  0.25745  0.62878  Biso   1.000  Hf
  Hf8      1.0000 0.74176  0.47849  0.86358  Biso   1.000  Hf
  O9       1.0000 0.06269  0.17000  0.69178  Biso   1.000  O 
  O10      1.0000 0.02343  0.06505  0.96022  Biso   1.000  O 
  O11      1.0000 0.91986  0.43195  0.68059  Biso   1.000  O 
  O12      1.0000 0.90492  0.30481  0.90147  Biso   1.000  O 
  O13      1.0000 0.52693  0.10415  0.75635  Biso   1.000  O 
  O14      1.0000 0.51268  0.13468  0.01001  Biso   1.000  O 
  O15      1.0000 0.45728  0.36401  0.99263  Biso   1.000  O 
  O16      1.0000 0.45018  0.36020  0.74292  Biso   1.000  O 
  Hf9      1.0000 0.32462  0.52529  0.12139  Biso   1.000  Hf
  Hf10     1.0000 0.28411  0.72775  0.37590  Biso   1.000  Hf
  Hf11     1.0000 0.76143  0.76467  0.12806  Biso   1.000  Hf
  Hf12     1.0000 0.74768  0.97900  0.37662  Biso   1.000  Hf
  O17      1.0000 0.09930  0.67631  0.19420  Biso   1.000  O 
  O18      1.0000 0.08651  0.56009  0.43927  Biso   1.000  O 
  O19      1.0000 0.94919  0.92193  0.20444  Biso   1.000  O 
  O20      1.0000 0.94779  0.80886  0.44929  Biso   1.000  O 
  O21      1.0000 0.58385  0.61917  0.25062  Biso   1.000  O 
  O22      1.0000 0.55125  0.62227  0.49807  Biso   1.000  O 
  O23      1.0000 0.47983  0.87370  0.50011  Biso   1.000  O 
  O24      1.0000 0.48076  0.85990  0.25080  Biso   1.000  O 
  Hf13     1.0000 0.27060  0.50713  0.61988  Biso   1.000  Hf
  Hf14     1.0000 0.27750  0.72048  0.87346  Biso   1.000  Hf
  Hf15     1.0000 0.74619  0.75760  0.62415  Biso   1.000  Hf
  Hf16     1.0000 0.74455  0.96929  0.88129  Biso   1.000  Hf
  O25      1.0000 0.07649  0.67266  0.69624  Biso   1.000  O 
  O26      1.0000 0.08355  0.55239  0.94177  Biso   1.000  O 
  O27      1.0000 0.94988  0.92012  0.70576  Biso   1.000  O 
  O28      1.0000 0.95446  0.80702  0.95255  Biso   1.000  O 
  O29      1.0000 0.54221  0.60890  0.74372  Biso   1.000  O 
  O30      1.0000 0.56016  0.62016  0.99296  Biso   1.000  O 
  O31      1.0000 0.47816  0.86369  0.99954  Biso   1.000  O 
  O32      1.0000 0.47686  0.85489  0.75074  Biso   1.000  O 
  V1       1.0000 0.32294  0.25758  0.14284  Biso   1.000  V 
