data_image0
_cell_length_a       10.0411
_cell_length_b       5.20665
_cell_length_c       10.0673
_cell_angle_alpha    90
_cell_angle_beta     90
_cell_angle_gamma    90

_symmetry_space_group_name_H-M    "P 1"
_symmetry_int_tables_number       1

loop_
  _symmetry_equiv_pos_as_xyz
  'x, y, z'

loop_
  _atom_site_label
  _atom_site_occupancy
  _atom_site_fract_x
  _atom_site_fract_y
  _atom_site_fract_z
  _atom_site_thermal_displace_type
  _atom_site_B_iso_or_equiv
  _atom_site_type_symbol
  Hf1      1.0000 0.13802  0.03536  0.12424  Biso   1.000  Hf
  Hf2      1.0000 0.14629  0.46528  0.39254  Biso   1.000  Hf
  Hf3      1.0000 0.39168  0.54674  0.12128  Biso   1.000  Hf
  Hf4      1.0000 0.38237  0.97303  0.37750  Biso   1.000  Hf
  O1       1.0000 0.01273  0.29905  0.21994  Biso   1.000  O 
  O2       1.0000 0.04960  0.12808  0.45493  Biso   1.000  O 
  O3       1.0000 0.48138  0.87377  0.20090  Biso   1.000  O 
  O4       1.0000 0.48303  0.64820  0.44944  Biso   1.000  O 
  O5       1.0000 0.26583  0.26887  0.24734  Biso   1.000  O 
  O6       1.0000 0.28937  0.26201  0.50376  Biso   1.000  O 
  O7       1.0000 0.24799  0.76604  0.50284  Biso   1.000  O 
  O8       1.0000 0.25022  0.75520  0.25173  Biso   1.000  O 
  Hf5      1.0000 0.14808  0.03249  0.63044  Biso   1.000  Hf
  Hf6      1.0000 0.14786  0.47020  0.87045  Biso   1.000  Hf
  Hf7      1.0000 0.38454  0.53935  0.62751  Biso   1.000  Hf
  Hf8      1.0000 0.38869  0.97801  0.87490  Biso   1.000  Hf
  O9       1.0000 0.04939  0.36525  0.69175  Biso   1.000  O 
  O10      1.0000 0.05214  0.12178  0.94356  Biso   1.000  O 
  O11      1.0000 0.48317  0.87604  0.69632  Biso   1.000  O 
  O12      1.0000 0.49075  0.65010  0.93946  Biso   1.000  O 
  O13      1.0000 0.28537  0.24061  0.75255  Biso   1.000  O 
  O14      1.0000 0.26043  0.29094  0.00666  Biso   1.000  O 
  O15      1.0000 0.23331  0.76541  0.00175  Biso   1.000  O 
  O16      1.0000 0.25048  0.74029  0.75191  Biso   1.000  O 
  Hf9      1.0000 0.64036  0.02953  0.12448  Biso   1.000  Hf
  Hf10     1.0000 0.64933  0.47236  0.37362  Biso   1.000  Hf
  Hf11     1.0000 0.86837  0.51191  0.11416  Biso   1.000  Hf
  Hf12     1.0000 0.88926  0.97126  0.36927  Biso   1.000  Hf
  O17      1.0000 0.54676  0.36677  0.20092  Biso   1.000  O 
  O18      1.0000 0.54665  0.14418  0.44533  Biso   1.000  O 
  O19      1.0000 0.99616  0.79506  0.19354  Biso   1.000  O 
  O20      1.0000 0.97887  0.64021  0.44808  Biso   1.000  O 
  O21      1.0000 0.77255  0.21828  0.24574  Biso   1.000  O 
  O22      1.0000 0.78536  0.27325  0.49387  Biso   1.000  O 
  O23      1.0000 0.74936  0.77819  0.49338  Biso   1.000  O 
  O24      1.0000 0.74989  0.72987  0.24516  Biso   1.000  O 
  Hf13     1.0000 0.64704  0.03653  0.62021  Biso   1.000  Hf
  Hf14     1.0000 0.65602  0.46782  0.87079  Biso   1.000  Hf
  Hf15     1.0000 0.88140  0.53685  0.62294  Biso   1.000  Hf
  Hf16     1.0000 0.88696  0.96491  0.86955  Biso   1.000  Hf
  O25      1.0000 0.55096  0.37039  0.69573  Biso   1.000  O 
  O26      1.0000 0.54656  0.15196  0.95161  Biso   1.000  O 
  O27      1.0000 0.98370  0.86540  0.69260  Biso   1.000  O 
  O28      1.0000 0.96960  0.62302  0.92500  Biso   1.000  O 
  O29      1.0000 0.78417  0.23483  0.74337  Biso   1.000  O 
  O30      1.0000 0.78709  0.25630  0.99259  Biso   1.000  O 
  O31      1.0000 0.74804  0.76020  0.99537  Biso   1.000  O 
  O32      1.0000 0.74521  0.73863  0.74320  Biso   1.000  O 
  V1       1.0000 0.14082  0.52581  0.13642  Biso   1.000  V 
