data_image0
_cell_length_a       10.2565
_cell_length_b       5.16838
_cell_length_c       10.4633
_cell_angle_alpha    90
_cell_angle_beta     80
_cell_angle_gamma    90

_symmetry_space_group_name_H-M    "P 1"
_symmetry_int_tables_number       1

loop_
  _symmetry_equiv_pos_as_xyz
  'x, y, z'

loop_
  _atom_site_label
  _atom_site_occupancy
  _atom_site_fract_x
  _atom_site_fract_y
  _atom_site_fract_z
  _atom_site_thermal_displace_type
  _atom_site_B_iso_or_equiv
  _atom_site_type_symbol
  Hf1      1.0000 0.13664  0.04408  0.14513  Biso   1.000  Hf
  Hf2      1.0000 0.12843  0.44676  0.39506  Biso   1.000  Hf
  Hf3      1.0000 0.35938  0.54736  0.10801  Biso   1.000  Hf
  Hf4      1.0000 0.36180  0.92587  0.34141  Biso   1.000  Hf
  O1       1.0000 0.03200  0.33921  0.07599  Biso   1.000  O 
  O2       1.0000 0.02844  0.16405  0.32313  Biso   1.000  O 
  O3       1.0000 0.46396  0.86378  0.15543  Biso   1.000  O 
  O4       1.0000 0.49348  0.69371  0.42286  Biso   1.000  O 
  O5       1.0000 0.27597  0.25663  0.24600  Biso   1.000  O 
  O6       1.0000 0.26536  0.18906  0.48661  Biso   1.000  O 
  O7       1.0000 0.22318  0.76270  0.00715  Biso   1.000  O 
  O8       1.0000 0.20785  0.74647  0.25350  Biso   1.000  O 
  Hf5      1.0000 0.14154  0.03603  0.64792  Biso   1.000  Hf
  Hf6      1.0000 0.14392  0.45989  0.89668  Biso   1.000  Hf
  Hf7      1.0000 0.37400  0.54159  0.61859  Biso   1.000  Hf
  Hf8      1.0000 0.36784  0.95916  0.85760  Biso   1.000  Hf
  O9       1.0000 0.03530  0.33141  0.57996  Biso   1.000  O 
  O10      1.0000 0.03997  0.16818  0.82500  Biso   1.000  O 
  O11      1.0000 0.47263  0.84241  0.67551  Biso   1.000  O 
  O12      1.0000 0.46964  0.65997  0.91810  Biso   1.000  O 
  O13      1.0000 0.28019  0.25801  0.74285  Biso   1.000  O 
  O14      1.0000 0.28081  0.24460  0.99285  Biso   1.000  O 
  O15      1.0000 0.25007  0.68907  0.49710  Biso   1.000  O 
  O16      1.0000 0.22781  0.75050  0.75950  Biso   1.000  O 
  Hf9      1.0000 0.63925  0.05020  0.14247  Biso   1.000  Hf
  Hf10     1.0000 0.65533  0.45849  0.39837  Biso   1.000  Hf
  Hf11     1.0000 0.86134  0.54756  0.10196  Biso   1.000  Hf
  Hf12     1.0000 0.86255  0.95504  0.35129  Biso   1.000  Hf
  O17      1.0000 0.53781  0.35274  0.08259  Biso   1.000  O 
  O18      1.0000 0.53434  0.17598  0.32907  Biso   1.000  O 
  O19      1.0000 0.96378  0.84007  0.16615  Biso   1.000  O 
  O20      1.0000 0.96338  0.66719  0.42109  Biso   1.000  O 
  O21      1.0000 0.77640  0.26052  0.23936  Biso   1.000  O 
  O22      1.0000 0.78412  0.23779  0.49205  Biso   1.000  O 
  O23      1.0000 0.72502  0.76532  0.00894  Biso   1.000  O 
  O24      1.0000 0.72585  0.74662  0.25785  Biso   1.000  O 
  Hf13     1.0000 0.64505  0.04157  0.64841  Biso   1.000  Hf
  Hf14     1.0000 0.64214  0.46051  0.89679  Biso   1.000  Hf
  Hf15     1.0000 0.86568  0.54155  0.60644  Biso   1.000  Hf
  Hf16     1.0000 0.86817  0.95915  0.85324  Biso   1.000  Hf
  O25      1.0000 0.54511  0.33418  0.58029  Biso   1.000  O 
  O26      1.0000 0.54072  0.16390  0.83256  Biso   1.000  O 
  O27      1.0000 0.97264  0.83197  0.66930  Biso   1.000  O 
  O28      1.0000 0.97109  0.66545  0.91770  Biso   1.000  O 
  O29      1.0000 0.77983  0.25796  0.74147  Biso   1.000  O 
  O30      1.0000 0.78119  0.24338  0.98890  Biso   1.000  O 
  O31      1.0000 0.72983  0.75587  0.51223  Biso   1.000  O 
  O32      1.0000 0.73220  0.74387  0.76058  Biso   1.000  O 
  V1       1.0000 0.38896  0.42358  0.37581  Biso   1.000  V 
