data_image0
_cell_length_a       9.91198
_cell_length_b       10.3398
_cell_length_c       4.97881
_cell_angle_alpha    90
_cell_angle_beta     90
_cell_angle_gamma    90

_symmetry_space_group_name_H-M    "P 1"
_symmetry_int_tables_number       1

loop_
  _symmetry_equiv_pos_as_xyz
  'x, y, z'

loop_
  _atom_site_label
  _atom_site_occupancy
  _atom_site_fract_x
  _atom_site_fract_y
  _atom_site_fract_z
  _atom_site_thermal_displace_type
  _atom_site_B_iso_or_equiv
  _atom_site_type_symbol
  V1       1.0000 0.12909  0.02295  0.24791  Biso   1.000  V 
  Hf1      1.0000 0.13524  0.23002  0.75096  Biso   1.000  Hf
  Hf2      1.0000 0.36479  0.26425  0.24936  Biso   1.000  Hf
  Hf3      1.0000 0.36733  0.48295  0.75225  Biso   1.000  Hf
  O1       1.0000 0.03612  0.17721  0.39349  Biso   1.000  O 
  O2       1.0000 0.03916  0.06401  0.92007  Biso   1.000  O 
  O3       1.0000 0.46268  0.43402  0.38507  Biso   1.000  O 
  O4       1.0000 0.46433  0.31444  0.88683  Biso   1.000  O 
  O5       1.0000 0.26397  0.11027  0.48422  Biso   1.000  O 
  O6       1.0000 0.27112  0.13046  0.99544  Biso   1.000  O 
  O7       1.0000 0.23016  0.38062  0.99936  Biso   1.000  O 
  O8       1.0000 0.23018  0.36464  0.50056  Biso   1.000  O 
  Hf4      1.0000 0.13490  0.51583  0.25315  Biso   1.000  Hf
  Hf5      1.0000 0.13591  0.73436  0.75694  Biso   1.000  Hf
  Hf6      1.0000 0.36278  0.76899  0.25820  Biso   1.000  Hf
  Hf7      1.0000 0.36027  0.98223  0.75643  Biso   1.000  Hf
  O9       1.0000 0.03715  0.68393  0.38879  Biso   1.000  O 
  O10      1.0000 0.03696  0.56446  0.89115  Biso   1.000  O 
  O11      1.0000 0.46605  0.93272  0.39748  Biso   1.000  O 
  O12      1.0000 0.46174  0.81602  0.89222  Biso   1.000  O 
  O13      1.0000 0.27067  0.61650  0.50260  Biso   1.000  O 
  O14      1.0000 0.27049  0.63316  0.00255  Biso   1.000  O 
  O15      1.0000 0.22108  0.88767  0.02080  Biso   1.000  O 
  O16      1.0000 0.23060  0.86608  0.51233  Biso   1.000  O 
  Hf8      1.0000 0.63336  0.01545  0.24870  Biso   1.000  Hf
  Hf9      1.0000 0.63462  0.23200  0.75091  Biso   1.000  Hf
  Hf10     1.0000 0.86651  0.26498  0.25033  Biso   1.000  Hf
  Hf11     1.0000 0.86669  0.48298  0.75071  Biso   1.000  Hf
  O17      1.0000 0.53569  0.18367  0.38883  Biso   1.000  O 
  O18      1.0000 0.53640  0.06515  0.88952  Biso   1.000  O 
  O19      1.0000 0.96523  0.43121  0.38863  Biso   1.000  O 
  O20      1.0000 0.96500  0.31295  0.88591  Biso   1.000  O 
  O21      1.0000 0.77199  0.11587  0.49502  Biso   1.000  O 
  O22      1.0000 0.77342  0.13113  0.99472  Biso   1.000  O 
  O23      1.0000 0.73119  0.38113  0.99932  Biso   1.000  O 
  O24      1.0000 0.72961  0.36659  0.49803  Biso   1.000  O 
  Hf12     1.0000 0.63343  0.51706  0.25167  Biso   1.000  Hf
  Hf13     1.0000 0.63401  0.73507  0.74869  Biso   1.000  Hf
  Hf14     1.0000 0.86949  0.76607  0.24507  Biso   1.000  Hf
  Hf15     1.0000 0.86989  0.98531  0.74935  Biso   1.000  Hf
  O25      1.0000 0.53640  0.68528  0.38803  Biso   1.000  O 
  O26      1.0000 0.53905  0.56533  0.88455  Biso   1.000  O 
  O27      1.0000 0.97921  0.93708  0.37603  Biso   1.000  O 
  O28      1.0000 0.96241  0.81511  0.87632  Biso   1.000  O 
  O29      1.0000 0.77180  0.61711  0.49776  Biso   1.000  O 
  O30      1.0000 0.77184  0.63321  0.99823  Biso   1.000  O 
  O31      1.0000 0.73146  0.88362  0.99302  Biso   1.000  O 
  O32      1.0000 0.73758  0.86781  0.49363  Biso   1.000  O 
