data_image0
_cell_length_a       9.97112
_cell_length_b       5.09805
_cell_length_c       10.4032
_cell_angle_alpha    90
_cell_angle_beta     90
_cell_angle_gamma    90

_symmetry_space_group_name_H-M    "P 1"
_symmetry_int_tables_number       1

loop_
  _symmetry_equiv_pos_as_xyz
  'x, y, z'

loop_
  _atom_site_label
  _atom_site_occupancy
  _atom_site_fract_x
  _atom_site_fract_y
  _atom_site_fract_z
  _atom_site_thermal_displace_type
  _atom_site_B_iso_or_equiv
  _atom_site_type_symbol
  V1       1.0000 0.13120  0.04920  0.17545  Biso   1.000  V 
  Hf1      1.0000 0.14029  0.46266  0.41827  Biso   1.000  Hf
  Hf2      1.0000 0.35554  0.54610  0.17122  Biso   1.000  Hf
  Hf3      1.0000 0.35894  0.96222  0.41859  Biso   1.000  Hf
  Hf4      1.0000 0.63801  0.04429  0.07871  Biso   1.000  Hf
  Hf5      1.0000 0.63745  0.45885  0.32773  Biso   1.000  Hf
  Hf6      1.0000 0.86601  0.54149  0.08005  Biso   1.000  Hf
  Hf7      1.0000 0.86317  0.96030  0.32791  Biso   1.000  Hf
  O1       1.0000 0.03727  0.31853  0.09040  Biso   1.000  O 
  O2       1.0000 0.03828  0.16362  0.32676  Biso   1.000  O 
  O3       1.0000 0.46752  0.83208  0.08591  Biso   1.000  O 
  O4       1.0000 0.46340  0.66467  0.33603  Biso   1.000  O 
  O5       1.0000 0.27232  0.24832  0.29188  Biso   1.000  O 
  O6       1.0000 0.27275  0.24586  0.04975  Biso   1.000  O 
  O7       1.0000 0.21989  0.75902  0.29217  Biso   1.000  O 
  O8       1.0000 0.21986  0.75627  0.04696  Biso   1.000  O 
  O9       1.0000 0.53323  0.33814  0.16427  Biso   1.000  O 
  O10      1.0000 0.53383  0.16532  0.41327  Biso   1.000  O 
  O11      1.0000 0.98029  0.83788  0.16422  Biso   1.000  O 
  O12      1.0000 0.96568  0.66465  0.41251  Biso   1.000  O 
  O13      1.0000 0.77760  0.24649  0.45407  Biso   1.000  O 
  O14      1.0000 0.77768  0.25220  0.20496  Biso   1.000  O 
  O15      1.0000 0.72318  0.74779  0.45494  Biso   1.000  O 
  O16      1.0000 0.73053  0.75293  0.20482  Biso   1.000  O 
  Hf8      1.0000 0.13894  0.04423  0.67137  Biso   1.000  Hf
  Hf9      1.0000 0.14135  0.45681  0.92417  Biso   1.000  Hf
  Hf10     1.0000 0.36156  0.54537  0.67132  Biso   1.000  Hf
  Hf11     1.0000 0.35896  0.95858  0.92460  Biso   1.000  Hf
  Hf12     1.0000 0.63784  0.04243  0.57867  Biso   1.000  Hf
  Hf13     1.0000 0.63887  0.46035  0.82992  Biso   1.000  Hf
  Hf14     1.0000 0.86079  0.54153  0.57831  Biso   1.000  Hf
  Hf15     1.0000 0.86237  0.95810  0.82947  Biso   1.000  Hf
  O17      1.0000 0.03232  0.32698  0.57923  Biso   1.000  O 
  O18      1.0000 0.03309  0.17064  0.83410  Biso   1.000  O 
  O19      1.0000 0.46486  0.83868  0.58514  Biso   1.000  O 
  O20      1.0000 0.46576  0.66764  0.83634  Biso   1.000  O 
  O21      1.0000 0.27741  0.24850  0.79591  Biso   1.000  O 
  O22      1.0000 0.27721  0.25649  0.54398  Biso   1.000  O 
  O23      1.0000 0.22282  0.74766  0.79550  Biso   1.000  O 
  O24      1.0000 0.22222  0.75457  0.54345  Biso   1.000  O 
  O25      1.0000 0.53466  0.33820  0.66439  Biso   1.000  O 
  O26      1.0000 0.53309  0.16779  0.91554  Biso   1.000  O 
  O27      1.0000 0.96786  0.82945  0.66607  Biso   1.000  O 
  O28      1.0000 0.96801  0.66466  0.91783  Biso   1.000  O 
  O29      1.0000 0.77833  0.25116  0.95646  Biso   1.000  O 
  O30      1.0000 0.77722  0.25259  0.70552  Biso   1.000  O 
  O31      1.0000 0.72488  0.74960  0.95625  Biso   1.000  O 
  O32      1.0000 0.72341  0.75383  0.70560  Biso   1.000  O 
