data_image0
_cell_length_a       10.0887
_cell_length_b       10.1926
_cell_length_c       5.28676
_cell_angle_alpha    90
_cell_angle_beta     90
_cell_angle_gamma    90

_symmetry_space_group_name_H-M    "P 1"
_symmetry_int_tables_number       1

loop_
  _symmetry_equiv_pos_as_xyz
  'x, y, z'

loop_
  _atom_site_label
  _atom_site_occupancy
  _atom_site_fract_x
  _atom_site_fract_y
  _atom_site_fract_z
  _atom_site_thermal_displace_type
  _atom_site_B_iso_or_equiv
  _atom_site_type_symbol
  Hf1      1.0000 0.13686  0.02097  0.34536  Biso   1.000  Hf
  Hf2      1.0000 0.13329  0.22731  0.84408  Biso   1.000  Hf
  Hf3      1.0000 0.35851  0.26618  0.35400  Biso   1.000  Hf
  Hf4      1.0000 0.35160  0.47844  0.84442  Biso   1.000  Hf
  Hf5      1.0000 0.63862  0.00591  0.15704  Biso   1.000  Hf
  Hf6      1.0000 0.62960  0.22778  0.66242  Biso   1.000  Hf
  Hf7      1.0000 0.87031  0.27221  0.14695  Biso   1.000  Hf
  Hf8      1.0000 0.85588  0.47771  0.65382  Biso   1.000  Hf
  O1       1.0000 0.03205  0.15643  0.14866  Biso   1.000  O 
  O2       1.0000 0.02343  0.09234  0.64767  Biso   1.000  O 
  O3       1.0000 0.47350  0.40227  0.14825  Biso   1.000  O 
  O4       1.0000 0.46348  0.34590  0.65407  Biso   1.000  O 
  O5       1.0000 0.26752  0.12442  0.60043  Biso   1.000  O 
  O6       1.0000 0.27365  0.12364  0.09736  Biso   1.000  O 
  O7       1.0000 0.21763  0.37410  0.59426  Biso   1.000  O 
  O8       1.0000 0.22406  0.37640  0.09278  Biso   1.000  O 
  O9       1.0000 0.51150  0.12834  0.39526  Biso   1.000  O 
  O10      1.0000 0.51277  0.11541  0.90778  Biso   1.000  O 
  O11      1.0000 0.96594  0.41363  0.34105  Biso   1.000  O 
  O12      1.0000 0.96428  0.33914  0.83296  Biso   1.000  O 
  O13      1.0000 0.77184  0.11711  0.88882  Biso   1.000  O 
  O14      1.0000 0.75747  0.13642  0.37878  Biso   1.000  O 
  O15      1.0000 0.71554  0.37291  0.92381  Biso   1.000  O 
  O16      1.0000 0.71554  0.37926  0.41202  Biso   1.000  O 
  Hf9      1.0000 0.13638  0.52046  0.34514  Biso   1.000  Hf
  Hf10     1.0000 0.13063  0.72852  0.84438  Biso   1.000  Hf
  Hf11     1.0000 0.35686  0.77133  0.34875  Biso   1.000  Hf
  Hf12     1.0000 0.35463  0.97974  0.85184  Biso   1.000  Hf
  Hf13     1.0000 0.63845  0.52848  0.15308  Biso   1.000  Hf
  Hf14     1.0000 0.63191  0.72776  0.65504  Biso   1.000  Hf
  Hf15     1.0000 0.86293  0.77029  0.15585  Biso   1.000  Hf
  Hf16     1.0000 0.85631  0.97812  0.65393  Biso   1.000  Hf
  O17      1.0000 0.03105  0.66161  0.15771  Biso   1.000  O 
  O18      1.0000 0.02426  0.58931  0.65765  Biso   1.000  O 
  O19      1.0000 0.46888  0.89523  0.13986  Biso   1.000  O 
  O20      1.0000 0.46900  0.85079  0.64527  Biso   1.000  O 
  O21      1.0000 0.26903  0.62458  0.59435  Biso   1.000  O 
  O22      1.0000 0.27427  0.62530  0.09400  Biso   1.000  O 
  O23      1.0000 0.21959  0.87331  0.59526  Biso   1.000  O 
  O24      1.0000 0.22316  0.87696  0.09329  Biso   1.000  O 
  O25      1.0000 0.52303  0.65518  0.35469  Biso   1.000  O 
  O26      1.0000 0.51904  0.59570  0.85105  Biso   1.000  O 
  O27      1.0000 0.96551  0.91224  0.33595  Biso   1.000  O 
  O28      1.0000 0.96141  0.83986  0.83877  Biso   1.000  O 
  O29      1.0000 0.76870  0.62226  0.90278  Biso   1.000  O 
  O30      1.0000 0.77278  0.62800  0.40547  Biso   1.000  O 
  O31      1.0000 0.71733  0.86954  0.91011  Biso   1.000  O 
  O32      1.0000 0.72502  0.87175  0.41419  Biso   1.000  O 
  V1       1.0000 0.61225  0.25576  0.17674  Biso   1.000  V 
