data_image0
_cell_length_a       9.99559
_cell_length_b       10.2154
_cell_length_c       10.4286
_cell_angle_alpha    90
_cell_angle_beta     90
_cell_angle_gamma    90

_symmetry_space_group_name_H-M    "P 1"
_symmetry_int_tables_number       1

loop_
  _symmetry_equiv_pos_as_xyz
  'x, y, z'

loop_
  _atom_site_label
  _atom_site_occupancy
  _atom_site_fract_x
  _atom_site_fract_y
  _atom_site_fract_z
  _atom_site_thermal_displace_type
  _atom_site_B_iso_or_equiv
  _atom_site_type_symbol
  V1       1.0000 0.13060  0.02550  0.17555  Biso   1.000  V 
  Hf1      1.0000 0.14010  0.22976  0.41968  Biso   1.000  Hf
  Hf2      1.0000 0.35942  0.26856  0.17144  Biso   1.000  Hf
  Hf3      1.0000 0.36163  0.47990  0.42127  Biso   1.000  Hf
  Hf4      1.0000 0.63880  0.02150  0.07774  Biso   1.000  Hf
  Hf5      1.0000 0.63842  0.22905  0.32864  Biso   1.000  Hf
  Hf6      1.0000 0.86239  0.27013  0.08023  Biso   1.000  Hf
  Hf7      1.0000 0.86134  0.47944  0.32880  Biso   1.000  Hf
  O1       1.0000 0.03661  0.15917  0.08905  Biso   1.000  O 
  O2       1.0000 0.03778  0.08311  0.32617  Biso   1.000  O 
  O3       1.0000 0.46595  0.41626  0.08571  Biso   1.000  O 
  O4       1.0000 0.46509  0.33189  0.33583  Biso   1.000  O 
  O5       1.0000 0.27243  0.12215  0.29209  Biso   1.000  O 
  O6       1.0000 0.27233  0.12210  0.04960  Biso   1.000  O 
  O7       1.0000 0.22383  0.37474  0.29487  Biso   1.000  O 
  O8       1.0000 0.22354  0.37488  0.04520  Biso   1.000  O 
  O9       1.0000 0.53385  0.16677  0.16527  Biso   1.000  O 
  O10      1.0000 0.53294  0.08344  0.41440  Biso   1.000  O 
  O11      1.0000 0.96799  0.41505  0.16610  Biso   1.000  O 
  O12      1.0000 0.96636  0.33258  0.41436  Biso   1.000  O 
  O13      1.0000 0.77773  0.12323  0.45377  Biso   1.000  O 
  O14      1.0000 0.77725  0.12600  0.20468  Biso   1.000  O 
  O15      1.0000 0.72344  0.37369  0.45583  Biso   1.000  O 
  O16      1.0000 0.72403  0.37602  0.20545  Biso   1.000  O 
  Hf8      1.0000 0.13886  0.02150  0.67102  Biso   1.000  Hf
  Hf9      1.0000 0.14015  0.22642  0.92346  Biso   1.000  Hf
  Hf10     1.0000 0.36126  0.27187  0.67155  Biso   1.000  Hf
  Hf11     1.0000 0.36130  0.47918  0.92184  Biso   1.000  Hf
  Hf12     1.0000 0.63768  0.02095  0.57762  Biso   1.000  Hf
  Hf13     1.0000 0.63896  0.22949  0.82891  Biso   1.000  Hf
  Hf14     1.0000 0.86138  0.27094  0.57841  Biso   1.000  Hf
  Hf15     1.0000 0.86251  0.47870  0.83018  Biso   1.000  Hf
  O17      1.0000 0.03241  0.16323  0.57965  Biso   1.000  O 
  O18      1.0000 0.03255  0.08534  0.83282  Biso   1.000  O 
  O19      1.0000 0.46620  0.41795  0.58530  Biso   1.000  O 
  O20      1.0000 0.46674  0.33407  0.83488  Biso   1.000  O 
  O21      1.0000 0.27701  0.12401  0.79591  Biso   1.000  O 
  O22      1.0000 0.27701  0.12738  0.54425  Biso   1.000  O 
  O23      1.0000 0.22327  0.37342  0.79553  Biso   1.000  O 
  O24      1.0000 0.22309  0.37658  0.54443  Biso   1.000  O 
  O25      1.0000 0.53376  0.16732  0.66519  Biso   1.000  O 
  O26      1.0000 0.53228  0.08514  0.91648  Biso   1.000  O 
  O27      1.0000 0.96763  0.41475  0.66689  Biso   1.000  O 
  O28      1.0000 0.96815  0.33224  0.91858  Biso   1.000  O 
  O29      1.0000 0.77730  0.12434  0.95495  Biso   1.000  O 
  O30      1.0000 0.77646  0.12643  0.70439  Biso   1.000  O 
  O31      1.0000 0.72456  0.37415  0.95639  Biso   1.000  O 
  O32      1.0000 0.72388  0.37676  0.70595  Biso   1.000  O 
  Hf16     1.0000 0.13994  0.52121  0.17149  Biso   1.000  Hf
  Hf17     1.0000 0.13938  0.73054  0.42011  Biso   1.000  Hf
  Hf18     1.0000 0.35729  0.77556  0.17110  Biso   1.000  Hf
  Hf19     1.0000 0.35901  0.97996  0.41894  Biso   1.000  Hf
  Hf20     1.0000 0.63803  0.52194  0.07962  Biso   1.000  Hf
  Hf21     1.0000 0.63810  0.72940  0.32768  Biso   1.000  Hf
  Hf22     1.0000 0.86447  0.77200  0.07824  Biso   1.000  Hf
  Hf23     1.0000 0.86357  0.97976  0.32757  Biso   1.000  Hf
  O33      1.0000 0.03419  0.66618  0.08509  Biso   1.000  O 
  O34      1.0000 0.03392  0.58380  0.33436  Biso   1.000  O 
  O35      1.0000 0.46839  0.91586  0.08431  Biso   1.000  O 
  O36      1.0000 0.46557  0.83490  0.33395  Biso   1.000  O 
  O37      1.0000 0.27691  0.62554  0.29475  Biso   1.000  O 
  O38      1.0000 0.27719  0.62681  0.04489  Biso   1.000  O 
  O39      1.0000 0.21964  0.87819  0.29238  Biso   1.000  O 
  O40      1.0000 0.22059  0.87865  0.04628  Biso   1.000  O 
  O41      1.0000 0.53299  0.66848  0.16490  Biso   1.000  O 
  O42      1.0000 0.53453  0.58356  0.41495  Biso   1.000  O 
  O43      1.0000 0.97928  0.92016  0.16449  Biso   1.000  O 
  O44      1.0000 0.96665  0.83451  0.41466  Biso   1.000  O 
  O45      1.0000 0.77691  0.62401  0.45540  Biso   1.000  O 
  O46      1.0000 0.77714  0.62650  0.20542  Biso   1.000  O 
  O47      1.0000 0.72355  0.87418  0.45410  Biso   1.000  O 
  O48      1.0000 0.73041  0.87694  0.20434  Biso   1.000  O 
  Hf24     1.0000 0.13930  0.52183  0.67177  Biso   1.000  Hf
  Hf25     1.0000 0.14037  0.73101  0.92210  Biso   1.000  Hf
  Hf26     1.0000 0.36196  0.77198  0.67120  Biso   1.000  Hf
  Hf27     1.0000 0.35940  0.97904  0.92404  Biso   1.000  Hf
  Hf28     1.0000 0.63950  0.52151  0.57955  Biso   1.000  Hf
  Hf29     1.0000 0.63912  0.72974  0.82948  Biso   1.000  Hf
  Hf30     1.0000 0.86110  0.77114  0.57843  Biso   1.000  Hf
  Hf31     1.0000 0.86150  0.97947  0.82780  Biso   1.000  Hf
  O49      1.0000 0.03364  0.66643  0.58381  Biso   1.000  O 
  O50      1.0000 0.03432  0.58405  0.83538  Biso   1.000  O 
  O51      1.0000 0.46590  0.91733  0.58384  Biso   1.000  O 
  O52      1.0000 0.46622  0.83391  0.83545  Biso   1.000  O 
  O53      1.0000 0.27739  0.62418  0.79489  Biso   1.000  O 
  O54      1.0000 0.27722  0.62717  0.54464  Biso   1.000  O 
  O55      1.0000 0.22353  0.87439  0.79469  Biso   1.000  O 
  O56      1.0000 0.22310  0.87701  0.54407  Biso   1.000  O 
  O57      1.0000 0.53468  0.66779  0.66519  Biso   1.000  O 
  O58      1.0000 0.53467  0.58299  0.91501  Biso   1.000  O 
  O59      1.0000 0.96730  0.91610  0.66529  Biso   1.000  O 
  O60      1.0000 0.96695  0.83435  0.91537  Biso   1.000  O 
  O61      1.0000 0.77809  0.62542  0.95674  Biso   1.000  O 
  O62      1.0000 0.77776  0.62619  0.70628  Biso   1.000  O 
  O63      1.0000 0.72415  0.87479  0.95495  Biso   1.000  O 
  O64      1.0000 0.72341  0.87648  0.70471  Biso   1.000  O 
