data_image0
_cell_length_a       10.0551
_cell_length_b       4.99847
_cell_length_c       10.0552
_cell_angle_alpha    90
_cell_angle_beta     90
_cell_angle_gamma    90

_symmetry_space_group_name_H-M    "P 1"
_symmetry_int_tables_number       1

loop_
  _symmetry_equiv_pos_as_xyz
  'x, y, z'

loop_
  _atom_site_label
  _atom_site_occupancy
  _atom_site_fract_x
  _atom_site_fract_y
  _atom_site_fract_z
  _atom_site_thermal_displace_type
  _atom_site_B_iso_or_equiv
  _atom_site_type_symbol
  V1       1.0000 0.12491  0.00011  0.12491  Biso   1.000  V 
  Hf1      1.0000 0.12491  0.50011  0.37474  Biso   1.000  Hf
  Hf2      1.0000 0.37473  0.50011  0.12491  Biso   1.000  Hf
  Hf3      1.0000 0.37379  0.00789  0.37379  Biso   1.000  Hf
  O1       1.0000 0.97765  0.29606  0.97764  Biso   1.000  O 
  O2       1.0000 0.02220  0.21510  0.22761  Biso   1.000  O 
  O3       1.0000 0.97765  0.70416  0.27217  Biso   1.000  O 
  O4       1.0000 0.02220  0.78512  0.02221  Biso   1.000  O 
  O5       1.0000 0.27217  0.29605  0.27217  Biso   1.000  O 
  O6       1.0000 0.22761  0.21510  0.02221  Biso   1.000  O 
  O7       1.0000 0.27217  0.70416  0.97764  Biso   1.000  O 
  O8       1.0000 0.22761  0.78512  0.22760  Biso   1.000  O 
  Hf4      1.0000 0.12491  0.00011  0.62491  Biso   1.000  Hf
  Hf5      1.0000 0.12491  0.50011  0.87508  Biso   1.000  Hf
  Hf6      1.0000 0.37550  0.50011  0.62491  Biso   1.000  Hf
  Hf7      1.0000 0.37379  0.99232  0.87603  Biso   1.000  Hf
  O9       1.0000 0.98706  0.26277  0.47971  Biso   1.000  O 
  O10      1.0000 0.01102  0.24660  0.73276  Biso   1.000  O 
  O11      1.0000 0.98706  0.73745  0.77011  Biso   1.000  O 
  O12      1.0000 0.01102  0.75361  0.51706  Biso   1.000  O 
  O13      1.0000 0.26276  0.26277  0.77011  Biso   1.000  O 
  O14      1.0000 0.23880  0.24660  0.51706  Biso   1.000  O 
  O15      1.0000 0.26276  0.73745  0.47971  Biso   1.000  O 
  O16      1.0000 0.23880  0.75361  0.73276  Biso   1.000  O 
  Hf8      1.0000 0.62491  0.00011  0.12491  Biso   1.000  Hf
  Hf9      1.0000 0.62491  0.50011  0.37550  Biso   1.000  Hf
  Hf10     1.0000 0.87508  0.50011  0.12491  Biso   1.000  Hf
  Hf11     1.0000 0.87603  0.99232  0.37379  Biso   1.000  Hf
  O17      1.0000 0.47972  0.26277  0.98705  Biso   1.000  O 
  O18      1.0000 0.51705  0.24660  0.23879  Biso   1.000  O 
  O19      1.0000 0.47972  0.73744  0.26276  Biso   1.000  O 
  O20      1.0000 0.51705  0.75361  0.01102  Biso   1.000  O 
  O21      1.0000 0.77010  0.26278  0.26277  Biso   1.000  O 
  O22      1.0000 0.73276  0.24660  0.01102  Biso   1.000  O 
  O23      1.0000 0.77010  0.73744  0.98705  Biso   1.000  O 
  O24      1.0000 0.73276  0.75362  0.23879  Biso   1.000  O 
  Hf12     1.0000 0.62491  0.00011  0.62491  Biso   1.000  Hf
  Hf13     1.0000 0.62491  0.50011  0.87432  Biso   1.000  Hf
  Hf14     1.0000 0.87432  0.50011  0.62491  Biso   1.000  Hf
  Hf15     1.0000 0.87603  0.00790  0.87603  Biso   1.000  Hf
  O25      1.0000 0.48710  0.25928  0.48709  Biso   1.000  O 
  O26      1.0000 0.51214  0.24898  0.73767  Biso   1.000  O 
  O27      1.0000 0.48709  0.74094  0.76273  Biso   1.000  O 
  O28      1.0000 0.51214  0.75124  0.51215  Biso   1.000  O 
  O29      1.0000 0.76272  0.25928  0.76273  Biso   1.000  O 
  O30      1.0000 0.73768  0.24898  0.51215  Biso   1.000  O 
  O31      1.0000 0.76272  0.74094  0.48709  Biso   1.000  O 
  O32      1.0000 0.73768  0.75124  0.73767  Biso   1.000  O 
