data_image0
_cell_length_a       10.1895
_cell_length_b       10.3171
_cell_length_c       10.4704
_cell_angle_alpha    90
_cell_angle_beta     80
_cell_angle_gamma    90

_symmetry_space_group_name_H-M    "P 1"
_symmetry_int_tables_number       1

loop_
  _symmetry_equiv_pos_as_xyz
  'x, y, z'

loop_
  _atom_site_label
  _atom_site_occupancy
  _atom_site_fract_x
  _atom_site_fract_y
  _atom_site_fract_z
  _atom_site_thermal_displace_type
  _atom_site_B_iso_or_equiv
  _atom_site_type_symbol
  Hf1      1.0000 0.13748  0.02095  0.14709  Biso   1.000  Hf
  Hf2      1.0000 0.12617  0.22724  0.39377  Biso   1.000  Hf
  Hf3      1.0000 0.35782  0.27597  0.11057  Biso   1.000  Hf
  Hf4      1.0000 0.36163  0.48242  0.34200  Biso   1.000  Hf
  O1       1.0000 0.03356  0.16832  0.07995  Biso   1.000  O 
  O2       1.0000 0.03061  0.07867  0.32624  Biso   1.000  O 
  O3       1.0000 0.46113  0.43426  0.15520  Biso   1.000  O 
  O4       1.0000 0.49994  0.36503  0.42584  Biso   1.000  O 
  O5       1.0000 0.27764  0.12528  0.24743  Biso   1.000  O 
  O6       1.0000 0.26721  0.10250  0.48754  Biso   1.000  O 
  O7       1.0000 0.22219  0.38074  0.00723  Biso   1.000  O 
  O8       1.0000 0.20220  0.37595  0.25342  Biso   1.000  O 
  Hf5      1.0000 0.13619  0.01657  0.64661  Biso   1.000  Hf
  Hf6      1.0000 0.13767  0.22552  0.89912  Biso   1.000  Hf
  Hf7      1.0000 0.36753  0.26829  0.62284  Biso   1.000  Hf
  Hf8      1.0000 0.36164  0.47607  0.85837  Biso   1.000  Hf
  O9       1.0000 0.03438  0.16630  0.57947  Biso   1.000  O 
  O10      1.0000 0.03448  0.07893  0.82878  Biso   1.000  O 
  O11      1.0000 0.46758  0.41628  0.67957  Biso   1.000  O 
  O12      1.0000 0.46307  0.32675  0.92153  Biso   1.000  O 
  O13      1.0000 0.27465  0.12495  0.74435  Biso   1.000  O 
  O14      1.0000 0.27479  0.11768  0.99474  Biso   1.000  O 
  O15      1.0000 0.24876  0.35797  0.49713  Biso   1.000  O 
  O16      1.0000 0.22074  0.37107  0.76163  Biso   1.000  O 
  Hf9      1.0000 0.13569  0.52155  0.14343  Biso   1.000  Hf
  Hf10     1.0000 0.13585  0.72312  0.39731  Biso   1.000  Hf
  Hf11     1.0000 0.36017  0.77025  0.10117  Biso   1.000  Hf
  Hf12     1.0000 0.35794  0.96007  0.35339  Biso   1.000  Hf
  O17      1.0000 0.03218  0.66974  0.07540  Biso   1.000  O 
  O18      1.0000 0.03116  0.58282  0.32679  Biso   1.000  O 
  O19      1.0000 0.46333  0.91703  0.16901  Biso   1.000  O 
  O20      1.0000 0.46474  0.82484  0.42349  Biso   1.000  O 
  O21      1.0000 0.27267  0.63020  0.23895  Biso   1.000  O 
  O22      1.0000 0.27194  0.61259  0.49162  Biso   1.000  O 
  O23      1.0000 0.22281  0.87972  0.00926  Biso   1.000  O 
  O24      1.0000 0.21995  0.86657  0.25828  Biso   1.000  O 
  Hf13     1.0000 0.14095  0.51596  0.64571  Biso   1.000  Hf
  Hf14     1.0000 0.13700  0.72586  0.89488  Biso   1.000  Hf
  Hf15     1.0000 0.36133  0.76624  0.60618  Biso   1.000  Hf
  Hf16     1.0000 0.36027  0.97542  0.85602  Biso   1.000  Hf
  O25      1.0000 0.03231  0.66143  0.57926  Biso   1.000  O 
  O26      1.0000 0.03570  0.57964  0.82473  Biso   1.000  O 
  O27      1.0000 0.46372  0.91561  0.67071  Biso   1.000  O 
  O28      1.0000 0.46385  0.82790  0.91845  Biso   1.000  O 
  O29      1.0000 0.27608  0.62502  0.74066  Biso   1.000  O 
  O30      1.0000 0.27488  0.61942  0.98981  Biso   1.000  O 
  O31      1.0000 0.22181  0.86684  0.51200  Biso   1.000  O 
  O32      1.0000 0.22346  0.86853  0.75995  Biso   1.000  O 
  Hf17     1.0000 0.63854  0.02131  0.14438  Biso   1.000  Hf
  Hf18     1.0000 0.65329  0.23008  0.40012  Biso   1.000  Hf
  Hf19     1.0000 0.85973  0.27235  0.10384  Biso   1.000  Hf
  Hf20     1.0000 0.86032  0.47973  0.35191  Biso   1.000  Hf
  O33      1.0000 0.53434  0.17039  0.08393  Biso   1.000  O 
  O34      1.0000 0.53581  0.07462  0.33269  Biso   1.000  O 
  O35      1.0000 0.96065  0.42159  0.16649  Biso   1.000  O 
  O36      1.0000 0.95962  0.33276  0.42100  Biso   1.000  O 
  O37      1.0000 0.77621  0.12776  0.23986  Biso   1.000  O 
  O38      1.0000 0.78230  0.11563  0.49349  Biso   1.000  O 
  O39      1.0000 0.72370  0.37977  0.00928  Biso   1.000  O 
  O40      1.0000 0.72601  0.37132  0.25785  Biso   1.000  O 
  Hf21     1.0000 0.63928  0.01672  0.64763  Biso   1.000  Hf
  Hf22     1.0000 0.63593  0.22595  0.89838  Biso   1.000  Hf
  Hf23     1.0000 0.86068  0.26833  0.60800  Biso   1.000  Hf
  Hf24     1.0000 0.86232  0.47479  0.85367  Biso   1.000  Hf
  O41      1.0000 0.54264  0.16842  0.58368  Biso   1.000  O 
  O42      1.0000 0.53433  0.07728  0.83190  Biso   1.000  O 
  O43      1.0000 0.96864  0.41286  0.67017  Biso   1.000  O 
  O44      1.0000 0.96453  0.32815  0.92020  Biso   1.000  O 
  O45      1.0000 0.77456  0.12584  0.74274  Biso   1.000  O 
  O46      1.0000 0.77445  0.11774  0.99098  Biso   1.000  O 
  O47      1.0000 0.72860  0.37752  0.51399  Biso   1.000  O 
  O48      1.0000 0.72561  0.36826  0.76180  Biso   1.000  O 
  Hf25     1.0000 0.63926  0.52498  0.14254  Biso   1.000  Hf
  Hf26     1.0000 0.63968  0.72574  0.39525  Biso   1.000  Hf
  Hf27     1.0000 0.86054  0.77226  0.10226  Biso   1.000  Hf
  Hf28     1.0000 0.85943  0.97428  0.35366  Biso   1.000  Hf
  O49      1.0000 0.53725  0.67408  0.07724  Biso   1.000  O 
  O50      1.0000 0.53510  0.58879  0.32092  Biso   1.000  O 
  O51      1.0000 0.96433  0.91736  0.16873  Biso   1.000  O 
  O52      1.0000 0.96418  0.82964  0.42095  Biso   1.000  O 
  O53      1.0000 0.77702  0.63046  0.23897  Biso   1.000  O 
  O54      1.0000 0.77514  0.61935  0.48966  Biso   1.000  O 
  O55      1.0000 0.72354  0.88088  0.00881  Biso   1.000  O 
  O56      1.0000 0.72179  0.87125  0.25936  Biso   1.000  O 
  Hf29     1.0000 0.63961  0.51977  0.64717  Biso   1.000  Hf
  Hf30     1.0000 0.63859  0.72628  0.89499  Biso   1.000  Hf
  Hf31     1.0000 0.86142  0.76801  0.60357  Biso   1.000  Hf
  Hf32     1.0000 0.86056  0.97657  0.85411  Biso   1.000  Hf
  O57      1.0000 0.53483  0.66272  0.57895  Biso   1.000  O 
  O58      1.0000 0.53573  0.57969  0.83140  Biso   1.000  O 
  O59      1.0000 0.96417  0.91532  0.66987  Biso   1.000  O 
  O60      1.0000 0.96379  0.82901  0.91819  Biso   1.000  O 
  O61      1.0000 0.77627  0.62561  0.73948  Biso   1.000  O 
  O62      1.0000 0.77640  0.61807  0.98830  Biso   1.000  O 
  O63      1.0000 0.72321  0.87549  0.51004  Biso   1.000  O 
  O64      1.0000 0.72466  0.86820  0.75931  Biso   1.000  O 
  W1       1.0000 0.39560  0.22461  0.37393  Biso   1.000  W 
