data_image0
_cell_length_a       5.14749
_cell_length_b       10.2534
_cell_length_c       10.5829
_cell_angle_alpha    90
_cell_angle_beta     80
_cell_angle_gamma    90

_symmetry_space_group_name_H-M    "P 1"
_symmetry_int_tables_number       1

loop_
  _symmetry_equiv_pos_as_xyz
  'x, y, z'

loop_
  _atom_site_label
  _atom_site_occupancy
  _atom_site_fract_x
  _atom_site_fract_y
  _atom_site_fract_z
  _atom_site_thermal_displace_type
  _atom_site_B_iso_or_equiv
  _atom_site_type_symbol
  Hf1      1.0000 0.27926  0.02121  0.14304  Biso   1.000  Hf
  Hf2      1.0000 0.27023  0.23561  0.39841  Biso   1.000  Hf
  Hf3      1.0000 0.71519  0.27198  0.10205  Biso   1.000  Hf
  Hf4      1.0000 0.72302  0.49873  0.34728  Biso   1.000  Hf
  O1       1.0000 0.05465  0.15499  0.06951  Biso   1.000  O 
  O2       1.0000 0.06509  0.08556  0.31698  Biso   1.000  O 
  O3       1.0000 0.95371  0.38890  0.19741  Biso   1.000  O 
  O4       1.0000 0.99142  0.38272  0.44641  Biso   1.000  O 
  O5       1.0000 0.55899  0.12656  0.24424  Biso   1.000  O 
  O6       1.0000 0.59686  0.11333  0.48918  Biso   1.000  O 
  O7       1.0000 0.44347  0.37707  0.00549  Biso   1.000  O 
  O8       1.0000 0.44225  0.38244  0.24946  Biso   1.000  O 
  Hf5      1.0000 0.31259  0.02314  0.64548  Biso   1.000  Hf
  Hf6      1.0000 0.31003  0.23219  0.89348  Biso   1.000  Hf
  Hf7      1.0000 0.76739  0.27340  0.60660  Biso   1.000  Hf
  Hf8      1.0000 0.75497  0.48133  0.85098  Biso   1.000  Hf
  O9       1.0000 0.10982  0.16742  0.57921  Biso   1.000  O 
  O10      1.0000 0.09609  0.09289  0.82056  Biso   1.000  O 
  O11      1.0000 0.98007  0.40596  0.68797  Biso   1.000  O 
  O12      1.0000 0.98255  0.35213  0.93210  Biso   1.000  O 
  O13      1.0000 0.58192  0.13013  0.74183  Biso   1.000  O 
  O14      1.0000 0.58822  0.12630  0.98748  Biso   1.000  O 
  O15      1.0000 0.50891  0.37144  0.49346  Biso   1.000  O 
  O16      1.0000 0.48301  0.37706  0.75446  Biso   1.000  O 
  Hf9      1.0000 0.27230  0.52039  0.14460  Biso   1.000  Hf
  Hf10     1.0000 0.27351  0.72979  0.39598  Biso   1.000  Hf
  Hf11     1.0000 0.71464  0.77130  0.09894  Biso   1.000  Hf
  Hf12     1.0000 0.71499  0.96629  0.35111  Biso   1.000  Hf
  O17      1.0000 0.03694  0.65009  0.06490  Biso   1.000  O 
  O18      1.0000 0.05905  0.60592  0.30964  Biso   1.000  O 
  O19      1.0000 0.93322  0.90516  0.17414  Biso   1.000  O 
  O20      1.0000 0.94245  0.84067  0.42782  Biso   1.000  O 
  O21      1.0000 0.54293  0.63163  0.23652  Biso   1.000  O 
  O22      1.0000 0.54985  0.62784  0.49097  Biso   1.000  O 
  O23      1.0000 0.43686  0.87731  0.00926  Biso   1.000  O 
  O24      1.0000 0.44013  0.87159  0.25753  Biso   1.000  O 
  Hf13     1.0000 0.29963  0.52229  0.64357  Biso   1.000  Hf
  Hf14     1.0000 0.30276  0.72936  0.89166  Biso   1.000  Hf
  Hf15     1.0000 0.73938  0.77366  0.60393  Biso   1.000  Hf
  Hf16     1.0000 0.74972  0.98212  0.85010  Biso   1.000  Hf
  O25      1.0000 0.06683  0.65648  0.56895  Biso   1.000  O 
  O26      1.0000 0.08800  0.59766  0.81267  Biso   1.000  O 
  O27      1.0000 0.95872  0.91363  0.67387  Biso   1.000  O 
  O28      1.0000 0.96903  0.84332  0.92133  Biso   1.000  O 
  O29      1.0000 0.57288  0.62902  0.73692  Biso   1.000  O 
  O30      1.0000 0.57754  0.62621  0.98516  Biso   1.000  O 
  O31      1.0000 0.45523  0.87551  0.50961  Biso   1.000  O 
  O32      1.0000 0.47503  0.87434  0.75761  Biso   1.000  O 
  W1       1.0000 0.79991  0.24579  0.35586  Biso   1.000  W 
