data_image0
_cell_length_a       10.2457
_cell_length_b       5.21449
_cell_length_c       10.4607
_cell_angle_alpha    90
_cell_angle_beta     80
_cell_angle_gamma    90

_symmetry_space_group_name_H-M    "P 1"
_symmetry_int_tables_number       1

loop_
  _symmetry_equiv_pos_as_xyz
  'x, y, z'

loop_
  _atom_site_label
  _atom_site_occupancy
  _atom_site_fract_x
  _atom_site_fract_y
  _atom_site_fract_z
  _atom_site_thermal_displace_type
  _atom_site_B_iso_or_equiv
  _atom_site_type_symbol
  Hf1      1.0000 0.13415  0.04488  0.14377  Biso   1.000  Hf
  Hf2      1.0000 0.12417  0.45424  0.39272  Biso   1.000  Hf
  Hf3      1.0000 0.35911  0.54615  0.10839  Biso   1.000  Hf
  Hf4      1.0000 0.35804  0.91799  0.33899  Biso   1.000  Hf
  O1       1.0000 0.03219  0.34603  0.07694  Biso   1.000  O 
  O2       1.0000 0.02639  0.16863  0.32262  Biso   1.000  O 
  O3       1.0000 0.46082  0.86649  0.15095  Biso   1.000  O 
  O4       1.0000 0.49395  0.71738  0.42908  Biso   1.000  O 
  O5       1.0000 0.27390  0.25222  0.24280  Biso   1.000  O 
  O6       1.0000 0.25328  0.17478  0.48026  Biso   1.000  O 
  O7       1.0000 0.22301  0.76372  0.00748  Biso   1.000  O 
  O8       1.0000 0.20277  0.74899  0.25238  Biso   1.000  O 
  Hf5      1.0000 0.13445  0.06007  0.65212  Biso   1.000  Hf
  Hf6      1.0000 0.13853  0.48715  0.89798  Biso   1.000  Hf
  Hf7      1.0000 0.37367  0.56999  0.62754  Biso   1.000  Hf
  Hf8      1.0000 0.36356  0.98583  0.86036  Biso   1.000  Hf
  O9       1.0000 0.03211  0.35296  0.58120  Biso   1.000  O 
  O10      1.0000 0.03462  0.19261  0.82787  Biso   1.000  O 
  O11      1.0000 0.46803  0.87748  0.67664  Biso   1.000  O 
  O12      1.0000 0.46285  0.67707  0.91520  Biso   1.000  O 
  O13      1.0000 0.27570  0.28460  0.74322  Biso   1.000  O 
  O14      1.0000 0.27476  0.26972  0.99287  Biso   1.000  O 
  O15      1.0000 0.24855  0.68538  0.49899  Biso   1.000  O 
  O16      1.0000 0.22318  0.77838  0.76181  Biso   1.000  O 
  Hf9      1.0000 0.63923  0.05076  0.14046  Biso   1.000  Hf
  Hf10     1.0000 0.65197  0.46673  0.39902  Biso   1.000  Hf
  Hf11     1.0000 0.85990  0.54943  0.10263  Biso   1.000  Hf
  Hf12     1.0000 0.85780  0.96487  0.35103  Biso   1.000  Hf
  O17      1.0000 0.53793  0.35487  0.08188  Biso   1.000  O 
  O18      1.0000 0.53855  0.16432  0.32402  Biso   1.000  O 
  O19      1.0000 0.95994  0.84610  0.16500  Biso   1.000  O 
  O20      1.0000 0.96004  0.67667  0.41994  Biso   1.000  O 
  O21      1.0000 0.77664  0.26528  0.23785  Biso   1.000  O 
  O22      1.0000 0.78258  0.24992  0.49239  Biso   1.000  O 
  O23      1.0000 0.72413  0.76390  0.00799  Biso   1.000  O 
  O24      1.0000 0.72343  0.74966  0.25710  Biso   1.000  O 
  Hf13     1.0000 0.64485  0.06099  0.64901  Biso   1.000  Hf
  Hf14     1.0000 0.63737  0.48329  0.89668  Biso   1.000  Hf
  Hf15     1.0000 0.86211  0.56093  0.60622  Biso   1.000  Hf
  Hf16     1.0000 0.86173  0.98190  0.85495  Biso   1.000  Hf
  O25      1.0000 0.54604  0.35997  0.58640  Biso   1.000  O 
  O26      1.0000 0.53926  0.18129  0.83627  Biso   1.000  O 
  O27      1.0000 0.96786  0.85318  0.66999  Biso   1.000  O 
  O28      1.0000 0.96573  0.69002  0.91799  Biso   1.000  O 
  O29      1.0000 0.77711  0.28028  0.74219  Biso   1.000  O 
  O30      1.0000 0.77651  0.26700  0.98913  Biso   1.000  O 
  O31      1.0000 0.72738  0.77266  0.51239  Biso   1.000  O 
  O32      1.0000 0.72814  0.76499  0.76086  Biso   1.000  O 
  W1       1.0000 0.39056  0.42499  0.38249  Biso   1.000  W 
