data_image0
_cell_length_a       5.18871
_cell_length_b       10.1082
_cell_length_c       10.0895
_cell_angle_alpha    90
_cell_angle_beta     90
_cell_angle_gamma    90

_symmetry_space_group_name_H-M    "P 1"
_symmetry_int_tables_number       1

loop_
  _symmetry_equiv_pos_as_xyz
  'x, y, z'

loop_
  _atom_site_label
  _atom_site_occupancy
  _atom_site_fract_x
  _atom_site_fract_y
  _atom_site_fract_z
  _atom_site_thermal_displace_type
  _atom_site_B_iso_or_equiv
  _atom_site_type_symbol
  Hf1      1.0000 0.24274  0.97464  0.11338  Biso   1.000  Hf
  Hf2      1.0000 0.25014  0.23135  0.40735  Biso   1.000  Hf
  Hf3      1.0000 0.66792  0.24783  0.12801  Biso   1.000  Hf
  Hf4      1.0000 0.77151  0.99758  0.38206  Biso   1.000  Hf
  O1       1.0000 0.91007  0.09906  0.03046  Biso   1.000  O 
  O2       1.0000 0.93912  0.15838  0.27481  Biso   1.000  O 
  O3       1.0000 0.90508  0.39880  0.21489  Biso   1.000  O 
  O4       1.0000 0.86203  0.31877  0.97110  Biso   1.000  O 
  O5       1.0000 0.42494  0.11950  0.24725  Biso   1.000  O 
  O6       1.0000 0.39429  0.13296  0.00621  Biso   1.000  O 
  O7       1.0000 0.41629  0.37463  0.01230  Biso   1.000  O 
  O8       1.0000 0.39610  0.36276  0.25236  Biso   1.000  O 
  Hf5      1.0000 0.20277  0.01286  0.63699  Biso   1.000  Hf
  Hf6      1.0000 0.19157  0.24599  0.85081  Biso   1.000  Hf
  Hf7      1.0000 0.66653  0.22673  0.63923  Biso   1.000  Hf
  Hf8      1.0000 0.73138  0.96918  0.87028  Biso   1.000  Hf
  O9       1.0000 0.95193  0.12924  0.51729  Biso   1.000  O 
  O10      1.0000 0.94802  0.10741  0.76706  Biso   1.000  O 
  O11      1.0000 0.94635  0.36433  0.72299  Biso   1.000  O 
  O12      1.0000 0.06353  0.39543  0.46200  Biso   1.000  O 
  O13      1.0000 0.46741  0.10598  0.77260  Biso   1.000  O 
  O14      1.0000 0.48001  0.08862  0.50340  Biso   1.000  O 
  O15      1.0000 0.56101  0.36036  0.49674  Biso   1.000  O 
  O16      1.0000 0.46172  0.37074  0.76486  Biso   1.000  O 
  Hf9      1.0000 0.23710  0.52340  0.13817  Biso   1.000  Hf
  Hf10     1.0000 0.28541  0.74145  0.39006  Biso   1.000  Hf
  Hf11     1.0000 0.73275  0.74528  0.12794  Biso   1.000  Hf
  Hf12     1.0000 0.77050  0.50243  0.38032  Biso   1.000  Hf
  O17      1.0000 0.92887  0.59807  0.02352  Biso   1.000  O 
  O18      1.0000 0.02328  0.64740  0.26427  Biso   1.000  O 
  O19      1.0000 0.92036  0.90087  0.22061  Biso   1.000  O 
  O20      1.0000 0.96657  0.83244  0.97887  Biso   1.000  O 
  O21      1.0000 0.53168  0.61202  0.25400  Biso   1.000  O 
  O22      1.0000 0.43544  0.64521  0.01003  Biso   1.000  O 
  O23      1.0000 0.46840  0.86855  0.99043  Biso   1.000  O 
  O24      1.0000 0.42957  0.84939  0.23562  Biso   1.000  O 
  Hf13     1.0000 0.24527  0.47307  0.61844  Biso   1.000  Hf
  Hf14     1.0000 0.24086  0.74287  0.85643  Biso   1.000  Hf
  Hf15     1.0000 0.73459  0.72786  0.63011  Biso   1.000  Hf
  Hf16     1.0000 0.74558  0.48171  0.86088  Biso   1.000  Hf
  O25      1.0000 0.98796  0.62839  0.51156  Biso   1.000  O 
  O26      1.0000 0.01155  0.60348  0.76291  Biso   1.000  O 
  O27      1.0000 0.96646  0.86340  0.73126  Biso   1.000  O 
  O28      1.0000 0.10241  0.89855  0.47195  Biso   1.000  O 
  O29      1.0000 0.51393  0.61646  0.75644  Biso   1.000  O 
  O30      1.0000 0.48148  0.60433  0.50623  Biso   1.000  O 
  O31      1.0000 0.61388  0.83771  0.47507  Biso   1.000  O 
  O32      1.0000 0.46307  0.86247  0.73287  Biso   1.000  O 
  W1       1.0000 0.16464  0.24905  0.12663  Biso   1.000  W 
