data_image0
_cell_length_a       10.092
_cell_length_b       10.2547
_cell_length_c       5.21326
_cell_angle_alpha    90
_cell_angle_beta     80
_cell_angle_gamma    90

_symmetry_space_group_name_H-M    "P 1"
_symmetry_int_tables_number       1

loop_
  _symmetry_equiv_pos_as_xyz
  'x, y, z'

loop_
  _atom_site_label
  _atom_site_occupancy
  _atom_site_fract_x
  _atom_site_fract_y
  _atom_site_fract_z
  _atom_site_thermal_displace_type
  _atom_site_B_iso_or_equiv
  _atom_site_type_symbol
  W1       1.0000 0.13995  0.02340  0.29335  Biso   1.000  W 
  Hf1      1.0000 0.14002  0.22802  0.79174  Biso   1.000  Hf
  Hf2      1.0000 0.36060  0.27159  0.21099  Biso   1.000  Hf
  Hf3      1.0000 0.36165  0.47926  0.70925  Biso   1.000  Hf
  O1       1.0000 0.03670  0.16551  0.15803  Biso   1.000  O 
  O2       1.0000 0.04240  0.07697  0.64342  Biso   1.000  O 
  O3       1.0000 0.46411  0.42095  0.33816  Biso   1.000  O 
  O4       1.0000 0.46295  0.32921  0.83892  Biso   1.000  O 
  O5       1.0000 0.27821  0.12691  0.48530  Biso   1.000  O 
  O6       1.0000 0.27604  0.11958  0.99319  Biso   1.000  O 
  O7       1.0000 0.22287  0.37824  0.01932  Biso   1.000  O 
  O8       1.0000 0.22395  0.37096  0.51992  Biso   1.000  O 
  Hf4      1.0000 0.13986  0.52179  0.29188  Biso   1.000  Hf
  Hf5      1.0000 0.13974  0.72934  0.79126  Biso   1.000  Hf
  Hf6      1.0000 0.36024  0.77476  0.20995  Biso   1.000  Hf
  Hf7      1.0000 0.36051  0.97847  0.70964  Biso   1.000  Hf
  O9       1.0000 0.03647  0.66858  0.15986  Biso   1.000  O 
  O10      1.0000 0.03655  0.57999  0.66171  Biso   1.000  O 
  O11      1.0000 0.46607  0.91922  0.34385  Biso   1.000  O 
  O12      1.0000 0.46431  0.83106  0.84103  Biso   1.000  O 
  O13      1.0000 0.27723  0.63101  0.48211  Biso   1.000  O 
  O14      1.0000 0.27794  0.62191  0.98210  Biso   1.000  O 
  O15      1.0000 0.21966  0.88019  0.02164  Biso   1.000  O 
  O16      1.0000 0.21898  0.87443  0.51642  Biso   1.000  O 
  Hf8      1.0000 0.63861  0.02188  0.29277  Biso   1.000  Hf
  Hf9      1.0000 0.63908  0.22877  0.79180  Biso   1.000  Hf
  Hf10     1.0000 0.86207  0.27093  0.20690  Biso   1.000  Hf
  Hf11     1.0000 0.86152  0.47856  0.70735  Biso   1.000  Hf
  O17      1.0000 0.53693  0.17088  0.16396  Biso   1.000  O 
  O18      1.0000 0.53590  0.07999  0.66449  Biso   1.000  O 
  O19      1.0000 0.96535  0.41870  0.33780  Biso   1.000  O 
  O20      1.0000 0.96441  0.32781  0.83603  Biso   1.000  O 
  O21      1.0000 0.77793  0.12902  0.48051  Biso   1.000  O 
  O22      1.0000 0.77790  0.12065  0.97840  Biso   1.000  O 
  O23      1.0000 0.72387  0.37930  0.01824  Biso   1.000  O 
  O24      1.0000 0.72356  0.37081  0.51777  Biso   1.000  O 
  Hf12     1.0000 0.63960  0.52245  0.29186  Biso   1.000  Hf
  Hf13     1.0000 0.63972  0.72899  0.79382  Biso   1.000  Hf
  Hf14     1.0000 0.86347  0.77274  0.20671  Biso   1.000  Hf
  Hf15     1.0000 0.86248  0.97877  0.70546  Biso   1.000  Hf
  O25      1.0000 0.53618  0.67095  0.16315  Biso   1.000  O 
  O26      1.0000 0.53708  0.58007  0.66362  Biso   1.000  O 
  O27      1.0000 0.97259  0.92076  0.33024  Biso   1.000  O 
  O28      1.0000 0.96475  0.83099  0.83596  Biso   1.000  O 
  O29      1.0000 0.77788  0.62968  0.48153  Biso   1.000  O 
  O30      1.0000 0.77808  0.62176  0.98177  Biso   1.000  O 
  O31      1.0000 0.72372  0.87967  0.01809  Biso   1.000  O 
  O32      1.0000 0.72801  0.87188  0.51807  Biso   1.000  O 
