data_image0
_cell_length_a       5.08945
_cell_length_b       10.3548
_cell_length_c       10.1569
_cell_angle_alpha    90
_cell_angle_beta     90
_cell_angle_gamma    90

_symmetry_space_group_name_H-M    "P 1"
_symmetry_int_tables_number       1

loop_
  _symmetry_equiv_pos_as_xyz
  'x, y, z'

loop_
  _atom_site_label
  _atom_site_occupancy
  _atom_site_fract_x
  _atom_site_fract_y
  _atom_site_fract_z
  _atom_site_thermal_displace_type
  _atom_site_B_iso_or_equiv
  _atom_site_type_symbol
  Hf1      1.0000 0.23930  0.97145  0.13618  Biso   1.000  Hf
  Hf2      1.0000 0.18575  0.19463  0.39197  Biso   1.000  Hf
  Hf3      1.0000 0.82730  0.28452  0.06438  Biso   1.000  Hf
  Hf4      1.0000 0.70106  0.45065  0.37131  Biso   1.000  Hf
  O1       1.0000 0.97088  0.14066  0.21484  Biso   1.000  O 
  O2       1.0000 0.98784  0.03567  0.46495  Biso   1.000  O 
  O3       1.0000 0.04398  0.38812  0.21269  Biso   1.000  O 
  O4       1.0000 0.86207  0.28542  0.45240  Biso   1.000  O 
  O5       1.0000 0.43707  0.07365  0.26496  Biso   1.000  O 
  O6       1.0000 0.46801  0.10409  0.51311  Biso   1.000  O 
  O7       1.0000 0.39191  0.35798  0.47367  Biso   1.000  O 
  O8       1.0000 0.55106  0.34797  0.21103  Biso   1.000  O 
  Hf5      1.0000 0.18352  0.98178  0.63622  Biso   1.000  Hf
  Hf6      1.0000 0.20682  0.21912  0.85867  Biso   1.000  Hf
  Hf7      1.0000 0.67563  0.23602  0.62910  Biso   1.000  Hf
  Hf8      1.0000 0.68765  0.47163  0.83882  Biso   1.000  Hf
  O9       1.0000 0.00789  0.14896  0.68947  Biso   1.000  O 
  O10      1.0000 0.95273  0.05854  0.97804  Biso   1.000  O 
  O11      1.0000 0.84790  0.41713  0.65742  Biso   1.000  O 
  O12      1.0000 0.82383  0.28194  0.86374  Biso   1.000  O 
  O13      1.0000 0.46173  0.08329  0.75728  Biso   1.000  O 
  O14      1.0000 0.54989  0.15286  0.00014  Biso   1.000  O 
  O15      1.0000 0.44460  0.36792  0.96398  Biso   1.000  O 
  O16      1.0000 0.37740  0.34350  0.72350  Biso   1.000  O 
  Hf9      1.0000 0.31250  0.50172  0.10941  Biso   1.000  Hf
  Hf10     1.0000 0.21465  0.71797  0.37274  Biso   1.000  Hf
  Hf11     1.0000 0.75501  0.74852  0.13391  Biso   1.000  Hf
  Hf12     1.0000 0.69847  0.95868  0.38845  Biso   1.000  Hf
  O17      1.0000 0.08881  0.65518  0.19267  Biso   1.000  O 
  O18      1.0000 0.01698  0.55083  0.43613  Biso   1.000  O 
  O19      1.0000 0.95619  0.88744  0.24530  Biso   1.000  O 
  O20      1.0000 0.90759  0.79282  0.47444  Biso   1.000  O 
  O21      1.0000 0.58614  0.58865  0.23191  Biso   1.000  O 
  O22      1.0000 0.48643  0.60931  0.48683  Biso   1.000  O 
  O23      1.0000 0.42728  0.85837  0.50554  Biso   1.000  O 
  O24      1.0000 0.47162  0.82970  0.25529  Biso   1.000  O 
  Hf13     1.0000 0.20608  0.48767  0.60274  Biso   1.000  Hf
  Hf14     1.0000 0.19901  0.70315  0.87383  Biso   1.000  Hf
  Hf15     1.0000 0.67445  0.73662  0.62732  Biso   1.000  Hf
  Hf16     1.0000 0.68002  0.95189  0.89012  Biso   1.000  Hf
  O25      1.0000 0.96864  0.64144  0.71759  Biso   1.000  O 
  O26      1.0000 0.00449  0.52638  0.94222  Biso   1.000  O 
  O27      1.0000 0.90529  0.89571  0.72722  Biso   1.000  O 
  O28      1.0000 0.90980  0.79598  0.98453  Biso   1.000  O 
  O29      1.0000 0.44516  0.59285  0.73034  Biso   1.000  O 
  O30      1.0000 0.47878  0.60540  0.97601  Biso   1.000  O 
  O31      1.0000 0.53001  0.89723  0.01096  Biso   1.000  O 
  O32      1.0000 0.42282  0.83530  0.75959  Biso   1.000  O 
  W1       1.0000 0.28732  0.22669  0.13172  Biso   1.000  W 
