data_image0
_cell_length_a       10.1155
_cell_length_b       5.18633
_cell_length_c       10.4841
_cell_angle_alpha    90
_cell_angle_beta     90
_cell_angle_gamma    90

_symmetry_space_group_name_H-M    "P 1"
_symmetry_int_tables_number       1

loop_
  _symmetry_equiv_pos_as_xyz
  'x, y, z'

loop_
  _atom_site_label
  _atom_site_occupancy
  _atom_site_fract_x
  _atom_site_fract_y
  _atom_site_fract_z
  _atom_site_thermal_displace_type
  _atom_site_B_iso_or_equiv
  _atom_site_type_symbol
  Hf1      1.0000 0.13882  0.04159  0.17049  Biso   1.000  Hf
  Hf2      1.0000 0.13320  0.45943  0.42286  Biso   1.000  Hf
  Hf3      1.0000 0.34838  0.53943  0.17692  Biso   1.000  Hf
  Hf4      1.0000 0.35727  0.95760  0.42520  Biso   1.000  Hf
  Hf5      1.0000 0.64140  0.07384  0.06452  Biso   1.000  Hf
  Hf6      1.0000 0.63097  0.45687  0.35176  Biso   1.000  Hf
  Hf7      1.0000 0.87593  0.54887  0.07299  Biso   1.000  Hf
  Hf8      1.0000 0.86360  0.95802  0.33211  Biso   1.000  Hf
  O1       1.0000 0.03883  0.32539  0.07917  Biso   1.000  O 
  O2       1.0000 0.02510  0.18325  0.32849  Biso   1.000  O 
  O3       1.0000 0.46274  0.83017  0.07791  Biso   1.000  O 
  O4       1.0000 0.45743  0.66141  0.34042  Biso   1.000  O 
  O5       1.0000 0.26660  0.24893  0.29807  Biso   1.000  O 
  O6       1.0000 0.27768  0.24581  0.04155  Biso   1.000  O 
  O7       1.0000 0.21760  0.75256  0.29823  Biso   1.000  O 
  O8       1.0000 0.22172  0.74947  0.04325  Biso   1.000  O 
  O9       1.0000 0.50275  0.27752  0.17521  Biso   1.000  O 
  O10      1.0000 0.52947  0.15809  0.42329  Biso   1.000  O 
  O11      1.0000 0.97222  0.83102  0.16997  Biso   1.000  O 
  O12      1.0000 0.96212  0.67475  0.41918  Biso   1.000  O 
  O13      1.0000 0.77678  0.23639  0.45917  Biso   1.000  O 
  O14      1.0000 0.75469  0.31260  0.20091  Biso   1.000  O 
  O15      1.0000 0.72078  0.74290  0.46246  Biso   1.000  O 
  O16      1.0000 0.72951  0.80638  0.20459  Biso   1.000  O 
  Hf9      1.0000 0.13410  0.03975  0.66929  Biso   1.000  Hf
  Hf10     1.0000 0.13687  0.45473  0.91797  Biso   1.000  Hf
  Hf11     1.0000 0.36033  0.53719  0.67108  Biso   1.000  Hf
  Hf12     1.0000 0.35294  0.95431  0.91516  Biso   1.000  Hf
  Hf13     1.0000 0.63508  0.03838  0.58561  Biso   1.000  Hf
  Hf14     1.0000 0.63466  0.45472  0.83452  Biso   1.000  Hf
  Hf15     1.0000 0.85759  0.53852  0.58326  Biso   1.000  Hf
  Hf16     1.0000 0.86138  0.95904  0.82737  Biso   1.000  Hf
  O17      1.0000 0.02903  0.32995  0.58236  Biso   1.000  O 
  O18      1.0000 0.03207  0.16753  0.82995  Biso   1.000  O 
  O19      1.0000 0.46192  0.83572  0.58982  Biso   1.000  O 
  O20      1.0000 0.45773  0.65078  0.83776  Biso   1.000  O 
  O21      1.0000 0.27204  0.24504  0.79166  Biso   1.000  O 
  O22      1.0000 0.27019  0.25059  0.54462  Biso   1.000  O 
  O23      1.0000 0.22032  0.74601  0.79236  Biso   1.000  O 
  O24      1.0000 0.22169  0.74911  0.54503  Biso   1.000  O 
  O25      1.0000 0.53248  0.33940  0.66285  Biso   1.000  O 
  O26      1.0000 0.53013  0.13589  0.89620  Biso   1.000  O 
  O27      1.0000 0.96460  0.83045  0.66337  Biso   1.000  O 
  O28      1.0000 0.96759  0.67036  0.91173  Biso   1.000  O 
  O29      1.0000 0.78792  0.24229  0.94774  Biso   1.000  O 
  O30      1.0000 0.77276  0.24861  0.70522  Biso   1.000  O 
  O31      1.0000 0.72253  0.75609  0.96034  Biso   1.000  O 
  O32      1.0000 0.72226  0.74858  0.71086  Biso   1.000  O 
  W1       1.0000 0.60788  0.56547  0.10955  Biso   1.000  W 
