data_image0
_cell_length_a       5.03958
_cell_length_b       10.2518
_cell_length_c       10.4396
_cell_angle_alpha    90
_cell_angle_beta     80
_cell_angle_gamma    90

_symmetry_space_group_name_H-M    "P 1"
_symmetry_int_tables_number       1

loop_
  _symmetry_equiv_pos_as_xyz
  'x, y, z'

loop_
  _atom_site_label
  _atom_site_occupancy
  _atom_site_fract_x
  _atom_site_fract_y
  _atom_site_fract_z
  _atom_site_thermal_displace_type
  _atom_site_B_iso_or_equiv
  _atom_site_type_symbol
  W1       1.0000 0.28541  0.02134  0.14872  Biso   1.000  W 
  Hf1      1.0000 0.28190  0.22991  0.39494  Biso   1.000  Hf
  Hf2      1.0000 0.72665  0.27048  0.10523  Biso   1.000  Hf
  Hf3      1.0000 0.72568  0.47950  0.35333  Biso   1.000  Hf
  O1       1.0000 0.07938  0.16707  0.08350  Biso   1.000  O 
  O2       1.0000 0.08612  0.07772  0.32307  Biso   1.000  O 
  O3       1.0000 0.93111  0.42029  0.16877  Biso   1.000  O 
  O4       1.0000 0.92846  0.32903  0.41790  Biso   1.000  O 
  O5       1.0000 0.55879  0.12799  0.24138  Biso   1.000  O 
  O6       1.0000 0.55800  0.12058  0.48998  Biso   1.000  O 
  O7       1.0000 0.44874  0.37870  0.01013  Biso   1.000  O 
  O8       1.0000 0.45010  0.37120  0.25915  Biso   1.000  O 
  Hf4      1.0000 0.27568  0.02114  0.64585  Biso   1.000  Hf
  Hf5      1.0000 0.27609  0.22741  0.89692  Biso   1.000  Hf
  Hf6      1.0000 0.72243  0.27147  0.60410  Biso   1.000  Hf
  Hf7      1.0000 0.72115  0.47854  0.85542  Biso   1.000  Hf
  O9       1.0000 0.07138  0.16779  0.57719  Biso   1.000  O 
  O10      1.0000 0.06597  0.08166  0.82959  Biso   1.000  O 
  O11      1.0000 0.92998  0.41847  0.67004  Biso   1.000  O 
  O12      1.0000 0.92683  0.32863  0.92101  Biso   1.000  O 
  O13      1.0000 0.55145  0.12911  0.74112  Biso   1.000  O 
  O14      1.0000 0.54611  0.11938  0.99408  Biso   1.000  O 
  O15      1.0000 0.44741  0.37879  0.50933  Biso   1.000  O 
  O16      1.0000 0.44634  0.37066  0.76017  Biso   1.000  O 
  Hf8      1.0000 0.28123  0.52326  0.14533  Biso   1.000  Hf
  Hf9      1.0000 0.28414  0.72865  0.39616  Biso   1.000  Hf
  Hf10     1.0000 0.72390  0.77806  0.10396  Biso   1.000  Hf
  Hf11     1.0000 0.73103  0.97897  0.35283  Biso   1.000  Hf
  O17      1.0000 0.07106  0.66991  0.08095  Biso   1.000  O 
  O18      1.0000 0.07616  0.58024  0.33129  Biso   1.000  O 
  O19      1.0000 0.95317  0.92192  0.16583  Biso   1.000  O 
  O20      1.0000 0.93640  0.83185  0.41959  Biso   1.000  O 
  O21      1.0000 0.55657  0.63202  0.24063  Biso   1.000  O 
  O22      1.0000 0.55896  0.62085  0.49122  Biso   1.000  O 
  O23      1.0000 0.43268  0.88003  0.00998  Biso   1.000  O 
  O24      1.0000 0.45068  0.87512  0.25976  Biso   1.000  O 
  Hf12     1.0000 0.27992  0.52135  0.64686  Biso   1.000  Hf
  Hf13     1.0000 0.27749  0.72891  0.89725  Biso   1.000  Hf
  Hf14     1.0000 0.72579  0.77149  0.60462  Biso   1.000  Hf
  Hf15     1.0000 0.72290  0.97896  0.85481  Biso   1.000  Hf
  O25      1.0000 0.07604  0.66952  0.58055  Biso   1.000  O 
  O26      1.0000 0.07186  0.58000  0.83120  Biso   1.000  O 
  O27      1.0000 0.93213  0.91957  0.66983  Biso   1.000  O 
  O28      1.0000 0.92502  0.83114  0.91947  Biso   1.000  O 
  O29      1.0000 0.55576  0.62899  0.74137  Biso   1.000  O 
  O30      1.0000 0.55478  0.62253  0.99139  Biso   1.000  O 
  O31      1.0000 0.45319  0.87913  0.50884  Biso   1.000  O 
  O32      1.0000 0.44867  0.87101  0.75948  Biso   1.000  O 
