data_image0
_cell_length_a       10.1947
_cell_length_b       10.2897
_cell_length_c       5.23585
_cell_angle_alpha    90
_cell_angle_beta     80
_cell_angle_gamma    90

_symmetry_space_group_name_H-M    "P 1"
_symmetry_int_tables_number       1

loop_
  _symmetry_equiv_pos_as_xyz
  'x, y, z'

loop_
  _atom_site_label
  _atom_site_occupancy
  _atom_site_fract_x
  _atom_site_fract_y
  _atom_site_fract_z
  _atom_site_thermal_displace_type
  _atom_site_B_iso_or_equiv
  _atom_site_type_symbol
  Y1       1.0000 0.13871  0.01779  0.29104  Biso   1.000  Y 
  Hf1      1.0000 0.13763  0.22916  0.79364  Biso   1.000  Hf
  Hf2      1.0000 0.35857  0.26868  0.20906  Biso   1.000  Hf
  Hf3      1.0000 0.35828  0.47718  0.70751  Biso   1.000  Hf
  O1       1.0000 0.03353  0.18123  0.16074  Biso   1.000  O 
  O2       1.0000 0.02791  0.08325  0.68364  Biso   1.000  O 
  O3       1.0000 0.46407  0.41543  0.34282  Biso   1.000  O 
  O4       1.0000 0.46451  0.33382  0.84307  Biso   1.000  O 
  O5       1.0000 0.28023  0.13286  0.49152  Biso   1.000  O 
  O6       1.0000 0.27919  0.12476  0.97431  Biso   1.000  O 
  O7       1.0000 0.22387  0.37928  0.01788  Biso   1.000  O 
  O8       1.0000 0.22060  0.37234  0.51764  Biso   1.000  O 
  Hf4      1.0000 0.13800  0.52065  0.29063  Biso   1.000  Hf
  Hf5      1.0000 0.13874  0.72812  0.79159  Biso   1.000  Hf
  Hf6      1.0000 0.36028  0.77032  0.20732  Biso   1.000  Hf
  Hf7      1.0000 0.35792  0.97918  0.70876  Biso   1.000  Hf
  O9       1.0000 0.03342  0.66847  0.16029  Biso   1.000  O 
  O10      1.0000 0.03168  0.58231  0.65848  Biso   1.000  O 
  O11      1.0000 0.46399  0.91755  0.34056  Biso   1.000  O 
  O12      1.0000 0.46648  0.83449  0.84459  Biso   1.000  O 
  O13      1.0000 0.27406  0.62580  0.47943  Biso   1.000  O 
  O14      1.0000 0.27320  0.61878  0.98091  Biso   1.000  O 
  O15      1.0000 0.22966  0.87114  0.00693  Biso   1.000  O 
  O16      1.0000 0.22829  0.86470  0.52191  Biso   1.000  O 
  Hf8      1.0000 0.63905  0.02096  0.29309  Biso   1.000  Hf
  Hf9      1.0000 0.63666  0.22884  0.79281  Biso   1.000  Hf
  Hf10     1.0000 0.85895  0.27176  0.20569  Biso   1.000  Hf
  Hf11     1.0000 0.85750  0.47952  0.70641  Biso   1.000  Hf
  O17      1.0000 0.53387  0.16724  0.15888  Biso   1.000  O 
  O18      1.0000 0.53510  0.08207  0.65880  Biso   1.000  O 
  O19      1.0000 0.96114  0.42211  0.33584  Biso   1.000  O 
  O20      1.0000 0.96168  0.33432  0.83480  Biso   1.000  O 
  O21      1.0000 0.77492  0.12946  0.48252  Biso   1.000  O 
  O22      1.0000 0.77185  0.12177  0.98394  Biso   1.000  O 
  O23      1.0000 0.72219  0.37952  0.01679  Biso   1.000  O 
  O24      1.0000 0.72156  0.37140  0.51842  Biso   1.000  O 
  Hf12     1.0000 0.63656  0.51993  0.29080  Biso   1.000  Hf
  Hf13     1.0000 0.63557  0.72824  0.79085  Biso   1.000  Hf
  Hf14     1.0000 0.85696  0.76998  0.20819  Biso   1.000  Hf
  Hf15     1.0000 0.85577  0.97814  0.71112  Biso   1.000  Hf
  O25      1.0000 0.53300  0.66555  0.15703  Biso   1.000  O 
  O26      1.0000 0.53090  0.58292  0.65637  Biso   1.000  O 
  O27      1.0000 0.94990  0.91576  0.34893  Biso   1.000  O 
  O28      1.0000 0.96318  0.83169  0.84182  Biso   1.000  O 
  O29      1.0000 0.77242  0.62824  0.47923  Biso   1.000  O 
  O30      1.0000 0.77187  0.62024  0.97915  Biso   1.000  O 
  O31      1.0000 0.72281  0.87825  0.01857  Biso   1.000  O 
  O32      1.0000 0.71497  0.86986  0.52097  Biso   1.000  O 
