data_image0
_cell_length_a       10.0485
_cell_length_b       10.264
_cell_length_c       10.5452
_cell_angle_alpha    90
_cell_angle_beta     90
_cell_angle_gamma    90

_symmetry_space_group_name_H-M    "P 1"
_symmetry_int_tables_number       1

loop_
  _symmetry_equiv_pos_as_xyz
  'x, y, z'

loop_
  _atom_site_label
  _atom_site_occupancy
  _atom_site_fract_x
  _atom_site_fract_y
  _atom_site_fract_z
  _atom_site_thermal_displace_type
  _atom_site_B_iso_or_equiv
  _atom_site_type_symbol
  Hf1      1.0000 0.13643  0.02066  0.17380  Biso   1.000  Hf
  Hf2      1.0000 0.13219  0.22723  0.42630  Biso   1.000  Hf
  Hf3      1.0000 0.34481  0.27357  0.18808  Biso   1.000  Hf
  Hf4      1.0000 0.35407  0.47878  0.42554  Biso   1.000  Hf
  Hf5      1.0000 0.63967  0.00878  0.08076  Biso   1.000  Hf
  Hf6      1.0000 0.63205  0.22392  0.33019  Biso   1.000  Hf
  Hf7      1.0000 0.86495  0.27075  0.07563  Biso   1.000  Hf
  Hf8      1.0000 0.85342  0.47831  0.32513  Biso   1.000  Hf
  O1       1.0000 0.03176  0.16135  0.08194  Biso   1.000  O 
  O2       1.0000 0.02662  0.08723  0.33263  Biso   1.000  O 
  O3       1.0000 0.45188  0.43680  0.10081  Biso   1.000  O 
  O4       1.0000 0.45980  0.33243  0.33912  Biso   1.000  O 
  O5       1.0000 0.26737  0.12333  0.30193  Biso   1.000  O 
  O6       1.0000 0.27596  0.12507  0.04934  Biso   1.000  O 
  O7       1.0000 0.21092  0.37717  0.30481  Biso   1.000  O 
  O8       1.0000 0.21416  0.37806  0.05199  Biso   1.000  O 
  O9       1.0000 0.51766  0.14284  0.18376  Biso   1.000  O 
  O10      1.0000 0.52528  0.08366  0.42152  Biso   1.000  O 
  O11      1.0000 0.96027  0.41551  0.16998  Biso   1.000  O 
  O12      1.0000 0.96243  0.33714  0.41778  Biso   1.000  O 
  O13      1.0000 0.76953  0.12343  0.45145  Biso   1.000  O 
  O14      1.0000 0.77326  0.12452  0.20388  Biso   1.000  O 
  O15      1.0000 0.71659  0.37435  0.44936  Biso   1.000  O 
  O16      1.0000 0.70667  0.36990  0.19288  Biso   1.000  O 
  Hf9      1.0000 0.13011  0.02114  0.67479  Biso   1.000  Hf
  Hf10     1.0000 0.12869  0.22979  0.92447  Biso   1.000  Hf
  Hf11     1.0000 0.35232  0.27167  0.67513  Biso   1.000  Hf
  Hf12     1.0000 0.34463  0.48228  0.92760  Biso   1.000  Hf
  Hf13     1.0000 0.63308  0.01541  0.57402  Biso   1.000  Hf
  Hf14     1.0000 0.64041  0.22660  0.79680  Biso   1.000  Hf
  Hf15     1.0000 0.85742  0.27307  0.57219  Biso   1.000  Hf
  Hf16     1.0000 0.85157  0.48049  0.82820  Biso   1.000  Hf
  O17      1.0000 0.02467  0.16249  0.58225  Biso   1.000  O 
  O18      1.0000 0.02161  0.08784  0.83290  Biso   1.000  O 
  O19      1.0000 0.46123  0.41353  0.58432  Biso   1.000  O 
  O20      1.0000 0.46486  0.33553  0.83353  Biso   1.000  O 
  O21      1.0000 0.26600  0.12489  0.79776  Biso   1.000  O 
  O22      1.0000 0.26916  0.12523  0.54943  Biso   1.000  O 
  O23      1.0000 0.21486  0.37359  0.80007  Biso   1.000  O 
  O24      1.0000 0.21721  0.37498  0.55095  Biso   1.000  O 
  O25      1.0000 0.52076  0.15842  0.66060  Biso   1.000  O 
  O26      1.0000 0.51758  0.08435  0.91724  Biso   1.000  O 
  O27      1.0000 0.96101  0.41249  0.66977  Biso   1.000  O 
  O28      1.0000 0.95674  0.33622  0.91853  Biso   1.000  O 
  O29      1.0000 0.75251  0.13110  0.94960  Biso   1.000  O 
  O30      1.0000 0.77668  0.11904  0.69289  Biso   1.000  O 
  O31      1.0000 0.71475  0.38395  0.94971  Biso   1.000  O 
  O32      1.0000 0.71996  0.37794  0.69574  Biso   1.000  O 
  Hf17     1.0000 0.13460  0.52235  0.17420  Biso   1.000  Hf
  Hf18     1.0000 0.13007  0.72779  0.42375  Biso   1.000  Hf
  Hf19     1.0000 0.35487  0.77179  0.17547  Biso   1.000  Hf
  Hf20     1.0000 0.35216  0.97719  0.42591  Biso   1.000  Hf
  Hf21     1.0000 0.63746  0.53660  0.07721  Biso   1.000  Hf
  Hf22     1.0000 0.63202  0.72990  0.33021  Biso   1.000  Hf
  Hf23     1.0000 0.86163  0.77112  0.07850  Biso   1.000  Hf
  Hf24     1.0000 0.85600  0.97931  0.32834  Biso   1.000  Hf
  O33      1.0000 0.02995  0.66352  0.08272  Biso   1.000  O 
  O34      1.0000 0.02317  0.58648  0.33421  Biso   1.000  O 
  O35      1.0000 0.46473  0.90755  0.08033  Biso   1.000  O 
  O36      1.0000 0.46137  0.83771  0.33450  Biso   1.000  O 
  O37      1.0000 0.26853  0.62477  0.29800  Biso   1.000  O 
  O38      1.0000 0.27259  0.62860  0.04630  Biso   1.000  O 
  O39      1.0000 0.21708  0.87376  0.29872  Biso   1.000  O 
  O40      1.0000 0.22005  0.87690  0.04843  Biso   1.000  O 
  O41      1.0000 0.52896  0.67177  0.17091  Biso   1.000  O 
  O42      1.0000 0.52388  0.58661  0.41796  Biso   1.000  O 
  O43      1.0000 0.96399  0.91424  0.16943  Biso   1.000  O 
  O44      1.0000 0.96082  0.83679  0.42073  Biso   1.000  O 
  O45      1.0000 0.76855  0.62412  0.45433  Biso   1.000  O 
  O46      1.0000 0.77342  0.62629  0.20566  Biso   1.000  O 
  O47      1.0000 0.71749  0.87338  0.45549  Biso   1.000  O 
  O48      1.0000 0.72293  0.87167  0.20728  Biso   1.000  O 
  Hf25     1.0000 0.13011  0.52062  0.67433  Biso   1.000  Hf
  Hf26     1.0000 0.12385  0.73057  0.92291  Biso   1.000  Hf
  Hf27     1.0000 0.35028  0.77056  0.67405  Biso   1.000  Hf
  Hf28     1.0000 0.34601  0.97761  0.92387  Biso   1.000  Hf
  Hf29     1.0000 0.63039  0.52331  0.57572  Biso   1.000  Hf
  Hf30     1.0000 0.62654  0.72996  0.82604  Biso   1.000  Hf
  Hf31     1.0000 0.85454  0.77039  0.57991  Biso   1.000  Hf
  Hf32     1.0000 0.84913  0.98069  0.82937  Biso   1.000  Hf
  O49      1.0000 0.02418  0.66289  0.58396  Biso   1.000  O 
  O50      1.0000 0.02136  0.58666  0.83343  Biso   1.000  O 
  O51      1.0000 0.45948  0.90945  0.58219  Biso   1.000  O 
  O52      1.0000 0.45522  0.83681  0.83148  Biso   1.000  O 
  O53      1.0000 0.26368  0.62526  0.79706  Biso   1.000  O 
  O54      1.0000 0.26721  0.62483  0.54701  Biso   1.000  O 
  O55      1.0000 0.21111  0.87403  0.79774  Biso   1.000  O 
  O56      1.0000 0.21415  0.87549  0.54869  Biso   1.000  O 
  O57      1.0000 0.52181  0.66306  0.66777  Biso   1.000  O 
  O58      1.0000 0.51664  0.58920  0.91838  Biso   1.000  O 
  O59      1.0000 0.95846  0.91195  0.67167  Biso   1.000  O 
  O60      1.0000 0.95381  0.83850  0.91990  Biso   1.000  O 
  O61      1.0000 0.76424  0.63049  0.95096  Biso   1.000  O 
  O62      1.0000 0.76612  0.62583  0.70335  Biso   1.000  O 
  O63      1.0000 0.71023  0.87588  0.95490  Biso   1.000  O 
  O64      1.0000 0.71423  0.87459  0.70571  Biso   1.000  O 
  Y1       1.0000 0.56086  0.26900  0.02419  Biso   1.000  Y 
