data_image0
_cell_length_a       5.00688
_cell_length_b       10.3677
_cell_length_c       10.0596
_cell_angle_alpha    90
_cell_angle_beta     90
_cell_angle_gamma    90

_symmetry_space_group_name_H-M    "P 1"
_symmetry_int_tables_number       1

loop_
  _symmetry_equiv_pos_as_xyz
  'x, y, z'

loop_
  _atom_site_label
  _atom_site_occupancy
  _atom_site_fract_x
  _atom_site_fract_y
  _atom_site_fract_z
  _atom_site_thermal_displace_type
  _atom_site_B_iso_or_equiv
  _atom_site_type_symbol
  Y1       1.0000 0.26163  0.01186  0.12220  Biso   1.000  Y 
  Hf1      1.0000 0.26262  0.23222  0.37557  Biso   1.000  Hf
  Hf2      1.0000 0.72418  0.26541  0.12733  Biso   1.000  Hf
  Hf3      1.0000 0.72431  0.48250  0.37633  Biso   1.000  Hf
  O1       1.0000 0.06182  0.19092  0.19898  Biso   1.000  O 
  O2       1.0000 0.06331  0.06451  0.44408  Biso   1.000  O 
  O3       1.0000 0.92302  0.43554  0.19558  Biso   1.000  O 
  O4       1.0000 0.92169  0.31611  0.44557  Biso   1.000  O 
  O5       1.0000 0.54601  0.12297  0.25449  Biso   1.000  O 
  O6       1.0000 0.53046  0.13122  0.50106  Biso   1.000  O 
  O7       1.0000 0.45275  0.38183  0.49948  Biso   1.000  O 
  O8       1.0000 0.45185  0.36829  0.24971  Biso   1.000  O 
  Hf4      1.0000 0.25980  0.01516  0.62543  Biso   1.000  Hf
  Hf5      1.0000 0.26134  0.23185  0.87336  Biso   1.000  Hf
  Hf6      1.0000 0.72482  0.26470  0.62443  Biso   1.000  Hf
  Hf7      1.0000 0.72260  0.48045  0.87658  Biso   1.000  Hf
  O9       1.0000 0.06812  0.18507  0.68894  Biso   1.000  O 
  O10      1.0000 0.06057  0.06808  0.92770  Biso   1.000  O 
  O11      1.0000 0.92320  0.43196  0.69656  Biso   1.000  O 
  O12      1.0000 0.92437  0.31638  0.94659  Biso   1.000  O 
  O13      1.0000 0.53461  0.11582  0.74731  Biso   1.000  O 
  O14      1.0000 0.54045  0.13275  0.99433  Biso   1.000  O 
  O15      1.0000 0.44840  0.38023  0.99896  Biso   1.000  O 
  O16      1.0000 0.45434  0.36626  0.74865  Biso   1.000  O 
  Hf8      1.0000 0.26555  0.51514  0.12556  Biso   1.000  Hf
  Hf9      1.0000 0.26120  0.73185  0.37788  Biso   1.000  Hf
  Hf10     1.0000 0.72675  0.76519  0.12780  Biso   1.000  Hf
  Hf11     1.0000 0.72033  0.98199  0.37576  Biso   1.000  Hf
  O17      1.0000 0.06659  0.68145  0.19697  Biso   1.000  O 
  O18      1.0000 0.06264  0.56410  0.44704  Biso   1.000  O 
  O19      1.0000 0.90167  0.93034  0.20062  Biso   1.000  O 
  O20      1.0000 0.92319  0.81422  0.44780  Biso   1.000  O 
  O21      1.0000 0.53446  0.61437  0.24969  Biso   1.000  O 
  O22      1.0000 0.53310  0.63079  0.49984  Biso   1.000  O 
  O23      1.0000 0.45071  0.88091  0.50072  Biso   1.000  O 
  O24      1.0000 0.45501  0.85854  0.25433  Biso   1.000  O 
  Hf12     1.0000 0.26045  0.51441  0.62642  Biso   1.000  Hf
  Hf13     1.0000 0.26486  0.73091  0.87583  Biso   1.000  Hf
  Hf14     1.0000 0.72495  0.76453  0.62544  Biso   1.000  Hf
  Hf15     1.0000 0.72138  0.98099  0.87347  Biso   1.000  Hf
  O25      1.0000 0.06367  0.68177  0.69550  Biso   1.000  O 
  O26      1.0000 0.05961  0.56556  0.94538  Biso   1.000  O 
  O27      1.0000 0.91923  0.93157  0.69334  Biso   1.000  O 
  O28      1.0000 0.93724  0.81825  0.95077  Biso   1.000  O 
  O29      1.0000 0.53433  0.61519  0.74939  Biso   1.000  O 
  O30      1.0000 0.53101  0.62670  0.99958  Biso   1.000  O 
  O31      1.0000 0.46670  0.87180  0.99422  Biso   1.000  O 
  O32      1.0000 0.45048  0.86537  0.74770  Biso   1.000  O 
