data_image0
_cell_length_a       10.0724
_cell_length_b       10.2601
_cell_length_c       10.0724
_cell_angle_alpha    90
_cell_angle_beta     90
_cell_angle_gamma    90

_symmetry_space_group_name_H-M    "P 1"
_symmetry_int_tables_number       1

loop_
  _symmetry_equiv_pos_as_xyz
  'x, y, z'

loop_
  _atom_site_label
  _atom_site_occupancy
  _atom_site_fract_x
  _atom_site_fract_y
  _atom_site_fract_z
  _atom_site_thermal_displace_type
  _atom_site_B_iso_or_equiv
  _atom_site_type_symbol
  Hf1      1.0000 0.12492  0.97012  0.12492  Biso   1.000  Hf
  Hf2      1.0000 0.12491  0.25005  0.39460  Biso   1.000  Hf
  Hf3      1.0000 0.39459  0.25006  0.12491  Biso   1.000  Hf
  Hf4      1.0000 0.37479  0.00762  0.37480  Biso   1.000  Hf
  O1       1.0000 0.98112  0.15617  0.98113  Biso   1.000  O 
  O2       1.0000 0.00716  0.09535  0.24263  Biso   1.000  O 
  O3       1.0000 0.98113  0.34395  0.26868  Biso   1.000  O 
  O4       1.0000 0.00717  0.40476  0.00718  Biso   1.000  O 
  O5       1.0000 0.26865  0.15613  0.26866  Biso   1.000  O 
  O6       1.0000 0.24262  0.09536  0.00716  Biso   1.000  O 
  O7       1.0000 0.26866  0.34395  0.98115  Biso   1.000  O 
  O8       1.0000 0.24263  0.40474  0.24264  Biso   1.000  O 
  Hf5      1.0000 0.12491  0.99320  0.62491  Biso   1.000  Hf
  Hf6      1.0000 0.12491  0.25004  0.85521  Biso   1.000  Hf
  Hf7      1.0000 0.37715  0.25005  0.62491  Biso   1.000  Hf
  Hf8      1.0000 0.37201  0.00374  0.87781  Biso   1.000  Hf
  O9       1.0000 0.99089  0.14339  0.49729  Biso   1.000  O 
  O10      1.0000 0.00282  0.10295  0.74237  Biso   1.000  O 
  O11      1.0000 0.99090  0.35670  0.75251  Biso   1.000  O 
  O12      1.0000 0.00283  0.39715  0.50745  Biso   1.000  O 
  O13      1.0000 0.25892  0.14338  0.75251  Biso   1.000  O 
  O14      1.0000 0.24699  0.10296  0.50744  Biso   1.000  O 
  O15      1.0000 0.25892  0.35671  0.49730  Biso   1.000  O 
  O16      1.0000 0.24699  0.39713  0.74236  Biso   1.000  O 
  Hf9      1.0000 0.12492  0.52999  0.12490  Biso   1.000  Hf
  Hf10     1.0000 0.12492  0.75005  0.38188  Biso   1.000  Hf
  Hf11     1.0000 0.38188  0.75005  0.12491  Biso   1.000  Hf
  Hf12     1.0000 0.37201  0.49635  0.37201  Biso   1.000  Hf
  O17      1.0000 0.00139  0.65389  0.00138  Biso   1.000  O 
  O18      1.0000 0.99462  0.60422  0.25522  Biso   1.000  O 
  O19      1.0000 0.00139  0.84623  0.24845  Biso   1.000  O 
  O20      1.0000 0.99461  0.89589  0.99462  Biso   1.000  O 
  O21      1.0000 0.24845  0.65386  0.24845  Biso   1.000  O 
  O22      1.0000 0.25523  0.60422  0.99461  Biso   1.000  O 
  O23      1.0000 0.24845  0.84624  0.00139  Biso   1.000  O 
  O24      1.0000 0.25522  0.89587  0.25522  Biso   1.000  O 
  Hf13     1.0000 0.12491  0.50691  0.62491  Biso   1.000  Hf
  Hf14     1.0000 0.12492  0.75005  0.86795  Biso   1.000  Hf
  Hf15     1.0000 0.37774  0.75005  0.62491  Biso   1.000  Hf
  Hf16     1.0000 0.37479  0.49247  0.87502  Biso   1.000  Hf
  O25      1.0000 0.99893  0.64703  0.50416  Biso   1.000  O 
  O26      1.0000 0.00315  0.60390  0.75452  Biso   1.000  O 
  O27      1.0000 0.99893  0.85307  0.74566  Biso   1.000  O 
  O28      1.0000 0.00315  0.89620  0.49531  Biso   1.000  O 
  O29      1.0000 0.25089  0.64702  0.74566  Biso   1.000  O 
  O30      1.0000 0.24667  0.60390  0.49531  Biso   1.000  O 
  O31      1.0000 0.25089  0.85308  0.50417  Biso   1.000  O 
  O32      1.0000 0.24667  0.89619  0.75451  Biso   1.000  O 
  Hf17     1.0000 0.62491  0.99320  0.12492  Biso   1.000  Hf
  Hf18     1.0000 0.62490  0.25006  0.37715  Biso   1.000  Hf
  Hf19     1.0000 0.85520  0.25005  0.12491  Biso   1.000  Hf
  Hf20     1.0000 0.87780  0.00375  0.37202  Biso   1.000  Hf
  O33      1.0000 0.49728  0.14339  0.99090  Biso   1.000  O 
  O34      1.0000 0.50744  0.10296  0.24699  Biso   1.000  O 
  O35      1.0000 0.49729  0.35671  0.25892  Biso   1.000  O 
  O36      1.0000 0.50744  0.39715  0.00283  Biso   1.000  O 
  O37      1.0000 0.75251  0.14339  0.25892  Biso   1.000  O 
  O38      1.0000 0.74235  0.10297  0.00282  Biso   1.000  O 
  O39      1.0000 0.75251  0.35671  0.99090  Biso   1.000  O 
  O40      1.0000 0.74236  0.39715  0.24699  Biso   1.000  O 
  Hf21     1.0000 0.62491  0.99812  0.62491  Biso   1.000  Hf
  Hf22     1.0000 0.62490  0.25004  0.87267  Biso   1.000  Hf
  Hf23     1.0000 0.87266  0.25005  0.62491  Biso   1.000  Hf
  Hf24     1.0000 0.87503  0.00761  0.87503  Biso   1.000  Hf
  O41      1.0000 0.49594  0.14933  0.49595  Biso   1.000  O 
  O42      1.0000 0.50277  0.10100  0.74704  Biso   1.000  O 
  O43      1.0000 0.49594  0.35076  0.75387  Biso   1.000  O 
  O44      1.0000 0.50278  0.39910  0.50278  Biso   1.000  O 
  O45      1.0000 0.75387  0.14933  0.75388  Biso   1.000  O 
  O46      1.0000 0.74704  0.10101  0.50277  Biso   1.000  O 
  O47      1.0000 0.75387  0.35077  0.49595  Biso   1.000  O 
  O48      1.0000 0.74704  0.39908  0.74705  Biso   1.000  O 
  Hf25     1.0000 0.62492  0.50692  0.12490  Biso   1.000  Hf
  Hf26     1.0000 0.62491  0.75005  0.37773  Biso   1.000  Hf
  Hf27     1.0000 0.86796  0.75006  0.12491  Biso   1.000  Hf
  Hf28     1.0000 0.87503  0.49248  0.37479  Biso   1.000  Hf
  O49      1.0000 0.50417  0.64702  0.99893  Biso   1.000  O 
  O50      1.0000 0.49531  0.60389  0.24667  Biso   1.000  O 
  O51      1.0000 0.50417  0.85308  0.25088  Biso   1.000  O 
  O52      1.0000 0.49531  0.89621  0.00315  Biso   1.000  O 
  O53      1.0000 0.74567  0.64703  0.25089  Biso   1.000  O 
  O54      1.0000 0.75452  0.60391  0.00314  Biso   1.000  O 
  O55      1.0000 0.74567  0.85307  0.99893  Biso   1.000  O 
  O56      1.0000 0.75452  0.89620  0.24667  Biso   1.000  O 
  Hf29     1.0000 0.62492  0.50200  0.62491  Biso   1.000  Hf
  Hf30     1.0000 0.62491  0.75005  0.87208  Biso   1.000  Hf
  Hf31     1.0000 0.87209  0.75006  0.62491  Biso   1.000  Hf
  Hf32     1.0000 0.87780  0.49635  0.87780  Biso   1.000  Hf
  O57      1.0000 0.49786  0.64856  0.49785  Biso   1.000  O 
  O58      1.0000 0.50085  0.60117  0.74897  Biso   1.000  O 
  O59      1.0000 0.49785  0.85153  0.75196  Biso   1.000  O 
  O60      1.0000 0.50085  0.89893  0.50085  Biso   1.000  O 
  O61      1.0000 0.75197  0.64856  0.75197  Biso   1.000  O 
  O62      1.0000 0.74897  0.60118  0.50084  Biso   1.000  O 
  O63      1.0000 0.75197  0.85154  0.49785  Biso   1.000  O 
  O64      1.0000 0.74897  0.89891  0.74897  Biso   1.000  O 
  Y1       1.0000 0.12489  0.25005  0.12490  Biso   1.000  Y 
