data_image0
_cell_length_a       10.0195
_cell_length_b       10.3679
_cell_length_c       5.02678
_cell_angle_alpha    90
_cell_angle_beta     90
_cell_angle_gamma    90

_symmetry_space_group_name_H-M    "P 1"
_symmetry_int_tables_number       1

loop_
  _symmetry_equiv_pos_as_xyz
  'x, y, z'

loop_
  _atom_site_label
  _atom_site_occupancy
  _atom_site_fract_x
  _atom_site_fract_y
  _atom_site_fract_z
  _atom_site_thermal_displace_type
  _atom_site_B_iso_or_equiv
  _atom_site_type_symbol
  Y1       1.0000 0.13012  0.01252  0.24780  Biso   1.000  Y 
  Hf1      1.0000 0.13329  0.23315  0.74879  Biso   1.000  Hf
  Hf2      1.0000 0.36382  0.26460  0.25177  Biso   1.000  Hf
  Hf3      1.0000 0.36351  0.48153  0.75155  Biso   1.000  Hf
  O1       1.0000 0.03198  0.19428  0.39137  Biso   1.000  O 
  O2       1.0000 0.03030  0.06950  0.85836  Biso   1.000  O 
  O3       1.0000 0.46411  0.43217  0.39201  Biso   1.000  O 
  O4       1.0000 0.46345  0.31552  0.88936  Biso   1.000  O 
  O5       1.0000 0.27618  0.12321  0.50474  Biso   1.000  O 
  O6       1.0000 0.27170  0.13316  0.99249  Biso   1.000  O 
  O7       1.0000 0.22799  0.38164  0.99876  Biso   1.000  O 
  O8       1.0000 0.22773  0.36867  0.49698  Biso   1.000  O 
  Hf4      1.0000 0.13364  0.51599  0.25126  Biso   1.000  Hf
  Hf5      1.0000 0.13465  0.73280  0.75339  Biso   1.000  Hf
  Hf6      1.0000 0.36615  0.76527  0.24950  Biso   1.000  Hf
  Hf7      1.0000 0.36356  0.98285  0.74873  Biso   1.000  Hf
  O9       1.0000 0.03448  0.68378  0.39171  Biso   1.000  O 
  O10      1.0000 0.03278  0.56636  0.89123  Biso   1.000  O 
  O11      1.0000 0.46305  0.93426  0.38665  Biso   1.000  O 
  O12      1.0000 0.46726  0.81625  0.89401  Biso   1.000  O 
  O13      1.0000 0.26885  0.61462  0.49840  Biso   1.000  O 
  O14      1.0000 0.26846  0.62900  0.99918  Biso   1.000  O 
  O15      1.0000 0.23425  0.87493  0.98951  Biso   1.000  O 
  O16      1.0000 0.23529  0.86010  0.50300  Biso   1.000  O 
  Hf8      1.0000 0.63300  0.01569  0.25017  Biso   1.000  Hf
  Hf9      1.0000 0.63191  0.23235  0.74998  Biso   1.000  Hf
  Hf10     1.0000 0.86350  0.26713  0.25095  Biso   1.000  Hf
  Hf11     1.0000 0.86366  0.48302  0.75399  Biso   1.000  Hf
  O17      1.0000 0.53632  0.18412  0.38498  Biso   1.000  O 
  O18      1.0000 0.53520  0.06450  0.88586  Biso   1.000  O 
  O19      1.0000 0.96202  0.43729  0.39114  Biso   1.000  O 
  O20      1.0000 0.96307  0.31844  0.89396  Biso   1.000  O 
  O21      1.0000 0.76774  0.11661  0.49919  Biso   1.000  O 
  O22      1.0000 0.76741  0.13208  0.99953  Biso   1.000  O 
  O23      1.0000 0.72633  0.38183  0.99781  Biso   1.000  O 
  O24      1.0000 0.72859  0.36707  0.49964  Biso   1.000  O 
  Hf12     1.0000 0.63252  0.51503  0.25195  Biso   1.000  Hf
  Hf13     1.0000 0.63201  0.73155  0.75356  Biso   1.000  Hf
  Hf14     1.0000 0.86275  0.76553  0.25568  Biso   1.000  Hf
  Hf15     1.0000 0.86092  0.98125  0.75159  Biso   1.000  Hf
  O25      1.0000 0.53411  0.68115  0.39264  Biso   1.000  O 
  O26      1.0000 0.53197  0.56485  0.89306  Biso   1.000  O 
  O27      1.0000 0.95021  0.92877  0.40106  Biso   1.000  O 
  O28      1.0000 0.96603  0.81721  0.90196  Biso   1.000  O 
  O29      1.0000 0.76867  0.61617  0.49911  Biso   1.000  O 
  O30      1.0000 0.76718  0.62996  0.99862  Biso   1.000  O 
  O31      1.0000 0.73019  0.88070  0.00255  Biso   1.000  O 
  O32      1.0000 0.72102  0.86538  0.50161  Biso   1.000  O 
