data_image0
_cell_length_a       10.0681
_cell_length_b       5.16954
_cell_length_c       10.6216
_cell_angle_alpha    90
_cell_angle_beta     90
_cell_angle_gamma    90

_symmetry_space_group_name_H-M    "P 1"
_symmetry_int_tables_number       1

loop_
  _symmetry_equiv_pos_as_xyz
  'x, y, z'

loop_
  _atom_site_label
  _atom_site_occupancy
  _atom_site_fract_x
  _atom_site_fract_y
  _atom_site_fract_z
  _atom_site_thermal_displace_type
  _atom_site_B_iso_or_equiv
  _atom_site_type_symbol
  Hf1      1.0000 0.13233  0.04508  0.17678  Biso   1.000  Hf
  Hf2      1.0000 0.12540  0.45581  0.42743  Biso   1.000  Hf
  Hf3      1.0000 0.34124  0.55016  0.18824  Biso   1.000  Hf
  Hf4      1.0000 0.34625  0.95725  0.42903  Biso   1.000  Hf
  Hf5      1.0000 0.64258  0.06013  0.08246  Biso   1.000  Hf
  Hf6      1.0000 0.62681  0.45834  0.33226  Biso   1.000  Hf
  Hf7      1.0000 0.86517  0.54563  0.07707  Biso   1.000  Hf
  Hf8      1.0000 0.84951  0.96005  0.32600  Biso   1.000  Hf
  O1       1.0000 0.02855  0.32136  0.08240  Biso   1.000  O 
  O2       1.0000 0.01977  0.17706  0.33544  Biso   1.000  O 
  O3       1.0000 0.45231  0.86687  0.10332  Biso   1.000  O 
  O4       1.0000 0.45432  0.67083  0.34077  Biso   1.000  O 
  O5       1.0000 0.26182  0.25254  0.30328  Biso   1.000  O 
  O6       1.0000 0.26964  0.25051  0.05218  Biso   1.000  O 
  O7       1.0000 0.20769  0.75502  0.30674  Biso   1.000  O 
  O8       1.0000 0.21188  0.75574  0.05564  Biso   1.000  O 
  O9       1.0000 0.51604  0.32275  0.18151  Biso   1.000  O 
  O10      1.0000 0.51840  0.17051  0.41889  Biso   1.000  O 
  O11      1.0000 0.95860  0.83253  0.17271  Biso   1.000  O 
  O12      1.0000 0.95723  0.67869  0.42128  Biso   1.000  O 
  O13      1.0000 0.76277  0.25226  0.45097  Biso   1.000  O 
  O14      1.0000 0.77430  0.25423  0.20666  Biso   1.000  O 
  O15      1.0000 0.71226  0.75182  0.45131  Biso   1.000  O 
  O16      1.0000 0.70989  0.73858  0.20015  Biso   1.000  O 
  Hf9      1.0000 0.12324  0.04781  0.67736  Biso   1.000  Hf
  Hf10     1.0000 0.11485  0.47405  0.92599  Biso   1.000  Hf
  Hf11     1.0000 0.34150  0.54810  0.67713  Biso   1.000  Hf
  Hf12     1.0000 0.32946  0.97475  0.93158  Biso   1.000  Hf
  Hf13     1.0000 0.62631  0.03676  0.56972  Biso   1.000  Hf
  Hf14     1.0000 0.62629  0.45509  0.78977  Biso   1.000  Hf
  Hf15     1.0000 0.85291  0.54899  0.57469  Biso   1.000  Hf
  Hf16     1.0000 0.84211  0.97492  0.82883  Biso   1.000  Hf
  O17      1.0000 0.01834  0.32877  0.58386  Biso   1.000  O 
  O18      1.0000 0.01108  0.18843  0.83334  Biso   1.000  O 
  O19      1.0000 0.45568  0.81649  0.58138  Biso   1.000  O 
  O20      1.0000 0.45568  0.68001  0.82841  Biso   1.000  O 
  O21      1.0000 0.25336  0.26187  0.79968  Biso   1.000  O 
  O22      1.0000 0.26101  0.25159  0.55016  Biso   1.000  O 
  O23      1.0000 0.20341  0.75657  0.80251  Biso   1.000  O 
  O24      1.0000 0.20887  0.75384  0.55367  Biso   1.000  O 
  O25      1.0000 0.50703  0.30718  0.66094  Biso   1.000  O 
  O26      1.0000 0.50167  0.18367  0.92178  Biso   1.000  O 
  O27      1.0000 0.95321  0.82904  0.67351  Biso   1.000  O 
  O28      1.0000 0.94348  0.68720  0.92008  Biso   1.000  O 
  O29      1.0000 0.73716  0.30197  0.94516  Biso   1.000  O 
  O30      1.0000 0.76690  0.24001  0.69025  Biso   1.000  O 
  O31      1.0000 0.70591  0.80479  0.95676  Biso   1.000  O 
  O32      1.0000 0.71305  0.75444  0.69775  Biso   1.000  O 
  Y1       1.0000 0.56542  0.55337  0.01807  Biso   1.000  Y 
