data_image0
_cell_length_a       10.0374
_cell_length_b       10.3995
_cell_length_c       10.0846
_cell_angle_alpha    90
_cell_angle_beta     90
_cell_angle_gamma    90

_symmetry_space_group_name_H-M    "P 1"
_symmetry_int_tables_number       1

loop_
  _symmetry_equiv_pos_as_xyz
  'x, y, z'

loop_
  _atom_site_label
  _atom_site_occupancy
  _atom_site_fract_x
  _atom_site_fract_y
  _atom_site_fract_z
  _atom_site_thermal_displace_type
  _atom_site_B_iso_or_equiv
  _atom_site_type_symbol
  Hf1      1.0000 0.13317  0.98719  0.11529  Biso   1.000  Hf
  Hf2      1.0000 0.12596  0.23046  0.39205  Biso   1.000  Hf
  Hf3      1.0000 0.37837  0.27309  0.11632  Biso   1.000  Hf
  Hf4      1.0000 0.36560  0.48589  0.37367  Biso   1.000  Hf
  O1       1.0000 0.97220  0.16773  0.26018  Biso   1.000  O 
  O2       1.0000 0.03481  0.06375  0.46444  Biso   1.000  O 
  O3       1.0000 0.46788  0.43776  0.19499  Biso   1.000  O 
  O4       1.0000 0.46589  0.32204  0.44662  Biso   1.000  O 
  O5       1.0000 0.23836  0.11134  0.24588  Biso   1.000  O 
  O6       1.0000 0.27470  0.13351  0.49802  Biso   1.000  O 
  O7       1.0000 0.23249  0.38666  0.49914  Biso   1.000  O 
  O8       1.0000 0.23516  0.36807  0.25073  Biso   1.000  O 
  Hf5      1.0000 0.13638  0.01151  0.62742  Biso   1.000  Hf
  Hf6      1.0000 0.13327  0.23889  0.85122  Biso   1.000  Hf
  Hf7      1.0000 0.37094  0.26998  0.62104  Biso   1.000  Hf
  Hf8      1.0000 0.36649  0.49038  0.87097  Biso   1.000  Hf
  O9       1.0000 0.02952  0.17778  0.69238  Biso   1.000  O 
  O10      1.0000 0.02729  0.07778  0.95760  Biso   1.000  O 
  O11      1.0000 0.46849  0.43676  0.69455  Biso   1.000  O 
  O12      1.0000 0.46569  0.32374  0.93951  Biso   1.000  O 
  O13      1.0000 0.26988  0.11881  0.74436  Biso   1.000  O 
  O14      1.0000 0.26362  0.13867  0.99444  Biso   1.000  O 
  O15      1.0000 0.23043  0.39488  0.99367  Biso   1.000  O 
  O16      1.0000 0.23639  0.37126  0.74280  Biso   1.000  O 
  Hf9      1.0000 0.13599  0.52947  0.12408  Biso   1.000  Hf
  Hf10     1.0000 0.13181  0.73601  0.37735  Biso   1.000  Hf
  Hf11     1.0000 0.37172  0.76262  0.12249  Biso   1.000  Hf
  Hf12     1.0000 0.36129  0.98917  0.36993  Biso   1.000  Hf
  O17      1.0000 0.03174  0.68325  0.20070  Biso   1.000  O 
  O18      1.0000 0.03363  0.57082  0.44546  Biso   1.000  O 
  O19      1.0000 0.45700  0.93437  0.19259  Biso   1.000  O 
  O20      1.0000 0.46581  0.82263  0.44348  Biso   1.000  O 
  O21      1.0000 0.27355  0.61937  0.24713  Biso   1.000  O 
  O22      1.0000 0.26902  0.63584  0.49713  Biso   1.000  O 
  O23      1.0000 0.23165  0.88574  0.49560  Biso   1.000  O 
  O24      1.0000 0.23256  0.85850  0.24618  Biso   1.000  O 
  Hf13     1.0000 0.13183  0.51737  0.62200  Biso   1.000  Hf
  Hf14     1.0000 0.13004  0.73617  0.86857  Biso   1.000  Hf
  Hf15     1.0000 0.36904  0.76845  0.62052  Biso   1.000  Hf
  Hf16     1.0000 0.36668  0.98833  0.87183  Biso   1.000  Hf
  O25      1.0000 0.03329  0.68424  0.69239  Biso   1.000  O 
  O26      1.0000 0.03094  0.57535  0.94753  Biso   1.000  O 
  O27      1.0000 0.46689  0.93577  0.69582  Biso   1.000  O 
  O28      1.0000 0.47089  0.82488  0.94719  Biso   1.000  O 
  O29      1.0000 0.26741  0.61828  0.74501  Biso   1.000  O 
  O30      1.0000 0.26744  0.64080  0.99450  Biso   1.000  O 
  O31      1.0000 0.23578  0.88192  0.99060  Biso   1.000  O 
  O32      1.0000 0.23461  0.86609  0.74568  Biso   1.000  O 
  Hf17     1.0000 0.62638  0.00975  0.12097  Biso   1.000  Hf
  Hf18     1.0000 0.62823  0.23219  0.37715  Biso   1.000  Hf
  Hf19     1.0000 0.83944  0.26092  0.12812  Biso   1.000  Hf
  Hf20     1.0000 0.86752  0.48283  0.37416  Biso   1.000  Hf
  O33      1.0000 0.52223  0.17629  0.20469  Biso   1.000  O 
  O34      1.0000 0.53030  0.06877  0.44960  Biso   1.000  O 
  O35      1.0000 0.96893  0.42395  0.19556  Biso   1.000  O 
  O36      1.0000 0.96954  0.32969  0.46374  Biso   1.000  O 
  O37      1.0000 0.74355  0.10960  0.24826  Biso   1.000  O 
  O38      1.0000 0.76953  0.14004  0.49689  Biso   1.000  O 
  O39      1.0000 0.73113  0.38687  0.50049  Biso   1.000  O 
  O40      1.0000 0.72322  0.37092  0.25415  Biso   1.000  O 
  Hf21     1.0000 0.63561  0.01697  0.62216  Biso   1.000  Hf
  Hf22     1.0000 0.63245  0.23670  0.87087  Biso   1.000  Hf
  Hf23     1.0000 0.86253  0.27053  0.62724  Biso   1.000  Hf
  Hf24     1.0000 0.86572  0.48421  0.87882  Biso   1.000  Hf
  O41      1.0000 0.53683  0.18601  0.69384  Biso   1.000  O 
  O42      1.0000 0.52934  0.07531  0.94563  Biso   1.000  O 
  O43      1.0000 0.97122  0.43143  0.70710  Biso   1.000  O 
  O44      1.0000 0.96014  0.31793  0.94694  Biso   1.000  O 
  O45      1.0000 0.76967  0.11819  0.74824  Biso   1.000  O 
  O46      1.0000 0.76199  0.13272  0.99685  Biso   1.000  O 
  O47      1.0000 0.72101  0.38748  0.99912  Biso   1.000  O 
  O48      1.0000 0.73080  0.37095  0.75000  Biso   1.000  O 
  Hf25     1.0000 0.63438  0.52020  0.12592  Biso   1.000  Hf
  Hf26     1.0000 0.63530  0.73843  0.37661  Biso   1.000  Hf
  Hf27     1.0000 0.86284  0.76457  0.12686  Biso   1.000  Hf
  Hf28     1.0000 0.87316  0.99879  0.36542  Biso   1.000  Hf
  O49      1.0000 0.53867  0.68671  0.19636  Biso   1.000  O 
  O50      1.0000 0.53405  0.57185  0.44570  Biso   1.000  O 
  O51      1.0000 0.96360  0.92808  0.19645  Biso   1.000  O 
  O52      1.0000 0.96649  0.82374  0.44635  Biso   1.000  O 
  O53      1.0000 0.77140  0.61703  0.24903  Biso   1.000  O 
  O54      1.0000 0.77035  0.63694  0.49795  Biso   1.000  O 
  O55      1.0000 0.73312  0.88984  0.49603  Biso   1.000  O 
  O56      1.0000 0.72849  0.86583  0.24607  Biso   1.000  O 
  Hf29     1.0000 0.63513  0.52037  0.62337  Biso   1.000  Hf
  Hf30     1.0000 0.63473  0.73683  0.87272  Biso   1.000  Hf
  Hf31     1.0000 0.86617  0.77145  0.62144  Biso   1.000  Hf
  Hf32     1.0000 0.86589  0.98753  0.87699  Biso   1.000  Hf
  O57      1.0000 0.53495  0.68652  0.69542  Biso   1.000  O 
  O58      1.0000 0.53129  0.57495  0.94772  Biso   1.000  O 
  O59      1.0000 0.97108  0.92947  0.70761  Biso   1.000  O 
  O60      1.0000 0.97256  0.82603  0.95589  Biso   1.000  O 
  O61      1.0000 0.77059  0.61866  0.74834  Biso   1.000  O 
  O62      1.0000 0.76845  0.63668  0.99818  Biso   1.000  O 
  O63      1.0000 0.73122  0.88520  0.99696  Biso   1.000  O 
  O64      1.0000 0.73161  0.86936  0.74699  Biso   1.000  O 
  Y1       1.0000 0.10708  0.25452  0.11498  Biso   1.000  Y 
