data_image0
_cell_length_a       5.11636
_cell_length_b       10.3978
_cell_length_c       10.1329
_cell_angle_alpha    90
_cell_angle_beta     90
_cell_angle_gamma    90

_symmetry_space_group_name_H-M    "P 1"
_symmetry_int_tables_number       1

loop_
  _symmetry_equiv_pos_as_xyz
  'x, y, z'

loop_
  _atom_site_label
  _atom_site_occupancy
  _atom_site_fract_x
  _atom_site_fract_y
  _atom_site_fract_z
  _atom_site_thermal_displace_type
  _atom_site_B_iso_or_equiv
  _atom_site_type_symbol
  Hf1      1.0000 0.14515  0.97317  0.08278  Biso   1.000  Hf
  Hf2      1.0000 0.19733  0.23286  0.38928  Biso   1.000  Hf
  Hf3      1.0000 0.64488  0.26742  0.11772  Biso   1.000  Hf
  Hf4      1.0000 0.68282  0.48259  0.36918  Biso   1.000  Hf
  O1       1.0000 0.87424  0.18224  0.26430  Biso   1.000  O 
  O2       1.0000 0.01965  0.06872  0.46631  Biso   1.000  O 
  O3       1.0000 0.88448  0.42627  0.19692  Biso   1.000  O 
  O4       1.0000 0.89312  0.33261  0.46919  Biso   1.000  O 
  O5       1.0000 0.40224  0.11450  0.23152  Biso   1.000  O 
  O6       1.0000 0.49953  0.13237  0.48578  Biso   1.000  O 
  O7       1.0000 0.41010  0.38491  0.49631  Biso   1.000  O 
  O8       1.0000 0.39451  0.37177  0.25010  Biso   1.000  O 
  Hf5      1.0000 0.13853  0.97496  0.58988  Biso   1.000  Hf
  Hf6      1.0000 0.17456  0.24254  0.83735  Biso   1.000  Hf
  Hf7      1.0000 0.66457  0.26494  0.61735  Biso   1.000  Hf
  Hf8      1.0000 0.67958  0.48259  0.87807  Biso   1.000  Hf
  O9       1.0000 0.90509  0.15717  0.72505  Biso   1.000  O 
  O10      1.0000 0.99107  0.07894  0.96862  Biso   1.000  O 
  O11      1.0000 0.92562  0.40663  0.71951  Biso   1.000  O 
  O12      1.0000 0.86012  0.31975  0.95059  Biso   1.000  O 
  O13      1.0000 0.41775  0.11035  0.72944  Biso   1.000  O 
  O14      1.0000 0.45631  0.13742  0.97923  Biso   1.000  O 
  O15      1.0000 0.39164  0.39269  0.99518  Biso   1.000  O 
  O16      1.0000 0.43058  0.36643  0.74328  Biso   1.000  O 
  Hf9      1.0000 0.20999  0.53069  0.12593  Biso   1.000  Hf
  Hf10     1.0000 0.21813  0.73212  0.37641  Biso   1.000  Hf
  Hf11     1.0000 0.67637  0.76753  0.12688  Biso   1.000  Hf
  Hf12     1.0000 0.70909  0.01861  0.33722  Biso   1.000  Hf
  O17      1.0000 0.99189  0.67898  0.21427  Biso   1.000  O 
  O18      1.0000 0.00670  0.57033  0.45160  Biso   1.000  O 
  O19      1.0000 0.84456  0.92964  0.21261  Biso   1.000  O 
  O20      1.0000 0.95305  0.81855  0.49346  Biso   1.000  O 
  O21      1.0000 0.48704  0.62083  0.24914  Biso   1.000  O 
  O22      1.0000 0.48220  0.63200  0.49716  Biso   1.000  O 
  O23      1.0000 0.43699  0.88276  0.48193  Biso   1.000  O 
  O24      1.0000 0.37203  0.86358  0.23202  Biso   1.000  O 
  Hf13     1.0000 0.20316  0.51300  0.62190  Biso   1.000  Hf
  Hf14     1.0000 0.20958  0.72815  0.87044  Biso   1.000  Hf
  Hf15     1.0000 0.67298  0.76021  0.62726  Biso   1.000  Hf
  Hf16     1.0000 0.71293  0.01602  0.83918  Biso   1.000  Hf
  O25      1.0000 0.98435  0.66319  0.71030  Biso   1.000  O 
  O26      1.0000 0.99931  0.57196  0.95555  Biso   1.000  O 
  O27      1.0000 0.85067  0.91504  0.72242  Biso   1.000  O 
  O28      1.0000 0.94996  0.81947  0.98795  Biso   1.000  O 
  O29      1.0000 0.47200  0.60897  0.74617  Biso   1.000  O 
  O30      1.0000 0.47941  0.63703  0.99560  Biso   1.000  O 
  O31      1.0000 0.43819  0.88189  0.97857  Biso   1.000  O 
  O32      1.0000 0.37229  0.85724  0.73113  Biso   1.000  O 
  Y1       1.0000 0.14701  0.25071  0.10914  Biso   1.000  Y 
