data_image0
_cell_length_a       10.0821
_cell_length_b       10.3202
_cell_length_c       5.13625
_cell_angle_alpha    90
_cell_angle_beta     90
_cell_angle_gamma    90

_symmetry_space_group_name_H-M    "P 1"
_symmetry_int_tables_number       1

loop_
  _symmetry_equiv_pos_as_xyz
  'x, y, z'

loop_
  _atom_site_label
  _atom_site_occupancy
  _atom_site_fract_x
  _atom_site_fract_y
  _atom_site_fract_z
  _atom_site_thermal_displace_type
  _atom_site_B_iso_or_equiv
  _atom_site_type_symbol
  Hf1      1.0000 0.16326  0.95696  0.26371  Biso   1.000  Hf
  Hf2      1.0000 0.13816  0.22149  0.70890  Biso   1.000  Hf
  Hf3      1.0000 0.41721  0.25242  0.28916  Biso   1.000  Hf
  Hf4      1.0000 0.37952  0.98713  0.71769  Biso   1.000  Hf
  O1       1.0000 0.97350  0.15053  0.93013  Biso   1.000  O 
  O2       1.0000 0.00907  0.09703  0.44528  Biso   1.000  O 
  O3       1.0000 0.01159  0.35282  0.48017  Biso   1.000  O 
  O4       1.0000 0.05330  0.38227  0.97174  Biso   1.000  O 
  O5       1.0000 0.27008  0.10628  0.44276  Biso   1.000  O 
  O6       1.0000 0.21600  0.04124  0.93258  Biso   1.000  O 
  O7       1.0000 0.30246  0.28567  0.93490  Biso   1.000  O 
  O8       1.0000 0.26490  0.36700  0.47275  Biso   1.000  O 
  Hf5      1.0000 0.12378  0.51357  0.29820  Biso   1.000  Hf
  Hf6      1.0000 0.12265  0.73779  0.76152  Biso   1.000  Hf
  Hf7      1.0000 0.37998  0.70977  0.30164  Biso   1.000  Hf
  Hf8      1.0000 0.38424  0.46000  0.77974  Biso   1.000  Hf
  O9       1.0000 0.02364  0.65334  0.05274  Biso   1.000  O 
  O10      1.0000 0.99886  0.60837  0.55371  Biso   1.000  O 
  O11      1.0000 0.02033  0.85120  0.49555  Biso   1.000  O 
  O12      1.0000 0.01276  0.88009  0.99375  Biso   1.000  O 
  O13      1.0000 0.25938  0.61154  0.58545  Biso   1.000  O 
  O14      1.0000 0.28701  0.56018  0.09806  Biso   1.000  O 
  O15      1.0000 0.25193  0.80915  0.05953  Biso   1.000  O 
  O16      1.0000 0.27273  0.85459  0.54469  Biso   1.000  O 
  Hf9      1.0000 0.63174  0.97936  0.21057  Biso   1.000  Hf
  Hf10     1.0000 0.62605  0.22131  0.80483  Biso   1.000  Hf
  Hf11     1.0000 0.85562  0.24964  0.26344  Biso   1.000  Hf
  Hf12     1.0000 0.88047  0.00400  0.72721  Biso   1.000  Hf
  O17      1.0000 0.49015  0.12919  0.00478  Biso   1.000  O 
  O18      1.0000 0.52143  0.09643  0.50670  Biso   1.000  O 
  O19      1.0000 0.51778  0.34051  0.57991  Biso   1.000  O 
  O20      1.0000 0.52346  0.38722  0.07106  Biso   1.000  O 
  O21      1.0000 0.77123  0.16321  0.56878  Biso   1.000  O 
  O22      1.0000 0.74038  0.11176  0.04147  Biso   1.000  O 
  O23      1.0000 0.77117  0.34336  0.98153  Biso   1.000  O 
  O24      1.0000 0.77581  0.41661  0.46850  Biso   1.000  O 
  Hf13     1.0000 0.65784  0.51915  0.22621  Biso   1.000  Hf
  Hf14     1.0000 0.62359  0.72234  0.74643  Biso   1.000  Hf
  Hf15     1.0000 0.87833  0.77269  0.22546  Biso   1.000  Hf
  Hf16     1.0000 0.90481  0.46837  0.76476  Biso   1.000  Hf
  O25      1.0000 0.51490  0.63918  0.00710  Biso   1.000  O 
  O26      1.0000 0.51018  0.58314  0.50991  Biso   1.000  O 
  O27      1.0000 0.52301  0.84261  0.45648  Biso   1.000  O 
  O28      1.0000 0.50938  0.86067  0.94802  Biso   1.000  O 
  O29      1.0000 0.74150  0.67486  0.43152  Biso   1.000  O 
  O30      1.0000 0.76886  0.59230  0.94589  Biso   1.000  O 
  O31      1.0000 0.75961  0.83717  0.95327  Biso   1.000  O 
  O32      1.0000 0.78568  0.92302  0.44027  Biso   1.000  O 
  Y1       1.0000 0.13838  0.23676  0.20348  Biso   1.000  Y 
