data_image0
_cell_length_a       5.13624
_cell_length_b       10.3202
_cell_length_c       10.0821
_cell_angle_alpha    90
_cell_angle_beta     90
_cell_angle_gamma    90

_symmetry_space_group_name_H-M    "P 1"
_symmetry_int_tables_number       1

loop_
  _symmetry_equiv_pos_as_xyz
  'x, y, z'

loop_
  _atom_site_label
  _atom_site_occupancy
  _atom_site_fract_x
  _atom_site_fract_y
  _atom_site_fract_z
  _atom_site_thermal_displace_type
  _atom_site_B_iso_or_equiv
  _atom_site_type_symbol
  Hf1      1.0000 0.15846  0.96626  0.13863  Biso   1.000  Hf
  Hf2      1.0000 0.26275  0.26986  0.41019  Biso   1.000  Hf
  Hf3      1.0000 0.68407  0.24369  0.13126  Biso   1.000  Hf
  Hf4      1.0000 0.71976  0.01584  0.37843  Biso   1.000  Hf
  O1       1.0000 0.91636  0.19915  0.96772  Biso   1.000  O 
  O2       1.0000 0.92764  0.07176  0.21320  Biso   1.000  O 
  O3       1.0000 0.90337  0.31790  0.29348  Biso   1.000  O 
  O4       1.0000 0.92837  0.40931  0.04192  Biso   1.000  O 
  O5       1.0000 0.43162  0.12461  0.26651  Biso   1.000  O 
  O6       1.0000 0.43403  0.10914  0.00580  Biso   1.000  O 
  O7       1.0000 0.44063  0.36547  0.00183  Biso   1.000  O 
  O8       1.0000 0.43277  0.38555  0.25470  Biso   1.000  O 
  Hf5      1.0000 0.10493  0.99852  0.60650  Biso   1.000  Hf
  Hf6      1.0000 0.23924  0.27699  0.84859  Biso   1.000  Hf
  Hf7      1.0000 0.78196  0.25794  0.61881  Biso   1.000  Hf
  Hf8      1.0000 0.72953  0.04507  0.87879  Biso   1.000  Hf
  O9       1.0000 0.99273  0.14085  0.48673  Biso   1.000  O 
  O10      1.0000 0.03233  0.13050  0.73726  Biso   1.000  O 
  O11      1.0000 0.94554  0.38812  0.76051  Biso   1.000  O 
  O12      1.0000 0.03057  0.40101  0.51342  Biso   1.000  O 
  O13      1.0000 0.55329  0.19701  0.76583  Biso   1.000  O 
  O14      1.0000 0.49764  0.12261  0.51792  Biso   1.000  O 
  O15      1.0000 0.54378  0.36815  0.50798  Biso   1.000  O 
  O16      1.0000 0.42523  0.44733  0.76422  Biso   1.000  O 
  Hf9      1.0000 0.24168  0.52367  0.11026  Biso   1.000  Hf
  Hf10     1.0000 0.22456  0.72581  0.36143  Biso   1.000  Hf
  Hf11     1.0000 0.67954  0.76011  0.10264  Biso   1.000  Hf
  Hf12     1.0000 0.72954  0.48966  0.37113  Biso   1.000  Hf
  O17      1.0000 0.98069  0.65404  0.00706  Biso   1.000  O 
  O18      1.0000 0.03742  0.56869  0.27263  Biso   1.000  O 
  O19      1.0000 0.97130  0.81529  0.23135  Biso   1.000  O 
  O20      1.0000 0.89950  0.93005  0.98848  Biso   1.000  O 
  O21      1.0000 0.51829  0.63260  0.24281  Biso   1.000  O 
  O22      1.0000 0.49001  0.64649  0.98220  Biso   1.000  O 
  O23      1.0000 0.40526  0.88780  0.99768  Biso   1.000  O 
  O24      1.0000 0.45080  0.87441  0.25013  Biso   1.000  O 
  Hf13     1.0000 0.17146  0.54020  0.64415  Biso   1.000  Hf
  Hf14     1.0000 0.14371  0.79860  0.85819  Biso   1.000  Hf
  Hf15     1.0000 0.66834  0.75641  0.60384  Biso   1.000  Hf
  Hf16     1.0000 0.71585  0.51021  0.89134  Biso   1.000  Hf
  O25      1.0000 0.93882  0.65057  0.49862  Biso   1.000  O 
  O26      1.0000 0.88244  0.63555  0.75199  Biso   1.000  O 
  O27      1.0000 0.86280  0.87995  0.73654  Biso   1.000  O 
  O28      1.0000 0.85387  0.89721  0.48582  Biso   1.000  O 
  O29      1.0000 0.35962  0.70327  0.72347  Biso   1.000  O 
  O30      1.0000 0.44704  0.60827  0.49440  Biso   1.000  O 
  O31      1.0000 0.36512  0.86610  0.50078  Biso   1.000  O 
  O32      1.0000 0.34121  0.95229  0.76138  Biso   1.000  O 
  Y1       1.0000 0.17773  0.24514  0.13201  Biso   1.000  Y 
