data_image0
_cell_length_a       10.1546
_cell_length_b       10.28
_cell_length_c       10.462
_cell_angle_alpha    90
_cell_angle_beta     80
_cell_angle_gamma    90

_symmetry_space_group_name_H-M    "P 1"
_symmetry_int_tables_number       1

loop_
  _symmetry_equiv_pos_as_xyz
  'x, y, z'

loop_
  _atom_site_label
  _atom_site_occupancy
  _atom_site_fract_x
  _atom_site_fract_y
  _atom_site_fract_z
  _atom_site_thermal_displace_type
  _atom_site_B_iso_or_equiv
  _atom_site_type_symbol
  Y1       1.0000 0.13873  0.01784  0.14519  Biso   1.000  Y 
  Hf1      1.0000 0.13724  0.22781  0.39668  Biso   1.000  Hf
  Hf2      1.0000 0.35911  0.26934  0.10440  Biso   1.000  Hf
  Hf3      1.0000 0.35778  0.47768  0.35370  Biso   1.000  Hf
  O1       1.0000 0.03334  0.17833  0.07688  Biso   1.000  O 
  O2       1.0000 0.02760  0.08399  0.34001  Biso   1.000  O 
  O3       1.0000 0.46361  0.41648  0.17118  Biso   1.000  O 
  O4       1.0000 0.46236  0.33172  0.42108  Biso   1.000  O 
  O5       1.0000 0.28084  0.13326  0.24679  Biso   1.000  O 
  O6       1.0000 0.27324  0.12043  0.49290  Biso   1.000  O 
  O7       1.0000 0.22380  0.37925  0.00891  Biso   1.000  O 
  O8       1.0000 0.22003  0.37158  0.25920  Biso   1.000  O 
  Hf4      1.0000 0.13643  0.02132  0.64658  Biso   1.000  Hf
  Hf5      1.0000 0.13433  0.22944  0.89683  Biso   1.000  Hf
  Hf6      1.0000 0.35739  0.27075  0.60473  Biso   1.000  Hf
  Hf7      1.0000 0.35708  0.47804  0.85487  Biso   1.000  Hf
  O9       1.0000 0.03309  0.17106  0.58376  Biso   1.000  O 
  O10      1.0000 0.03202  0.08023  0.83179  Biso   1.000  O 
  O11      1.0000 0.46194  0.41731  0.67103  Biso   1.000  O 
  O12      1.0000 0.46237  0.33359  0.92152  Biso   1.000  O 
  O13      1.0000 0.27258  0.12864  0.74028  Biso   1.000  O 
  O14      1.0000 0.27766  0.12520  0.98521  Biso   1.000  O 
  O15      1.0000 0.22119  0.37901  0.50994  Biso   1.000  O 
  O16      1.0000 0.22032  0.37171  0.75964  Biso   1.000  O 
  Hf8      1.0000 0.13790  0.52077  0.14517  Biso   1.000  Hf
  Hf9      1.0000 0.13745  0.72774  0.39614  Biso   1.000  Hf
  Hf10     1.0000 0.36135  0.76993  0.10360  Biso   1.000  Hf
  Hf11     1.0000 0.35804  0.97922  0.35453  Biso   1.000  Hf
  O17      1.0000 0.03419  0.66884  0.07956  Biso   1.000  O 
  O18      1.0000 0.03238  0.58237  0.32953  Biso   1.000  O 
  O19      1.0000 0.46336  0.91886  0.16969  Biso   1.000  O 
  O20      1.0000 0.46173  0.83197  0.42204  Biso   1.000  O 
  O21      1.0000 0.27469  0.62572  0.23963  Biso   1.000  O 
  O22      1.0000 0.27321  0.62071  0.49072  Biso   1.000  O 
  O23      1.0000 0.23077  0.87124  0.00226  Biso   1.000  O 
  O24      1.0000 0.22857  0.86427  0.26261  Biso   1.000  O 
  Hf12     1.0000 0.13567  0.52117  0.64653  Biso   1.000  Hf
  Hf13     1.0000 0.13531  0.72897  0.89629  Biso   1.000  Hf
  Hf14     1.0000 0.35695  0.77169  0.60451  Biso   1.000  Hf
  Hf15     1.0000 0.35658  0.97863  0.85462  Biso   1.000  Hf
  O25      1.0000 0.03196  0.66844  0.58081  Biso   1.000  O 
  O26      1.0000 0.03070  0.58121  0.83005  Biso   1.000  O 
  O27      1.0000 0.46175  0.91733  0.67118  Biso   1.000  O 
  O28      1.0000 0.46515  0.83395  0.92117  Biso   1.000  O 
  O29      1.0000 0.27233  0.62910  0.74103  Biso   1.000  O 
  O30      1.0000 0.27163  0.61907  0.99095  Biso   1.000  O 
  O31      1.0000 0.22007  0.87890  0.51058  Biso   1.000  O 
  O32      1.0000 0.21934  0.87140  0.75852  Biso   1.000  O 
  Hf16     1.0000 0.63871  0.02067  0.14633  Biso   1.000  Hf
  Hf17     1.0000 0.63656  0.22873  0.39629  Biso   1.000  Hf
  Hf18     1.0000 0.85990  0.27163  0.10303  Biso   1.000  Hf
  Hf19     1.0000 0.85839  0.47891  0.35429  Biso   1.000  Hf
  O33      1.0000 0.53501  0.16802  0.07942  Biso   1.000  O 
  O34      1.0000 0.53427  0.08129  0.33042  Biso   1.000  O 
  O35      1.0000 0.96150  0.42098  0.16966  Biso   1.000  O 
  O36      1.0000 0.96275  0.33328  0.42103  Biso   1.000  O 
  O37      1.0000 0.77431  0.12960  0.24110  Biso   1.000  O 
  O38      1.0000 0.77190  0.12209  0.49220  Biso   1.000  O 
  O39      1.0000 0.72250  0.37913  0.00884  Biso   1.000  O 
  O40      1.0000 0.72133  0.37146  0.26027  Biso   1.000  O 
  Hf20     1.0000 0.63653  0.02160  0.64655  Biso   1.000  Hf
  Hf21     1.0000 0.63491  0.22875  0.89677  Biso   1.000  Hf
  Hf22     1.0000 0.85799  0.27137  0.60444  Biso   1.000  Hf
  Hf23     1.0000 0.85611  0.47916  0.85380  Biso   1.000  Hf
  O41      1.0000 0.53125  0.16753  0.58023  Biso   1.000  O 
  O42      1.0000 0.53246  0.08216  0.82941  Biso   1.000  O 
  O43      1.0000 0.96080  0.41997  0.66916  Biso   1.000  O 
  O44      1.0000 0.95890  0.33258  0.91745  Biso   1.000  O 
  O45      1.0000 0.77364  0.12891  0.74123  Biso   1.000  O 
  O46      1.0000 0.77156  0.12067  0.99111  Biso   1.000  O 
  O47      1.0000 0.72071  0.37921  0.50970  Biso   1.000  O 
  O48      1.0000 0.71996  0.37096  0.75925  Biso   1.000  O 
  Hf24     1.0000 0.63728  0.51989  0.14597  Biso   1.000  Hf
  Hf25     1.0000 0.63500  0.72833  0.39621  Biso   1.000  Hf
  Hf26     1.0000 0.85736  0.76999  0.10468  Biso   1.000  Hf
  Hf27     1.0000 0.85663  0.97842  0.35508  Biso   1.000  Hf
  O49      1.0000 0.53477  0.66668  0.07870  Biso   1.000  O 
  O50      1.0000 0.53144  0.58188  0.32927  Biso   1.000  O 
  O51      1.0000 0.95044  0.91590  0.17441  Biso   1.000  O 
  O52      1.0000 0.96277  0.83149  0.42081  Biso   1.000  O 
  O53      1.0000 0.77311  0.62826  0.24084  Biso   1.000  O 
  O54      1.0000 0.77291  0.62136  0.49052  Biso   1.000  O 
  O55      1.0000 0.72321  0.87852  0.00909  Biso   1.000  O 
  O56      1.0000 0.71414  0.86981  0.26113  Biso   1.000  O 
  Hf28     1.0000 0.63540  0.52124  0.64587  Biso   1.000  Hf
  Hf29     1.0000 0.63529  0.72860  0.89580  Biso   1.000  Hf
  Hf30     1.0000 0.85788  0.77144  0.60410  Biso   1.000  Hf
  Hf31     1.0000 0.85637  0.97844  0.85516  Biso   1.000  Hf
  O57      1.0000 0.53074  0.66725  0.58009  Biso   1.000  O 
  O58      1.0000 0.53071  0.58246  0.82932  Biso   1.000  O 
  O59      1.0000 0.96069  0.91871  0.67063  Biso   1.000  O 
  O60      1.0000 0.96026  0.83140  0.92103  Biso   1.000  O 
  O61      1.0000 0.77216  0.62906  0.73991  Biso   1.000  O 
  O62      1.0000 0.77061  0.61980  0.99043  Biso   1.000  O 
  O63      1.0000 0.72062  0.87864  0.51025  Biso   1.000  O 
  O64      1.0000 0.72047  0.87107  0.75957  Biso   1.000  O 
