data_image0
_cell_length_a       5.09634
_cell_length_b       10.2909
_cell_length_c       10.4746
_cell_angle_alpha    90
_cell_angle_beta     80
_cell_angle_gamma    90

_symmetry_space_group_name_H-M    "P 1"
_symmetry_int_tables_number       1

loop_
  _symmetry_equiv_pos_as_xyz
  'x, y, z'

loop_
  _atom_site_label
  _atom_site_occupancy
  _atom_site_fract_x
  _atom_site_fract_y
  _atom_site_fract_z
  _atom_site_thermal_displace_type
  _atom_site_B_iso_or_equiv
  _atom_site_type_symbol
  Y1       1.0000 0.27886  0.01743  0.14526  Biso   1.000  Y 
  Hf1      1.0000 0.27446  0.22779  0.39680  Biso   1.000  Hf
  Hf2      1.0000 0.71698  0.26971  0.10321  Biso   1.000  Hf
  Hf3      1.0000 0.71431  0.47761  0.35358  Biso   1.000  Hf
  O1       1.0000 0.06642  0.17773  0.07608  Biso   1.000  O 
  O2       1.0000 0.05694  0.08333  0.34076  Biso   1.000  O 
  O3       1.0000 0.92335  0.41860  0.17029  Biso   1.000  O 
  O4       1.0000 0.92560  0.33303  0.42134  Biso   1.000  O 
  O5       1.0000 0.56004  0.13396  0.24726  Biso   1.000  O 
  O6       1.0000 0.54302  0.12105  0.49401  Biso   1.000  O 
  O7       1.0000 0.44599  0.37939  0.00814  Biso   1.000  O 
  O8       1.0000 0.43861  0.37195  0.25969  Biso   1.000  O 
  Hf4      1.0000 0.27519  0.02094  0.64664  Biso   1.000  Hf
  Hf5      1.0000 0.27069  0.22920  0.89666  Biso   1.000  Hf
  Hf6      1.0000 0.71518  0.27030  0.60438  Biso   1.000  Hf
  Hf7      1.0000 0.71341  0.47829  0.85378  Biso   1.000  Hf
  O9       1.0000 0.06416  0.16943  0.58373  Biso   1.000  O 
  O10      1.0000 0.06671  0.08084  0.83051  Biso   1.000  O 
  O11      1.0000 0.92397  0.41800  0.66942  Biso   1.000  O 
  O12      1.0000 0.92382  0.33468  0.91788  Biso   1.000  O 
  O13      1.0000 0.54731  0.12810  0.74022  Biso   1.000  O 
  O14      1.0000 0.55597  0.12457  0.98474  Biso   1.000  O 
  O15      1.0000 0.44243  0.37876  0.50967  Biso   1.000  O 
  O16      1.0000 0.44201  0.37132  0.75863  Biso   1.000  O 
  Hf8      1.0000 0.27435  0.51935  0.14520  Biso   1.000  Hf
  Hf9      1.0000 0.27126  0.72683  0.39635  Biso   1.000  Hf
  Hf10     1.0000 0.71688  0.76858  0.10450  Biso   1.000  Hf
  Hf11     1.0000 0.71101  0.97850  0.35493  Biso   1.000  Hf
  O17      1.0000 0.06827  0.66708  0.07870  Biso   1.000  O 
  O18      1.0000 0.06077  0.58229  0.32892  Biso   1.000  O 
  O19      1.0000 0.90086  0.91671  0.17313  Biso   1.000  O 
  O20      1.0000 0.92405  0.83145  0.42187  Biso   1.000  O 
  O21      1.0000 0.54586  0.62471  0.23987  Biso   1.000  O 
  O22      1.0000 0.54458  0.62054  0.49055  Biso   1.000  O 
  O23      1.0000 0.46162  0.87087  0.00184  Biso   1.000  O 
  O24      1.0000 0.44189  0.86262  0.26421  Biso   1.000  O 
  Hf12     1.0000 0.27149  0.52067  0.64603  Biso   1.000  Hf
  Hf13     1.0000 0.27350  0.72846  0.89565  Biso   1.000  Hf
  Hf14     1.0000 0.71404  0.77134  0.60394  Biso   1.000  Hf
  Hf15     1.0000 0.71334  0.97798  0.85480  Biso   1.000  Hf
  O25      1.0000 0.06065  0.66660  0.58090  Biso   1.000  O 
  O26      1.0000 0.06085  0.58205  0.82897  Biso   1.000  O 
  O27      1.0000 0.92334  0.91687  0.67103  Biso   1.000  O 
  O28      1.0000 0.93214  0.83372  0.92128  Biso   1.000  O 
  O29      1.0000 0.54405  0.62875  0.73995  Biso   1.000  O 
  O30      1.0000 0.54229  0.61748  0.99021  Biso   1.000  O 
  O31      1.0000 0.44012  0.87814  0.51093  Biso   1.000  O 
  O32      1.0000 0.44113  0.87108  0.75800  Biso   1.000  O 
