data_image0
_cell_length_a       10.1104
_cell_length_b       10.3548
_cell_length_c       5.10026
_cell_angle_alpha    90
_cell_angle_beta     90
_cell_angle_gamma    90

_symmetry_space_group_name_H-M    "P 1"
_symmetry_int_tables_number       1

loop_
  _symmetry_equiv_pos_as_xyz
  'x, y, z'

loop_
  _atom_site_label
  _atom_site_occupancy
  _atom_site_fract_x
  _atom_site_fract_y
  _atom_site_fract_z
  _atom_site_thermal_displace_type
  _atom_site_B_iso_or_equiv
  _atom_site_type_symbol
  Hf1      1.0000 0.11274  0.97068  0.25644  Biso   1.000  Hf
  Hf2      1.0000 0.11821  0.23637  0.69367  Biso   1.000  Hf
  Hf3      1.0000 0.38944  0.27106  0.20491  Biso   1.000  Hf
  Hf4      1.0000 0.36174  0.48798  0.72815  Biso   1.000  Hf
  O1       1.0000 0.98353  0.12812  0.44548  Biso   1.000  O 
  O2       1.0000 0.02269  0.07369  0.93261  Biso   1.000  O 
  O3       1.0000 0.47119  0.43784  0.37990  Biso   1.000  O 
  O4       1.0000 0.47051  0.33245  0.87820  Biso   1.000  O 
  O5       1.0000 0.23974  0.10353  0.44627  Biso   1.000  O 
  O6       1.0000 0.27080  0.15308  0.92732  Biso   1.000  O 
  O7       1.0000 0.22403  0.39392  0.96333  Biso   1.000  O 
  O8       1.0000 0.24491  0.36369  0.46542  Biso   1.000  O 
  Hf5      1.0000 0.14387  0.52516  0.23939  Biso   1.000  Hf
  Hf6      1.0000 0.11877  0.73909  0.74374  Biso   1.000  Hf
  Hf7      1.0000 0.37566  0.76994  0.23557  Biso   1.000  Hf
  Hf8      1.0000 0.35798  0.99457  0.73245  Biso   1.000  Hf
  O9       1.0000 0.02191  0.65501  0.42512  Biso   1.000  O 
  O10      1.0000 0.01994  0.57516  0.91217  Biso   1.000  O 
  O11      1.0000 0.46927  0.93386  0.40222  Biso   1.000  O 
  O12      1.0000 0.47517  0.83188  0.90772  Biso   1.000  O 
  O13      1.0000 0.27283  0.61976  0.48387  Biso   1.000  O 
  O14      1.0000 0.25876  0.64124  0.98467  Biso   1.000  O 
  O15      1.0000 0.23699  0.89246  0.99000  Biso   1.000  O 
  O16      1.0000 0.23964  0.85368  0.49513  Biso   1.000  O 
  Hf9      1.0000 0.62374  0.00810  0.23657  Biso   1.000  Hf
  Hf10     1.0000 0.62523  0.23201  0.74432  Biso   1.000  Hf
  Hf11     1.0000 0.84461  0.26062  0.25702  Biso   1.000  Hf
  Hf12     1.0000 0.86622  0.47732  0.75049  Biso   1.000  Hf
  O17      1.0000 0.52519  0.17683  0.40738  Biso   1.000  O 
  O18      1.0000 0.51515  0.07836  0.90825  Biso   1.000  O 
  O19      1.0000 0.98852  0.39465  0.42676  Biso   1.000  O 
  O20      1.0000 0.95084  0.31392  0.90638  Biso   1.000  O 
  O21      1.0000 0.74654  0.10802  0.50041  Biso   1.000  O 
  O22      1.0000 0.75196  0.13082  0.99613  Biso   1.000  O 
  O23      1.0000 0.73536  0.38884  0.00005  Biso   1.000  O 
  O24      1.0000 0.72643  0.36725  0.50272  Biso   1.000  O 
  Hf13     1.0000 0.63322  0.52095  0.23858  Biso   1.000  Hf
  Hf14     1.0000 0.63026  0.73842  0.74805  Biso   1.000  Hf
  Hf15     1.0000 0.86441  0.75624  0.26641  Biso   1.000  Hf
  Hf16     1.0000 0.87089  0.99638  0.74926  Biso   1.000  Hf
  O25      1.0000 0.53852  0.68720  0.39299  Biso   1.000  O 
  O26      1.0000 0.52374  0.57837  0.89199  Biso   1.000  O 
  O27      1.0000 0.98694  0.88137  0.51693  Biso   1.000  O 
  O28      1.0000 0.00255  0.83338  0.00993  Biso   1.000  O 
  O29      1.0000 0.76784  0.60951  0.49496  Biso   1.000  O 
  O30      1.0000 0.76223  0.63434  0.99168  Biso   1.000  O 
  O31      1.0000 0.74041  0.88406  0.99191  Biso   1.000  O 
  O32      1.0000 0.73513  0.86447  0.49042  Biso   1.000  O 
  Y1       1.0000 0.11773  0.24515  0.19142  Biso   1.000  Y 
