data_image0
_cell_length_a       10.0509
_cell_length_b       10.3149
_cell_length_c       5.30951
_cell_angle_alpha    90
_cell_angle_beta     90
_cell_angle_gamma    90

_symmetry_space_group_name_H-M    "P 1"
_symmetry_int_tables_number       1

loop_
  _symmetry_equiv_pos_as_xyz
  'x, y, z'

loop_
  _atom_site_label
  _atom_site_occupancy
  _atom_site_fract_x
  _atom_site_fract_y
  _atom_site_fract_z
  _atom_site_thermal_displace_type
  _atom_site_B_iso_or_equiv
  _atom_site_type_symbol
  Hf1      1.0000 0.13631  0.02128  0.35090  Biso   1.000  Hf
  Hf2      1.0000 0.12189  0.22857  0.86039  Biso   1.000  Hf
  Hf3      1.0000 0.33417  0.27789  0.39065  Biso   1.000  Hf
  Hf4      1.0000 0.33328  0.48854  0.85958  Biso   1.000  Hf
  Hf5      1.0000 0.64857  0.00949  0.15256  Biso   1.000  Hf
  Hf6      1.0000 0.64441  0.21652  0.60568  Biso   1.000  Hf
  Hf7      1.0000 0.85483  0.26819  0.14314  Biso   1.000  Hf
  Hf8      1.0000 0.84071  0.47524  0.65341  Biso   1.000  Hf
  O1       1.0000 0.03108  0.16129  0.16899  Biso   1.000  O 
  O2       1.0000 0.02711  0.08441  0.66739  Biso   1.000  O 
  O3       1.0000 0.44347  0.44094  0.19987  Biso   1.000  O 
  O4       1.0000 0.45618  0.33678  0.67133  Biso   1.000  O 
  O5       1.0000 0.26441  0.12617  0.60944  Biso   1.000  O 
  O6       1.0000 0.28321  0.13260  0.10003  Biso   1.000  O 
  O7       1.0000 0.19962  0.37852  0.62004  Biso   1.000  O 
  O8       1.0000 0.20815  0.37938  0.11520  Biso   1.000  O 
  O9       1.0000 0.51334  0.13886  0.36346  Biso   1.000  O 
  O10      1.0000 0.52711  0.08088  0.83826  Biso   1.000  O 
  O11      1.0000 0.95009  0.41188  0.34367  Biso   1.000  O 
  O12      1.0000 0.95142  0.33688  0.84225  Biso   1.000  O 
  O13      1.0000 0.77227  0.11761  0.88839  Biso   1.000  O 
  O14      1.0000 0.78700  0.11566  0.39595  Biso   1.000  O 
  O15      1.0000 0.70111  0.37336  0.89416  Biso   1.000  O 
  O16      1.0000 0.70034  0.37198  0.37640  Biso   1.000  O 
  Hf9      1.0000 0.12026  0.52218  0.35111  Biso   1.000  Hf
  Hf10     1.0000 0.11183  0.72948  0.84627  Biso   1.000  Hf
  Hf11     1.0000 0.34330  0.77412  0.35145  Biso   1.000  Hf
  Hf12     1.0000 0.33231  0.97644  0.85251  Biso   1.000  Hf
  Hf13     1.0000 0.62704  0.53415  0.15510  Biso   1.000  Hf
  Hf14     1.0000 0.61728  0.72941  0.65713  Biso   1.000  Hf
  Hf15     1.0000 0.84915  0.76752  0.16100  Biso   1.000  Hf
  Hf16     1.0000 0.83945  0.97426  0.65996  Biso   1.000  Hf
  O17      1.0000 0.01868  0.66129  0.16544  Biso   1.000  O 
  O18      1.0000 0.00907  0.58605  0.66815  Biso   1.000  O 
  O19      1.0000 0.45351  0.90731  0.15759  Biso   1.000  O 
  O20      1.0000 0.44595  0.83907  0.66613  Biso   1.000  O 
  O21      1.0000 0.25257  0.62790  0.59448  Biso   1.000  O 
  O22      1.0000 0.26072  0.63056  0.09257  Biso   1.000  O 
  O23      1.0000 0.20151  0.87488  0.59867  Biso   1.000  O 
  O24      1.0000 0.20715  0.87940  0.09881  Biso   1.000  O 
  O25      1.0000 0.51626  0.67145  0.34001  Biso   1.000  O 
  O26      1.0000 0.50681  0.58940  0.83715  Biso   1.000  O 
  O27      1.0000 0.95232  0.90861  0.34373  Biso   1.000  O 
  O28      1.0000 0.94320  0.83547  0.84591  Biso   1.000  O 
  O29      1.0000 0.75425  0.62509  0.90453  Biso   1.000  O 
  O30      1.0000 0.76124  0.62482  0.41256  Biso   1.000  O 
  O31      1.0000 0.69934  0.87024  0.91488  Biso   1.000  O 
  O32      1.0000 0.70885  0.86958  0.41337  Biso   1.000  O 
  Y1       1.0000 0.53345  0.26579  0.04171  Biso   1.000  Y 
