data_image0
_cell_length_a       10.1377
_cell_length_b       10.2803
_cell_length_c       10.4548
_cell_angle_alpha    90
_cell_angle_beta     80
_cell_angle_gamma    90

_symmetry_space_group_name_H-M    "P 1"
_symmetry_int_tables_number       1

loop_
  _symmetry_equiv_pos_as_xyz
  'x, y, z'

loop_
  _atom_site_label
  _atom_site_occupancy
  _atom_site_fract_x
  _atom_site_fract_y
  _atom_site_fract_z
  _atom_site_thermal_displace_type
  _atom_site_B_iso_or_equiv
  _atom_site_type_symbol
  Yb1      1.0000 0.13771  0.01732  0.14835  Biso   1.000  Yb
  Hf1      1.0000 0.13783  0.22892  0.39663  Biso   1.000  Hf
  Hf2      1.0000 0.35917  0.26939  0.10429  Biso   1.000  Hf
  Hf3      1.0000 0.35867  0.47781  0.35381  Biso   1.000  Hf
  O1       1.0000 0.03450  0.17624  0.07857  Biso   1.000  O 
  O2       1.0000 0.02902  0.08391  0.33775  Biso   1.000  O 
  O3       1.0000 0.46292  0.41795  0.17031  Biso   1.000  O 
  O4       1.0000 0.46157  0.33041  0.42041  Biso   1.000  O 
  O5       1.0000 0.28023  0.13256  0.24665  Biso   1.000  O 
  O6       1.0000 0.27345  0.12046  0.49303  Biso   1.000  O 
  O7       1.0000 0.22368  0.37973  0.00916  Biso   1.000  O 
  O8       1.0000 0.22046  0.37154  0.25927  Biso   1.000  O 
  Hf4      1.0000 0.13638  0.02089  0.64669  Biso   1.000  Hf
  Hf5      1.0000 0.13499  0.22873  0.89723  Biso   1.000  Hf
  Hf6      1.0000 0.35786  0.27109  0.60500  Biso   1.000  Hf
  Hf7      1.0000 0.35726  0.47820  0.85504  Biso   1.000  Hf
  O9       1.0000 0.03215  0.16927  0.58183  Biso   1.000  O 
  O10      1.0000 0.03108  0.08118  0.83117  Biso   1.000  O 
  O11      1.0000 0.46099  0.41890  0.67041  Biso   1.000  O 
  O12      1.0000 0.46090  0.33218  0.92086  Biso   1.000  O 
  O13      1.0000 0.27235  0.12883  0.74071  Biso   1.000  O 
  O14      1.0000 0.27669  0.12498  0.98666  Biso   1.000  O 
  O15      1.0000 0.22089  0.37894  0.51019  Biso   1.000  O 
  O16      1.0000 0.21996  0.37142  0.76011  Biso   1.000  O 
  Hf8      1.0000 0.13828  0.52139  0.14537  Biso   1.000  Hf
  Hf9      1.0000 0.13744  0.72762  0.39630  Biso   1.000  Hf
  Hf10     1.0000 0.36186  0.77095  0.10377  Biso   1.000  Hf
  Hf11     1.0000 0.35912  0.97900  0.35472  Biso   1.000  Hf
  O17      1.0000 0.03458  0.66931  0.07983  Biso   1.000  O 
  O18      1.0000 0.03302  0.58200  0.32962  Biso   1.000  O 
  O19      1.0000 0.46360  0.91969  0.16968  Biso   1.000  O 
  O20      1.0000 0.46185  0.83070  0.42113  Biso   1.000  O 
  O21      1.0000 0.27526  0.62699  0.24012  Biso   1.000  O 
  O22      1.0000 0.27363  0.62052  0.49104  Biso   1.000  O 
  O23      1.0000 0.22938  0.87388  0.00413  Biso   1.000  O 
  O24      1.0000 0.22746  0.86575  0.26194  Biso   1.000  O 
  Hf12     1.0000 0.13615  0.52133  0.64676  Biso   1.000  Hf
  Hf13     1.0000 0.13534  0.72928  0.89655  Biso   1.000  Hf
  Hf14     1.0000 0.35787  0.77183  0.60469  Biso   1.000  Hf
  Hf15     1.0000 0.35671  0.97900  0.85546  Biso   1.000  Hf
  O25      1.0000 0.03199  0.66826  0.58053  Biso   1.000  O 
  O26      1.0000 0.03072  0.58176  0.83023  Biso   1.000  O 
  O27      1.0000 0.46092  0.91892  0.67066  Biso   1.000  O 
  O28      1.0000 0.46305  0.83227  0.92059  Biso   1.000  O 
  O29      1.0000 0.27254  0.62936  0.74126  Biso   1.000  O 
  O30      1.0000 0.27154  0.62002  0.99123  Biso   1.000  O 
  O31      1.0000 0.22051  0.87882  0.51040  Biso   1.000  O 
  O32      1.0000 0.21936  0.87141  0.75915  Biso   1.000  O 
  Hf16     1.0000 0.63791  0.02117  0.14586  Biso   1.000  Hf
  Hf17     1.0000 0.63614  0.22879  0.39617  Biso   1.000  Hf
  Hf18     1.0000 0.85948  0.27145  0.10339  Biso   1.000  Hf
  Hf19     1.0000 0.85902  0.47874  0.35423  Biso   1.000  Hf
  O33      1.0000 0.53578  0.16934  0.08012  Biso   1.000  O 
  O34      1.0000 0.53500  0.08009  0.33100  Biso   1.000  O 
  O35      1.0000 0.96266  0.41993  0.16944  Biso   1.000  O 
  O36      1.0000 0.96260  0.33288  0.42107  Biso   1.000  O 
  O37      1.0000 0.77480  0.12920  0.24085  Biso   1.000  O 
  O38      1.0000 0.77277  0.12143  0.49137  Biso   1.000  O 
  O39      1.0000 0.72300  0.37926  0.00876  Biso   1.000  O 
  O40      1.0000 0.72173  0.37093  0.25980  Biso   1.000  O 
  Hf20     1.0000 0.63535  0.02150  0.64668  Biso   1.000  Hf
  Hf21     1.0000 0.63391  0.22869  0.89658  Biso   1.000  Hf
  Hf22     1.0000 0.85749  0.27160  0.60427  Biso   1.000  Hf
  Hf23     1.0000 0.85624  0.47880  0.85422  Biso   1.000  Hf
  O41      1.0000 0.53251  0.16920  0.58093  Biso   1.000  O 
  O42      1.0000 0.53262  0.08069  0.83049  Biso   1.000  O 
  O43      1.0000 0.96153  0.41854  0.67034  Biso   1.000  O 
  O44      1.0000 0.95950  0.33231  0.91925  Biso   1.000  O 
  O45      1.0000 0.77316  0.12901  0.74087  Biso   1.000  O 
  O46      1.0000 0.77142  0.12098  0.99107  Biso   1.000  O 
  O47      1.0000 0.72057  0.37921  0.50959  Biso   1.000  O 
  O48      1.0000 0.71986  0.37095  0.75939  Biso   1.000  O 
  Hf24     1.0000 0.63687  0.52017  0.14585  Biso   1.000  Hf
  Hf25     1.0000 0.63535  0.72779  0.39623  Biso   1.000  Hf
  Hf26     1.0000 0.85766  0.76958  0.10391  Biso   1.000  Hf
  Hf27     1.0000 0.85655  0.97847  0.35487  Biso   1.000  Hf
  O49      1.0000 0.53596  0.66841  0.07953  Biso   1.000  O 
  O50      1.0000 0.53290  0.58040  0.33015  Biso   1.000  O 
  O51      1.0000 0.95385  0.91742  0.17129  Biso   1.000  O 
  O52      1.0000 0.96292  0.83185  0.42003  Biso   1.000  O 
  O53      1.0000 0.77391  0.62812  0.24051  Biso   1.000  O 
  O54      1.0000 0.77362  0.62112  0.49049  Biso   1.000  O 
  O55      1.0000 0.72332  0.87890  0.00885  Biso   1.000  O 
  O56      1.0000 0.71740  0.86986  0.26063  Biso   1.000  O 
  Hf28     1.0000 0.63516  0.52136  0.64609  Biso   1.000  Hf
  Hf29     1.0000 0.63452  0.72851  0.89578  Biso   1.000  Hf
  Hf30     1.0000 0.85778  0.77143  0.60402  Biso   1.000  Hf
  Hf31     1.0000 0.85627  0.97874  0.85489  Biso   1.000  Hf
  O57      1.0000 0.53218  0.66874  0.58072  Biso   1.000  O 
  O58      1.0000 0.53154  0.58118  0.83014  Biso   1.000  O 
  O59      1.0000 0.96125  0.91834  0.67082  Biso   1.000  O 
  O60      1.0000 0.95995  0.83160  0.92101  Biso   1.000  O 
  O61      1.0000 0.77279  0.62898  0.74003  Biso   1.000  O 
  O62      1.0000 0.77090  0.62010  0.99049  Biso   1.000  O 
  O63      1.0000 0.72078  0.87890  0.50983  Biso   1.000  O 
  O64      1.0000 0.72035  0.87084  0.75940  Biso   1.000  O 
