data_image0
_cell_length_a       10.2005
_cell_length_b       10.3197
_cell_length_c       5.31322
_cell_angle_alpha    90
_cell_angle_beta     80
_cell_angle_gamma    90

_symmetry_space_group_name_H-M    "P 1"
_symmetry_int_tables_number       1

loop_
  _symmetry_equiv_pos_as_xyz
  'x, y, z'

loop_
  _atom_site_label
  _atom_site_occupancy
  _atom_site_fract_x
  _atom_site_fract_y
  _atom_site_fract_z
  _atom_site_thermal_displace_type
  _atom_site_B_iso_or_equiv
  _atom_site_type_symbol
  Hf1      1.0000 0.13729  0.02088  0.29073  Biso   1.000  Hf
  Hf2      1.0000 0.13454  0.22898  0.77786  Biso   1.000  Hf
  Hf3      1.0000 0.34678  0.28108  0.15712  Biso   1.000  Hf
  Hf4      1.0000 0.36133  0.49432  0.70402  Biso   1.000  Hf
  O1       1.0000 0.03923  0.16725  0.14959  Biso   1.000  O 
  O2       1.0000 0.03363  0.08424  0.64856  Biso   1.000  O 
  O3       1.0000 0.46650  0.41842  0.35237  Biso   1.000  O 
  O4       1.0000 0.48390  0.36276  0.86430  Biso   1.000  O 
  O5       1.0000 0.27519  0.12383  0.45571  Biso   1.000  O 
  O6       1.0000 0.29334  0.13157  0.93306  Biso   1.000  O 
  O7       1.0000 0.20750  0.38970  0.00230  Biso   1.000  O 
  O8       1.0000 0.23262  0.36676  0.50906  Biso   1.000  O 
  Hf5      1.0000 0.13643  0.52412  0.29446  Biso   1.000  Hf
  Hf6      1.0000 0.13762  0.72984  0.79404  Biso   1.000  Hf
  Hf7      1.0000 0.35875  0.77175  0.20813  Biso   1.000  Hf
  Hf8      1.0000 0.36281  0.96692  0.70235  Biso   1.000  Hf
  O9       1.0000 0.02851  0.66409  0.15748  Biso   1.000  O 
  O10      1.0000 0.03489  0.58542  0.65678  Biso   1.000  O 
  O11      1.0000 0.46661  0.91307  0.34853  Biso   1.000  O 
  O12      1.0000 0.46982  0.83193  0.85073  Biso   1.000  O 
  O13      1.0000 0.27474  0.62952  0.48024  Biso   1.000  O 
  O14      1.0000 0.27791  0.63065  0.98324  Biso   1.000  O 
  O15      1.0000 0.21926  0.88165  0.02207  Biso   1.000  O 
  O16      1.0000 0.22083  0.86792  0.51684  Biso   1.000  O 
  Hf9      1.0000 0.64296  0.01804  0.30259  Biso   1.000  Hf
  Hf10     1.0000 0.65644  0.22839  0.82811  Biso   1.000  Hf
  Hf11     1.0000 0.86270  0.27120  0.22417  Biso   1.000  Hf
  Hf12     1.0000 0.86279  0.47914  0.71405  Biso   1.000  Hf
  O17      1.0000 0.53275  0.17010  0.17430  Biso   1.000  O 
  O18      1.0000 0.55142  0.06870  0.67783  Biso   1.000  O 
  O19      1.0000 0.96824  0.41394  0.35636  Biso   1.000  O 
  O20      1.0000 0.96604  0.33367  0.84801  Biso   1.000  O 
  O21      1.0000 0.78268  0.12888  0.49374  Biso   1.000  O 
  O22      1.0000 0.78370  0.11692  0.00447  Biso   1.000  O 
  O23      1.0000 0.72532  0.37858  0.04131  Biso   1.000  O 
  O24      1.0000 0.72511  0.37024  0.53499  Biso   1.000  O 
  Hf13     1.0000 0.63746  0.52400  0.29877  Biso   1.000  Hf
  Hf14     1.0000 0.64283  0.72840  0.79715  Biso   1.000  Hf
  Hf15     1.0000 0.85832  0.77165  0.21449  Biso   1.000  Hf
  Hf16     1.0000 0.85949  0.97761  0.71312  Biso   1.000  Hf
  O25      1.0000 0.52966  0.66323  0.15488  Biso   1.000  O 
  O26      1.0000 0.53441  0.59473  0.64640  Biso   1.000  O 
  O27      1.0000 0.96416  0.91323  0.35373  Biso   1.000  O 
  O28      1.0000 0.96909  0.83706  0.85238  Biso   1.000  O 
  O29      1.0000 0.77784  0.62755  0.48491  Biso   1.000  O 
  O30      1.0000 0.78028  0.62194  0.98271  Biso   1.000  O 
  O31      1.0000 0.71921  0.87530  0.02806  Biso   1.000  O 
  O32      1.0000 0.72470  0.86982  0.52380  Biso   1.000  O 
  Yb1      1.0000 0.44236  0.23246  0.56699  Biso   1.000  Yb
