data_image0
_cell_length_a       10.0749
_cell_length_b       10.2799
_cell_length_c       5.30704
_cell_angle_alpha    90
_cell_angle_beta     90
_cell_angle_gamma    90

_symmetry_space_group_name_H-M    "P 1"
_symmetry_int_tables_number       1

loop_
  _symmetry_equiv_pos_as_xyz
  'x, y, z'

loop_
  _atom_site_label
  _atom_site_occupancy
  _atom_site_fract_x
  _atom_site_fract_y
  _atom_site_fract_z
  _atom_site_thermal_displace_type
  _atom_site_B_iso_or_equiv
  _atom_site_type_symbol
  Hf1      1.0000 0.13678  0.02044  0.35337  Biso   1.000  Hf
  Hf2      1.0000 0.13144  0.22767  0.85806  Biso   1.000  Hf
  Hf3      1.0000 0.34641  0.27279  0.38259  Biso   1.000  Hf
  Hf4      1.0000 0.34712  0.48416  0.85677  Biso   1.000  Hf
  Hf5      1.0000 0.64180  0.00679  0.15376  Biso   1.000  Hf
  Hf6      1.0000 0.64463  0.21963  0.60090  Biso   1.000  Hf
  Hf7      1.0000 0.86645  0.27161  0.14493  Biso   1.000  Hf
  Hf8      1.0000 0.85239  0.47805  0.65384  Biso   1.000  Hf
  O1       1.0000 0.03278  0.16034  0.16651  Biso   1.000  O 
  O2       1.0000 0.02645  0.08743  0.66756  Biso   1.000  O 
  O3       1.0000 0.45230  0.43156  0.19433  Biso   1.000  O 
  O4       1.0000 0.46184  0.33186  0.68357  Biso   1.000  O 
  O5       1.0000 0.26712  0.12388  0.60860  Biso   1.000  O 
  O6       1.0000 0.27898  0.12727  0.10413  Biso   1.000  O 
  O7       1.0000 0.21121  0.37642  0.61523  Biso   1.000  O 
  O8       1.0000 0.21785  0.37616  0.10966  Biso   1.000  O 
  O9       1.0000 0.51639  0.13915  0.35659  Biso   1.000  O 
  O10      1.0000 0.52393  0.08305  0.84200  Biso   1.000  O 
  O11      1.0000 0.96183  0.41213  0.34638  Biso   1.000  O 
  O12      1.0000 0.96186  0.33666  0.84167  Biso   1.000  O 
  O13      1.0000 0.76105  0.12797  0.89923  Biso   1.000  O 
  O14      1.0000 0.78585  0.11698  0.39029  Biso   1.000  O 
  O15      1.0000 0.71706  0.37881  0.89247  Biso   1.000  O 
  O16      1.0000 0.71068  0.37305  0.37640  Biso   1.000  O 
  Hf9      1.0000 0.13256  0.52085  0.35229  Biso   1.000  Hf
  Hf10     1.0000 0.12519  0.72898  0.84940  Biso   1.000  Hf
  Hf11     1.0000 0.35245  0.77169  0.35309  Biso   1.000  Hf
  Hf12     1.0000 0.34754  0.97644  0.85395  Biso   1.000  Hf
  Hf13     1.0000 0.63683  0.53590  0.15228  Biso   1.000  Hf
  Hf14     1.0000 0.62912  0.73043  0.65564  Biso   1.000  Hf
  Hf15     1.0000 0.86063  0.77003  0.16017  Biso   1.000  Hf
  Hf16     1.0000 0.85200  0.97920  0.66001  Biso   1.000  Hf
  O17      1.0000 0.02797  0.66110  0.16702  Biso   1.000  O 
  O18      1.0000 0.02177  0.58644  0.66926  Biso   1.000  O 
  O19      1.0000 0.46364  0.90337  0.15716  Biso   1.000  O 
  O20      1.0000 0.45859  0.83918  0.66344  Biso   1.000  O 
  O21      1.0000 0.26495  0.62601  0.59689  Biso   1.000  O 
  O22      1.0000 0.27009  0.62767  0.09530  Biso   1.000  O 
  O23      1.0000 0.21392  0.87381  0.60095  Biso   1.000  O 
  O24      1.0000 0.21746  0.87717  0.10206  Biso   1.000  O 
  O25      1.0000 0.52529  0.66743  0.34281  Biso   1.000  O 
  O26      1.0000 0.51872  0.58974  0.83849  Biso   1.000  O 
  O27      1.0000 0.96312  0.91014  0.34794  Biso   1.000  O 
  O28      1.0000 0.95712  0.83816  0.84658  Biso   1.000  O 
  O29      1.0000 0.76563  0.62842  0.90281  Biso   1.000  O 
  O30      1.0000 0.77178  0.62563  0.41017  Biso   1.000  O 
  O31      1.0000 0.71359  0.87345  0.91052  Biso   1.000  O 
  O32      1.0000 0.72066  0.87069  0.41344  Biso   1.000  O 
  Yb1      1.0000 0.55991  0.26924  0.04545  Biso   1.000  Yb
