data_image0
_cell_length_a       5.08047
_cell_length_b       10.2865
_cell_length_c       10.4714
_cell_angle_alpha    90
_cell_angle_beta     80
_cell_angle_gamma    90

_symmetry_space_group_name_H-M    "P 1"
_symmetry_int_tables_number       1

loop_
  _symmetry_equiv_pos_as_xyz
  'x, y, z'

loop_
  _atom_site_label
  _atom_site_occupancy
  _atom_site_fract_x
  _atom_site_fract_y
  _atom_site_fract_z
  _atom_site_thermal_displace_type
  _atom_site_B_iso_or_equiv
  _atom_site_type_symbol
  Yb1      1.0000 0.27548  0.01748  0.14821  Biso   1.000  Yb
  Hf1      1.0000 0.27580  0.22939  0.39679  Biso   1.000  Hf
  Hf2      1.0000 0.71629  0.26972  0.10334  Biso   1.000  Hf
  Hf3      1.0000 0.71794  0.47792  0.35352  Biso   1.000  Hf
  O1       1.0000 0.06857  0.17571  0.07789  Biso   1.000  O 
  O2       1.0000 0.06157  0.08337  0.33794  Biso   1.000  O 
  O3       1.0000 0.92521  0.41824  0.17007  Biso   1.000  O 
  O4       1.0000 0.92588  0.33264  0.42136  Biso   1.000  O 
  O5       1.0000 0.55999  0.13289  0.24670  Biso   1.000  O 
  O6       1.0000 0.54628  0.12095  0.49325  Biso   1.000  O 
  O7       1.0000 0.44630  0.37974  0.00854  Biso   1.000  O 
  O8       1.0000 0.44089  0.37175  0.25939  Biso   1.000  O 
  Hf4      1.0000 0.27409  0.02114  0.64686  Biso   1.000  Hf
  Hf5      1.0000 0.27182  0.22887  0.89666  Biso   1.000  Hf
  Hf6      1.0000 0.71691  0.27133  0.60453  Biso   1.000  Hf
  Hf7      1.0000 0.71605  0.47849  0.85407  Biso   1.000  Hf
  O9       1.0000 0.06558  0.16916  0.58189  Biso   1.000  O 
  O10      1.0000 0.06634  0.08152  0.83023  Biso   1.000  O 
  O11      1.0000 0.92572  0.41805  0.67043  Biso   1.000  O 
  O12      1.0000 0.92480  0.33422  0.91951  Biso   1.000  O 
  O13      1.0000 0.54754  0.12879  0.74019  Biso   1.000  O 
  O14      1.0000 0.55550  0.12522  0.98609  Biso   1.000  O 
  O15      1.0000 0.44316  0.37904  0.50981  Biso   1.000  O 
  O16      1.0000 0.44291  0.37159  0.75922  Biso   1.000  O 
  Hf8      1.0000 0.27432  0.52020  0.14524  Biso   1.000  Hf
  Hf9      1.0000 0.27300  0.72660  0.39643  Biso   1.000  Hf
  Hf10     1.0000 0.71809  0.76892  0.10325  Biso   1.000  Hf
  Hf11     1.0000 0.71400  0.97888  0.35546  Biso   1.000  Hf
  O17      1.0000 0.06992  0.66801  0.07867  Biso   1.000  O 
  O18      1.0000 0.06420  0.58198  0.32895  Biso   1.000  O 
  O19      1.0000 0.90920  0.91739  0.17119  Biso   1.000  O 
  O20      1.0000 0.92742  0.83225  0.42110  Biso   1.000  O 
  O21      1.0000 0.54799  0.62619  0.23983  Biso   1.000  O 
  O22      1.0000 0.54780  0.62078  0.49042  Biso   1.000  O 
  O23      1.0000 0.45833  0.87346  0.00362  Biso   1.000  O 
  O24      1.0000 0.44732  0.86528  0.26278  Biso   1.000  O 
  Hf12     1.0000 0.27339  0.52140  0.64632  Biso   1.000  Hf
  Hf13     1.0000 0.27361  0.72920  0.89549  Biso   1.000  Hf
  Hf14     1.0000 0.71710  0.77197  0.60397  Biso   1.000  Hf
  Hf15     1.0000 0.71499  0.97912  0.85526  Biso   1.000  Hf
  O25      1.0000 0.06417  0.66745  0.57997  Biso   1.000  O 
  O26      1.0000 0.06347  0.58266  0.82885  Biso   1.000  O 
  O27      1.0000 0.92513  0.91769  0.67129  Biso   1.000  O 
  O28      1.0000 0.92992  0.83358  0.92112  Biso   1.000  O 
  O29      1.0000 0.54720  0.62934  0.73990  Biso   1.000  O 
  O30      1.0000 0.54458  0.61927  0.99010  Biso   1.000  O 
  O31      1.0000 0.44282  0.87864  0.51026  Biso   1.000  O 
  O32      1.0000 0.44266  0.87148  0.75832  Biso   1.000  O 
