data_image0
_cell_length_a       10.1193
_cell_length_b       10.4098
_cell_length_c       5.10115
_cell_angle_alpha    90
_cell_angle_beta     90
_cell_angle_gamma    90

_symmetry_space_group_name_H-M    "P 1"
_symmetry_int_tables_number       1

loop_
  _symmetry_equiv_pos_as_xyz
  'x, y, z'

loop_
  _atom_site_label
  _atom_site_occupancy
  _atom_site_fract_x
  _atom_site_fract_y
  _atom_site_fract_z
  _atom_site_thermal_displace_type
  _atom_site_B_iso_or_equiv
  _atom_site_type_symbol
  Hf1      1.0000 0.15179  0.96543  0.27256  Biso   1.000  Hf
  Hf2      1.0000 0.11635  0.24629  0.67356  Biso   1.000  Hf
  Hf3      1.0000 0.39177  0.23689  0.21265  Biso   1.000  Hf
  Hf4      1.0000 0.39587  0.99409  0.72170  Biso   1.000  Hf
  O1       1.0000 0.97007  0.15822  0.89442  Biso   1.000  O 
  O2       1.0000 0.00404  0.10034  0.41243  Biso   1.000  O 
  O3       1.0000 0.98342  0.35800  0.44009  Biso   1.000  O 
  O4       1.0000 0.03816  0.39937  0.93944  Biso   1.000  O 
  O5       1.0000 0.25550  0.12492  0.47949  Biso   1.000  O 
  O6       1.0000 0.26150  0.07821  0.00952  Biso   1.000  O 
  O7       1.0000 0.28189  0.29110  0.90469  Biso   1.000  O 
  O8       1.0000 0.23727  0.38016  0.43755  Biso   1.000  O 
  Hf5      1.0000 0.10603  0.52281  0.27696  Biso   1.000  Hf
  Hf6      1.0000 0.10789  0.74451  0.77483  Biso   1.000  Hf
  Hf7      1.0000 0.36367  0.72055  0.30851  Biso   1.000  Hf
  Hf8      1.0000 0.35482  0.45942  0.74289  Biso   1.000  Hf
  O9       1.0000 0.01909  0.67832  0.08281  Biso   1.000  O 
  O10      1.0000 0.98462  0.60357  0.56742  Biso   1.000  O 
  O11      1.0000 0.00234  0.84954  0.48424  Biso   1.000  O 
  O12      1.0000 0.02370  0.90174  0.96395  Biso   1.000  O 
  O13      1.0000 0.23685  0.62165  0.56368  Biso   1.000  O 
  O14      1.0000 0.27699  0.57193  0.07660  Biso   1.000  O 
  O15      1.0000 0.24500  0.81989  0.06303  Biso   1.000  O 
  O16      1.0000 0.25578  0.86732  0.55915  Biso   1.000  O 
  Hf9      1.0000 0.64460  0.97024  0.26954  Biso   1.000  Hf
  Hf10     1.0000 0.61594  0.24405  0.69980  Biso   1.000  Hf
  Hf11     1.0000 0.84446  0.22723  0.22703  Biso   1.000  Hf
  Hf12     1.0000 0.89818  0.99753  0.71170  Biso   1.000  Hf
  O17      1.0000 0.50841  0.12990  0.92961  Biso   1.000  O 
  O18      1.0000 0.50442  0.09785  0.43777  Biso   1.000  O 
  O19      1.0000 0.48933  0.35255  0.47915  Biso   1.000  O 
  O20      1.0000 0.51466  0.37934  0.97617  Biso   1.000  O 
  O21      1.0000 0.74909  0.11720  0.52058  Biso   1.000  O 
  O22      1.0000 0.76736  0.06754  0.03152  Biso   1.000  O 
  O23      1.0000 0.76429  0.30490  0.93822  Biso   1.000  O 
  O24      1.0000 0.73685  0.37263  0.46368  Biso   1.000  O 
  Hf13     1.0000 0.61061  0.50518  0.27170  Biso   1.000  Hf
  Hf14     1.0000 0.60742  0.73836  0.77471  Biso   1.000  Hf
  Hf15     1.0000 0.85648  0.72451  0.31593  Biso   1.000  Hf
  Hf16     1.0000 0.86390  0.46041  0.74657  Biso   1.000  Hf
  O25      1.0000 0.52335  0.66371  0.07654  Biso   1.000  O 
  O26      1.0000 0.48680  0.59309  0.55515  Biso   1.000  O 
  O27      1.0000 0.50278  0.84463  0.48837  Biso   1.000  O 
  O28      1.0000 0.51314  0.88771  0.97395  Biso   1.000  O 
  O29      1.0000 0.73650  0.61636  0.56749  Biso   1.000  O 
  O30      1.0000 0.78159  0.56948  0.08434  Biso   1.000  O 
  O31      1.0000 0.73940  0.81874  0.06284  Biso   1.000  O 
  O32      1.0000 0.75284  0.86825  0.55459  Biso   1.000  O 
  Yb1      1.0000 0.12289  0.24272  0.17276  Biso   1.000  Yb
