data_image0
_cell_length_a       10.0631
_cell_length_b       10.2955
_cell_length_c       10.0631
_cell_angle_alpha    90
_cell_angle_beta     90
_cell_angle_gamma    90

_symmetry_space_group_name_H-M    "P 1"
_symmetry_int_tables_number       1

loop_
  _symmetry_equiv_pos_as_xyz
  'x, y, z'

loop_
  _atom_site_label
  _atom_site_occupancy
  _atom_site_fract_x
  _atom_site_fract_y
  _atom_site_fract_z
  _atom_site_thermal_displace_type
  _atom_site_B_iso_or_equiv
  _atom_site_type_symbol
  Hf1      1.0000 0.12491  0.96616  0.12490  Biso   1.000  Hf
  Hf2      1.0000 0.12491  0.25005  0.39365  Biso   1.000  Hf
  Hf3      1.0000 0.39365  0.25006  0.12491  Biso   1.000  Hf
  Hf4      1.0000 0.37548  0.01062  0.37547  Biso   1.000  Hf
  O1       1.0000 0.97970  0.16258  0.97970  Biso   1.000  O 
  O2       1.0000 0.01092  0.09199  0.23890  Biso   1.000  O 
  O3       1.0000 0.97970  0.33752  0.27013  Biso   1.000  O 
  O4       1.0000 0.01091  0.40811  0.01093  Biso   1.000  O 
  O5       1.0000 0.27014  0.16260  0.27013  Biso   1.000  O 
  O6       1.0000 0.23892  0.09199  0.01093  Biso   1.000  O 
  O7       1.0000 0.27013  0.33750  0.97969  Biso   1.000  O 
  O8       1.0000 0.23892  0.40812  0.23889  Biso   1.000  O 
  Hf5      1.0000 0.12490  0.99242  0.62490  Biso   1.000  Hf
  Hf6      1.0000 0.12491  0.25005  0.85617  Biso   1.000  Hf
  Hf7      1.0000 0.37593  0.25005  0.62491  Biso   1.000  Hf
  Hf8      1.0000 0.37108  0.00488  0.87874  Biso   1.000  Hf
  O9       1.0000 0.99063  0.14303  0.49579  Biso   1.000  O 
  O10      1.0000 0.00191  0.10279  0.74119  Biso   1.000  O 
  O11      1.0000 0.99063  0.35707  0.75404  Biso   1.000  O 
  O12      1.0000 0.00192  0.39731  0.50863  Biso   1.000  O 
  O13      1.0000 0.25919  0.14303  0.75404  Biso   1.000  O 
  O14      1.0000 0.24791  0.10278  0.50863  Biso   1.000  O 
  O15      1.0000 0.25919  0.35707  0.49578  Biso   1.000  O 
  O16      1.0000 0.24790  0.39732  0.74119  Biso   1.000  O 
  Hf9      1.0000 0.12491  0.53394  0.12491  Biso   1.000  Hf
  Hf10     1.0000 0.12490  0.75005  0.38410  Biso   1.000  Hf
  Hf11     1.0000 0.38410  0.75006  0.12491  Biso   1.000  Hf
  Hf12     1.0000 0.37108  0.49522  0.37108  Biso   1.000  Hf
  O17      1.0000 0.00445  0.65829  0.00446  Biso   1.000  O 
  O18      1.0000 0.99272  0.60104  0.25710  Biso   1.000  O 
  O19      1.0000 0.00446  0.84182  0.24535  Biso   1.000  O 
  O20      1.0000 0.99273  0.89905  0.99270  Biso   1.000  O 
  O21      1.0000 0.24535  0.65829  0.24535  Biso   1.000  O 
  O22      1.0000 0.25709  0.60103  0.99271  Biso   1.000  O 
  O23      1.0000 0.24536  0.84182  0.00446  Biso   1.000  O 
  O24      1.0000 0.25709  0.89907  0.25710  Biso   1.000  O 
  Hf13     1.0000 0.12491  0.50769  0.62491  Biso   1.000  Hf
  Hf14     1.0000 0.12490  0.75006  0.86572  Biso   1.000  Hf
  Hf15     1.0000 0.37844  0.75006  0.62491  Biso   1.000  Hf
  Hf16     1.0000 0.37547  0.48949  0.87434  Biso   1.000  Hf
  O25      1.0000 0.99986  0.64755  0.50679  Biso   1.000  O 
  O26      1.0000 0.00369  0.60352  0.75687  Biso   1.000  O 
  O27      1.0000 0.99987  0.85254  0.74302  Biso   1.000  O 
  O28      1.0000 0.00369  0.89659  0.49294  Biso   1.000  O 
  O29      1.0000 0.24994  0.64756  0.74302  Biso   1.000  O 
  O30      1.0000 0.24611  0.60351  0.49294  Biso   1.000  O 
  O31      1.0000 0.24994  0.85254  0.50679  Biso   1.000  O 
  O32      1.0000 0.24612  0.89659  0.75687  Biso   1.000  O 
  Hf17     1.0000 0.62491  0.99243  0.12490  Biso   1.000  Hf
  Hf18     1.0000 0.62491  0.25006  0.37594  Biso   1.000  Hf
  Hf19     1.0000 0.85618  0.25006  0.12491  Biso   1.000  Hf
  Hf20     1.0000 0.87874  0.00488  0.37107  Biso   1.000  Hf
  O33      1.0000 0.49579  0.14302  0.99063  Biso   1.000  O 
  O34      1.0000 0.50863  0.10279  0.24790  Biso   1.000  O 
  O35      1.0000 0.49580  0.35708  0.25918  Biso   1.000  O 
  O36      1.0000 0.50862  0.39732  0.00191  Biso   1.000  O 
  O37      1.0000 0.75404  0.14304  0.25919  Biso   1.000  O 
  O38      1.0000 0.74120  0.10279  0.00191  Biso   1.000  O 
  O39      1.0000 0.75403  0.35707  0.99063  Biso   1.000  O 
  O40      1.0000 0.74121  0.39732  0.24791  Biso   1.000  O 
  Hf21     1.0000 0.62491  0.99892  0.62490  Biso   1.000  Hf
  Hf22     1.0000 0.62491  0.25006  0.87388  Biso   1.000  Hf
  Hf23     1.0000 0.87389  0.25005  0.62491  Biso   1.000  Hf
  Hf24     1.0000 0.87434  0.01061  0.87434  Biso   1.000  Hf
  O41      1.0000 0.49692  0.15065  0.49691  Biso   1.000  O 
  O42      1.0000 0.50219  0.09989  0.74763  Biso   1.000  O 
  O43      1.0000 0.49692  0.34946  0.75290  Biso   1.000  O 
  O44      1.0000 0.50220  0.40022  0.50219  Biso   1.000  O 
  O45      1.0000 0.75290  0.15065  0.75290  Biso   1.000  O 
  O46      1.0000 0.74763  0.09988  0.50219  Biso   1.000  O 
  O47      1.0000 0.75291  0.34945  0.49692  Biso   1.000  O 
  O48      1.0000 0.74763  0.40022  0.74763  Biso   1.000  O 
  Hf25     1.0000 0.62490  0.50768  0.12492  Biso   1.000  Hf
  Hf26     1.0000 0.62490  0.75005  0.37845  Biso   1.000  Hf
  Hf27     1.0000 0.86571  0.75005  0.12491  Biso   1.000  Hf
  Hf28     1.0000 0.87435  0.48949  0.37548  Biso   1.000  Hf
  O49      1.0000 0.50679  0.64755  0.99988  Biso   1.000  O 
  O50      1.0000 0.49295  0.60352  0.24612  Biso   1.000  O 
  O51      1.0000 0.50678  0.85256  0.24995  Biso   1.000  O 
  O52      1.0000 0.49295  0.89659  0.00369  Biso   1.000  O 
  O53      1.0000 0.74302  0.64756  0.24995  Biso   1.000  O 
  O54      1.0000 0.75686  0.60351  0.00370  Biso   1.000  O 
  O55      1.0000 0.74303  0.85254  0.99987  Biso   1.000  O 
  O56      1.0000 0.75686  0.89659  0.24612  Biso   1.000  O 
  Hf29     1.0000 0.62491  0.50118  0.62491  Biso   1.000  Hf
  Hf30     1.0000 0.62490  0.75005  0.87137  Biso   1.000  Hf
  Hf31     1.0000 0.87136  0.75005  0.62491  Biso   1.000  Hf
  Hf32     1.0000 0.87874  0.49523  0.87875  Biso   1.000  Hf
  O57      1.0000 0.49811  0.64900  0.49811  Biso   1.000  O 
  O58      1.0000 0.50027  0.60008  0.74955  Biso   1.000  O 
  O59      1.0000 0.49811  0.85111  0.75170  Biso   1.000  O 
  O60      1.0000 0.50027  0.90003  0.50027  Biso   1.000  O 
  O61      1.0000 0.75170  0.64900  0.75171  Biso   1.000  O 
  O62      1.0000 0.74954  0.60007  0.50027  Biso   1.000  O 
  O63      1.0000 0.75169  0.85111  0.49811  Biso   1.000  O 
  O64      1.0000 0.74954  0.90003  0.74954  Biso   1.000  O 
  Yb1      1.0000 0.12492  0.25005  0.12491  Biso   1.000  Yb
