data_image0
_cell_length_a       10.0367
_cell_length_b       5.08168
_cell_length_c       10.0367
_cell_angle_alpha    90
_cell_angle_beta     90
_cell_angle_gamma    90

_symmetry_space_group_name_H-M    "P 1"
_symmetry_int_tables_number       1

loop_
  _symmetry_equiv_pos_as_xyz
  'x, y, z'

loop_
  _atom_site_label
  _atom_site_occupancy
  _atom_site_fract_x
  _atom_site_fract_y
  _atom_site_fract_z
  _atom_site_thermal_displace_type
  _atom_site_B_iso_or_equiv
  _atom_site_type_symbol
  Yb1      1.0000 0.12491  0.00011  0.12491  Biso   1.000  Yb
  Hf1      1.0000 0.12491  0.50011  0.37535  Biso   1.000  Hf
  Hf2      1.0000 0.37535  0.50011  0.12491  Biso   1.000  Hf
  Hf3      1.0000 0.37489  0.99930  0.37489  Biso   1.000  Hf
  O1       1.0000 0.99983  0.28415  0.99983  Biso   1.000  O 
  O2       1.0000 0.99324  0.23025  0.25658  Biso   1.000  O 
  O3       1.0000 0.99983  0.71606  0.24998  Biso   1.000  O 
  O4       1.0000 0.99324  0.76996  0.99324  Biso   1.000  O 
  O5       1.0000 0.24999  0.28415  0.24998  Biso   1.000  O 
  O6       1.0000 0.25657  0.23025  0.99324  Biso   1.000  O 
  O7       1.0000 0.24999  0.71607  0.99983  Biso   1.000  O 
  O8       1.0000 0.25657  0.76996  0.25658  Biso   1.000  O 
  Hf4      1.0000 0.12491  0.00011  0.62491  Biso   1.000  Hf
  Hf5      1.0000 0.12491  0.50011  0.87447  Biso   1.000  Hf
  Hf6      1.0000 0.37499  0.50011  0.62491  Biso   1.000  Hf
  Hf7      1.0000 0.37489  0.00091  0.87492  Biso   1.000  Hf
  O9       1.0000 0.00328  0.29232  0.50548  Biso   1.000  O 
  O10      1.0000 0.99882  0.20747  0.75245  Biso   1.000  O 
  O11      1.0000 0.00328  0.70789  0.74434  Biso   1.000  O 
  O12      1.0000 0.99882  0.79275  0.49737  Biso   1.000  O 
  O13      1.0000 0.24654  0.29232  0.74434  Biso   1.000  O 
  O14      1.0000 0.25100  0.20747  0.49737  Biso   1.000  O 
  O15      1.0000 0.24654  0.70789  0.50548  Biso   1.000  O 
  O16      1.0000 0.25099  0.79274  0.75245  Biso   1.000  O 
  Hf8      1.0000 0.62491  0.00011  0.12491  Biso   1.000  Hf
  Hf9      1.0000 0.62491  0.50011  0.37499  Biso   1.000  Hf
  Hf10     1.0000 0.87447  0.50011  0.12491  Biso   1.000  Hf
  Hf11     1.0000 0.87492  0.00091  0.37489  Biso   1.000  Hf
  O17      1.0000 0.50547  0.29232  0.00328  Biso   1.000  O 
  O18      1.0000 0.49737  0.20747  0.25100  Biso   1.000  O 
  O19      1.0000 0.50547  0.70789  0.24654  Biso   1.000  O 
  O20      1.0000 0.49738  0.79275  0.99882  Biso   1.000  O 
  O21      1.0000 0.74434  0.29233  0.24654  Biso   1.000  O 
  O22      1.0000 0.75244  0.20747  0.99882  Biso   1.000  O 
  O23      1.0000 0.74434  0.70790  0.00328  Biso   1.000  O 
  O24      1.0000 0.75244  0.79274  0.25100  Biso   1.000  O 
  Hf12     1.0000 0.62491  0.00011  0.62491  Biso   1.000  Hf
  Hf13     1.0000 0.62491  0.50011  0.87483  Biso   1.000  Hf
  Hf14     1.0000 0.87483  0.50011  0.62491  Biso   1.000  Hf
  Hf15     1.0000 0.87492  0.99930  0.87492  Biso   1.000  Hf
  O25      1.0000 0.50204  0.29373  0.50204  Biso   1.000  O 
  O26      1.0000 0.49877  0.20688  0.75105  Biso   1.000  O 
  O27      1.0000 0.50204  0.70648  0.74778  Biso   1.000  O 
  O28      1.0000 0.49877  0.79334  0.49877  Biso   1.000  O 
  O29      1.0000 0.74778  0.29373  0.74778  Biso   1.000  O 
  O30      1.0000 0.75104  0.20688  0.49877  Biso   1.000  O 
  O31      1.0000 0.74778  0.70649  0.50204  Biso   1.000  O 
  O32      1.0000 0.75104  0.79333  0.75105  Biso   1.000  O 
