data_image0
_cell_length_a       9.99013
_cell_length_b       5.18285
_cell_length_c       10.0426
_cell_angle_alpha    90
_cell_angle_beta     90
_cell_angle_gamma    90

_symmetry_space_group_name_H-M    "P 1"
_symmetry_int_tables_number       1

loop_
  _symmetry_equiv_pos_as_xyz
  'x, y, z'

loop_
  _atom_site_label
  _atom_site_occupancy
  _atom_site_fract_x
  _atom_site_fract_y
  _atom_site_fract_z
  _atom_site_thermal_displace_type
  _atom_site_B_iso_or_equiv
  _atom_site_type_symbol
  Yb1      1.0000 0.13049  0.03082  0.12104  Biso   1.000  Yb
  Hf1      1.0000 0.13448  0.46691  0.37724  Biso   1.000  Hf
  Hf2      1.0000 0.36531  0.53104  0.12733  Biso   1.000  Hf
  Hf3      1.0000 0.36312  0.96663  0.37475  Biso   1.000  Hf
  O1       1.0000 0.03199  0.37889  0.19988  Biso   1.000  O 
  O2       1.0000 0.03420  0.13019  0.44511  Biso   1.000  O 
  O3       1.0000 0.46375  0.86788  0.19482  Biso   1.000  O 
  O4       1.0000 0.46313  0.63069  0.44582  Biso   1.000  O 
  O5       1.0000 0.27599  0.24413  0.25275  Biso   1.000  O 
  O6       1.0000 0.26865  0.26240  0.50106  Biso   1.000  O 
  O7       1.0000 0.22832  0.76468  0.50053  Biso   1.000  O 
  O8       1.0000 0.23259  0.72782  0.25285  Biso   1.000  O 
  Hf4      1.0000 0.13185  0.03219  0.62640  Biso   1.000  Hf
  Hf5      1.0000 0.13278  0.46750  0.87409  Biso   1.000  Hf
  Hf6      1.0000 0.36452  0.53163  0.62558  Biso   1.000  Hf
  Hf7      1.0000 0.36512  0.96367  0.87543  Biso   1.000  Hf
  O9       1.0000 0.03619  0.37186  0.69061  Biso   1.000  O 
  O10      1.0000 0.03117  0.13944  0.93174  Biso   1.000  O 
  O11      1.0000 0.46305  0.86533  0.69496  Biso   1.000  O 
  O12      1.0000 0.46514  0.63005  0.94493  Biso   1.000  O 
  O13      1.0000 0.26944  0.23438  0.74910  Biso   1.000  O 
  O14      1.0000 0.27142  0.26365  0.99616  Biso   1.000  O 
  O15      1.0000 0.23318  0.75244  0.99634  Biso   1.000  O 
  O16      1.0000 0.22823  0.73559  0.74842  Biso   1.000  O 
  Hf8      1.0000 0.63297  0.03041  0.12589  Biso   1.000  Hf
  Hf9      1.0000 0.63138  0.46476  0.37657  Biso   1.000  Hf
  Hf10     1.0000 0.86181  0.53109  0.12674  Biso   1.000  Hf
  Hf11     1.0000 0.86410  0.96534  0.37893  Biso   1.000  Hf
  O17      1.0000 0.53779  0.36742  0.19367  Biso   1.000  O 
  O18      1.0000 0.53407  0.12956  0.44469  Biso   1.000  O 
  O19      1.0000 0.95475  0.86333  0.19966  Biso   1.000  O 
  O20      1.0000 0.96297  0.63166  0.44650  Biso   1.000  O 
  O21      1.0000 0.76921  0.23160  0.25005  Biso   1.000  O 
  O22      1.0000 0.76779  0.26407  0.49989  Biso   1.000  O 
  O23      1.0000 0.72775  0.76251  0.50056  Biso   1.000  O 
  O24      1.0000 0.72521  0.73288  0.25059  Biso   1.000  O 
  Hf12     1.0000 0.63143  0.03077  0.62548  Biso   1.000  Hf
  Hf13     1.0000 0.63211  0.46292  0.87527  Biso   1.000  Hf
  Hf14     1.0000 0.86452  0.53055  0.62525  Biso   1.000  Hf
  Hf15     1.0000 0.86238  0.96255  0.87465  Biso   1.000  Hf
  O25      1.0000 0.53419  0.36548  0.69467  Biso   1.000  O 
  O26      1.0000 0.53495  0.12773  0.94413  Biso   1.000  O 
  O27      1.0000 0.96160  0.86700  0.69429  Biso   1.000  O 
  O28      1.0000 0.96451  0.63573  0.94867  Biso   1.000  O 
  O29      1.0000 0.76875  0.23231  0.74873  Biso   1.000  O 
  O30      1.0000 0.76843  0.25922  0.99907  Biso   1.000  O 
  O31      1.0000 0.72982  0.76217  0.00000  Biso   1.000  O 
  O32      1.0000 0.72793  0.73199  0.74986  Biso   1.000  O 
