data_image0
_cell_length_a       5.10115
_cell_length_b       10.4098
_cell_length_c       10.1193
_cell_angle_alpha    90
_cell_angle_beta     90
_cell_angle_gamma    90

_symmetry_space_group_name_H-M    "P 1"
_symmetry_int_tables_number       1

loop_
  _symmetry_equiv_pos_as_xyz
  'x, y, z'

loop_
  _atom_site_label
  _atom_site_occupancy
  _atom_site_fract_x
  _atom_site_fract_y
  _atom_site_fract_z
  _atom_site_thermal_displace_type
  _atom_site_B_iso_or_equiv
  _atom_site_type_symbol
  Hf1      1.0000 0.14775  0.97214  0.15053  Biso   1.000  Hf
  Hf2      1.0000 0.18628  0.24341  0.39103  Biso   1.000  Hf
  Hf3      1.0000 0.64200  0.26712  0.11434  Biso   1.000  Hf
  Hf4      1.0000 0.72619  0.01719  0.39384  Biso   1.000  Hf
  O1       1.0000 0.88328  0.18690  0.96747  Biso   1.000  O 
  O2       1.0000 0.00300  0.07856  0.26143  Biso   1.000  O 
  O3       1.0000 0.86856  0.31925  0.27920  Biso   1.000  O 
  O4       1.0000 0.88637  0.42819  0.03532  Biso   1.000  O 
  O5       1.0000 0.46577  0.13999  0.25409  Biso   1.000  O 
  O6       1.0000 0.39933  0.11313  0.00283  Biso   1.000  O 
  O7       1.0000 0.40382  0.37195  0.98197  Biso   1.000  O 
  O8       1.0000 0.39022  0.39337  0.23583  Biso   1.000  O 
  Hf5      1.0000 0.14949  0.97726  0.64335  Biso   1.000  Hf
  Hf6      1.0000 0.20684  0.23462  0.84369  Biso   1.000  Hf
  Hf7      1.0000 0.67390  0.26612  0.61384  Biso   1.000  Hf
  Hf8      1.0000 0.72125  0.02072  0.89617  Biso   1.000  Hf
  O9       1.0000 0.91706  0.15938  0.50572  Biso   1.000  O 
  O10      1.0000 0.03188  0.06903  0.76722  Biso   1.000  O 
  O11      1.0000 0.90545  0.33449  0.76150  Biso   1.000  O 
  O12      1.0000 0.93074  0.40978  0.51174  Biso   1.000  O 
  O13      1.0000 0.51318  0.13399  0.74755  Biso   1.000  O 
  O14      1.0000 0.43042  0.11186  0.50313  Biso   1.000  O 
  O15      1.0000 0.43803  0.36733  0.48779  Biso   1.000  O 
  O16      1.0000 0.42271  0.38708  0.73534  Biso   1.000  O 
  Hf9      1.0000 0.20978  0.53054  0.10498  Biso   1.000  Hf
  Hf10     1.0000 0.21812  0.72908  0.36242  Biso   1.000  Hf
  Hf11     1.0000 0.67751  0.76748  0.10533  Biso   1.000  Hf
  Hf12     1.0000 0.68578  0.48219  0.35250  Biso   1.000  Hf
  O17      1.0000 0.99464  0.67954  0.01852  Biso   1.000  O 
  O18      1.0000 0.00528  0.57337  0.27649  Biso   1.000  O 
  O19      1.0000 0.95878  0.82037  0.24440  Biso   1.000  O 
  O20      1.0000 0.84465  0.93028  0.02054  Biso   1.000  O 
  O21      1.0000 0.48437  0.63833  0.23494  Biso   1.000  O 
  O22      1.0000 0.49862  0.62103  0.98269  Biso   1.000  O 
  O23      1.0000 0.37258  0.86304  0.00055  Biso   1.000  O 
  O24      1.0000 0.44777  0.88337  0.25377  Biso   1.000  O 
  Hf13     1.0000 0.21234  0.51322  0.60958  Biso   1.000  Hf
  Hf14     1.0000 0.23037  0.73368  0.85521  Biso   1.000  Hf
  Hf15     1.0000 0.68366  0.76176  0.60486  Biso   1.000  Hf
  Hf16     1.0000 0.69485  0.48371  0.86156  Biso   1.000  Hf
  O25      1.0000 0.99582  0.66519  0.52278  Biso   1.000  O 
  O26      1.0000 0.01880  0.57162  0.78104  Biso   1.000  O 
  O27      1.0000 0.96416  0.81964  0.73880  Biso   1.000  O 
  O28      1.0000 0.86182  0.91701  0.50996  Biso   1.000  O 
  O29      1.0000 0.49428  0.63357  0.73457  Biso   1.000  O 
  O30      1.0000 0.48231  0.60976  0.48493  Biso   1.000  O 
  O31      1.0000 0.38281  0.85868  0.50098  Biso   1.000  O 
  O32      1.0000 0.44853  0.88456  0.75084  Biso   1.000  O 
  Yb1      1.0000 0.14278  0.24777  0.12227  Biso   1.000  Yb
