data_image0
_cell_length_a       10.1764
_cell_length_b       5.17415
_cell_length_c       10.6103
_cell_angle_alpha    90
_cell_angle_beta     80
_cell_angle_gamma    90

_symmetry_space_group_name_H-M    "P 1"
_symmetry_int_tables_number       1

loop_
  _symmetry_equiv_pos_as_xyz
  'x, y, z'

loop_
  _atom_site_label
  _atom_site_occupancy
  _atom_site_fract_x
  _atom_site_fract_y
  _atom_site_fract_z
  _atom_site_thermal_displace_type
  _atom_site_B_iso_or_equiv
  _atom_site_type_symbol
  Hf1      1.0000 0.13681  0.04326  0.14753  Biso   1.000  Hf
  Hf2      1.0000 0.13857  0.45951  0.39534  Biso   1.000  Hf
  Hf3      1.0000 0.34354  0.55013  0.07728  Biso   1.000  Hf
  Hf4      1.0000 0.36164  0.95939  0.35550  Biso   1.000  Hf
  O1       1.0000 0.03373  0.33250  0.07683  Biso   1.000  O 
  O2       1.0000 0.03552  0.16835  0.32791  Biso   1.000  O 
  O3       1.0000 0.46519  0.83808  0.17149  Biso   1.000  O 
  O4       1.0000 0.48239  0.69933  0.43766  Biso   1.000  O 
  O5       1.0000 0.27519  0.24829  0.23712  Biso   1.000  O 
  O6       1.0000 0.29115  0.26838  0.48336  Biso   1.000  O 
  O7       1.0000 0.22578  0.78201  0.99663  Biso   1.000  O 
  O8       1.0000 0.22938  0.72654  0.25363  Biso   1.000  O 
  Hf5      1.0000 0.14947  0.05244  0.64273  Biso   1.000  Hf
  Hf6      1.0000 0.14678  0.46432  0.88943  Biso   1.000  Hf
  Hf7      1.0000 0.37098  0.55831  0.60451  Biso   1.000  Hf
  Hf8      1.0000 0.37114  0.97235  0.84661  Biso   1.000  Hf
  O9       1.0000 0.04539  0.34166  0.57811  Biso   1.000  O 
  O10      1.0000 0.04546  0.17360  0.82458  Biso   1.000  O 
  O11      1.0000 0.47803  0.84132  0.67486  Biso   1.000  O 
  O12      1.0000 0.48073  0.68664  0.91453  Biso   1.000  O 
  O13      1.0000 0.28675  0.26415  0.73558  Biso   1.000  O 
  O14      1.0000 0.28837  0.25356  0.98234  Biso   1.000  O 
  O15      1.0000 0.22728  0.76971  0.50846  Biso   1.000  O 
  O16      1.0000 0.23458  0.74979  0.75423  Biso   1.000  O 
  Hf9      1.0000 0.64128  0.03780  0.14912  Biso   1.000  Hf
  Hf10     1.0000 0.65730  0.45633  0.41339  Biso   1.000  Hf
  Hf11     1.0000 0.85990  0.54034  0.10800  Biso   1.000  Hf
  Hf12     1.0000 0.86189  0.95787  0.35562  Biso   1.000  Hf
  O17      1.0000 0.52886  0.33761  0.08004  Biso   1.000  O 
  O18      1.0000 0.55250  0.14500  0.33712  Biso   1.000  O 
  O19      1.0000 0.96511  0.82805  0.17585  Biso   1.000  O 
  O20      1.0000 0.96924  0.67102  0.42427  Biso   1.000  O 
  O21      1.0000 0.78341  0.25511  0.24346  Biso   1.000  O 
  O22      1.0000 0.79311  0.23930  0.49939  Biso   1.000  O 
  O23      1.0000 0.72040  0.75356  0.01435  Biso   1.000  O 
  O24      1.0000 0.72330  0.73450  0.26270  Biso   1.000  O 
  Hf13     1.0000 0.65074  0.05113  0.65072  Biso   1.000  Hf
  Hf14     1.0000 0.65252  0.46433  0.89802  Biso   1.000  Hf
  Hf15     1.0000 0.87231  0.55240  0.60889  Biso   1.000  Hf
  Hf16     1.0000 0.87216  0.96431  0.85556  Biso   1.000  Hf
  O25      1.0000 0.54429  0.33971  0.58409  Biso   1.000  O 
  O26      1.0000 0.54469  0.18264  0.82832  Biso   1.000  O 
  O27      1.0000 0.97654  0.84102  0.67384  Biso   1.000  O 
  O28      1.0000 0.97627  0.67254  0.92048  Biso   1.000  O 
  O29      1.0000 0.78782  0.26740  0.74507  Biso   1.000  O 
  O30      1.0000 0.79149  0.25070  0.99199  Biso   1.000  O 
  O31      1.0000 0.73417  0.76124  0.51685  Biso   1.000  O 
  O32      1.0000 0.73559  0.75212  0.76348  Biso   1.000  O 
  Yb1      1.0000 0.44803  0.46846  0.27813  Biso   1.000  Yb
