data_image0
_cell_length_a       10.0586
_cell_length_b       5.09118
_cell_length_c       10.4438
_cell_angle_alpha    90
_cell_angle_beta     90
_cell_angle_gamma    90

_symmetry_space_group_name_H-M    "P 1"
_symmetry_int_tables_number       1

loop_
  _symmetry_equiv_pos_as_xyz
  'x, y, z'

loop_
  _atom_site_label
  _atom_site_occupancy
  _atom_site_fract_x
  _atom_site_fract_y
  _atom_site_fract_z
  _atom_site_thermal_displace_type
  _atom_site_B_iso_or_equiv
  _atom_site_type_symbol
  Zn1      1.0000 0.12674  0.02201  0.17938  Biso   1.000  Zn
  Hf1      1.0000 0.13719  0.04144  0.67147  Biso   1.000  Hf
  Hf2      1.0000 0.14015  0.46031  0.41784  Biso   1.000  Hf
  Hf3      1.0000 0.14128  0.45890  0.92592  Biso   1.000  Hf
  Hf4      1.0000 0.35508  0.54350  0.17051  Biso   1.000  Hf
  Hf5      1.0000 0.35941  0.54466  0.67188  Biso   1.000  Hf
  Hf6      1.0000 0.35830  0.96253  0.41870  Biso   1.000  Hf
  Hf7      1.0000 0.35769  0.96272  0.92469  Biso   1.000  Hf
  Hf8      1.0000 0.63937  0.03972  0.07776  Biso   1.000  Hf
  Hf9      1.0000 0.63480  0.04251  0.57793  Biso   1.000  Hf
  Hf10     1.0000 0.63655  0.45933  0.32673  Biso   1.000  Hf
  Hf11     1.0000 0.63736  0.45989  0.82872  Biso   1.000  Hf
  Hf12     1.0000 0.86747  0.53378  0.07974  Biso   1.000  Hf
  Hf13     1.0000 0.85835  0.54105  0.57787  Biso   1.000  Hf
  Hf14     1.0000 0.86015  0.95766  0.32853  Biso   1.000  Hf
  Hf15     1.0000 0.86141  0.95742  0.82933  Biso   1.000  Hf
  O1       1.0000 0.03904  0.32105  0.08421  Biso   1.000  O 
  O2       1.0000 0.02821  0.32110  0.57955  Biso   1.000  O 
  O3       1.0000 0.02730  0.17468  0.33906  Biso   1.000  O 
  O4       1.0000 0.02860  0.17871  0.83093  Biso   1.000  O 
  O5       1.0000 0.47177  0.82566  0.08285  Biso   1.000  O 
  O6       1.0000 0.46574  0.83336  0.58345  Biso   1.000  O 
  O7       1.0000 0.46749  0.67529  0.33304  Biso   1.000  O 
  O8       1.0000 0.46714  0.67357  0.83298  Biso   1.000  O 
  O9       1.0000 0.27594  0.25206  0.29573  Biso   1.000  O 
  O10      1.0000 0.27262  0.24712  0.79201  Biso   1.000  O 
  O11      1.0000 0.29336  0.27906  0.03411  Biso   1.000  O 
  O12      1.0000 0.27351  0.25526  0.54477  Biso   1.000  O 
  O13      1.0000 0.22357  0.74873  0.29616  Biso   1.000  O 
  O14      1.0000 0.22371  0.74917  0.79589  Biso   1.000  O 
  O15      1.0000 0.22549  0.76562  0.04589  Biso   1.000  O 
  O16      1.0000 0.22273  0.75349  0.54520  Biso   1.000  O 
  O17      1.0000 0.53236  0.32934  0.16570  Biso   1.000  O 
  O18      1.0000 0.53113  0.33366  0.66550  Biso   1.000  O 
  O19      1.0000 0.52977  0.17127  0.41530  Biso   1.000  O 
  O20      1.0000 0.53192  0.16800  0.91446  Biso   1.000  O 
  O21      1.0000 0.96367  0.82364  0.17033  Biso   1.000  O 
  O22      1.0000 0.96886  0.82164  0.66925  Biso   1.000  O 
  O23      1.0000 0.96692  0.67437  0.41891  Biso   1.000  O 
  O24      1.0000 0.96809  0.67349  0.91998  Biso   1.000  O 
  O25      1.0000 0.77419  0.24574  0.95457  Biso   1.000  O 
  O26      1.0000 0.77223  0.24996  0.45476  Biso   1.000  O 
  O27      1.0000 0.77528  0.25079  0.20446  Biso   1.000  O 
  O28      1.0000 0.77384  0.25161  0.70450  Biso   1.000  O 
  O29      1.0000 0.72428  0.74544  0.95478  Biso   1.000  O 
  O30      1.0000 0.72279  0.74883  0.45484  Biso   1.000  O 
  O31      1.0000 0.72356  0.75032  0.20496  Biso   1.000  O 
  O32      1.0000 0.72378  0.75349  0.70463  Biso   1.000  O 
