data_image0
_cell_length_a       10.2226
_cell_length_b       5.14928
_cell_length_c       10.5354
_cell_angle_alpha    90
_cell_angle_beta     80
_cell_angle_gamma    90

_symmetry_space_group_name_H-M    "P 1"
_symmetry_int_tables_number       1

loop_
  _symmetry_equiv_pos_as_xyz
  'x, y, z'

loop_
  _atom_site_label
  _atom_site_occupancy
  _atom_site_fract_x
  _atom_site_fract_y
  _atom_site_fract_z
  _atom_site_thermal_displace_type
  _atom_site_B_iso_or_equiv
  _atom_site_type_symbol
  Hf1      1.0000 0.13294  0.04248  0.13900  Biso   1.000  Hf
  Hf2      1.0000 0.14705  0.45218  0.39001  Biso   1.000  Hf
  Hf3      1.0000 0.35487  0.54438  0.10377  Biso   1.000  Hf
  Hf4      1.0000 0.35852  0.92088  0.34385  Biso   1.000  Hf
  O1       1.0000 0.02943  0.33884  0.07459  Biso   1.000  O 
  O2       1.0000 0.03373  0.17176  0.32459  Biso   1.000  O 
  O3       1.0000 0.46526  0.85530  0.16319  Biso   1.000  O 
  O4       1.0000 0.49121  0.69134  0.43786  Biso   1.000  O 
  O5       1.0000 0.26801  0.22483  0.23212  Biso   1.000  O 
  O6       1.0000 0.28889  0.23222  0.48454  Biso   1.000  O 
  O7       1.0000 0.22007  0.76233  0.00460  Biso   1.000  O 
  O8       1.0000 0.20513  0.74439  0.24956  Biso   1.000  O 
  Hf5      1.0000 0.15188  0.04096  0.64223  Biso   1.000  Hf
  Hf6      1.0000 0.15071  0.45607  0.89208  Biso   1.000  Hf
  Hf7      1.0000 0.37393  0.54426  0.60858  Biso   1.000  Hf
  Hf8      1.0000 0.37467  0.95469  0.85386  Biso   1.000  Hf
  O9       1.0000 0.04689  0.32680  0.57425  Biso   1.000  O 
  O10      1.0000 0.04758  0.16646  0.82329  Biso   1.000  O 
  O11      1.0000 0.48040  0.82447  0.67798  Biso   1.000  O 
  O12      1.0000 0.47971  0.66606  0.92181  Biso   1.000  O 
  O13      1.0000 0.28852  0.25380  0.73684  Biso   1.000  O 
  O14      1.0000 0.28843  0.24522  0.98455  Biso   1.000  O 
  O15      1.0000 0.23419  0.74444  0.50902  Biso   1.000  O 
  O16      1.0000 0.23774  0.74229  0.75662  Biso   1.000  O 
  Hf9      1.0000 0.64069  0.04555  0.14687  Biso   1.000  Hf
  Hf10     1.0000 0.65993  0.45768  0.40600  Biso   1.000  Hf
  Hf11     1.0000 0.85824  0.54494  0.10507  Biso   1.000  Hf
  Hf12     1.0000 0.86966  0.95316  0.35418  Biso   1.000  Hf
  O17      1.0000 0.53417  0.34398  0.08377  Biso   1.000  O 
  O18      1.0000 0.53934  0.16502  0.33257  Biso   1.000  O 
  O19      1.0000 0.95972  0.83696  0.17033  Biso   1.000  O 
  O20      1.0000 0.97344  0.66539  0.42248  Biso   1.000  O 
  O21      1.0000 0.77826  0.26002  0.24401  Biso   1.000  O 
  O22      1.0000 0.78817  0.23537  0.49439  Biso   1.000  O 
  O23      1.0000 0.72239  0.76125  0.01269  Biso   1.000  O 
  O24      1.0000 0.72421  0.74409  0.26390  Biso   1.000  O 
  Hf13     1.0000 0.65067  0.03999  0.65012  Biso   1.000  Hf
  Hf14     1.0000 0.65090  0.45734  0.89749  Biso   1.000  Hf
  Hf15     1.0000 0.87719  0.54100  0.60611  Biso   1.000  Hf
  Hf16     1.0000 0.87561  0.95619  0.85306  Biso   1.000  Hf
  O25      1.0000 0.54539  0.32499  0.58032  Biso   1.000  O 
  O26      1.0000 0.54721  0.16639  0.82999  Biso   1.000  O 
  O27      1.0000 0.98000  0.83008  0.67144  Biso   1.000  O 
  O28      1.0000 0.97874  0.66637  0.91910  Biso   1.000  O 
  O29      1.0000 0.78816  0.25640  0.74128  Biso   1.000  O 
  O30      1.0000 0.78953  0.24003  0.98988  Biso   1.000  O 
  O31      1.0000 0.73748  0.75121  0.51477  Biso   1.000  O 
  O32      1.0000 0.73886  0.74162  0.76181  Biso   1.000  O 
  Zn1      1.0000 0.42164  0.43960  0.32186  Biso   1.000  Zn
