data_image0
_cell_length_a       5.10134
_cell_length_b       10.3314
_cell_length_c       10.057
_cell_angle_alpha    90
_cell_angle_beta     90
_cell_angle_gamma    90

_symmetry_space_group_name_H-M    "P 1"
_symmetry_int_tables_number       1

loop_
  _symmetry_equiv_pos_as_xyz
  'x, y, z'

loop_
  _atom_site_label
  _atom_site_occupancy
  _atom_site_fract_x
  _atom_site_fract_y
  _atom_site_fract_z
  _atom_site_thermal_displace_type
  _atom_site_B_iso_or_equiv
  _atom_site_type_symbol
  Hf1      1.0000 0.28874  0.96357  0.14808  Biso   1.000  Hf
  Hf2      1.0000 0.23024  0.23584  0.38293  Biso   1.000  Hf
  Hf3      1.0000 0.59748  0.25229  0.11693  Biso   1.000  Hf
  Hf4      1.0000 0.75624  0.00308  0.39895  Biso   1.000  Hf
  O1       1.0000 0.90283  0.15570  0.99558  Biso   1.000  O 
  O2       1.0000 0.05410  0.06207  0.27424  Biso   1.000  O 
  O3       1.0000 0.88191  0.30696  0.26632  Biso   1.000  O 
  O4       1.0000 0.00184  0.40272  0.98909  Biso   1.000  O 
  O5       1.0000 0.53372  0.11398  0.25835  Biso   1.000  O 
  O6       1.0000 0.44892  0.08644  0.99140  Biso   1.000  O 
  O7       1.0000 0.49133  0.36282  0.96646  Biso   1.000  O 
  O8       1.0000 0.42840  0.39503  0.24521  Biso   1.000  O 
  Hf5      1.0000 0.23537  0.01434  0.64252  Biso   1.000  Hf
  Hf6      1.0000 0.19925  0.24524  0.88343  Biso   1.000  Hf
  Hf7      1.0000 0.73246  0.26062  0.63164  Biso   1.000  Hf
  Hf8      1.0000 0.74673  0.98949  0.89575  Biso   1.000  Hf
  O9       1.0000 0.97654  0.14355  0.51208  Biso   1.000  O 
  O10      1.0000 0.96080  0.10779  0.75850  Biso   1.000  O 
  O11      1.0000 0.02874  0.35887  0.73908  Biso   1.000  O 
  O12      1.0000 0.00405  0.38967  0.48709  Biso   1.000  O 
  O13      1.0000 0.44519  0.17775  0.73811  Biso   1.000  O 
  O14      1.0000 0.47446  0.10249  0.50249  Biso   1.000  O 
  O15      1.0000 0.49588  0.34724  0.48800  Biso   1.000  O 
  O16      1.0000 0.56123  0.42856  0.71761  Biso   1.000  O 
  Hf9      1.0000 0.25600  0.51210  0.09767  Biso   1.000  Hf
  Hf10     1.0000 0.31142  0.74759  0.39123  Biso   1.000  Hf
  Hf11     1.0000 0.77465  0.73417  0.13167  Biso   1.000  Hf
  Hf12     1.0000 0.73033  0.48035  0.35675  Biso   1.000  Hf
  O17      1.0000 0.05664  0.65027  0.99040  Biso   1.000  O 
  O18      1.0000 0.95952  0.56614  0.22169  Biso   1.000  O 
  O19      1.0000 0.08919  0.80979  0.23728  Biso   1.000  O 
  O20      1.0000 0.00319  0.90724  0.00935  Biso   1.000  O 
  O21      1.0000 0.49440  0.63366  0.25218  Biso   1.000  O 
  O22      1.0000 0.54856  0.60673  0.00538  Biso   1.000  O 
  O23      1.0000 0.51230  0.84814  0.01045  Biso   1.000  O 
  O24      1.0000 0.57751  0.87370  0.26284  Biso   1.000  O 
  Hf13     1.0000 0.25369  0.49106  0.60468  Biso   1.000  Hf
  Hf14     1.0000 0.27284  0.76419  0.86401  Biso   1.000  Hf
  Hf15     1.0000 0.80615  0.74023  0.61333  Biso   1.000  Hf
  Hf16     1.0000 0.78138  0.51204  0.86023  Biso   1.000  Hf
  O25      1.0000 0.03991  0.63614  0.48597  Biso   1.000  O 
  O26      1.0000 0.06038  0.61074  0.73836  Biso   1.000  O 
  O27      1.0000 0.98094  0.85987  0.75403  Biso   1.000  O 
  O28      1.0000 0.03489  0.88967  0.50007  Biso   1.000  O 
  O29      1.0000 0.57071  0.67719  0.76432  Biso   1.000  O 
  O30      1.0000 0.53872  0.60211  0.50337  Biso   1.000  O 
  O31      1.0000 0.54054  0.85534  0.51609  Biso   1.000  O 
  O32      1.0000 0.45484  0.92589  0.77222  Biso   1.000  O 
  Zn1      1.0000 0.10013  0.21282  0.14120  Biso   1.000  Zn
