data_image0
_cell_length_a       10.1321
_cell_length_b       5.11989
_cell_length_c       10.4474
_cell_angle_alpha    90
_cell_angle_beta     80
_cell_angle_gamma    90

_symmetry_space_group_name_H-M    "P 1"
_symmetry_int_tables_number       1

loop_
  _symmetry_equiv_pos_as_xyz
  'x, y, z'

loop_
  _atom_site_label
  _atom_site_occupancy
  _atom_site_fract_x
  _atom_site_fract_y
  _atom_site_fract_z
  _atom_site_thermal_displace_type
  _atom_site_B_iso_or_equiv
  _atom_site_type_symbol
  Zn1      1.0000 0.12731  0.02236  0.15598  Biso   1.000  Zn
  Hf1      1.0000 0.13633  0.03381  0.64543  Biso   1.000  Hf
  Hf2      1.0000 0.63802  0.03999  0.14567  Biso   1.000  Hf
  Hf3      1.0000 0.63474  0.03612  0.64723  Biso   1.000  Hf
  Hf4      1.0000 0.13918  0.44772  0.39231  Biso   1.000  Hf
  Hf5      1.0000 0.13679  0.44942  0.89885  Biso   1.000  Hf
  Hf6      1.0000 0.63673  0.45261  0.39586  Biso   1.000  Hf
  Hf7      1.0000 0.63475  0.45150  0.89843  Biso   1.000  Hf
  Hf8      1.0000 0.35499  0.53963  0.10470  Biso   1.000  Hf
  Hf9      1.0000 0.35792  0.53803  0.60469  Biso   1.000  Hf
  Hf10     1.0000 0.86693  0.53404  0.10410  Biso   1.000  Hf
  Hf11     1.0000 0.85750  0.53431  0.60445  Biso   1.000  Hf
  Hf12     1.0000 0.35773  0.95170  0.35078  Biso   1.000  Hf
  Hf13     1.0000 0.35631  0.95703  0.85746  Biso   1.000  Hf
  Hf14     1.0000 0.85956  0.95081  0.35526  Biso   1.000  Hf
  Hf15     1.0000 0.85859  0.94845  0.85557  Biso   1.000  Hf
  O1       1.0000 0.04161  0.33830  0.07995  Biso   1.000  O 
  O2       1.0000 0.03057  0.32251  0.57746  Biso   1.000  O 
  O3       1.0000 0.53475  0.33455  0.07916  Biso   1.000  O 
  O4       1.0000 0.53145  0.32888  0.57941  Biso   1.000  O 
  O5       1.0000 0.03269  0.15091  0.33550  Biso   1.000  O 
  O6       1.0000 0.02996  0.16085  0.82848  Biso   1.000  O 
  O7       1.0000 0.53138  0.16271  0.32836  Biso   1.000  O 
  O8       1.0000 0.53228  0.15917  0.82960  Biso   1.000  O 
  O9       1.0000 0.46874  0.82701  0.17098  Biso   1.000  O 
  O10      1.0000 0.46286  0.82891  0.67217  Biso   1.000  O 
  O11      1.0000 0.96011  0.83842  0.17156  Biso   1.000  O 
  O12      1.0000 0.96380  0.82361  0.67182  Biso   1.000  O 
  O13      1.0000 0.46433  0.66298  0.42185  Biso   1.000  O 
  O14      1.0000 0.46322  0.66615  0.92316  Biso   1.000  O 
  O15      1.0000 0.96253  0.65322  0.42005  Biso   1.000  O 
  O16      1.0000 0.96166  0.65660  0.92257  Biso   1.000  O 
  O17      1.0000 0.27304  0.24166  0.23673  Biso   1.000  O 
  O18      1.0000 0.27149  0.24953  0.73714  Biso   1.000  O 
  O19      1.0000 0.77492  0.25355  0.24150  Biso   1.000  O 
  O20      1.0000 0.77326  0.25084  0.74134  Biso   1.000  O 
  O21      1.0000 0.27430  0.23718  0.48885  Biso   1.000  O 
  O22      1.0000 0.28588  0.26424  0.97684  Biso   1.000  O 
  O23      1.0000 0.77250  0.23599  0.49166  Biso   1.000  O 
  O24      1.0000 0.77177  0.23172  0.99157  Biso   1.000  O 
  O25      1.0000 0.22612  0.78012  0.01223  Biso   1.000  O 
  O26      1.0000 0.22105  0.75019  0.51002  Biso   1.000  O 
  O27      1.0000 0.72681  0.75701  0.00981  Biso   1.000  O 
  O28      1.0000 0.72134  0.75077  0.51086  Biso   1.000  O 
  O29      1.0000 0.22740  0.72316  0.26204  Biso   1.000  O 
  O30      1.0000 0.22138  0.73655  0.76113  Biso   1.000  O 
  O31      1.0000 0.72353  0.73802  0.26063  Biso   1.000  O 
  O32      1.0000 0.72113  0.73580  0.76062  Biso   1.000  O 
