data_image0
_cell_length_a       9.95436
_cell_length_b       10.3501
_cell_length_c       10.0066
_cell_angle_alpha    90
_cell_angle_beta     90
_cell_angle_gamma    90

_symmetry_space_group_name_H-M    "P 1"
_symmetry_int_tables_number       1

loop_
  _symmetry_equiv_pos_as_xyz
  'x, y, z'

loop_
  _atom_site_label
  _atom_site_occupancy
  _atom_site_fract_x
  _atom_site_fract_y
  _atom_site_fract_z
  _atom_site_thermal_displace_type
  _atom_site_B_iso_or_equiv
  _atom_site_type_symbol
  Zn1      1.0000 0.11907  0.02146  0.10571  Biso   1.000  Zn
  Hf1      1.0000 0.13741  0.01652  0.63065  Biso   1.000  Hf
  Hf2      1.0000 0.13568  0.51550  0.12678  Biso   1.000  Hf
  Hf3      1.0000 0.13712  0.51581  0.62679  Biso   1.000  Hf
  Hf4      1.0000 0.63549  0.01619  0.12511  Biso   1.000  Hf
  Hf5      1.0000 0.63494  0.01409  0.62315  Biso   1.000  Hf
  Hf6      1.0000 0.63438  0.51628  0.12724  Biso   1.000  Hf
  Hf7      1.0000 0.63645  0.51546  0.62610  Biso   1.000  Hf
  Hf8      1.0000 0.13848  0.22857  0.37420  Biso   1.000  Hf
  Hf9      1.0000 0.13686  0.23246  0.87679  Biso   1.000  Hf
  Hf10     1.0000 0.13789  0.73331  0.37731  Biso   1.000  Hf
  Hf11     1.0000 0.13792  0.73277  0.87941  Biso   1.000  Hf
  Hf12     1.0000 0.63534  0.23207  0.37523  Biso   1.000  Hf
  Hf13     1.0000 0.63747  0.23085  0.87487  Biso   1.000  Hf
  Hf14     1.0000 0.63574  0.73409  0.37584  Biso   1.000  Hf
  Hf15     1.0000 0.63661  0.73197  0.87630  Biso   1.000  Hf
  Hf16     1.0000 0.36446  0.26410  0.12865  Biso   1.000  Hf
  Hf17     1.0000 0.36845  0.26575  0.62701  Biso   1.000  Hf
  Hf18     1.0000 0.36381  0.76663  0.12877  Biso   1.000  Hf
  Hf19     1.0000 0.36816  0.76705  0.62857  Biso   1.000  Hf
  Hf20     1.0000 0.86499  0.26466  0.12522  Biso   1.000  Hf
  Hf21     1.0000 0.86834  0.26497  0.62393  Biso   1.000  Hf
  Hf22     1.0000 0.86915  0.76732  0.12362  Biso   1.000  Hf
  Hf23     1.0000 0.86871  0.76490  0.62436  Biso   1.000  Hf
  Hf24     1.0000 0.36715  0.48228  0.37709  Biso   1.000  Hf
  Hf25     1.0000 0.36902  0.48190  0.87677  Biso   1.000  Hf
  Hf26     1.0000 0.36259  0.98213  0.37425  Biso   1.000  Hf
  Hf27     1.0000 0.36533  0.98147  0.88202  Biso   1.000  Hf
  Hf28     1.0000 0.86746  0.48281  0.37617  Biso   1.000  Hf
  Hf29     1.0000 0.86905  0.48223  0.87579  Biso   1.000  Hf
  Hf30     1.0000 0.87131  0.98381  0.37340  Biso   1.000  Hf
  Hf31     1.0000 0.86688  0.98119  0.87221  Biso   1.000  Hf
  O1       1.0000 0.03709  0.18242  0.19312  Biso   1.000  O 
  O2       1.0000 0.04142  0.18745  0.69039  Biso   1.000  O 
  O3       1.0000 0.03706  0.68282  0.19501  Biso   1.000  O 
  O4       1.0000 0.03931  0.68400  0.69493  Biso   1.000  O 
  O5       1.0000 0.54045  0.18583  0.19137  Biso   1.000  O 
  O6       1.0000 0.54008  0.18358  0.69259  Biso   1.000  O 
  O7       1.0000 0.53693  0.68378  0.19617  Biso   1.000  O 
  O8       1.0000 0.53802  0.68218  0.69582  Biso   1.000  O 
  O9       1.0000 0.03955  0.06439  0.44716  Biso   1.000  O 
  O10      1.0000 0.03943  0.06438  0.92286  Biso   1.000  O 
  O11      1.0000 0.03799  0.56344  0.44564  Biso   1.000  O 
  O12      1.0000 0.03957  0.56391  0.94554  Biso   1.000  O 
  O13      1.0000 0.53787  0.06462  0.44273  Biso   1.000  O 
  O14      1.0000 0.53978  0.06369  0.94491  Biso   1.000  O 
  O15      1.0000 0.53840  0.56510  0.44430  Biso   1.000  O 
  O16      1.0000 0.54012  0.56298  0.94558  Biso   1.000  O 
  O17      1.0000 0.46462  0.43275  0.19539  Biso   1.000  O 
  O18      1.0000 0.46633  0.43343  0.69482  Biso   1.000  O 
  O19      1.0000 0.46833  0.93257  0.19636  Biso   1.000  O 
  O20      1.0000 0.46544  0.93372  0.69787  Biso   1.000  O 
  O21      1.0000 0.96549  0.43087  0.19467  Biso   1.000  O 
  O22      1.0000 0.96589  0.43380  0.69375  Biso   1.000  O 
  O23      1.0000 0.96668  0.93613  0.19059  Biso   1.000  O 
  O24      1.0000 0.96356  0.93345  0.68922  Biso   1.000  O 
  O25      1.0000 0.46619  0.31495  0.44533  Biso   1.000  O 
  O26      1.0000 0.46549  0.31162  0.94220  Biso   1.000  O 
  O27      1.0000 0.46839  0.81629  0.45008  Biso   1.000  O 
  O28      1.0000 0.46498  0.81363  0.94492  Biso   1.000  O 
  O29      1.0000 0.96592  0.31414  0.44162  Biso   1.000  O 
  O30      1.0000 0.96710  0.31505  0.94461  Biso   1.000  O 
  O31      1.0000 0.96553  0.81396  0.44206  Biso   1.000  O 
  O32      1.0000 0.96461  0.81301  0.94048  Biso   1.000  O 
  O33      1.0000 0.28185  0.12465  0.25612  Biso   1.000  O 
  O34      1.0000 0.27681  0.11865  0.75323  Biso   1.000  O 
  O35      1.0000 0.27140  0.61359  0.25051  Biso   1.000  O 
  O36      1.0000 0.27326  0.61739  0.75172  Biso   1.000  O 
  O37      1.0000 0.77212  0.11673  0.24863  Biso   1.000  O 
  O38      1.0000 0.77287  0.11576  0.74693  Biso   1.000  O 
  O39      1.0000 0.77303  0.61649  0.24899  Biso   1.000  O 
  O40      1.0000 0.77310  0.61616  0.74967  Biso   1.000  O 
  O41      1.0000 0.27288  0.12958  0.50391  Biso   1.000  O 
  O42      1.0000 0.26697  0.13089  0.00326  Biso   1.000  O 
  O43      1.0000 0.27389  0.63126  0.50127  Biso   1.000  O 
  O44      1.0000 0.27003  0.63163  0.00135  Biso   1.000  O 
  O45      1.0000 0.77320  0.13195  0.49755  Biso   1.000  O 
  O46      1.0000 0.77614  0.12967  0.99746  Biso   1.000  O 
  O47      1.0000 0.77177  0.63171  0.49930  Biso   1.000  O 
  O48      1.0000 0.77443  0.63026  0.99970  Biso   1.000  O 
  O49      1.0000 0.23150  0.38022  0.50031  Biso   1.000  O 
  O50      1.0000 0.22914  0.38173  0.00078  Biso   1.000  O 
  O51      1.0000 0.22958  0.88120  0.50531  Biso   1.000  O 
  O52      1.0000 0.22518  0.88181  0.00714  Biso   1.000  O 
  O53      1.0000 0.73176  0.38171  0.49961  Biso   1.000  O 
  O54      1.0000 0.73250  0.37962  0.99965  Biso   1.000  O 
  O55      1.0000 0.73317  0.88249  0.49733  Biso   1.000  O 
  O56      1.0000 0.73128  0.87920  0.99849  Biso   1.000  O 
  O57      1.0000 0.22840  0.36837  0.25035  Biso   1.000  O 
  O58      1.0000 0.23173  0.36788  0.75041  Biso   1.000  O 
  O59      1.0000 0.24088  0.85826  0.25975  Biso   1.000  O 
  O60      1.0000 0.23099  0.86804  0.75441  Biso   1.000  O 
  O61      1.0000 0.73071  0.36733  0.24983  Biso   1.000  O 
  O62      1.0000 0.73237  0.36615  0.74950  Biso   1.000  O 
  O63      1.0000 0.73424  0.86664  0.24785  Biso   1.000  O 
  O64      1.0000 0.73038  0.86490  0.74737  Biso   1.000  O 
