data_image0
_cell_length_a       5.03128
_cell_length_b       10.203
_cell_length_c       10.0159
_cell_angle_alpha    90
_cell_angle_beta     90
_cell_angle_gamma    90

_symmetry_space_group_name_H-M    "P 1"
_symmetry_int_tables_number       1

loop_
  _symmetry_equiv_pos_as_xyz
  'x, y, z'

loop_
  _atom_site_label
  _atom_site_occupancy
  _atom_site_fract_x
  _atom_site_fract_y
  _atom_site_fract_z
  _atom_site_thermal_displace_type
  _atom_site_B_iso_or_equiv
  _atom_site_type_symbol
  Zn1      1.0000 0.30058  0.96935  0.12590  Biso   1.000  Zn
  Hf1      1.0000 0.28243  0.99489  0.62462  Biso   1.000  Hf
  Hf2      1.0000 0.27985  0.50950  0.10710  Biso   1.000  Hf
  Hf3      1.0000 0.30395  0.48417  0.61499  Biso   1.000  Hf
  Hf4      1.0000 0.28620  0.22647  0.37167  Biso   1.000  Hf
  Hf5      1.0000 0.24096  0.20391  0.88894  Biso   1.000  Hf
  Hf6      1.0000 0.30728  0.74821  0.38772  Biso   1.000  Hf
  Hf7      1.0000 0.27409  0.73085  0.86790  Biso   1.000  Hf
  Hf8      1.0000 0.72092  0.25477  0.11547  Biso   1.000  Hf
  Hf9      1.0000 0.78117  0.23337  0.62923  Biso   1.000  Hf
  Hf10     1.0000 0.77546  0.74010  0.12568  Biso   1.000  Hf
  Hf11     1.0000 0.80790  0.71858  0.61314  Biso   1.000  Hf
  Hf12     1.0000 0.79113  0.98655  0.37688  Biso   1.000  Hf
  Hf13     1.0000 0.74905  0.96958  0.88799  Biso   1.000  Hf
  Hf14     1.0000 0.79737  0.46548  0.37456  Biso   1.000  Hf
  Hf15     1.0000 0.81299  0.46508  0.87292  Biso   1.000  Hf
  O1       1.0000 0.96353  0.10922  0.99432  Biso   1.000  O 
  O2       1.0000 0.03362  0.12693  0.49992  Biso   1.000  O 
  O3       1.0000 0.04402  0.60894  0.98873  Biso   1.000  O 
  O4       1.0000 0.04846  0.61857  0.48128  Biso   1.000  O 
  O5       1.0000 0.09793  0.06345  0.26046  Biso   1.000  O 
  O6       1.0000 0.00143  0.07517  0.75041  Biso   1.000  O 
  O7       1.0000 0.94652  0.56568  0.21798  Biso   1.000  O 
  O8       1.0000 0.01755  0.57499  0.73446  Biso   1.000  O 
  O9       1.0000 0.99293  0.31286  0.25971  Biso   1.000  O 
  O10      1.0000 0.06478  0.32711  0.75341  Biso   1.000  O 
  O11      1.0000 0.98524  0.81562  0.27945  Biso   1.000  O 
  O12      1.0000 0.94848  0.81657  0.77499  Biso   1.000  O 
  O13      1.0000 0.99988  0.38961  0.00879  Biso   1.000  O 
  O14      1.0000 0.04376  0.37250  0.50295  Biso   1.000  O 
  O15      1.0000 0.00255  0.89441  0.02067  Biso   1.000  O 
  O16      1.0000 0.06075  0.87287  0.51913  Biso   1.000  O 
  O17      1.0000 0.60154  0.14328  0.27144  Biso   1.000  O 
  O18      1.0000 0.51815  0.13801  0.75635  Biso   1.000  O 
  O19      1.0000 0.44844  0.65606  0.22327  Biso   1.000  O 
  O20      1.0000 0.48994  0.64869  0.71917  Biso   1.000  O 
  O21      1.0000 0.45640  0.11291  0.01677  Biso   1.000  O 
  O22      1.0000 0.53961  0.09212  0.50908  Biso   1.000  O 
  O23      1.0000 0.54164  0.57720  0.97583  Biso   1.000  O 
  O24      1.0000 0.54729  0.59094  0.47904  Biso   1.000  O 
  O25      1.0000 0.51706  0.33031  0.98137  Biso   1.000  O 
  O26      1.0000 0.54271  0.33646  0.48964  Biso   1.000  O 
  O27      1.0000 0.51102  0.85590  0.01021  Biso   1.000  O 
  O28      1.0000 0.56108  0.84626  0.51289  Biso   1.000  O 
  O29      1.0000 0.48997  0.39250  0.24094  Biso   1.000  O 
  O30      1.0000 0.58424  0.39509  0.72512  Biso   1.000  O 
  O31      1.0000 0.52043  0.89489  0.26513  Biso   1.000  O 
  O32      1.0000 0.44967  0.89657  0.78128  Biso   1.000  O 
