data_image0
_cell_length_a       10.0305
_cell_length_b       10.3925
_cell_length_c       5.05492
_cell_angle_alpha    90
_cell_angle_beta     90
_cell_angle_gamma    90

_symmetry_space_group_name_H-M    "P 1"
_symmetry_int_tables_number       1

loop_
  _symmetry_equiv_pos_as_xyz
  'x, y, z'

loop_
  _atom_site_label
  _atom_site_occupancy
  _atom_site_fract_x
  _atom_site_fract_y
  _atom_site_fract_z
  _atom_site_thermal_displace_type
  _atom_site_B_iso_or_equiv
  _atom_site_type_symbol
  Hf1      1.0000 0.14146  0.01883  0.26187  Biso   1.000  Hf
  Hf2      1.0000 0.14171  0.22663  0.80860  Biso   1.000  Hf
  Hf3      1.0000 0.36780  0.26719  0.24913  Biso   1.000  Hf
  Hf4      1.0000 0.37727  0.48895  0.74447  Biso   1.000  Hf
  O1       1.0000 0.99831  0.15694  0.50488  Biso   1.000  O 
  O2       1.0000 0.04312  0.06100  0.93085  Biso   1.000  O 
  O3       1.0000 0.46852  0.43361  0.38831  Biso   1.000  O 
  O4       1.0000 0.47018  0.31814  0.88287  Biso   1.000  O 
  O5       1.0000 0.27010  0.12139  0.51834  Biso   1.000  O 
  O6       1.0000 0.29188  0.11988  0.00434  Biso   1.000  O 
  O7       1.0000 0.24756  0.39527  0.99844  Biso   1.000  O 
  O8       1.0000 0.23011  0.37116  0.51155  Biso   1.000  O 
  Hf5      1.0000 0.13997  0.53114  0.24370  Biso   1.000  Hf
  Hf6      1.0000 0.13879  0.73892  0.74843  Biso   1.000  Hf
  Hf7      1.0000 0.37144  0.76781  0.24710  Biso   1.000  Hf
  Hf8      1.0000 0.37318  0.98156  0.75025  Biso   1.000  Hf
  O9       1.0000 0.03748  0.68357  0.38924  Biso   1.000  O 
  O10      1.0000 0.04157  0.57124  0.88871  Biso   1.000  O 
  O11      1.0000 0.46765  0.93364  0.38386  Biso   1.000  O 
  O12      1.0000 0.47693  0.81848  0.89203  Biso   1.000  O 
  O13      1.0000 0.27667  0.62129  0.49306  Biso   1.000  O 
  O14      1.0000 0.27744  0.63966  0.99167  Biso   1.000  O 
  O15      1.0000 0.23074  0.88110  0.00321  Biso   1.000  O 
  O16      1.0000 0.23803  0.86799  0.50127  Biso   1.000  O 
  Hf9      1.0000 0.63313  0.01129  0.22989  Biso   1.000  Hf
  Hf10     1.0000 0.63238  0.23168  0.73532  Biso   1.000  Hf
  Hf11     1.0000 0.84798  0.26256  0.23760  Biso   1.000  Hf
  Hf12     1.0000 0.87379  0.48299  0.74783  Biso   1.000  Hf
  O17      1.0000 0.53542  0.18338  0.37571  Biso   1.000  O 
  O18      1.0000 0.54562  0.06452  0.87261  Biso   1.000  O 
  O19      1.0000 0.97372  0.42468  0.38103  Biso   1.000  O 
  O20      1.0000 0.96643  0.32256  0.89358  Biso   1.000  O 
  O21      1.0000 0.75973  0.11224  0.47558  Biso   1.000  O 
  O22      1.0000 0.77535  0.13683  0.97461  Biso   1.000  O 
  O23      1.0000 0.73250  0.38409  0.99425  Biso   1.000  O 
  O24      1.0000 0.73258  0.36872  0.49437  Biso   1.000  O 
  Hf13     1.0000 0.63590  0.51933  0.24762  Biso   1.000  Hf
  Hf14     1.0000 0.64546  0.73692  0.74377  Biso   1.000  Hf
  Hf15     1.0000 0.86880  0.76831  0.23650  Biso   1.000  Hf
  Hf16     1.0000 0.88273  0.99412  0.72128  Biso   1.000  Hf
  O25      1.0000 0.53971  0.68419  0.39248  Biso   1.000  O 
  O26      1.0000 0.54275  0.57057  0.89268  Biso   1.000  O 
  O27      1.0000 0.97459  0.92433  0.38592  Biso   1.000  O 
  O28      1.0000 0.97124  0.82041  0.87879  Biso   1.000  O 
  O29      1.0000 0.77651  0.61576  0.48971  Biso   1.000  O 
  O30      1.0000 0.77810  0.63341  0.99021  Biso   1.000  O 
  O31      1.0000 0.74228  0.88628  0.98257  Biso   1.000  O 
  O32      1.0000 0.73603  0.86645  0.48303  Biso   1.000  O 
  Zn1      1.0000 0.10023  0.27753  0.29757  Biso   1.000  Zn
