data_image0
_cell_length_a       10.0136
_cell_length_b       5.216
_cell_length_c       10.0779
_cell_angle_alpha    90
_cell_angle_beta     90
_cell_angle_gamma    90

_symmetry_space_group_name_H-M    "P 1"
_symmetry_int_tables_number       1

loop_
  _symmetry_equiv_pos_as_xyz
  'x, y, z'

loop_
  _atom_site_label
  _atom_site_occupancy
  _atom_site_fract_x
  _atom_site_fract_y
  _atom_site_fract_z
  _atom_site_thermal_displace_type
  _atom_site_B_iso_or_equiv
  _atom_site_type_symbol
  Hf1      1.0000 0.12244  0.89581  0.11738  Biso   1.000  Hf
  Hf2      1.0000 0.12329  0.52938  0.35684  Biso   1.000  Hf
  Hf3      1.0000 0.39975  0.48342  0.11284  Biso   1.000  Hf
  Hf4      1.0000 0.39389  0.03954  0.36145  Biso   1.000  Hf
  O1       1.0000 0.03654  0.28735  0.96983  Biso   1.000  O 
  O2       1.0000 0.01969  0.20639  0.22591  Biso   1.000  O 
  O3       1.0000 0.96924  0.73173  0.24012  Biso   1.000  O 
  O4       1.0000 0.00347  0.76740  0.97899  Biso   1.000  O 
  O5       1.0000 0.30416  0.37380  0.30168  Biso   1.000  O 
  O6       1.0000 0.27909  0.15326  0.05254  Biso   1.000  O 
  O7       1.0000 0.27409  0.69028  0.98458  Biso   1.000  O 
  O8       1.0000 0.21946  0.87079  0.29817  Biso   1.000  O 
  Hf5      1.0000 0.12353  0.96986  0.59597  Biso   1.000  Hf
  Hf6      1.0000 0.12854  0.54594  0.83429  Biso   1.000  Hf
  Hf7      1.0000 0.39193  0.46133  0.61049  Biso   1.000  Hf
  Hf8      1.0000 0.38636  0.01330  0.86579  Biso   1.000  Hf
  O9       1.0000 0.02405  0.26227  0.47580  Biso   1.000  O 
  O10      1.0000 0.03082  0.23916  0.72346  Biso   1.000  O 
  O11      1.0000 0.98616  0.74262  0.72589  Biso   1.000  O 
  O12      1.0000 0.98684  0.76126  0.47997  Biso   1.000  O 
  O13      1.0000 0.29456  0.35154  0.78557  Biso   1.000  O 
  O14      1.0000 0.29439  0.13361  0.53571  Biso   1.000  O 
  O15      1.0000 0.22013  0.62445  0.54084  Biso   1.000  O 
  O16      1.0000 0.22442  0.87574  0.76807  Biso   1.000  O 
  Hf9      1.0000 0.62181  0.97679  0.10833  Biso   1.000  Hf
  Hf10     1.0000 0.62158  0.53727  0.36112  Biso   1.000  Hf
  Hf11     1.0000 0.87945  0.47053  0.10763  Biso   1.000  Hf
  Hf12     1.0000 0.88577  0.02844  0.35730  Biso   1.000  Hf
  O17      1.0000 0.53603  0.27055  0.98538  Biso   1.000  O 
  O18      1.0000 0.52962  0.24619  0.23349  Biso   1.000  O 
  O19      1.0000 0.48512  0.74629  0.23661  Biso   1.000  O 
  O20      1.0000 0.51147  0.77925  0.98725  Biso   1.000  O 
  O21      1.0000 0.78765  0.36400  0.28763  Biso   1.000  O 
  O22      1.0000 0.78786  0.13633  0.03419  Biso   1.000  O 
  O23      1.0000 0.71626  0.63503  0.03712  Biso   1.000  O 
  O24      1.0000 0.71541  0.86805  0.28781  Biso   1.000  O 
  Hf13     1.0000 0.62327  0.96746  0.61272  Biso   1.000  Hf
  Hf14     1.0000 0.63057  0.53110  0.85677  Biso   1.000  Hf
  Hf15     1.0000 0.89093  0.46544  0.60240  Biso   1.000  Hf
  Hf16     1.0000 0.90024  0.03640  0.85331  Biso   1.000  Hf
  O25      1.0000 0.52995  0.26425  0.48671  Biso   1.000  O 
  O26      1.0000 0.52794  0.22407  0.73806  Biso   1.000  O 
  O27      1.0000 0.48961  0.72468  0.73938  Biso   1.000  O 
  O28      1.0000 0.48722  0.76633  0.48836  Biso   1.000  O 
  O29      1.0000 0.79778  0.36450  0.78470  Biso   1.000  O 
  O30      1.0000 0.79168  0.13173  0.53889  Biso   1.000  O 
  O31      1.0000 0.72211  0.63378  0.53767  Biso   1.000  O 
  O32      1.0000 0.72888  0.86578  0.78838  Biso   1.000  O 
  Zn1      1.0000 0.14724  0.40314  0.10367  Biso   1.000  Zn
