data_image0
_cell_length_a       10.0533
_cell_length_b       5.04048
_cell_length_c       10.0534
_cell_angle_alpha    90
_cell_angle_beta     90
_cell_angle_gamma    90

_symmetry_space_group_name_H-M    "P 1"
_symmetry_int_tables_number       1

loop_
  _symmetry_equiv_pos_as_xyz
  'x, y, z'

loop_
  _atom_site_label
  _atom_site_occupancy
  _atom_site_fract_x
  _atom_site_fract_y
  _atom_site_fract_z
  _atom_site_thermal_displace_type
  _atom_site_B_iso_or_equiv
  _atom_site_type_symbol
  Zn1      1.0000 0.12472  0.00059  0.12467  Biso   1.000  Zn
  Hf1      1.0000 0.12471  0.00040  0.62475  Biso   1.000  Hf
  Hf2      1.0000 0.62475  0.00062  0.12465  Biso   1.000  Hf
  Hf3      1.0000 0.62524  0.00049  0.62547  Biso   1.000  Hf
  Hf4      1.0000 0.12458  0.50062  0.37382  Biso   1.000  Hf
  Hf5      1.0000 0.12458  0.50024  0.87577  Biso   1.000  Hf
  Hf6      1.0000 0.62491  0.50088  0.37278  Biso   1.000  Hf
  Hf7      1.0000 0.62483  0.49999  0.87621  Biso   1.000  Hf
  Hf8      1.0000 0.37374  0.50074  0.12459  Biso   1.000  Hf
  Hf9      1.0000 0.37279  0.50091  0.62508  Biso   1.000  Hf
  Hf10     1.0000 0.87569  0.50058  0.12459  Biso   1.000  Hf
  Hf11     1.0000 0.87622  0.49997  0.62501  Biso   1.000  Hf
  Hf12     1.0000 0.37139  0.00069  0.37142  Biso   1.000  Hf
  Hf13     1.0000 0.37168  0.00068  0.87798  Biso   1.000  Hf
  Hf14     1.0000 0.87806  0.00078  0.37161  Biso   1.000  Hf
  Hf15     1.0000 0.87780  0.99960  0.87782  Biso   1.000  Hf
  O1       1.0000 0.98521  0.30839  0.98524  Biso   1.000  O 
  O2       1.0000 0.99612  0.29262  0.49390  Biso   1.000  O 
  O3       1.0000 0.49388  0.29237  0.99618  Biso   1.000  O 
  O4       1.0000 0.49790  0.30056  0.49798  Biso   1.000  O 
  O5       1.0000 0.00612  0.20183  0.24344  Biso   1.000  O 
  O6       1.0000 0.00025  0.20765  0.74391  Biso   1.000  O 
  O7       1.0000 0.50561  0.20799  0.24910  Biso   1.000  O 
  O8       1.0000 0.50052  0.20302  0.74873  Biso   1.000  O 
  O9       1.0000 0.98510  0.69209  0.26421  Biso   1.000  O 
  O10      1.0000 0.99621  0.70805  0.75557  Biso   1.000  O 
  O11      1.0000 0.49370  0.70838  0.25331  Biso   1.000  O 
  O12      1.0000 0.49805  0.70279  0.75150  Biso   1.000  O 
  O13      1.0000 0.00588  0.79925  0.00603  Biso   1.000  O 
  O14      1.0000 0.00033  0.79293  0.50552  Biso   1.000  O 
  O15      1.0000 0.50539  0.79314  0.00042  Biso   1.000  O 
  O16      1.0000 0.50065  0.80038  0.50072  Biso   1.000  O 
  O17      1.0000 0.26426  0.30946  0.26429  Biso   1.000  O 
  O18      1.0000 0.25311  0.29262  0.75567  Biso   1.000  O 
  O19      1.0000 0.75567  0.29290  0.25318  Biso   1.000  O 
  O20      1.0000 0.75125  0.29665  0.75133  Biso   1.000  O 
  O21      1.0000 0.24344  0.20204  0.00611  Biso   1.000  O 
  O22      1.0000 0.24905  0.20792  0.50562  Biso   1.000  O 
  O23      1.0000 0.74392  0.20804  0.00029  Biso   1.000  O 
  O24      1.0000 0.74868  0.20234  0.50057  Biso   1.000  O 
  O25      1.0000 0.26408  0.69193  0.98522  Biso   1.000  O 
  O26      1.0000 0.25324  0.70829  0.49382  Biso   1.000  O 
  O27      1.0000 0.75543  0.70796  0.99629  Biso   1.000  O 
  O28      1.0000 0.75144  0.70211  0.49812  Biso   1.000  O 
  O29      1.0000 0.24325  0.79961  0.24340  Biso   1.000  O 
  O30      1.0000 0.24909  0.79306  0.74387  Biso   1.000  O 
  O31      1.0000 0.74374  0.79334  0.24919  Biso   1.000  O 
  O32      1.0000 0.74881  0.79634  0.74888  Biso   1.000  O 
