data_image0
_cell_length_a       5.06969
_cell_length_b       10.2324
_cell_length_c       10.452
_cell_angle_alpha    90
_cell_angle_beta     80
_cell_angle_gamma    90

_symmetry_space_group_name_H-M    "P 1"
_symmetry_int_tables_number       1

loop_
  _symmetry_equiv_pos_as_xyz
  'x, y, z'

loop_
  _atom_site_label
  _atom_site_occupancy
  _atom_site_fract_x
  _atom_site_fract_y
  _atom_site_fract_z
  _atom_site_thermal_displace_type
  _atom_site_B_iso_or_equiv
  _atom_site_type_symbol
  Zn1      1.0000 0.25436  0.01077  0.15552  Biso   1.000  Zn
  Hf1      1.0000 0.27033  0.01880  0.64503  Biso   1.000  Hf
  Hf2      1.0000 0.28103  0.52009  0.14495  Biso   1.000  Hf
  Hf3      1.0000 0.27695  0.51919  0.64780  Biso   1.000  Hf
  Hf4      1.0000 0.27846  0.22669  0.39167  Biso   1.000  Hf
  Hf5      1.0000 0.27564  0.22377  0.89925  Biso   1.000  Hf
  Hf6      1.0000 0.27871  0.72645  0.39603  Biso   1.000  Hf
  Hf7      1.0000 0.27465  0.72959  0.89866  Biso   1.000  Hf
  Hf8      1.0000 0.72517  0.26277  0.10397  Biso   1.000  Hf
  Hf9      1.0000 0.71515  0.26961  0.60366  Biso   1.000  Hf
  Hf10     1.0000 0.71982  0.77451  0.10530  Biso   1.000  Hf
  Hf11     1.0000 0.72089  0.76932  0.60537  Biso   1.000  Hf
  Hf12     1.0000 0.72101  0.47710  0.35323  Biso   1.000  Hf
  Hf13     1.0000 0.71847  0.47581  0.85664  Biso   1.000  Hf
  Hf14     1.0000 0.71816  0.97659  0.35186  Biso   1.000  Hf
  Hf15     1.0000 0.71805  0.97923  0.85633  Biso   1.000  Hf
  O1       1.0000 0.08141  0.16573  0.07931  Biso   1.000  O 
  O2       1.0000 0.06063  0.16327  0.57588  Biso   1.000  O 
  O3       1.0000 0.07127  0.66729  0.07916  Biso   1.000  O 
  O4       1.0000 0.06731  0.66430  0.58056  Biso   1.000  O 
  O5       1.0000 0.05875  0.08174  0.33353  Biso   1.000  O 
  O6       1.0000 0.06362  0.08158  0.82703  Biso   1.000  O 
  O7       1.0000 0.06953  0.58088  0.32898  Biso   1.000  O 
  O8       1.0000 0.06487  0.58255  0.83025  Biso   1.000  O 
  O9       1.0000 0.93455  0.41467  0.17119  Biso   1.000  O 
  O10      1.0000 0.93025  0.41308  0.67300  Biso   1.000  O 
  O11      1.0000 0.92966  0.91482  0.17377  Biso   1.000  O 
  O12      1.0000 0.93084  0.91459  0.67201  Biso   1.000  O 
  O13      1.0000 0.92898  0.33199  0.42121  Biso   1.000  O 
  O14      1.0000 0.93482  0.33425  0.92437  Biso   1.000  O 
  O15      1.0000 0.93126  0.83070  0.42230  Biso   1.000  O 
  O16      1.0000 0.92543  0.83216  0.92311  Biso   1.000  O 
  O17      1.0000 0.54807  0.12527  0.24030  Biso   1.000  O 
  O18      1.0000 0.54507  0.12558  0.73661  Biso   1.000  O 
  O19      1.0000 0.55481  0.62586  0.23989  Biso   1.000  O 
  O20      1.0000 0.54984  0.62704  0.74199  Biso   1.000  O 
  O21      1.0000 0.54554  0.12046  0.48946  Biso   1.000  O 
  O22      1.0000 0.57330  0.12952  0.97813  Biso   1.000  O 
  O23      1.0000 0.55213  0.61896  0.49145  Biso   1.000  O 
  O24      1.0000 0.54539  0.61998  0.99125  Biso   1.000  O 
  O25      1.0000 0.45663  0.38069  0.00958  Biso   1.000  O 
  O26      1.0000 0.44324  0.37697  0.50966  Biso   1.000  O 
  O27      1.0000 0.45547  0.88445  0.00990  Biso   1.000  O 
  O28      1.0000 0.44717  0.87623  0.51063  Biso   1.000  O 
  O29      1.0000 0.44926  0.36957  0.25900  Biso   1.000  O 
  O30      1.0000 0.44635  0.36901  0.76067  Biso   1.000  O 
  O31      1.0000 0.45131  0.86536  0.26241  Biso   1.000  O 
  O32      1.0000 0.44557  0.86975  0.76030  Biso   1.000  O 
