data_image0
_cell_length_a       10.1699
_cell_length_b       10.2811
_cell_length_c       10.5017
_cell_angle_alpha    90
_cell_angle_beta     80
_cell_angle_gamma    90

_symmetry_space_group_name_H-M    "P 1"
_symmetry_int_tables_number       1

loop_
  _symmetry_equiv_pos_as_xyz
  'x, y, z'

loop_
  _atom_site_label
  _atom_site_occupancy
  _atom_site_fract_x
  _atom_site_fract_y
  _atom_site_fract_z
  _atom_site_thermal_displace_type
  _atom_site_B_iso_or_equiv
  _atom_site_type_symbol
  Hf1      1.0000 0.13300  0.02041  0.14168  Biso   1.000  Hf
  Hf2      1.0000 0.14521  0.22911  0.38994  Biso   1.000  Hf
  Hf3      1.0000 0.35379  0.27253  0.10380  Biso   1.000  Hf
  Hf4      1.0000 0.36099  0.47414  0.34532  Biso   1.000  Hf
  O1       1.0000 0.03148  0.16783  0.07682  Biso   1.000  O 
  O2       1.0000 0.03379  0.08194  0.32784  Biso   1.000  O 
  O3       1.0000 0.46014  0.43193  0.15800  Biso   1.000  O 
  O4       1.0000 0.48993  0.34811  0.43936  Biso   1.000  O 
  O5       1.0000 0.26734  0.11304  0.23294  Biso   1.000  O 
  O6       1.0000 0.28697  0.11815  0.48566  Biso   1.000  O 
  O7       1.0000 0.21895  0.38163  0.00506  Biso   1.000  O 
  O8       1.0000 0.20393  0.37611  0.25113  Biso   1.000  O 
  Hf5      1.0000 0.14329  0.01965  0.64452  Biso   1.000  Hf
  Hf6      1.0000 0.14274  0.22700  0.89357  Biso   1.000  Hf
  Hf7      1.0000 0.36759  0.27225  0.60875  Biso   1.000  Hf
  Hf8      1.0000 0.36625  0.47636  0.85563  Biso   1.000  Hf
  O9       1.0000 0.04458  0.16650  0.57590  Biso   1.000  O 
  O10      1.0000 0.03946  0.08086  0.82610  Biso   1.000  O 
  O11      1.0000 0.47226  0.41319  0.67850  Biso   1.000  O 
  O12      1.0000 0.46938  0.32946  0.92155  Biso   1.000  O 
  O13      1.0000 0.28095  0.12661  0.73802  Biso   1.000  O 
  O14      1.0000 0.27877  0.11988  0.98596  Biso   1.000  O 
  O15      1.0000 0.23200  0.37473  0.50855  Biso   1.000  O 
  O16      1.0000 0.22941  0.36973  0.75804  Biso   1.000  O 
  Hf9      1.0000 0.13666  0.52286  0.14241  Biso   1.000  Hf
  Hf10     1.0000 0.13971  0.72312  0.39586  Biso   1.000  Hf
  Hf11     1.0000 0.36049  0.77093  0.10361  Biso   1.000  Hf
  Hf12     1.0000 0.35737  0.96592  0.35375  Biso   1.000  Hf
  O17      1.0000 0.03157  0.66985  0.07675  Biso   1.000  O 
  O18      1.0000 0.03300  0.58436  0.32605  Biso   1.000  O 
  O19      1.0000 0.46611  0.91626  0.17389  Biso   1.000  O 
  O20      1.0000 0.46691  0.82977  0.42222  Biso   1.000  O 
  O21      1.0000 0.27559  0.62653  0.23954  Biso   1.000  O 
  O22      1.0000 0.27753  0.61777  0.48907  Biso   1.000  O 
  O23      1.0000 0.22299  0.87907  0.00914  Biso   1.000  O 
  O24      1.0000 0.22280  0.86476  0.25939  Biso   1.000  O 
  Hf13     1.0000 0.14482  0.51953  0.64442  Biso   1.000  Hf
  Hf14     1.0000 0.14244  0.72667  0.89483  Biso   1.000  Hf
  Hf15     1.0000 0.36463  0.76798  0.60432  Biso   1.000  Hf
  Hf16     1.0000 0.36531  0.97609  0.85333  Biso   1.000  Hf
  O25      1.0000 0.03630  0.66293  0.57836  Biso   1.000  O 
  O26      1.0000 0.03995  0.58078  0.82730  Biso   1.000  O 
  O27      1.0000 0.46961  0.91346  0.67179  Biso   1.000  O 
  O28      1.0000 0.47040  0.83161  0.92120  Biso   1.000  O 
  O29      1.0000 0.28106  0.62597  0.73954  Biso   1.000  O 
  O30      1.0000 0.28152  0.62095  0.98919  Biso   1.000  O 
  O31      1.0000 0.22496  0.87503  0.50951  Biso   1.000  O 
  O32      1.0000 0.22796  0.86907  0.75848  Biso   1.000  O 
  Hf17     1.0000 0.64037  0.02104  0.14687  Biso   1.000  Hf
  Hf18     1.0000 0.65804  0.22918  0.40675  Biso   1.000  Hf
  Hf19     1.0000 0.85903  0.27257  0.10523  Biso   1.000  Hf
  Hf20     1.0000 0.86465  0.47770  0.35352  Biso   1.000  Hf
  O33      1.0000 0.53235  0.16823  0.08370  Biso   1.000  O 
  O34      1.0000 0.53612  0.08412  0.33387  Biso   1.000  O 
  O35      1.0000 0.96036  0.42119  0.16810  Biso   1.000  O 
  O36      1.0000 0.96881  0.33186  0.42117  Biso   1.000  O 
  O37      1.0000 0.77715  0.12799  0.24382  Biso   1.000  O 
  O38      1.0000 0.78528  0.11696  0.49519  Biso   1.000  O 
  O39      1.0000 0.72191  0.37922  0.01225  Biso   1.000  O 
  O40      1.0000 0.72355  0.37014  0.26292  Biso   1.000  O 
  Hf21     1.0000 0.64322  0.01814  0.64873  Biso   1.000  Hf
  Hf22     1.0000 0.64222  0.22693  0.89809  Biso   1.000  Hf
  Hf23     1.0000 0.87134  0.26941  0.60718  Biso   1.000  Hf
  Hf24     1.0000 0.86643  0.47643  0.85463  Biso   1.000  Hf
  O41      1.0000 0.54104  0.16384  0.58076  Biso   1.000  O 
  O42      1.0000 0.53935  0.07981  0.83033  Biso   1.000  O 
  O43      1.0000 0.97238  0.41485  0.67246  Biso   1.000  O 
  O44      1.0000 0.96860  0.32965  0.92020  Biso   1.000  O 
  O45      1.0000 0.78093  0.12731  0.74233  Biso   1.000  O 
  O46      1.0000 0.78029  0.11864  0.99179  Biso   1.000  O 
  O47      1.0000 0.73387  0.37595  0.51497  Biso   1.000  O 
  O48      1.0000 0.73001  0.36934  0.76209  Biso   1.000  O 
  Hf25     1.0000 0.63682  0.52339  0.14591  Biso   1.000  Hf
  Hf26     1.0000 0.64037  0.72477  0.39608  Biso   1.000  Hf
  Hf27     1.0000 0.85805  0.77084  0.10411  Biso   1.000  Hf
  Hf28     1.0000 0.86419  0.97465  0.35509  Biso   1.000  Hf
  O49      1.0000 0.53669  0.67336  0.07964  Biso   1.000  O 
  O50      1.0000 0.53400  0.58248  0.32701  Biso   1.000  O 
  O51      1.0000 0.96173  0.91442  0.17301  Biso   1.000  O 
  O52      1.0000 0.96769  0.83032  0.42242  Biso   1.000  O 
  O53      1.0000 0.77606  0.62940  0.24109  Biso   1.000  O 
  O54      1.0000 0.77776  0.61872  0.49032  Biso   1.000  O 
  O55      1.0000 0.72263  0.88056  0.01045  Biso   1.000  O 
  O56      1.0000 0.72116  0.87142  0.26147  Biso   1.000  O 
  Hf29     1.0000 0.64340  0.51999  0.64803  Biso   1.000  Hf
  Hf30     1.0000 0.64335  0.72721  0.89586  Biso   1.000  Hf
  Hf31     1.0000 0.86492  0.76963  0.60393  Biso   1.000  Hf
  Hf32     1.0000 0.86591  0.97700  0.85363  Biso   1.000  Hf
  O57      1.0000 0.53689  0.66299  0.57887  Biso   1.000  O 
  O58      1.0000 0.53952  0.58182  0.82986  Biso   1.000  O 
  O59      1.0000 0.96937  0.91575  0.67043  Biso   1.000  O 
  O60      1.0000 0.96990  0.83172  0.92022  Biso   1.000  O 
  O61      1.0000 0.78060  0.62676  0.73991  Biso   1.000  O 
  O62      1.0000 0.78106  0.61898  0.98919  Biso   1.000  O 
  O63      1.0000 0.72579  0.87600  0.51084  Biso   1.000  O 
  O64      1.0000 0.72900  0.86936  0.76026  Biso   1.000  O 
  Zn1      1.0000 0.42337  0.22883  0.31941  Biso   1.000  Zn
