data_image0
_cell_length_a       9.96415
_cell_length_b       10.3438
_cell_length_c       5.00068
_cell_angle_alpha    90
_cell_angle_beta     90
_cell_angle_gamma    90

_symmetry_space_group_name_H-M    "P 1"
_symmetry_int_tables_number       1

loop_
  _symmetry_equiv_pos_as_xyz
  'x, y, z'

loop_
  _atom_site_label
  _atom_site_occupancy
  _atom_site_fract_x
  _atom_site_fract_y
  _atom_site_fract_z
  _atom_site_thermal_displace_type
  _atom_site_B_iso_or_equiv
  _atom_site_type_symbol
  Zn1      1.0000 0.11811  0.02034  0.21539  Biso   1.000  Zn
  Hf1      1.0000 0.13664  0.51560  0.25428  Biso   1.000  Hf
  Hf2      1.0000 0.63373  0.01509  0.24607  Biso   1.000  Hf
  Hf3      1.0000 0.63499  0.51610  0.25412  Biso   1.000  Hf
  Hf4      1.0000 0.13878  0.22853  0.74915  Biso   1.000  Hf
  Hf5      1.0000 0.13867  0.73271  0.75968  Biso   1.000  Hf
  Hf6      1.0000 0.63657  0.23086  0.74914  Biso   1.000  Hf
  Hf7      1.0000 0.63655  0.73291  0.75289  Biso   1.000  Hf
  Hf8      1.0000 0.36550  0.26505  0.25760  Biso   1.000  Hf
  Hf9      1.0000 0.36473  0.76774  0.26215  Biso   1.000  Hf
  Hf10     1.0000 0.86616  0.26392  0.24680  Biso   1.000  Hf
  Hf11     1.0000 0.86996  0.76646  0.24571  Biso   1.000  Hf
  Hf12     1.0000 0.36854  0.48159  0.75502  Biso   1.000  Hf
  Hf13     1.0000 0.36271  0.98116  0.76024  Biso   1.000  Hf
  Hf14     1.0000 0.86861  0.48204  0.75181  Biso   1.000  Hf
  Hf15     1.0000 0.86951  0.98192  0.74108  Biso   1.000  Hf
  O1       1.0000 0.04000  0.18362  0.38125  Biso   1.000  O 
  O2       1.0000 0.03781  0.68293  0.39239  Biso   1.000  O 
  O3       1.0000 0.54123  0.18563  0.38156  Biso   1.000  O 
  O4       1.0000 0.53681  0.68255  0.39534  Biso   1.000  O 
  O5       1.0000 0.03759  0.06556  0.85860  Biso   1.000  O 
  O6       1.0000 0.03887  0.56258  0.89405  Biso   1.000  O 
  O7       1.0000 0.53903  0.06372  0.88726  Biso   1.000  O 
  O8       1.0000 0.53997  0.56355  0.89162  Biso   1.000  O 
  O9       1.0000 0.46568  0.43288  0.39214  Biso   1.000  O 
  O10      1.0000 0.46851  0.93286  0.39881  Biso   1.000  O 
  O11      1.0000 0.96635  0.43058  0.38879  Biso   1.000  O 
  O12      1.0000 0.96529  0.93490  0.37671  Biso   1.000  O 
  O13      1.0000 0.46696  0.31281  0.88842  Biso   1.000  O 
  O14      1.0000 0.46802  0.81512  0.90090  Biso   1.000  O 
  O15      1.0000 0.96747  0.31427  0.88491  Biso   1.000  O 
  O16      1.0000 0.96541  0.81278  0.88053  Biso   1.000  O 
  O17      1.0000 0.28650  0.12682  0.52169  Biso   1.000  O 
  O18      1.0000 0.27193  0.61429  0.50382  Biso   1.000  O 
  O19      1.0000 0.77203  0.11563  0.49236  Biso   1.000  O 
  O20      1.0000 0.77331  0.61559  0.49809  Biso   1.000  O 
  O21      1.0000 0.26725  0.12875  0.01456  Biso   1.000  O 
  O22      1.0000 0.27111  0.63209  0.00452  Biso   1.000  O 
  O23      1.0000 0.77520  0.13027  0.99203  Biso   1.000  O 
  O24      1.0000 0.77367  0.63037  0.99864  Biso   1.000  O 
  O25      1.0000 0.22959  0.38075  0.00112  Biso   1.000  O 
  O26      1.0000 0.22431  0.88195  0.02314  Biso   1.000  O 
  O27      1.0000 0.73345  0.37986  0.99905  Biso   1.000  O 
  O28      1.0000 0.73330  0.87999  0.99329  Biso   1.000  O 
  O29      1.0000 0.22925  0.36912  0.50059  Biso   1.000  O 
  O30      1.0000 0.24037  0.86015  0.52674  Biso   1.000  O 
  O31      1.0000 0.73198  0.36628  0.49867  Biso   1.000  O 
  O32      1.0000 0.73294  0.86468  0.49192  Biso   1.000  O 
