data_image0
_cell_length_a       9.95487
_cell_length_b       5.16507
_cell_length_c       10.0222
_cell_angle_alpha    90
_cell_angle_beta     90
_cell_angle_gamma    90

_symmetry_space_group_name_H-M    "P 1"
_symmetry_int_tables_number       1

loop_
  _symmetry_equiv_pos_as_xyz
  'x, y, z'

loop_
  _atom_site_label
  _atom_site_occupancy
  _atom_site_fract_x
  _atom_site_fract_y
  _atom_site_fract_z
  _atom_site_thermal_displace_type
  _atom_site_B_iso_or_equiv
  _atom_site_type_symbol
  Zn1      1.0000 0.12425  0.04547  0.11031  Biso   1.000  Zn
  Hf1      1.0000 0.14048  0.02928  0.62958  Biso   1.000  Hf
  Hf2      1.0000 0.63595  0.03086  0.12557  Biso   1.000  Hf
  Hf3      1.0000 0.63714  0.02400  0.62310  Biso   1.000  Hf
  Hf4      1.0000 0.14020  0.45509  0.37486  Biso   1.000  Hf
  Hf5      1.0000 0.14102  0.46253  0.87986  Biso   1.000  Hf
  Hf6      1.0000 0.63774  0.46348  0.37538  Biso   1.000  Hf
  Hf7      1.0000 0.63942  0.45637  0.87439  Biso   1.000  Hf
  Hf8      1.0000 0.36266  0.52598  0.12933  Biso   1.000  Hf
  Hf9      1.0000 0.37025  0.52993  0.62845  Biso   1.000  Hf
  Hf10     1.0000 0.86795  0.53134  0.12169  Biso   1.000  Hf
  Hf11     1.0000 0.87080  0.52488  0.62275  Biso   1.000  Hf
  Hf12     1.0000 0.36421  0.95959  0.37442  Biso   1.000  Hf
  Hf13     1.0000 0.36802  0.95888  0.88161  Biso   1.000  Hf
  Hf14     1.0000 0.87265  0.96371  0.37356  Biso   1.000  Hf
  Hf15     1.0000 0.87008  0.95850  0.87172  Biso   1.000  Hf
  O1       1.0000 0.03731  0.36654  0.19331  Biso   1.000  O 
  O2       1.0000 0.04301  0.36964  0.69293  Biso   1.000  O 
  O3       1.0000 0.53834  0.36622  0.19598  Biso   1.000  O 
  O4       1.0000 0.54112  0.36014  0.69421  Biso   1.000  O 
  O5       1.0000 0.04030  0.12274  0.44913  Biso   1.000  O 
  O6       1.0000 0.04160  0.12602  0.92889  Biso   1.000  O 
  O7       1.0000 0.53979  0.12697  0.44316  Biso   1.000  O 
  O8       1.0000 0.54322  0.12055  0.94631  Biso   1.000  O 
  O9       1.0000 0.47037  0.85983  0.19698  Biso   1.000  O 
  O10      1.0000 0.46822  0.86228  0.69823  Biso   1.000  O 
  O11      1.0000 0.97387  0.86016  0.19463  Biso   1.000  O 
  O12      1.0000 0.96683  0.86269  0.69012  Biso   1.000  O 
  O13      1.0000 0.47152  0.62988  0.45073  Biso   1.000  O 
  O14      1.0000 0.46752  0.61907  0.94366  Biso   1.000  O 
  O15      1.0000 0.96765  0.62223  0.44089  Biso   1.000  O 
  O16      1.0000 0.96851  0.62498  0.94128  Biso   1.000  O 
  O17      1.0000 0.27473  0.22348  0.24981  Biso   1.000  O 
  O18      1.0000 0.27828  0.23288  0.75230  Biso   1.000  O 
  O19      1.0000 0.77474  0.22878  0.24691  Biso   1.000  O 
  O20      1.0000 0.77504  0.22636  0.74647  Biso   1.000  O 
  O21      1.0000 0.27633  0.25744  0.50157  Biso   1.000  O 
  O22      1.0000 0.27790  0.25545  0.99990  Biso   1.000  O 
  O23      1.0000 0.77432  0.26044  0.49695  Biso   1.000  O 
  O24      1.0000 0.77869  0.25360  0.99687  Biso   1.000  O 
  O25      1.0000 0.23219  0.75739  0.50503  Biso   1.000  O 
  O26      1.0000 0.22569  0.76838  0.00848  Biso   1.000  O 
  O27      1.0000 0.73556  0.76162  0.49702  Biso   1.000  O 
  O28      1.0000 0.73491  0.75129  0.99772  Biso   1.000  O 
  O29      1.0000 0.24355  0.70881  0.26103  Biso   1.000  O 
  O30      1.0000 0.23358  0.73298  0.75428  Biso   1.000  O 
  O31      1.0000 0.73562  0.73027  0.24720  Biso   1.000  O 
  O32      1.0000 0.73336  0.72498  0.74681  Biso   1.000  O 
