data_image0
_cell_length_a       10.0763
_cell_length_b       10.2836
_cell_length_c       5.26284
_cell_angle_alpha    90
_cell_angle_beta     90
_cell_angle_gamma    90

_symmetry_space_group_name_H-M    "P 1"
_symmetry_int_tables_number       1

loop_
  _symmetry_equiv_pos_as_xyz
  'x, y, z'

loop_
  _atom_site_label
  _atom_site_occupancy
  _atom_site_fract_x
  _atom_site_fract_y
  _atom_site_fract_z
  _atom_site_thermal_displace_type
  _atom_site_B_iso_or_equiv
  _atom_site_type_symbol
  Hf1      1.0000 0.13429  0.02054  0.34759  Biso   1.000  Hf
  Hf2      1.0000 0.12443  0.22767  0.85502  Biso   1.000  Hf
  Hf3      1.0000 0.34386  0.26913  0.37586  Biso   1.000  Hf
  Hf4      1.0000 0.34961  0.48227  0.85020  Biso   1.000  Hf
  Hf5      1.0000 0.64079  0.02314  0.14704  Biso   1.000  Hf
  Hf6      1.0000 0.63541  0.22620  0.66960  Biso   1.000  Hf
  Hf7      1.0000 0.85534  0.26880  0.14749  Biso   1.000  Hf
  Hf8      1.0000 0.85873  0.48151  0.64774  Biso   1.000  Hf
  O1       1.0000 0.03154  0.16591  0.17265  Biso   1.000  O 
  O2       1.0000 0.02814  0.08215  0.66856  Biso   1.000  O 
  O3       1.0000 0.46731  0.41519  0.18075  Biso   1.000  O 
  O4       1.0000 0.45909  0.33579  0.68286  Biso   1.000  O 
  O5       1.0000 0.26496  0.12553  0.60535  Biso   1.000  O 
  O6       1.0000 0.27581  0.12445  0.10237  Biso   1.000  O 
  O7       1.0000 0.21353  0.37557  0.60584  Biso   1.000  O 
  O8       1.0000 0.22450  0.37607  0.10433  Biso   1.000  O 
  O9       1.0000 0.51107  0.15176  0.37398  Biso   1.000  O 
  O10      1.0000 0.52427  0.07227  0.82256  Biso   1.000  O 
  O11      1.0000 0.96164  0.41502  0.33038  Biso   1.000  O 
  O12      1.0000 0.95884  0.33499  0.83122  Biso   1.000  O 
  O13      1.0000 0.78235  0.11772  0.89415  Biso   1.000  O 
  O14      1.0000 0.77253  0.12571  0.40808  Biso   1.000  O 
  O15      1.0000 0.72611  0.39258  0.89181  Biso   1.000  O 
  O16      1.0000 0.71422  0.37750  0.40112  Biso   1.000  O 
  Hf9      1.0000 0.13328  0.52138  0.34284  Biso   1.000  Hf
  Hf10     1.0000 0.13013  0.73059  0.84414  Biso   1.000  Hf
  Hf11     1.0000 0.35853  0.77197  0.34784  Biso   1.000  Hf
  Hf12     1.0000 0.35257  0.97711  0.85216  Biso   1.000  Hf
  Hf13     1.0000 0.64422  0.53314  0.15161  Biso   1.000  Hf
  Hf14     1.0000 0.63244  0.73289  0.65415  Biso   1.000  Hf
  Hf15     1.0000 0.86328  0.77380  0.15401  Biso   1.000  Hf
  Hf16     1.0000 0.85647  0.97804  0.65207  Biso   1.000  Hf
  O17      1.0000 0.03344  0.66510  0.16492  Biso   1.000  O 
  O18      1.0000 0.02829  0.58590  0.66601  Biso   1.000  O 
  O19      1.0000 0.46850  0.91243  0.17009  Biso   1.000  O 
  O20      1.0000 0.45917  0.83245  0.67043  Biso   1.000  O 
  O21      1.0000 0.26996  0.62360  0.59096  Biso   1.000  O 
  O22      1.0000 0.27642  0.62446  0.09307  Biso   1.000  O 
  O23      1.0000 0.21876  0.87376  0.59479  Biso   1.000  O 
  O24      1.0000 0.22385  0.87441  0.09642  Biso   1.000  O 
  O25      1.0000 0.53006  0.66506  0.33545  Biso   1.000  O 
  O26      1.0000 0.52139  0.58874  0.83791  Biso   1.000  O 
  O27      1.0000 0.96643  0.91595  0.32898  Biso   1.000  O 
  O28      1.0000 0.95929  0.83409  0.83175  Biso   1.000  O 
  O29      1.0000 0.76634  0.63208  0.90360  Biso   1.000  O 
  O30      1.0000 0.77514  0.62937  0.40420  Biso   1.000  O 
  O31      1.0000 0.71518  0.87700  0.90939  Biso   1.000  O 
  O32      1.0000 0.72230  0.87495  0.40785  Biso   1.000  O 
  Zn1      1.0000 0.58014  0.27049  0.12171  Biso   1.000  Zn
