data_image0
_cell_length_a       10.0937
_cell_length_b       10.3019
_cell_length_c       5.10766
_cell_angle_alpha    90
_cell_angle_beta     90
_cell_angle_gamma    90

_symmetry_space_group_name_H-M    "P 1"
_symmetry_int_tables_number       1

loop_
  _symmetry_equiv_pos_as_xyz
  'x, y, z'

loop_
  _atom_site_label
  _atom_site_occupancy
  _atom_site_fract_x
  _atom_site_fract_y
  _atom_site_fract_z
  _atom_site_thermal_displace_type
  _atom_site_B_iso_or_equiv
  _atom_site_type_symbol
  Hf1      1.0000 0.11830  0.97859  0.25155  Biso   1.000  Hf
  Hf2      1.0000 0.12005  0.23874  0.69813  Biso   1.000  Hf
  Hf3      1.0000 0.38877  0.26756  0.20568  Biso   1.000  Hf
  Hf4      1.0000 0.36319  0.48632  0.72832  Biso   1.000  Hf
  O1       1.0000 0.99155  0.13362  0.44460  Biso   1.000  O 
  O2       1.0000 0.01524  0.08293  0.93810  Biso   1.000  O 
  O3       1.0000 0.47409  0.43463  0.38280  Biso   1.000  O 
  O4       1.0000 0.46964  0.32855  0.87679  Biso   1.000  O 
  O5       1.0000 0.24525  0.11061  0.44786  Biso   1.000  O 
  O6       1.0000 0.26279  0.14552  0.93984  Biso   1.000  O 
  O7       1.0000 0.22514  0.38760  0.96037  Biso   1.000  O 
  O8       1.0000 0.24495  0.36389  0.46113  Biso   1.000  O 
  Hf5      1.0000 0.14302  0.52194  0.23267  Biso   1.000  Hf
  Hf6      1.0000 0.12182  0.73977  0.73962  Biso   1.000  Hf
  Hf7      1.0000 0.37607  0.76762  0.23379  Biso   1.000  Hf
  Hf8      1.0000 0.36169  0.99174  0.73338  Biso   1.000  Hf
  O9       1.0000 0.02590  0.65835  0.41589  Biso   1.000  O 
  O10      1.0000 0.02181  0.57767  0.90347  Biso   1.000  O 
  O11      1.0000 0.47132  0.93266  0.39890  Biso   1.000  O 
  O12      1.0000 0.47340  0.82803  0.90022  Biso   1.000  O 
  O13      1.0000 0.27482  0.61769  0.47649  Biso   1.000  O 
  O14      1.0000 0.26148  0.63798  0.97641  Biso   1.000  O 
  O15      1.0000 0.23642  0.88902  0.98413  Biso   1.000  O 
  O16      1.0000 0.24203  0.85551  0.49080  Biso   1.000  O 
  Hf9      1.0000 0.62428  0.00924  0.24448  Biso   1.000  Hf
  Hf10     1.0000 0.62691  0.23088  0.74523  Biso   1.000  Hf
  Hf11     1.0000 0.85094  0.25819  0.25699  Biso   1.000  Hf
  Hf12     1.0000 0.86546  0.47766  0.75467  Biso   1.000  Hf
  O17      1.0000 0.52879  0.17600  0.40846  Biso   1.000  O 
  O18      1.0000 0.51361  0.07672  0.91120  Biso   1.000  O 
  O19      1.0000 0.99256  0.39270  0.43344  Biso   1.000  O 
  O20      1.0000 0.95923  0.32246  0.92439  Biso   1.000  O 
  O21      1.0000 0.75199  0.10600  0.50427  Biso   1.000  O 
  O22      1.0000 0.75061  0.12903  0.99950  Biso   1.000  O 
  O23      1.0000 0.72394  0.38215  0.99874  Biso   1.000  O 
  O24      1.0000 0.73170  0.36541  0.50309  Biso   1.000  O 
  Hf13     1.0000 0.63536  0.51868  0.24026  Biso   1.000  Hf
  Hf14     1.0000 0.63109  0.73572  0.74756  Biso   1.000  Hf
  Hf15     1.0000 0.86751  0.75796  0.26616  Biso   1.000  Hf
  Hf16     1.0000 0.87266  0.98933  0.76401  Biso   1.000  Hf
  O25      1.0000 0.54003  0.68544  0.39113  Biso   1.000  O 
  O26      1.0000 0.52644  0.57461  0.89156  Biso   1.000  O 
  O27      1.0000 0.98851  0.88763  0.50608  Biso   1.000  O 
  O28      1.0000 0.98799  0.83493  0.99637  Biso   1.000  O 
  O29      1.0000 0.77058  0.60928  0.49422  Biso   1.000  O 
  O30      1.0000 0.76495  0.63203  0.99199  Biso   1.000  O 
  O31      1.0000 0.73818  0.88121  0.99636  Biso   1.000  O 
  O32      1.0000 0.73698  0.86285  0.49575  Biso   1.000  O 
  Zr1      1.0000 0.12091  0.24701  0.19661  Biso   1.000  Zr
