data_image0
_cell_length_a       5.05312
_cell_length_b       10.2862
_cell_length_c       10.4397
_cell_angle_alpha    90
_cell_angle_beta     80
_cell_angle_gamma    90

_symmetry_space_group_name_H-M    "P 1"
_symmetry_int_tables_number       1

loop_
  _symmetry_equiv_pos_as_xyz
  'x, y, z'

loop_
  _atom_site_label
  _atom_site_occupancy
  _atom_site_fract_x
  _atom_site_fract_y
  _atom_site_fract_z
  _atom_site_thermal_displace_type
  _atom_site_B_iso_or_equiv
  _atom_site_type_symbol
  Zr1      1.0000 0.27515  0.02133  0.14558  Biso   1.000  Zr
  Hf1      1.0000 0.27178  0.22857  0.39651  Biso   1.000  Hf
  Hf2      1.0000 0.71980  0.27169  0.10423  Biso   1.000  Hf
  Hf3      1.0000 0.71657  0.47844  0.35461  Biso   1.000  Hf
  O1       1.0000 0.07110  0.17123  0.08077  Biso   1.000  O 
  O2       1.0000 0.06674  0.07999  0.33216  Biso   1.000  O 
  O3       1.0000 0.92419  0.42024  0.16934  Biso   1.000  O 
  O4       1.0000 0.92097  0.32981  0.41971  Biso   1.000  O 
  O5       1.0000 0.55079  0.12973  0.24148  Biso   1.000  O 
  O6       1.0000 0.54573  0.12065  0.49149  Biso   1.000  O 
  O7       1.0000 0.44596  0.37933  0.00924  Biso   1.000  O 
  O8       1.0000 0.44189  0.37081  0.25966  Biso   1.000  O 
  Hf4      1.0000 0.26836  0.02132  0.64668  Biso   1.000  Hf
  Hf5      1.0000 0.26433  0.22878  0.89665  Biso   1.000  Hf
  Hf6      1.0000 0.71326  0.27126  0.60488  Biso   1.000  Hf
  Hf7      1.0000 0.70941  0.47852  0.85505  Biso   1.000  Hf
  O9       1.0000 0.06399  0.17021  0.58191  Biso   1.000  O 
  O10      1.0000 0.06069  0.07964  0.83207  Biso   1.000  O 
  O11      1.0000 0.91721  0.42012  0.66986  Biso   1.000  O 
  O12      1.0000 0.91356  0.32999  0.92006  Biso   1.000  O 
  O13      1.0000 0.54256  0.12913  0.74146  Biso   1.000  O 
  O14      1.0000 0.53984  0.12117  0.99116  Biso   1.000  O 
  O15      1.0000 0.43879  0.37913  0.50996  Biso   1.000  O 
  O16      1.0000 0.43513  0.37072  0.76015  Biso   1.000  O 
  Hf8      1.0000 0.27504  0.52127  0.14600  Biso   1.000  Hf
  Hf9      1.0000 0.27142  0.72830  0.39640  Biso   1.000  Hf
  Hf10     1.0000 0.72010  0.77075  0.10428  Biso   1.000  Hf
  Hf11     1.0000 0.71607  0.97842  0.35493  Biso   1.000  Hf
  O17      1.0000 0.07144  0.67024  0.08094  Biso   1.000  O 
  O18      1.0000 0.06707  0.57981  0.33120  Biso   1.000  O 
  O19      1.0000 0.92243  0.92016  0.16962  Biso   1.000  O 
  O20      1.0000 0.92093  0.82980  0.41978  Biso   1.000  O 
  O21      1.0000 0.54941  0.62872  0.24084  Biso   1.000  O 
  O22      1.0000 0.54583  0.62066  0.49119  Biso   1.000  O 
  O23      1.0000 0.44778  0.87838  0.00871  Biso   1.000  O 
  O24      1.0000 0.44299  0.86979  0.26014  Biso   1.000  O 
  Hf12     1.0000 0.26790  0.52128  0.64654  Biso   1.000  Hf
  Hf13     1.0000 0.26436  0.72838  0.89671  Biso   1.000  Hf
  Hf14     1.0000 0.71298  0.77132  0.60488  Biso   1.000  Hf
  Hf15     1.0000 0.70958  0.97837  0.85509  Biso   1.000  Hf
  O25      1.0000 0.06359  0.67000  0.58164  Biso   1.000  O 
  O26      1.0000 0.06004  0.57972  0.83176  Biso   1.000  O 
  O27      1.0000 0.91717  0.92002  0.67004  Biso   1.000  O 
  O28      1.0000 0.91442  0.82989  0.92039  Biso   1.000  O 
  O29      1.0000 0.54219  0.62912  0.74141  Biso   1.000  O 
  O30      1.0000 0.53857  0.62044  0.99178  Biso   1.000  O 
  O31      1.0000 0.43855  0.87911  0.51015  Biso   1.000  O 
  O32      1.0000 0.43508  0.87066  0.76020  Biso   1.000  O 
