data_image0
_cell_length_a       10.1063
_cell_length_b       10.2862
_cell_length_c       5.2198
_cell_angle_alpha    90
_cell_angle_beta     80
_cell_angle_gamma    90

_symmetry_space_group_name_H-M    "P 1"
_symmetry_int_tables_number       1

loop_
  _symmetry_equiv_pos_as_xyz
  'x, y, z'

loop_
  _atom_site_label
  _atom_site_occupancy
  _atom_site_fract_x
  _atom_site_fract_y
  _atom_site_fract_z
  _atom_site_thermal_displace_type
  _atom_site_B_iso_or_equiv
  _atom_site_type_symbol
  Zr1      1.0000 0.13761  0.02137  0.29119  Biso   1.000  Zr
  Hf1      1.0000 0.13592  0.22890  0.79248  Biso   1.000  Hf
  Hf2      1.0000 0.36034  0.27135  0.20844  Biso   1.000  Hf
  Hf3      1.0000 0.35837  0.47848  0.70908  Biso   1.000  Hf
  O1       1.0000 0.03564  0.17147  0.16235  Biso   1.000  O 
  O2       1.0000 0.03339  0.07993  0.66493  Biso   1.000  O 
  O3       1.0000 0.46237  0.41998  0.33883  Biso   1.000  O 
  O4       1.0000 0.46065  0.32995  0.83938  Biso   1.000  O 
  O5       1.0000 0.27535  0.12968  0.48276  Biso   1.000  O 
  O6       1.0000 0.27357  0.12114  0.98136  Biso   1.000  O 
  O7       1.0000 0.22313  0.37923  0.01857  Biso   1.000  O 
  O8       1.0000 0.22111  0.37086  0.51906  Biso   1.000  O 
  Hf4      1.0000 0.13760  0.52133  0.29185  Biso   1.000  Hf
  Hf5      1.0000 0.13583  0.72826  0.79256  Biso   1.000  Hf
  Hf6      1.0000 0.36038  0.77111  0.20865  Biso   1.000  Hf
  Hf7      1.0000 0.35850  0.97837  0.70910  Biso   1.000  Hf
  O9       1.0000 0.03557  0.67034  0.16216  Biso   1.000  O 
  O10      1.0000 0.03364  0.57973  0.66241  Biso   1.000  O 
  O11      1.0000 0.46229  0.92014  0.33860  Biso   1.000  O 
  O12      1.0000 0.46087  0.82995  0.83964  Biso   1.000  O 
  O13      1.0000 0.27481  0.62880  0.48161  Biso   1.000  O 
  O14      1.0000 0.27294  0.62051  0.98239  Biso   1.000  O 
  O15      1.0000 0.22381  0.87838  0.01774  Biso   1.000  O 
  O16      1.0000 0.22197  0.86993  0.52001  Biso   1.000  O 
  Hf8      1.0000 0.63784  0.02137  0.29209  Biso   1.000  Hf
  Hf9      1.0000 0.63583  0.22851  0.79262  Biso   1.000  Hf
  Hf10     1.0000 0.85989  0.27166  0.20854  Biso   1.000  Hf
  Hf11     1.0000 0.85832  0.47856  0.70901  Biso   1.000  Hf
  O17      1.0000 0.53562  0.17005  0.16180  Biso   1.000  O 
  O18      1.0000 0.53402  0.07976  0.66236  Biso   1.000  O 
  O19      1.0000 0.96204  0.42047  0.33833  Biso   1.000  O 
  O20      1.0000 0.96032  0.32994  0.83893  Biso   1.000  O 
  O21      1.0000 0.77503  0.12923  0.48190  Biso   1.000  O 
  O22      1.0000 0.77291  0.12076  0.98272  Biso   1.000  O 
  O23      1.0000 0.72296  0.37931  0.01861  Biso   1.000  O 
  O24      1.0000 0.72111  0.37074  0.51931  Biso   1.000  O 
  Hf12     1.0000 0.63757  0.52130  0.29200  Biso   1.000  Hf
  Hf13     1.0000 0.63576  0.72849  0.79244  Biso   1.000  Hf
  Hf14     1.0000 0.85986  0.77103  0.20843  Biso   1.000  Hf
  Hf15     1.0000 0.85804  0.97849  0.70974  Biso   1.000  Hf
  O25      1.0000 0.53565  0.66998  0.16178  Biso   1.000  O 
  O26      1.0000 0.53362  0.57987  0.66230  Biso   1.000  O 
  O27      1.0000 0.96123  0.92013  0.33950  Biso   1.000  O 
  O28      1.0000 0.96050  0.82982  0.83948  Biso   1.000  O 
  O29      1.0000 0.77470  0.62910  0.48170  Biso   1.000  O 
  O30      1.0000 0.77296  0.62069  0.98234  Biso   1.000  O 
  O31      1.0000 0.72307  0.87918  0.01878  Biso   1.000  O 
  O32      1.0000 0.72079  0.87059  0.51942  Biso   1.000  O 
