data_image0
_cell_length_a       5.13154
_cell_length_b       10.3116
_cell_length_c       10.5872
_cell_angle_alpha    90
_cell_angle_beta     80
_cell_angle_gamma    90

_symmetry_space_group_name_H-M    "P 1"
_symmetry_int_tables_number       1

loop_
  _symmetry_equiv_pos_as_xyz
  'x, y, z'

loop_
  _atom_site_label
  _atom_site_occupancy
  _atom_site_fract_x
  _atom_site_fract_y
  _atom_site_fract_z
  _atom_site_thermal_displace_type
  _atom_site_B_iso_or_equiv
  _atom_site_type_symbol
  Hf1      1.0000 0.27486  0.02265  0.15328  Biso   1.000  Hf
  Hf2      1.0000 0.32439  0.22765  0.39967  Biso   1.000  Hf
  Hf3      1.0000 0.68296  0.26973  0.08220  Biso   1.000  Hf
  Hf4      1.0000 0.74630  0.48904  0.35623  Biso   1.000  Hf
  O1       1.0000 0.03172  0.16457  0.07924  Biso   1.000  O 
  O2       1.0000 0.10557  0.06141  0.34350  Biso   1.000  O 
  O3       1.0000 0.96444  0.41028  0.17681  Biso   1.000  O 
  O4       1.0000 0.98867  0.35206  0.43082  Biso   1.000  O 
  O5       1.0000 0.58093  0.11288  0.23560  Biso   1.000  O 
  O6       1.0000 0.63445  0.12872  0.47469  Biso   1.000  O 
  O7       1.0000 0.41751  0.38633  0.00181  Biso   1.000  O 
  O8       1.0000 0.51116  0.36748  0.25741  Biso   1.000  O 
  Hf5      1.0000 0.30440  0.02006  0.64626  Biso   1.000  Hf
  Hf6      1.0000 0.30560  0.22775  0.88918  Biso   1.000  Hf
  Hf7      1.0000 0.76352  0.27328  0.60574  Biso   1.000  Hf
  Hf8      1.0000 0.76051  0.48178  0.84846  Biso   1.000  Hf
  O9       1.0000 0.11713  0.16880  0.57973  Biso   1.000  O 
  O10      1.0000 0.09713  0.08272  0.82500  Biso   1.000  O 
  O11      1.0000 0.97088  0.41652  0.67278  Biso   1.000  O 
  O12      1.0000 0.96703  0.33464  0.91260  Biso   1.000  O 
  O13      1.0000 0.58236  0.12693  0.73441  Biso   1.000  O 
  O14      1.0000 0.57301  0.12003  0.98079  Biso   1.000  O 
  O15      1.0000 0.49429  0.38050  0.51195  Biso   1.000  O 
  O16      1.0000 0.48832  0.36941  0.75607  Biso   1.000  O 
  Hf9      1.0000 0.28812  0.52394  0.14703  Biso   1.000  Hf
  Hf10     1.0000 0.30009  0.72694  0.39802  Biso   1.000  Hf
  Hf11     1.0000 0.72604  0.77176  0.10495  Biso   1.000  Hf
  Hf12     1.0000 0.74394  0.96410  0.35341  Biso   1.000  Hf
  O17      1.0000 0.06993  0.66327  0.07789  Biso   1.000  O 
  O18      1.0000 0.09348  0.58824  0.32521  Biso   1.000  O 
  O19      1.0000 0.94800  0.90870  0.17603  Biso   1.000  O 
  O20      1.0000 0.95309  0.82429  0.42617  Biso   1.000  O 
  O21      1.0000 0.57393  0.62590  0.24148  Biso   1.000  O 
  O22      1.0000 0.57278  0.62537  0.49385  Biso   1.000  O 
  O23      1.0000 0.45059  0.87975  0.01256  Biso   1.000  O 
  O24      1.0000 0.45858  0.86323  0.25929  Biso   1.000  O 
  Hf13     1.0000 0.31185  0.52140  0.64591  Biso   1.000  Hf
  Hf14     1.0000 0.32252  0.72666  0.89587  Biso   1.000  Hf
  Hf15     1.0000 0.75665  0.77049  0.60507  Biso   1.000  Hf
  Hf16     1.0000 0.76349  0.97416  0.85219  Biso   1.000  Hf
  O25      1.0000 0.09424  0.66274  0.57919  Biso   1.000  O 
  O26      1.0000 0.10907  0.58461  0.82578  Biso   1.000  O 
  O27      1.0000 0.97149  0.91355  0.67315  Biso   1.000  O 
  O28      1.0000 0.98564  0.83487  0.92091  Biso   1.000  O 
  O29      1.0000 0.58818  0.62711  0.73957  Biso   1.000  O 
  O30      1.0000 0.60882  0.62271  0.98730  Biso   1.000  O 
  O31      1.0000 0.47559  0.88020  0.51180  Biso   1.000  O 
  O32      1.0000 0.48965  0.87040  0.75969  Biso   1.000  O 
  Zr1      1.0000 0.89312  0.22941  0.28518  Biso   1.000  Zr
