data_image0
_cell_length_a       10.1043
_cell_length_b       10.2836
_cell_length_c       10.4381
_cell_angle_alpha    90
_cell_angle_beta     80
_cell_angle_gamma    90

_symmetry_space_group_name_H-M    "P 1"
_symmetry_int_tables_number       1

loop_
  _symmetry_equiv_pos_as_xyz
  'x, y, z'

loop_
  _atom_site_label
  _atom_site_occupancy
  _atom_site_fract_x
  _atom_site_fract_y
  _atom_site_fract_z
  _atom_site_thermal_displace_type
  _atom_site_B_iso_or_equiv
  _atom_site_type_symbol
  Zr1      1.0000 0.13760  0.02139  0.14557  Biso   1.000  Zr
  Hf1      1.0000 0.13602  0.22862  0.39648  Biso   1.000  Hf
  Hf2      1.0000 0.36036  0.27142  0.10426  Biso   1.000  Hf
  Hf3      1.0000 0.35837  0.47850  0.35457  Biso   1.000  Hf
  O1       1.0000 0.03558  0.17126  0.08083  Biso   1.000  O 
  O2       1.0000 0.03329  0.08009  0.33215  Biso   1.000  O 
  O3       1.0000 0.46239  0.42008  0.16939  Biso   1.000  O 
  O4       1.0000 0.46053  0.32975  0.41962  Biso   1.000  O 
  O5       1.0000 0.27542  0.12968  0.24149  Biso   1.000  O 
  O6       1.0000 0.27308  0.12064  0.49137  Biso   1.000  O 
  O7       1.0000 0.22315  0.37923  0.00928  Biso   1.000  O 
  O8       1.0000 0.22113  0.37081  0.25960  Biso   1.000  O 
  Hf4      1.0000 0.13418  0.02133  0.64665  Biso   1.000  Hf
  Hf5      1.0000 0.13227  0.22885  0.89667  Biso   1.000  Hf
  Hf6      1.0000 0.35667  0.27129  0.60487  Biso   1.000  Hf
  Hf7      1.0000 0.35488  0.47855  0.85517  Biso   1.000  Hf
  O9       1.0000 0.03213  0.17034  0.58192  Biso   1.000  O 
  O10      1.0000 0.03036  0.07962  0.83219  Biso   1.000  O 
  O11      1.0000 0.45876  0.42005  0.66995  Biso   1.000  O 
  O12      1.0000 0.45709  0.32998  0.92029  Biso   1.000  O 
  O13      1.0000 0.27129  0.12919  0.74144  Biso   1.000  O 
  O14      1.0000 0.27002  0.12123  0.99115  Biso   1.000  O 
  O15      1.0000 0.21948  0.37918  0.50997  Biso   1.000  O 
  O16      1.0000 0.21767  0.37079  0.76019  Biso   1.000  O 
  Hf8      1.0000 0.13770  0.52134  0.14595  Biso   1.000  Hf
  Hf9      1.0000 0.13594  0.72841  0.39636  Biso   1.000  Hf
  Hf10     1.0000 0.36051  0.77113  0.10432  Biso   1.000  Hf
  Hf11     1.0000 0.35845  0.97850  0.35470  Biso   1.000  Hf
  O17      1.0000 0.03566  0.67032  0.08102  Biso   1.000  O 
  O18      1.0000 0.03376  0.57981  0.33125  Biso   1.000  O 
  O19      1.0000 0.46233  0.92024  0.16925  Biso   1.000  O 
  O20      1.0000 0.46054  0.82980  0.41979  Biso   1.000  O 
  O21      1.0000 0.27492  0.62885  0.24084  Biso   1.000  O 
  O22      1.0000 0.27306  0.62069  0.49122  Biso   1.000  O 
  O23      1.0000 0.22392  0.87840  0.00873  Biso   1.000  O 
  O24      1.0000 0.22206  0.86997  0.26005  Biso   1.000  O 
  Hf12     1.0000 0.13407  0.52134  0.64658  Biso   1.000  Hf
  Hf13     1.0000 0.13225  0.72841  0.89683  Biso   1.000  Hf
  Hf14     1.0000 0.35656  0.77133  0.60491  Biso   1.000  Hf
  Hf15     1.0000 0.35491  0.97844  0.85505  Biso   1.000  Hf
  O25      1.0000 0.03199  0.67016  0.58165  Biso   1.000  O 
  O26      1.0000 0.03013  0.57970  0.83184  Biso   1.000  O 
  O27      1.0000 0.45875  0.92003  0.66997  Biso   1.000  O 
  O28      1.0000 0.45731  0.82992  0.92026  Biso   1.000  O 
  O29      1.0000 0.27122  0.62914  0.74151  Biso   1.000  O 
  O30      1.0000 0.26941  0.62055  0.99181  Biso   1.000  O 
  O31      1.0000 0.21941  0.87917  0.51011  Biso   1.000  O 
  O32      1.0000 0.21760  0.87069  0.76022  Biso   1.000  O 
  Hf16     1.0000 0.63781  0.02134  0.14603  Biso   1.000  Hf
  Hf17     1.0000 0.63589  0.22856  0.39634  Biso   1.000  Hf
  Hf18     1.0000 0.85989  0.27166  0.10426  Biso   1.000  Hf
  Hf19     1.0000 0.85847  0.47854  0.35464  Biso   1.000  Hf
  O33      1.0000 0.53572  0.17013  0.08092  Biso   1.000  O 
  O34      1.0000 0.53399  0.07970  0.33130  Biso   1.000  O 
  O35      1.0000 0.96216  0.42035  0.16925  Biso   1.000  O 
  O36      1.0000 0.96060  0.32988  0.41971  Biso   1.000  O 
  O37      1.0000 0.77499  0.12926  0.24093  Biso   1.000  O 
  O38      1.0000 0.77298  0.12077  0.49135  Biso   1.000  O 
  O39      1.0000 0.72301  0.37932  0.00932  Biso   1.000  O 
  O40      1.0000 0.72117  0.37078  0.25970  Biso   1.000  O 
  Hf20     1.0000 0.63420  0.02138  0.64663  Biso   1.000  Hf
  Hf21     1.0000 0.63230  0.22852  0.89688  Biso   1.000  Hf
  Hf22     1.0000 0.85668  0.27135  0.60491  Biso   1.000  Hf
  Hf23     1.0000 0.85473  0.47859  0.85506  Biso   1.000  Hf
  O41      1.0000 0.53197  0.17006  0.58156  Biso   1.000  O 
  O42      1.0000 0.53028  0.07984  0.83176  Biso   1.000  O 
  O43      1.0000 0.95867  0.42026  0.66983  Biso   1.000  O 
  O44      1.0000 0.95669  0.32983  0.91998  Biso   1.000  O 
  O45      1.0000 0.77137  0.12916  0.74156  Biso   1.000  O 
  O46      1.0000 0.76947  0.12073  0.99185  Biso   1.000  O 
  O47      1.0000 0.71946  0.37917  0.50995  Biso   1.000  O 
  O48      1.0000 0.71764  0.37069  0.76021  Biso   1.000  O 
  Hf24     1.0000 0.63766  0.52132  0.14606  Biso   1.000  Hf
  Hf25     1.0000 0.63580  0.72849  0.39635  Biso   1.000  Hf
  Hf26     1.0000 0.85989  0.77102  0.10425  Biso   1.000  Hf
  Hf27     1.0000 0.85812  0.97852  0.35482  Biso   1.000  Hf
  O49      1.0000 0.53581  0.67008  0.08091  Biso   1.000  O 
  O50      1.0000 0.53368  0.57981  0.33124  Biso   1.000  O 
  O51      1.0000 0.96135  0.92010  0.16968  Biso   1.000  O 
  O52      1.0000 0.96057  0.82982  0.41962  Biso   1.000  O 
  O53      1.0000 0.77480  0.62909  0.24095  Biso   1.000  O 
  O54      1.0000 0.77306  0.62074  0.49120  Biso   1.000  O 
  O55      1.0000 0.72316  0.87921  0.00934  Biso   1.000  O 
  O56      1.0000 0.72080  0.87060  0.25974  Biso   1.000  O 
  Hf28     1.0000 0.63408  0.52133  0.64655  Biso   1.000  Hf
  Hf29     1.0000 0.63233  0.72857  0.89678  Biso   1.000  Hf
  Hf30     1.0000 0.85666  0.77137  0.60487  Biso   1.000  Hf
  Hf31     1.0000 0.85479  0.97854  0.85523  Biso   1.000  Hf
  O57      1.0000 0.53191  0.67004  0.58157  Biso   1.000  O 
  O58      1.0000 0.53019  0.57984  0.83179  Biso   1.000  O 
  O59      1.0000 0.95866  0.92017  0.66998  Biso   1.000  O 
  O60      1.0000 0.95690  0.82979  0.92034  Biso   1.000  O 
  O61      1.0000 0.77125  0.62919  0.74144  Biso   1.000  O 
  O62      1.0000 0.76943  0.62068  0.99181  Biso   1.000  O 
  O63      1.0000 0.71942  0.87916  0.51002  Biso   1.000  O 
  O64      1.0000 0.71768  0.87073  0.76024  Biso   1.000  O 
