data_image0
_cell_length_a       10.0241
_cell_length_b       5.11995
_cell_length_c       10.4498
_cell_angle_alpha    90
_cell_angle_beta     90
_cell_angle_gamma    90

_symmetry_space_group_name_H-M    "P 1"
_symmetry_int_tables_number       1

loop_
  _symmetry_equiv_pos_as_xyz
  'x, y, z'

loop_
  _atom_site_label
  _atom_site_occupancy
  _atom_site_fract_x
  _atom_site_fract_y
  _atom_site_fract_z
  _atom_site_thermal_displace_type
  _atom_site_B_iso_or_equiv
  _atom_site_type_symbol
  Zr1      1.0000 0.13855  0.04212  0.17087  Biso   1.000  Zr
  Hf1      1.0000 0.13881  0.45769  0.42159  Biso   1.000  Hf
  Hf2      1.0000 0.36148  0.54181  0.17139  Biso   1.000  Hf
  Hf3      1.0000 0.36124  0.95751  0.42140  Biso   1.000  Hf
  Hf4      1.0000 0.63867  0.04199  0.07870  Biso   1.000  Hf
  Hf5      1.0000 0.63873  0.45780  0.32873  Biso   1.000  Hf
  Hf6      1.0000 0.86045  0.54214  0.07841  Biso   1.000  Hf
  Hf7      1.0000 0.86094  0.95778  0.32889  Biso   1.000  Hf
  O1       1.0000 0.03330  0.33509  0.08426  Biso   1.000  O 
  O2       1.0000 0.03292  0.16787  0.33517  Biso   1.000  O 
  O3       1.0000 0.46643  0.83292  0.08440  Biso   1.000  O 
  O4       1.0000 0.46684  0.66762  0.33429  Biso   1.000  O 
  O5       1.0000 0.27697  0.24796  0.29531  Biso   1.000  O 
  O6       1.0000 0.27704  0.25291  0.04416  Biso   1.000  O 
  O7       1.0000 0.22397  0.74624  0.29524  Biso   1.000  O 
  O8       1.0000 0.22433  0.75065  0.04419  Biso   1.000  O 
  O9       1.0000 0.53359  0.33256  0.16562  Biso   1.000  O 
  O10      1.0000 0.53353  0.16721  0.41568  Biso   1.000  O 
  O11      1.0000 0.96535  0.83273  0.16584  Biso   1.000  O 
  O12      1.0000 0.96649  0.66741  0.41571  Biso   1.000  O 
  O13      1.0000 0.77642  0.24774  0.45535  Biso   1.000  O 
  O14      1.0000 0.77654  0.25237  0.20524  Biso   1.000  O 
  O15      1.0000 0.72343  0.74764  0.45523  Biso   1.000  O 
  O16      1.0000 0.72289  0.75234  0.20518  Biso   1.000  O 
  Hf8      1.0000 0.13876  0.04207  0.67136  Biso   1.000  Hf
  Hf9      1.0000 0.13873  0.45817  0.92102  Biso   1.000  Hf
  Hf10     1.0000 0.36119  0.54193  0.67130  Biso   1.000  Hf
  Hf11     1.0000 0.36134  0.95767  0.92119  Biso   1.000  Hf
  Hf12     1.0000 0.63873  0.04209  0.57864  Biso   1.000  Hf
  Hf13     1.0000 0.63865  0.45771  0.82850  Biso   1.000  Hf
  Hf14     1.0000 0.86127  0.54218  0.57867  Biso   1.000  Hf
  Hf15     1.0000 0.86111  0.95790  0.82854  Biso   1.000  Hf
  O17      1.0000 0.03362  0.33334  0.58488  Biso   1.000  O 
  O18      1.0000 0.03360  0.16677  0.83467  Biso   1.000  O 
  O19      1.0000 0.46648  0.83244  0.58434  Biso   1.000  O 
  O20      1.0000 0.46647  0.66707  0.83423  Biso   1.000  O 
  O21      1.0000 0.27650  0.24751  0.79464  Biso   1.000  O 
  O22      1.0000 0.27651  0.25212  0.54489  Biso   1.000  O 
  O23      1.0000 0.22339  0.74759  0.79463  Biso   1.000  O 
  O24      1.0000 0.22341  0.75236  0.54492  Biso   1.000  O 
  O25      1.0000 0.53346  0.33252  0.66560  Biso   1.000  O 
  O26      1.0000 0.53370  0.16695  0.91550  Biso   1.000  O 
  O27      1.0000 0.96629  0.83318  0.66553  Biso   1.000  O 
  O28      1.0000 0.96630  0.66755  0.91550  Biso   1.000  O 
  O29      1.0000 0.77652  0.24755  0.95519  Biso   1.000  O 
  O30      1.0000 0.77649  0.25239  0.70521  Biso   1.000  O 
  O31      1.0000 0.72324  0.74762  0.95508  Biso   1.000  O 
  O32      1.0000 0.72340  0.75225  0.70514  Biso   1.000  O 
