data_image0
_cell_length_a       10.084
_cell_length_b       10.2362
_cell_length_c       10.527
_cell_angle_alpha    90
_cell_angle_beta     90
_cell_angle_gamma    90

_symmetry_space_group_name_H-M    "P 1"
_symmetry_int_tables_number       1

loop_
  _symmetry_equiv_pos_as_xyz
  'x, y, z'

loop_
  _atom_site_label
  _atom_site_occupancy
  _atom_site_fract_x
  _atom_site_fract_y
  _atom_site_fract_z
  _atom_site_thermal_displace_type
  _atom_site_B_iso_or_equiv
  _atom_site_type_symbol
  Hf1      1.0000 0.13557  0.01949  0.17312  Biso   1.000  Hf
  Hf2      1.0000 0.13327  0.22853  0.42414  Biso   1.000  Hf
  Hf3      1.0000 0.35342  0.26536  0.17943  Biso   1.000  Hf
  Hf4      1.0000 0.35836  0.47742  0.42480  Biso   1.000  Hf
  Hf5      1.0000 0.63277  0.00012  0.08085  Biso   1.000  Hf
  Hf6      1.0000 0.62947  0.22535  0.33158  Biso   1.000  Hf
  Hf7      1.0000 0.87758  0.27800  0.07233  Biso   1.000  Hf
  Hf8      1.0000 0.85908  0.47928  0.32571  Biso   1.000  Hf
  O1       1.0000 0.03447  0.15879  0.07734  Biso   1.000  O 
  O2       1.0000 0.02279  0.09167  0.32808  Biso   1.000  O 
  O3       1.0000 0.46902  0.41861  0.09442  Biso   1.000  O 
  O4       1.0000 0.46247  0.33480  0.33421  Biso   1.000  O 
  O5       1.0000 0.26483  0.12343  0.30086  Biso   1.000  O 
  O6       1.0000 0.27344  0.12127  0.04796  Biso   1.000  O 
  O7       1.0000 0.21890  0.37505  0.30040  Biso   1.000  O 
  O8       1.0000 0.22656  0.37453  0.04699  Biso   1.000  O 
  O9       1.0000 0.50569  0.12810  0.18999  Biso   1.000  O 
  O10      1.0000 0.52303  0.08860  0.42889  Biso   1.000  O 
  O11      1.0000 0.97313  0.41557  0.17225  Biso   1.000  O 
  O12      1.0000 0.96536  0.33921  0.41897  Biso   1.000  O 
  O13      1.0000 0.77081  0.12236  0.45162  Biso   1.000  O 
  O14      1.0000 0.75582  0.13518  0.19464  Biso   1.000  O 
  O15      1.0000 0.72073  0.37456  0.45217  Biso   1.000  O 
  O16      1.0000 0.72311  0.38190  0.19879  Biso   1.000  O 
  Hf9      1.0000 0.12984  0.02059  0.67315  Biso   1.000  Hf
  Hf10     1.0000 0.13403  0.22732  0.92154  Biso   1.000  Hf
  Hf11     1.0000 0.35528  0.27026  0.67440  Biso   1.000  Hf
  Hf12     1.0000 0.35381  0.47856  0.92484  Biso   1.000  Hf
  Hf13     1.0000 0.63240  0.01788  0.57705  Biso   1.000  Hf
  Hf14     1.0000 0.63739  0.22932  0.81096  Biso   1.000  Hf
  Hf15     1.0000 0.85780  0.27210  0.57368  Biso   1.000  Hf
  Hf16     1.0000 0.85742  0.48074  0.82535  Biso   1.000  Hf
  O17      1.0000 0.02525  0.16113  0.57983  Biso   1.000  O 
  O18      1.0000 0.02255  0.08830  0.83073  Biso   1.000  O 
  O19      1.0000 0.46575  0.40991  0.58314  Biso   1.000  O 
  O20      1.0000 0.46553  0.33780  0.83652  Biso   1.000  O 
  O21      1.0000 0.26696  0.12383  0.79628  Biso   1.000  O 
  O22      1.0000 0.26936  0.12569  0.54860  Biso   1.000  O 
  O23      1.0000 0.22092  0.37409  0.79712  Biso   1.000  O 
  O24      1.0000 0.22069  0.37527  0.54839  Biso   1.000  O 
  O25      1.0000 0.52025  0.15466  0.67120  Biso   1.000  O 
  O26      1.0000 0.51471  0.09599  0.93083  Biso   1.000  O 
  O27      1.0000 0.96493  0.41272  0.66746  Biso   1.000  O 
  O28      1.0000 0.96820  0.34017  0.91552  Biso   1.000  O 
  O29      1.0000 0.75606  0.12875  0.95236  Biso   1.000  O 
  O30      1.0000 0.77304  0.12270  0.69691  Biso   1.000  O 
  O31      1.0000 0.72373  0.38272  0.94757  Biso   1.000  O 
  O32      1.0000 0.72229  0.37643  0.69853  Biso   1.000  O 
  Hf17     1.0000 0.14217  0.52135  0.17466  Biso   1.000  Hf
  Hf18     1.0000 0.13565  0.72886  0.42339  Biso   1.000  Hf
  Hf19     1.0000 0.36047  0.76868  0.17541  Biso   1.000  Hf
  Hf20     1.0000 0.36108  0.97803  0.42483  Biso   1.000  Hf
  Hf21     1.0000 0.64448  0.53320  0.07672  Biso   1.000  Hf
  Hf22     1.0000 0.63803  0.72866  0.33002  Biso   1.000  Hf
  Hf23     1.0000 0.86913  0.77083  0.07796  Biso   1.000  Hf
  Hf24     1.0000 0.86191  0.98076  0.32743  Biso   1.000  Hf
  O33      1.0000 0.03717  0.66313  0.08146  Biso   1.000  O 
  O34      1.0000 0.02995  0.58940  0.33177  Biso   1.000  O 
  O35      1.0000 0.46993  0.89636  0.07349  Biso   1.000  O 
  O36      1.0000 0.46965  0.84050  0.33001  Biso   1.000  O 
  O37      1.0000 0.27495  0.62367  0.29879  Biso   1.000  O 
  O38      1.0000 0.27959  0.62439  0.04753  Biso   1.000  O 
  O39      1.0000 0.22393  0.87285  0.29799  Biso   1.000  O 
  O40      1.0000 0.22648  0.87514  0.04779  Biso   1.000  O 
  O41      1.0000 0.53289  0.66405  0.17348  Biso   1.000  O 
  O42      1.0000 0.52792  0.58759  0.42020  Biso   1.000  O 
  O43      1.0000 0.96925  0.91551  0.16844  Biso   1.000  O 
  O44      1.0000 0.96639  0.84069  0.41982  Biso   1.000  O 
  O45      1.0000 0.77367  0.62382  0.45380  Biso   1.000  O 
  O46      1.0000 0.77967  0.62959  0.20426  Biso   1.000  O 
  O47      1.0000 0.72305  0.87371  0.45581  Biso   1.000  O 
  O48      1.0000 0.73066  0.87161  0.20864  Biso   1.000  O 
  Hf25     1.0000 0.13450  0.52122  0.67283  Biso   1.000  Hf
  Hf26     1.0000 0.13251  0.72926  0.92261  Biso   1.000  Hf
  Hf27     1.0000 0.35786  0.77088  0.67333  Biso   1.000  Hf
  Hf28     1.0000 0.35566  0.97800  0.92369  Biso   1.000  Hf
  Hf29     1.0000 0.63501  0.52133  0.57586  Biso   1.000  Hf
  Hf30     1.0000 0.63346  0.72868  0.82569  Biso   1.000  Hf
  Hf31     1.0000 0.85939  0.77196  0.57901  Biso   1.000  Hf
  Hf32     1.0000 0.85705  0.98131  0.82972  Biso   1.000  Hf
  O49      1.0000 0.02875  0.66367  0.58171  Biso   1.000  O 
  O50      1.0000 0.02710  0.58851  0.83042  Biso   1.000  O 
  O51      1.0000 0.46779  0.90678  0.57946  Biso   1.000  O 
  O52      1.0000 0.46644  0.84209  0.82701  Biso   1.000  O 
  O53      1.0000 0.27150  0.62331  0.79789  Biso   1.000  O 
  O54      1.0000 0.27169  0.62519  0.54721  Biso   1.000  O 
  O55      1.0000 0.22010  0.87311  0.79708  Biso   1.000  O 
  O56      1.0000 0.22214  0.87624  0.54746  Biso   1.000  O 
  O57      1.0000 0.52661  0.65990  0.67011  Biso   1.000  O 
  O58      1.0000 0.52284  0.58977  0.92007  Biso   1.000  O 
  O59      1.0000 0.96513  0.91239  0.67083  Biso   1.000  O 
  O60      1.0000 0.96332  0.83853  0.91920  Biso   1.000  O 
  O61      1.0000 0.77122  0.62877  0.95099  Biso   1.000  O 
  O62      1.0000 0.77119  0.62603  0.70223  Biso   1.000  O 
  O63      1.0000 0.71959  0.87251  0.95437  Biso   1.000  O 
  O64      1.0000 0.72212  0.87492  0.70636  Biso   1.000  O 
  Zr1      1.0000 0.60995  0.25742  0.06155  Biso   1.000  Zr
