data_image0
_cell_length_a       9.95836
_cell_length_b       10.3661
_cell_length_c       9.99831
_cell_angle_alpha    90
_cell_angle_beta     90
_cell_angle_gamma    90

_symmetry_space_group_name_H-M    "P 1"
_symmetry_int_tables_number       1

loop_
  _symmetry_equiv_pos_as_xyz
  'x, y, z'

loop_
  _atom_site_label
  _atom_site_occupancy
  _atom_site_fract_x
  _atom_site_fract_y
  _atom_site_fract_z
  _atom_site_thermal_displace_type
  _atom_site_B_iso_or_equiv
  _atom_site_type_symbol
  Zr1      1.0000 0.13347  0.01590  0.12627  Biso   1.000  Zr
  Hf1      1.0000 0.13390  0.23365  0.37621  Biso   1.000  Hf
  Hf2      1.0000 0.36590  0.26642  0.12601  Biso   1.000  Hf
  Hf3      1.0000 0.36582  0.48346  0.37602  Biso   1.000  Hf
  O1       1.0000 0.03611  0.18518  0.19447  Biso   1.000  O 
  O2       1.0000 0.03642  0.06542  0.44370  Biso   1.000  O 
  O3       1.0000 0.46343  0.43436  0.19411  Biso   1.000  O 
  O4       1.0000 0.46330  0.31544  0.44402  Biso   1.000  O 
  O5       1.0000 0.27110  0.11820  0.25016  Biso   1.000  O 
  O6       1.0000 0.27053  0.13209  0.49988  Biso   1.000  O 
  O7       1.0000 0.22919  0.38220  0.49990  Biso   1.000  O 
  O8       1.0000 0.22913  0.36772  0.24985  Biso   1.000  O 
  Hf4      1.0000 0.13380  0.01635  0.62598  Biso   1.000  Hf
  Hf5      1.0000 0.13383  0.23358  0.87578  Biso   1.000  Hf
  Hf6      1.0000 0.36583  0.26630  0.62599  Biso   1.000  Hf
  Hf7      1.0000 0.36582  0.48339  0.87607  Biso   1.000  Hf
  O9       1.0000 0.03656  0.18458  0.69341  Biso   1.000  O 
  O10      1.0000 0.03612  0.06598  0.94260  Biso   1.000  O 
  O11      1.0000 0.46336  0.43427  0.69406  Biso   1.000  O 
  O12      1.0000 0.46343  0.31559  0.94408  Biso   1.000  O 
  O13      1.0000 0.27050  0.11763  0.74969  Biso   1.000  O 
  O14      1.0000 0.27082  0.13251  0.99933  Biso   1.000  O 
  O15      1.0000 0.22909  0.38222  0.99986  Biso   1.000  O 
  O16      1.0000 0.22926  0.36772  0.74979  Biso   1.000  O 
  Hf8      1.0000 0.13388  0.51643  0.12602  Biso   1.000  Hf
  Hf9      1.0000 0.13385  0.73332  0.37622  Biso   1.000  Hf
  Hf10     1.0000 0.36621  0.76621  0.12594  Biso   1.000  Hf
  Hf11     1.0000 0.36596  0.98339  0.37606  Biso   1.000  Hf
  O17      1.0000 0.03643  0.68465  0.19411  Biso   1.000  O 
  O18      1.0000 0.03634  0.56548  0.44418  Biso   1.000  O 
  O19      1.0000 0.46341  0.93446  0.19398  Biso   1.000  O 
  O20      1.0000 0.46344  0.81553  0.44426  Biso   1.000  O 
  O21      1.0000 0.27048  0.61745  0.24986  Biso   1.000  O 
  O22      1.0000 0.27055  0.63213  0.49993  Biso   1.000  O 
  O23      1.0000 0.22915  0.88215  0.49991  Biso   1.000  O 
  O24      1.0000 0.23010  0.86686  0.25037  Biso   1.000  O 
  Hf12     1.0000 0.13387  0.51634  0.62611  Biso   1.000  Hf
  Hf13     1.0000 0.13386  0.73341  0.87603  Biso   1.000  Hf
  Hf14     1.0000 0.36579  0.76636  0.62609  Biso   1.000  Hf
  Hf15     1.0000 0.36591  0.98351  0.87592  Biso   1.000  Hf
  O25      1.0000 0.03635  0.68434  0.69409  Biso   1.000  O 
  O26      1.0000 0.03620  0.56563  0.94402  Biso   1.000  O 
  O27      1.0000 0.46335  0.93428  0.69404  Biso   1.000  O 
  O28      1.0000 0.46369  0.81552  0.94408  Biso   1.000  O 
  O29      1.0000 0.27051  0.61765  0.74990  Biso   1.000  O 
  O30      1.0000 0.27041  0.63200  0.99988  Biso   1.000  O 
  O31      1.0000 0.22999  0.88161  0.99938  Biso   1.000  O 
  O32      1.0000 0.22909  0.86769  0.74977  Biso   1.000  O 
  Hf16     1.0000 0.63399  0.01641  0.12609  Biso   1.000  Hf
  Hf17     1.0000 0.63382  0.23351  0.37602  Biso   1.000  Hf
  Hf18     1.0000 0.86576  0.26663  0.12608  Biso   1.000  Hf
  Hf19     1.0000 0.86583  0.48351  0.37611  Biso   1.000  Hf
  O33      1.0000 0.53655  0.18444  0.19393  Biso   1.000  O 
  O34      1.0000 0.53644  0.06549  0.44409  Biso   1.000  O 
  O35      1.0000 0.96319  0.43477  0.19401  Biso   1.000  O 
  O36      1.0000 0.96331  0.31564  0.44412  Biso   1.000  O 
  O37      1.0000 0.77055  0.11771  0.25001  Biso   1.000  O 
  O38      1.0000 0.77045  0.13223  0.50001  Biso   1.000  O 
  O39      1.0000 0.72914  0.38217  0.49990  Biso   1.000  O 
  O40      1.0000 0.72917  0.36776  0.24994  Biso   1.000  O 
  Hf20     1.0000 0.63379  0.01641  0.62615  Biso   1.000  Hf
  Hf21     1.0000 0.63381  0.23345  0.87609  Biso   1.000  Hf
  Hf22     1.0000 0.86583  0.26645  0.62606  Biso   1.000  Hf
  Hf23     1.0000 0.86579  0.48340  0.87609  Biso   1.000  Hf
  O41      1.0000 0.53631  0.18430  0.69411  Biso   1.000  O 
  O42      1.0000 0.53645  0.06543  0.94397  Biso   1.000  O 
  O43      1.0000 0.96337  0.43436  0.69419  Biso   1.000  O 
  O44      1.0000 0.96333  0.31560  0.94418  Biso   1.000  O 
  O45      1.0000 0.77052  0.11771  0.74989  Biso   1.000  O 
  O46      1.0000 0.77050  0.13207  0.99993  Biso   1.000  O 
  O47      1.0000 0.72904  0.38215  0.99989  Biso   1.000  O 
  O48      1.0000 0.72916  0.36766  0.74993  Biso   1.000  O 
  Hf24     1.0000 0.63387  0.51635  0.12608  Biso   1.000  Hf
  Hf25     1.0000 0.63380  0.73342  0.37625  Biso   1.000  Hf
  Hf26     1.0000 0.86555  0.76619  0.12626  Biso   1.000  Hf
  Hf27     1.0000 0.86544  0.98353  0.37654  Biso   1.000  Hf
  O49      1.0000 0.53647  0.68427  0.19421  Biso   1.000  O 
  O50      1.0000 0.53632  0.56544  0.44412  Biso   1.000  O 
  O51      1.0000 0.96226  0.93446  0.19466  Biso   1.000  O 
  O52      1.0000 0.96327  0.81549  0.44408  Biso   1.000  O 
  O53      1.0000 0.77049  0.61769  0.24996  Biso   1.000  O 
  O54      1.0000 0.77051  0.63213  0.49993  Biso   1.000  O 
  O55      1.0000 0.72904  0.88208  0.50017  Biso   1.000  O 
  O56      1.0000 0.72882  0.86763  0.25013  Biso   1.000  O 
  Hf28     1.0000 0.63381  0.51631  0.62609  Biso   1.000  Hf
  Hf29     1.0000 0.63382  0.73338  0.87603  Biso   1.000  Hf
  Hf30     1.0000 0.86584  0.76629  0.62607  Biso   1.000  Hf
  Hf31     1.0000 0.86553  0.98334  0.87597  Biso   1.000  Hf
  O57      1.0000 0.53634  0.68428  0.69407  Biso   1.000  O 
  O58      1.0000 0.53624  0.56550  0.94416  Biso   1.000  O 
  O59      1.0000 0.96319  0.93432  0.69395  Biso   1.000  O 
  O60      1.0000 0.96376  0.81591  0.94474  Biso   1.000  O 
  O61      1.0000 0.77053  0.61762  0.74989  Biso   1.000  O 
  O62      1.0000 0.77042  0.63207  0.99991  Biso   1.000  O 
  O63      1.0000 0.72947  0.88216  0.00005  Biso   1.000  O 
  O64      1.0000 0.72919  0.86763  0.75001  Biso   1.000  O 
