data_image0
_cell_length_a       10.0803
_cell_length_b       5.2173
_cell_length_c       10.1172
_cell_angle_alpha    90
_cell_angle_beta     90
_cell_angle_gamma    90

_symmetry_space_group_name_H-M    "P 1"
_symmetry_int_tables_number       1

loop_
  _symmetry_equiv_pos_as_xyz
  'x, y, z'

loop_
  _atom_site_label
  _atom_site_occupancy
  _atom_site_fract_x
  _atom_site_fract_y
  _atom_site_fract_z
  _atom_site_thermal_displace_type
  _atom_site_B_iso_or_equiv
  _atom_site_type_symbol
  Hf1      1.0000 0.12806  0.00763  0.12435  Biso   1.000  Hf
  Hf2      1.0000 0.12630  0.46278  0.38308  Biso   1.000  Hf
  Hf3      1.0000 0.38512  0.54028  0.11299  Biso   1.000  Hf
  Hf4      1.0000 0.36533  0.97771  0.36924  Biso   1.000  Hf
  O1       1.0000 0.99250  0.27365  0.23639  Biso   1.000  O 
  O2       1.0000 0.02978  0.13412  0.46354  Biso   1.000  O 
  O3       1.0000 0.46800  0.87386  0.19457  Biso   1.000  O 
  O4       1.0000 0.46964  0.65147  0.44493  Biso   1.000  O 
  O5       1.0000 0.25254  0.23864  0.24158  Biso   1.000  O 
  O6       1.0000 0.27050  0.27011  0.49420  Biso   1.000  O 
  O7       1.0000 0.23425  0.77369  0.49427  Biso   1.000  O 
  O8       1.0000 0.24172  0.72600  0.24635  Biso   1.000  O 
  Hf5      1.0000 0.13243  0.02316  0.62440  Biso   1.000  Hf
  Hf6      1.0000 0.13144  0.48115  0.84879  Biso   1.000  Hf
  Hf7      1.0000 0.37290  0.53841  0.61560  Biso   1.000  Hf
  Hf8      1.0000 0.36578  0.97992  0.87083  Biso   1.000  Hf
  O9       1.0000 0.02315  0.34158  0.69632  Biso   1.000  O 
  O10      1.0000 0.01918  0.17281  0.96497  Biso   1.000  O 
  O11      1.0000 0.47146  0.87251  0.69523  Biso   1.000  O 
  O12      1.0000 0.47149  0.65517  0.94166  Biso   1.000  O 
  O13      1.0000 0.26586  0.23560  0.74053  Biso   1.000  O 
  O14      1.0000 0.26135  0.27912  0.98925  Biso   1.000  O 
  O15      1.0000 0.23212  0.77378  0.99006  Biso   1.000  O 
  O16      1.0000 0.24268  0.73575  0.74078  Biso   1.000  O 
  Hf9      1.0000 0.62891  0.02793  0.12161  Biso   1.000  Hf
  Hf10     1.0000 0.63286  0.46948  0.37600  Biso   1.000  Hf
  Hf11     1.0000 0.84910  0.51084  0.12736  Biso   1.000  Hf
  Hf12     1.0000 0.87881  0.97549  0.36704  Biso   1.000  Hf
  O17      1.0000 0.53259  0.36101  0.20205  Biso   1.000  O 
  O18      1.0000 0.52862  0.14554  0.44828  Biso   1.000  O 
  O19      1.0000 0.98219  0.78610  0.21349  Biso   1.000  O 
  O20      1.0000 0.97005  0.64960  0.46212  Biso   1.000  O 
  O21      1.0000 0.75344  0.21578  0.24899  Biso   1.000  O 
  O22      1.0000 0.76839  0.27801  0.49643  Biso   1.000  O 
  O23      1.0000 0.73612  0.77941  0.49686  Biso   1.000  O 
  O24      1.0000 0.73038  0.73042  0.24906  Biso   1.000  O 
  Hf13     1.0000 0.63298  0.03396  0.62017  Biso   1.000  Hf
  Hf14     1.0000 0.63266  0.46937  0.86884  Biso   1.000  Hf
  Hf15     1.0000 0.86304  0.53449  0.62414  Biso   1.000  Hf
  Hf16     1.0000 0.86879  0.96767  0.87928  Biso   1.000  Hf
  O25      1.0000 0.53518  0.37198  0.69403  Biso   1.000  O 
  O26      1.0000 0.52353  0.15502  0.94836  Biso   1.000  O 
  O27      1.0000 0.98232  0.83953  0.71777  Biso   1.000  O 
  O28      1.0000 0.97008  0.65754  0.96156  Biso   1.000  O 
  O29      1.0000 0.76708  0.22825  0.74725  Biso   1.000  O 
  O30      1.0000 0.75900  0.25879  0.99502  Biso   1.000  O 
  O31      1.0000 0.72736  0.76332  0.99750  Biso   1.000  O 
  O32      1.0000 0.73526  0.73528  0.74858  Biso   1.000  O 
  Zr1      1.0000 0.11765  0.50142  0.11054  Biso   1.000  Zr
