data_image0
_cell_length_a       10.024
_cell_length_b       10.24
_cell_length_c       5.22488
_cell_angle_alpha    90
_cell_angle_beta     90
_cell_angle_gamma    90

_symmetry_space_group_name_H-M    "P 1"
_symmetry_int_tables_number       1

loop_
  _symmetry_equiv_pos_as_xyz
  'x, y, z'

loop_
  _atom_site_label
  _atom_site_occupancy
  _atom_site_fract_x
  _atom_site_fract_y
  _atom_site_fract_z
  _atom_site_thermal_displace_type
  _atom_site_B_iso_or_equiv
  _atom_site_type_symbol
  Zr1      1.0000 0.13861  0.02107  0.34185  Biso   1.000  Zr
  Hf1      1.0000 0.13874  0.22928  0.84255  Biso   1.000  Hf
  Hf2      1.0000 0.36127  0.27108  0.34269  Biso   1.000  Hf
  Hf3      1.0000 0.36115  0.47886  0.84263  Biso   1.000  Hf
  Hf4      1.0000 0.63877  0.02104  0.15760  Biso   1.000  Hf
  Hf5      1.0000 0.63865  0.22888  0.65731  Biso   1.000  Hf
  Hf6      1.0000 0.86079  0.27140  0.15703  Biso   1.000  Hf
  Hf7      1.0000 0.86110  0.47895  0.65699  Biso   1.000  Hf
  O1       1.0000 0.03340  0.16763  0.16919  Biso   1.000  O 
  O2       1.0000 0.03305  0.08378  0.67094  Biso   1.000  O 
  O3       1.0000 0.46640  0.41629  0.16859  Biso   1.000  O 
  O4       1.0000 0.46648  0.33368  0.66864  Biso   1.000  O 
  O5       1.0000 0.27687  0.12420  0.59040  Biso   1.000  O 
  O6       1.0000 0.27710  0.12671  0.08843  Biso   1.000  O 
  O7       1.0000 0.22332  0.37384  0.58942  Biso   1.000  O 
  O8       1.0000 0.22331  0.37623  0.08961  Biso   1.000  O 
  O9       1.0000 0.53351  0.16637  0.33122  Biso   1.000  O 
  O10      1.0000 0.53379  0.08343  0.83109  Biso   1.000  O 
  O11      1.0000 0.96613  0.41672  0.33073  Biso   1.000  O 
  O12      1.0000 0.96623  0.33380  0.83078  Biso   1.000  O 
  O13      1.0000 0.77645  0.12389  0.91084  Biso   1.000  O 
  O14      1.0000 0.77657  0.12623  0.41071  Biso   1.000  O 
  O15      1.0000 0.72322  0.37389  0.91009  Biso   1.000  O 
  O16      1.0000 0.72323  0.37621  0.41020  Biso   1.000  O 
  Hf8      1.0000 0.13859  0.52104  0.34259  Biso   1.000  Hf
  Hf9      1.0000 0.13868  0.72865  0.84267  Biso   1.000  Hf
  Hf10     1.0000 0.36128  0.77081  0.34270  Biso   1.000  Hf
  Hf11     1.0000 0.36132  0.97874  0.84255  Biso   1.000  Hf
  Hf12     1.0000 0.63853  0.52102  0.15708  Biso   1.000  Hf
  Hf13     1.0000 0.63862  0.72890  0.65713  Biso   1.000  Hf
  Hf14     1.0000 0.86083  0.77078  0.15712  Biso   1.000  Hf
  Hf15     1.0000 0.86084  0.97891  0.65788  Biso   1.000  Hf
  O17      1.0000 0.03342  0.66659  0.16910  Biso   1.000  O 
  O18      1.0000 0.03337  0.58355  0.66874  Biso   1.000  O 
  O19      1.0000 0.46639  0.91641  0.16890  Biso   1.000  O 
  O20      1.0000 0.46672  0.83368  0.66841  Biso   1.000  O 
  O21      1.0000 0.27648  0.62356  0.58950  Biso   1.000  O 
  O22      1.0000 0.27633  0.62582  0.08966  Biso   1.000  O 
  O23      1.0000 0.22393  0.87309  0.59030  Biso   1.000  O 
  O24      1.0000 0.22432  0.87527  0.08860  Biso   1.000  O 
  O25      1.0000 0.53343  0.66619  0.33122  Biso   1.000  O 
  O26      1.0000 0.53333  0.58365  0.83126  Biso   1.000  O 
  O27      1.0000 0.96540  0.91626  0.33201  Biso   1.000  O 
  O28      1.0000 0.96645  0.83368  0.83164  Biso   1.000  O 
  O29      1.0000 0.77637  0.62377  0.91024  Biso   1.000  O 
  O30      1.0000 0.77636  0.62617  0.41018  Biso   1.000  O 
  O31      1.0000 0.72334  0.87375  0.91054  Biso   1.000  O 
  O32      1.0000 0.72294  0.87611  0.41044  Biso   1.000  O 
