data_image0
_cell_length_a       5.06388
_cell_length_b       10.1713
_cell_length_c       10.0528
_cell_angle_alpha    90.1621
_cell_angle_beta     93.4634
_cell_angle_gamma    89.6022

_symmetry_space_group_name_H-M    "P 1"
_symmetry_int_tables_number       1

loop_
  _symmetry_equiv_pos_as_xyz
  'x, y, z'

loop_
  _atom_site_label
  _atom_site_occupancy
  _atom_site_fract_x
  _atom_site_fract_y
  _atom_site_fract_z
  _atom_site_thermal_displace_type
  _atom_site_B_iso_or_equiv
  _atom_site_type_symbol
  Ag1      1.0000 0.23452  0.02300  0.11420  Biso   1.000  Ag
  Hf1      1.0000 0.25635  0.24919  0.38667  Biso   1.000  Hf
  Hf2      1.0000 0.73179  0.25799  0.13566  Biso   1.000  Hf
  Hf3      1.0000 0.70808  0.98713  0.35303  Biso   1.000  Hf
  O1       1.0000 0.00539  0.15472  0.00855  Biso   1.000  O
  O2       1.0000 0.93967  0.12277  0.26915  Biso   1.000  O
  O3       1.0000 0.02004  0.36337  0.26547  Biso   1.000  O
  O4       1.0000 0.89297  0.40935  0.03212  Biso   1.000  O
  O5       1.0000 0.44557  0.13749  0.24477  Biso   1.000  O
  O6       1.0000 0.53412  0.10994  0.99385  Biso   1.000  O
  O7       1.0000 0.39368  0.33820  0.03352  Biso   1.000  O
  O8       1.0000 0.51820  0.38730  0.26730  Biso   1.000  O
  Hf4      1.0000 0.27210  0.99620  0.61909  Biso   1.000  Hf
  Hf5      1.0000 0.26174  0.24289  0.86659  Biso   1.000  Hf
  Hf6      1.0000 0.77696  0.23880  0.62365  Biso   1.000  Hf
  Hf7      1.0000 0.76629  0.00168  0.87692  Biso   1.000  Hf
  O9       1.0000 0.06285  0.15263  0.52316  Biso   1.000  O
  O10      1.0000 0.03053  0.09315  0.75648  Biso   1.000  O
  O11      1.0000 0.93641  0.34202  0.78295  Biso   1.000  O
  O12      1.0000 0.99821  0.39611  0.52028  Biso   1.000  O
  O13      1.0000 0.51457  0.14973  0.74596  Biso   1.000  O
  O14      1.0000 0.54354  0.10441  0.49399  Biso   1.000  O
  O15      1.0000 0.49687  0.35618  0.52180  Biso   1.000  O
  O16      1.0000 0.43690  0.40721  0.78038  Biso   1.000  O
  Hf8      1.0000 0.22759  0.49166  0.13205  Biso   1.000  Hf
  Hf9      1.0000 0.20936  0.75960  0.35625  Biso   1.000  Hf
  Hf10     1.0000 0.70760  0.73153  0.12235  Biso   1.000  Hf
  Hf11     1.0000 0.76784  0.49977  0.38336  Biso   1.000  Hf
  O17      1.0000 0.98894  0.64790  0.99951  Biso   1.000  O
  O18      1.0000 0.96465  0.60721  0.24846  Biso   1.000  O
  O19      1.0000 0.93352  0.85504  0.23989  Biso   1.000  O
  O20      1.0000 0.07021  0.90291  0.97870  Biso   1.000  O
  O21      1.0000 0.46273  0.63908  0.25183  Biso   1.000  O
  O22      1.0000 0.47745  0.59217  0.00143  Biso   1.000  O
  O23      1.0000 0.57395  0.84005  0.96195  Biso   1.000  O
  O24      1.0000 0.44311  0.88587  0.21972  Biso   1.000  O
  Hf12     1.0000 0.28447  0.51359  0.62113  Biso   1.000  Hf
  Hf13     1.0000 0.25197  0.73908  0.88019  Biso   1.000  Hf
  Hf14     1.0000 0.77247  0.75521  0.61710  Biso   1.000  Hf
  Hf15     1.0000 0.75352  0.50843  0.86774  Biso   1.000  Hf
  O25      1.0000 0.04331  0.64848  0.49722  Biso   1.000  O
  O26      1.0000 0.01116  0.59929  0.74793  Biso   1.000  O
  O27      1.0000 0.09909  0.84168  0.72309  Biso   1.000  O
  O28      1.0000 0.99428  0.90292  0.48430  Biso   1.000  O
  O29      1.0000 0.52097  0.65612  0.74973  Biso   1.000  O
  O30      1.0000 0.55507  0.60227  0.51175  Biso   1.000  O
  O31      1.0000 0.49517  0.84949  0.47617  Biso   1.000  O
  O32      1.0000 0.60549  0.91174  0.71276  Biso   1.000  O
