data_image0
_cell_length_a       10.2232
_cell_length_b       5.16123
_cell_length_c       10.534
_cell_angle_alpha    90.3505
_cell_angle_beta     80.4243
_cell_angle_gamma    89.5406

_symmetry_space_group_name_H-M    "P 1"
_symmetry_int_tables_number       1

loop_
  _symmetry_equiv_pos_as_xyz
  'x, y, z'

loop_
  _atom_site_label
  _atom_site_occupancy
  _atom_site_fract_x
  _atom_site_fract_y
  _atom_site_fract_z
  _atom_site_thermal_displace_type
  _atom_site_B_iso_or_equiv
  _atom_site_type_symbol
  Ag1      1.0000 0.12603  0.01756  0.16576  Biso   1.000  Ag
  Zr1      1.0000 0.13991  0.45343  0.39547  Biso   1.000  Zr
  Zr2      1.0000 0.35885  0.54225  0.10114  Biso   1.000  Zr
  Zr3      1.0000 0.36320  0.95254  0.35349  Biso   1.000  Zr
  O1       1.0000 0.03930  0.34160  0.07692  Biso   1.000  O
  O2       1.0000 0.02920  0.16833  0.32771  Biso   1.000  O
  O3       1.0000 0.46786  0.82867  0.17319  Biso   1.000  O
  O4       1.0000 0.46635  0.66587  0.42353  Biso   1.000  O
  O5       1.0000 0.27180  0.24111  0.23512  Biso   1.000  O
  O6       1.0000 0.27614  0.24114  0.48708  Biso   1.000  O
  O7       1.0000 0.22545  0.79259  0.01533  Biso   1.000  O
  O8       1.0000 0.22975  0.72189  0.26304  Biso   1.000  O
  Zr4      1.0000 0.13920  0.03980  0.64466  Biso   1.000  Zr
  Zr5      1.0000 0.13993  0.45713  0.89520  Biso   1.000  Zr
  Zr6      1.0000 0.36210  0.54470  0.60647  Biso   1.000  Zr
  Zr7      1.0000 0.36145  0.97255  0.85665  Biso   1.000  Zr
  O9       1.0000 0.03159  0.32018  0.57276  Biso   1.000  O
  O10      1.0000 0.03434  0.17008  0.82568  Biso   1.000  O
  O11      1.0000 0.46655  0.83529  0.67265  Biso   1.000  O
  O12      1.0000 0.46797  0.68266  0.92375  Biso   1.000  O
  O13      1.0000 0.27392  0.25613  0.73430  Biso   1.000  O
  O14      1.0000 0.29079  0.28551  0.97295  Biso   1.000  O
  O15      1.0000 0.22428  0.75268  0.51054  Biso   1.000  O
  O16      1.0000 0.22675  0.74515  0.76250  Biso   1.000  O
  Zr8      1.0000 0.63670  0.04093  0.14381  Biso   1.000  Zr
  Zr9      1.0000 0.63763  0.45380  0.39532  Biso   1.000  Zr
  Zr10     1.0000 0.86252  0.52944  0.10284  Biso   1.000  Zr
  Zr11     1.0000 0.85433  0.95024  0.35693  Biso   1.000  Zr
  O17      1.0000 0.53452  0.33434  0.07697  Biso   1.000  O
  O18      1.0000 0.53301  0.16584  0.32781  Biso   1.000  O
  O19      1.0000 0.95448  0.83961  0.17181  Biso   1.000  O
  O20      1.0000 0.96670  0.66821  0.42209  Biso   1.000  O
  O21      1.0000 0.77316  0.25249  0.24057  Biso   1.000  O
  O22      1.0000 0.77504  0.23970  0.49020  Biso   1.000  O
  O23      1.0000 0.72571  0.75692  0.00984  Biso   1.000  O
  O24      1.0000 0.72472  0.73815  0.26045  Biso   1.000  O
  Zr12     1.0000 0.63830  0.04340  0.64689  Biso   1.000  Zr
  Zr13     1.0000 0.63841  0.46360  0.89566  Biso   1.000  Zr
  Zr14     1.0000 0.86119  0.54102  0.60514  Biso   1.000  Zr
  Zr15     1.0000 0.86347  0.95640  0.85533  Biso   1.000  Zr
  O25      1.0000 0.53454  0.33255  0.57753  Biso   1.000  O
  O26      1.0000 0.53644  0.17415  0.82626  Biso   1.000  O
  O27      1.0000 0.96830  0.82321  0.67409  Biso   1.000  O
  O28      1.0000 0.96601  0.66652  0.92442  Biso   1.000  O
  O29      1.0000 0.77695  0.25875  0.73981  Biso   1.000  O
  O30      1.0000 0.77553  0.24322  0.98956  Biso   1.000  O
  O31      1.0000 0.72362  0.75280  0.51068  Biso   1.000  O
  O32      1.0000 0.72599  0.74583  0.76009  Biso   1.000  O
