data_image0
_cell_length_a       10.021
_cell_length_b       10.4323
_cell_length_c       10.0704
_cell_angle_alpha    90.0772
_cell_angle_beta     89.504
_cell_angle_gamma    89.9653

_symmetry_space_group_name_H-M    "P 1"
_symmetry_int_tables_number       1

loop_
  _symmetry_equiv_pos_as_xyz
  'x, y, z'

loop_
  _atom_site_label
  _atom_site_occupancy
  _atom_site_fract_x
  _atom_site_fract_y
  _atom_site_fract_z
  _atom_site_thermal_displace_type
  _atom_site_B_iso_or_equiv
  _atom_site_type_symbol
  Ag1      1.0000 0.12132  0.02614  0.10515  Biso   1.000  Ag
  Zr1      1.0000 0.13882  0.23068  0.37711  Biso   1.000  Zr
  Zr2      1.0000 0.36663  0.26651  0.12975  Biso   1.000  Zr
  Zr3      1.0000 0.36634  0.48442  0.37753  Biso   1.000  Zr
  O1       1.0000 0.03841  0.18169  0.19021  Biso   1.000  O
  O2       1.0000 0.03840  0.06545  0.44649  Biso   1.000  O
  O3       1.0000 0.46477  0.43337  0.19565  Biso   1.000  O
  O4       1.0000 0.46476  0.31645  0.44492  Biso   1.000  O
  O5       1.0000 0.28219  0.12660  0.25726  Biso   1.000  O
  O6       1.0000 0.27014  0.13092  0.50490  Biso   1.000  O
  O7       1.0000 0.23047  0.38151  0.50043  Biso   1.000  O
  O8       1.0000 0.22877  0.36895  0.25073  Biso   1.000  O
  Zr4      1.0000 0.13410  0.01723  0.63241  Biso   1.000  Zr
  Zr5      1.0000 0.13359  0.23956  0.87397  Biso   1.000  Zr
  Zr6      1.0000 0.36711  0.26608  0.62698  Biso   1.000  Zr
  Zr7      1.0000 0.36607  0.48525  0.87651  Biso   1.000  Zr
  O9       1.0000 0.03842  0.18979  0.68936  Biso   1.000  O
  O10      1.0000 0.03770  0.06481  0.90506  Biso   1.000  O
  O11      1.0000 0.46403  0.43449  0.69503  Biso   1.000  O
  O12      1.0000 0.46044  0.31272  0.94191  Biso   1.000  O
  O13      1.0000 0.27362  0.12097  0.75378  Biso   1.000  O
  O14      1.0000 0.26248  0.13110  0.00453  Biso   1.000  O
  O15      1.0000 0.23086  0.38320  0.00044  Biso   1.000  O
  O16      1.0000 0.22981  0.36970  0.74943  Biso   1.000  O
  Zr8      1.0000 0.13470  0.51518  0.12762  Biso   1.000  Zr
  Zr9      1.0000 0.13613  0.73470  0.37721  Biso   1.000  Zr
  Zr10     1.0000 0.36548  0.76504  0.13006  Biso   1.000  Zr
  Zr11     1.0000 0.36277  0.98321  0.37595  Biso   1.000  Zr
  O17      1.0000 0.03703  0.68331  0.19436  Biso   1.000  O
  O18      1.0000 0.03614  0.56457  0.44537  Biso   1.000  O
  O19      1.0000 0.46953  0.93226  0.19698  Biso   1.000  O
  O20      1.0000 0.46778  0.81775  0.45096  Biso   1.000  O
  O21      1.0000 0.27021  0.61362  0.25025  Biso   1.000  O
  O22      1.0000 0.27087  0.63295  0.50108  Biso   1.000  O
  O23      1.0000 0.22881  0.88272  0.50617  Biso   1.000  O
  O24      1.0000 0.24263  0.85798  0.26060  Biso   1.000  O
  Zr12     1.0000 0.13383  0.51667  0.62604  Biso   1.000  Zr
  Zr13     1.0000 0.13218  0.73311  0.87832  Biso   1.000  Zr
  Zr14     1.0000 0.36551  0.76716  0.62864  Biso   1.000  Zr
  Zr15     1.0000 0.36402  0.98410  0.88026  Biso   1.000  Zr
  O25      1.0000 0.03535  0.68471  0.69514  Biso   1.000  O
  O26      1.0000 0.03386  0.56534  0.94543  Biso   1.000  O
  O27      1.0000 0.46297  0.93485  0.69794  Biso   1.000  O
  O28      1.0000 0.45795  0.81522  0.94401  Biso   1.000  O
  O29      1.0000 0.26838  0.61776  0.75110  Biso   1.000  O
  O30      1.0000 0.26842  0.63355  0.00095  Biso   1.000  O
  O31      1.0000 0.22444  0.88381  0.00885  Biso   1.000  O
  O32      1.0000 0.22891  0.86856  0.75556  Biso   1.000  O
  Zr16     1.0000 0.63560  0.01540  0.12659  Biso   1.000  Zr
  Zr17     1.0000 0.63374  0.23354  0.37527  Biso   1.000  Zr
  Zr18     1.0000 0.86300  0.26555  0.12468  Biso   1.000  Zr
  Zr19     1.0000 0.86754  0.48377  0.37544  Biso   1.000  Zr
  O33      1.0000 0.54066  0.18615  0.19101  Biso   1.000  O
  O34      1.0000 0.53573  0.06628  0.44269  Biso   1.000  O
  O35      1.0000 0.96489  0.42943  0.19380  Biso   1.000  O
  O36      1.0000 0.96442  0.31431  0.44063  Biso   1.000  O
  O37      1.0000 0.77151  0.11760  0.24857  Biso   1.000  O
  O38      1.0000 0.77009  0.13306  0.49715  Biso   1.000  O
  O39      1.0000 0.73107  0.38307  0.49920  Biso   1.000  O
  O40      1.0000 0.73004  0.36793  0.24955  Biso   1.000  O
  Zr20     1.0000 0.63122  0.01472  0.62219  Biso   1.000  Zr
  Zr21     1.0000 0.63299  0.23277  0.87502  Biso   1.000  Zr
  Zr22     1.0000 0.86464  0.26582  0.62290  Biso   1.000  Zr
  Zr23     1.0000 0.86468  0.48400  0.87485  Biso   1.000  Zr
  O41      1.0000 0.53709  0.18471  0.69287  Biso   1.000  O
  O42      1.0000 0.53429  0.06565  0.94575  Biso   1.000  O
  O43      1.0000 0.96337  0.43412  0.69360  Biso   1.000  O
  O44      1.0000 0.96280  0.31575  0.94406  Biso   1.000  O
  O45      1.0000 0.76787  0.11642  0.74588  Biso   1.000  O
  O46      1.0000 0.77213  0.13049  0.99654  Biso   1.000  O
  O47      1.0000 0.72855  0.38089  0.99966  Biso   1.000  O
  O48      1.0000 0.72957  0.36682  0.74927  Biso   1.000  O
  Zr24     1.0000 0.63478  0.51628  0.12801  Biso   1.000  Zr
  Zr25     1.0000 0.63505  0.73595  0.37554  Biso   1.000  Zr
  Zr26     1.0000 0.86955  0.76454  0.12269  Biso   1.000  Zr
  Zr27     1.0000 0.87132  0.98612  0.37508  Biso   1.000  Zr
  O49      1.0000 0.53716  0.68416  0.19644  Biso   1.000  O
  O50      1.0000 0.53650  0.56683  0.44440  Biso   1.000  O
  O51      1.0000 0.96586  0.93627  0.18736  Biso   1.000  O
  O52      1.0000 0.96408  0.81511  0.44087  Biso   1.000  O
  O53      1.0000 0.77185  0.61639  0.24858  Biso   1.000  O
  O54      1.0000 0.76895  0.63327  0.49842  Biso   1.000  O
  O55      1.0000 0.73220  0.88402  0.49689  Biso   1.000  O
  O56      1.0000 0.73821  0.86721  0.24756  Biso   1.000  O
  Zr28     1.0000 0.63339  0.51633  0.62537  Biso   1.000  Zr
  Zr29     1.0000 0.63132  0.73318  0.87653  Biso   1.000  Zr
  Zr30     1.0000 0.86640  0.76486  0.62296  Biso   1.000  Zr
  Zr31     1.0000 0.85957  0.98098  0.86971  Biso   1.000  Zr
  O57      1.0000 0.53392  0.68294  0.69694  Biso   1.000  O
  O58      1.0000 0.53495  0.56507  0.94695  Biso   1.000  O
  O59      1.0000 0.95956  0.93435  0.68586  Biso   1.000  O
  O60      1.0000 0.96077  0.81620  0.94002  Biso   1.000  O
  O61      1.0000 0.76827  0.61678  0.74914  Biso   1.000  O
  O62      1.0000 0.76887  0.63185  0.99881  Biso   1.000  O
  O63      1.0000 0.72559  0.88010  0.99793  Biso   1.000  O
  O64      1.0000 0.72775  0.86548  0.74708  Biso   1.000  O
