data_image0
_cell_length_a       10.0915
_cell_length_b       10.3117
_cell_length_c       10.1413
_cell_angle_alpha    91.1362
_cell_angle_beta     90.4306
_cell_angle_gamma    90.1147

_symmetry_space_group_name_H-M    "P 1"
_symmetry_int_tables_number       1

loop_
  _symmetry_equiv_pos_as_xyz
  'x, y, z'

loop_
  _atom_site_label
  _atom_site_occupancy
  _atom_site_fract_x
  _atom_site_fract_y
  _atom_site_fract_z
  _atom_site_thermal_displace_type
  _atom_site_B_iso_or_equiv
  _atom_site_type_symbol
  Zr1      1.0000 0.12735  0.00519  0.13081  Biso   1.000  Zr
  Zr2      1.0000 0.11921  0.24422  0.40501  Biso   1.000  Zr
  Zr3      1.0000 0.39418  0.23947  0.10319  Biso   1.000  Zr
  Zr4      1.0000 0.39162  0.98786  0.38141  Biso   1.000  Zr
  O1       1.0000 0.02250  0.17607  0.04646  Biso   1.000  O
  O2       1.0000 0.02894  0.07800  0.29697  Biso   1.000  O
  O3       1.0000 0.97472  0.31658  0.27346  Biso   1.000  O
  O4       1.0000 0.98571  0.41658  0.04801  Biso   1.000  O
  O5       1.0000 0.22394  0.18967  0.22373  Biso   1.000  O
  O6       1.0000 0.25817  0.10464  0.98914  Biso   1.000  O
  O7       1.0000 0.22840  0.35583  0.02559  Biso   1.000  O
  O8       1.0000 0.19405  0.42566  0.26895  Biso   1.000  O
  Zr5      1.0000 0.12967  0.99901  0.62643  Biso   1.000  Zr
  Zr6      1.0000 0.13802  0.24029  0.86495  Biso   1.000  Zr
  Zr7      1.0000 0.39041  0.23788  0.60801  Biso   1.000  Zr
  Zr8      1.0000 0.38300  0.99212  0.87159  Biso   1.000  Zr
  O9       1.0000 0.01952  0.15175  0.54658  Biso   1.000  O
  O10      1.0000 0.02540  0.08600  0.78678  Biso   1.000  O
  O11      1.0000 0.98521  0.34047  0.77935  Biso   1.000  O
  O12      1.0000 0.99516  0.39338  0.51432  Biso   1.000  O
  O13      1.0000 0.26067  0.14584  0.73620  Biso   1.000  O
  O14      1.0000 0.25914  0.10352  0.48672  Biso   1.000  O
  O15      1.0000 0.25144  0.35595  0.51513  Biso   1.000  O
  O16      1.0000 0.23651  0.39904  0.76985  Biso   1.000  O
  Zr9      1.0000 0.13136  0.54952  0.11859  Biso   1.000  Zr
  Zr10     1.0000 0.11569  0.74946  0.38472  Biso   1.000  Zr
  Zr11     1.0000 0.38348  0.76333  0.12108  Biso   1.000  Zr
  Zr12     1.0000 0.36358  0.50581  0.36490  Biso   1.000  Zr
  O17      1.0000 0.00286  0.65887  0.99414  Biso   1.000  O
  O18      1.0000 0.99040  0.60619  0.25333  Biso   1.000  O
  O19      1.0000 0.01143  0.84593  0.24224  Biso   1.000  O
  O20      1.0000 0.00436  0.90883  0.99877  Biso   1.000  O
  O21      1.0000 0.24984  0.66845  0.24929  Biso   1.000  O
  O22      1.0000 0.26228  0.61863  0.99069  Biso   1.000  O
  O23      1.0000 0.25463  0.86005  0.99269  Biso   1.000  O
  O24      1.0000 0.27206  0.91861  0.23580  Biso   1.000  O
  Zr13     1.0000 0.13202  0.50172  0.62695  Biso   1.000  Zr
  Zr14     1.0000 0.13025  0.75784  0.86877  Biso   1.000  Zr
  Zr15     1.0000 0.37869  0.74840  0.62095  Biso   1.000  Zr
  Zr16     1.0000 0.37990  0.50805  0.86293  Biso   1.000  Zr
  O25      1.0000 0.99716  0.63856  0.50049  Biso   1.000  O
  O26      1.0000 0.00312  0.59683  0.75027  Biso   1.000  O
  O27      1.0000 0.00015  0.84805  0.74515  Biso   1.000  O
  O28      1.0000 0.00608  0.89035  0.50124  Biso   1.000  O
  O29      1.0000 0.25407  0.64630  0.74552  Biso   1.000  O
  O30      1.0000 0.24446  0.60740  0.50050  Biso   1.000  O
  O31      1.0000 0.25811  0.85514  0.49234  Biso   1.000  O
  O32      1.0000 0.25349  0.89182  0.74385  Biso   1.000  O
  Zr17     1.0000 0.63174  0.01058  0.12580  Biso   1.000  Zr
  Zr18     1.0000 0.60762  0.25935  0.34503  Biso   1.000  Zr
  Zr19     1.0000 0.83397  0.25745  0.12534  Biso   1.000  Zr
  Zr20     1.0000 0.87477  0.98863  0.37471  Biso   1.000  Zr
  O33      1.0000 0.50799  0.12997  0.97558  Biso   1.000  O
  O34      1.0000 0.48290  0.10640  0.23838  Biso   1.000  O
  O35      1.0000 0.46312  0.36572  0.24790  Biso   1.000  O
  O36      1.0000 0.48687  0.38998  0.98983  Biso   1.000  O
  O37      1.0000 0.75723  0.13432  0.27073  Biso   1.000  O
  O38      1.0000 0.76805  0.10270  0.00692  Biso   1.000  O
  O39      1.0000 0.74542  0.36508  0.98151  Biso   1.000  O
  O40      1.0000 0.73651  0.40029  0.24778  Biso   1.000  O
  Zr21     1.0000 0.63675  0.99711  0.62239  Biso   1.000  Zr
  Zr22     1.0000 0.62258  0.25192  0.86430  Biso   1.000  Zr
  Zr23     1.0000 0.86246  0.25501  0.62591  Biso   1.000  Zr
  Zr24     1.0000 0.87372  0.98994  0.87142  Biso   1.000  Zr
  O41      1.0000 0.51661  0.13586  0.48585  Biso   1.000  O
  O42      1.0000 0.50439  0.10000  0.73387  Biso   1.000  O
  O43      1.0000 0.49588  0.35306  0.74187  Biso   1.000  O
  O44      1.0000 0.49496  0.38957  0.48840  Biso   1.000  O
  O45      1.0000 0.75856  0.14132  0.76093  Biso   1.000  O
  O46      1.0000 0.77764  0.08927  0.52184  Biso   1.000  O
  O47      1.0000 0.74435  0.34327  0.48945  Biso   1.000  O
  O48      1.0000 0.74717  0.39519  0.73991  Biso   1.000  O
  Zr25     1.0000 0.61698  0.50204  0.11432  Biso   1.000  Zr
  Zr26     1.0000 0.62526  0.73952  0.37277  Biso   1.000  Zr
  Zr27     1.0000 0.86852  0.74950  0.12732  Biso   1.000  Zr
  Zr28     1.0000 0.87794  0.49127  0.37580  Biso   1.000  Zr
  O49      1.0000 0.50536  0.64323  0.99240  Biso   1.000  O
  O50      1.0000 0.49090  0.60784  0.23931  Biso   1.000  O
  O51      1.0000 0.51219  0.85706  0.25602  Biso   1.000  O
  O52      1.0000 0.50315  0.89351  0.00642  Biso   1.000  O
  O53      1.0000 0.74437  0.64163  0.24644  Biso   1.000  O
  O54      1.0000 0.75256  0.60569  0.00244  Biso   1.000  O
  O55      1.0000 0.75366  0.85460  0.99332  Biso   1.000  O
  O56      1.0000 0.75864  0.89048  0.24084  Biso   1.000  O
  Zr29     1.0000 0.62272  0.49038  0.61293  Biso   1.000  Zr
  Zr30     1.0000 0.63073  0.74590  0.87372  Biso   1.000  Zr
  Zr31     1.0000 0.87279  0.74038  0.62597  Biso   1.000  Zr
  Zr32     1.0000 0.88076  0.49752  0.87931  Biso   1.000  Zr
  O57      1.0000 0.49530  0.63844  0.48965  Biso   1.000  O
  O58      1.0000 0.50175  0.60127  0.73847  Biso   1.000  O
  O59      1.0000 0.50078  0.84813  0.75620  Biso   1.000  O
  O60      1.0000 0.50711  0.88521  0.50807  Biso   1.000  O
  O61      1.0000 0.75475  0.63985  0.75266  Biso   1.000  O
  O62      1.0000 0.74843  0.59439  0.49763  Biso   1.000  O
  O63      1.0000 0.75537  0.84231  0.49329  Biso   1.000  O
  O64      1.0000 0.75239  0.88698  0.74454  Biso   1.000  O
  Al1      1.0000 0.10703  0.29991  0.14513  Biso   1.000  Al
