data_image0
_cell_length_a       5.1561
_cell_length_b       10.4059
_cell_length_c       10.5326
_cell_angle_alpha    90.7908
_cell_angle_beta     78.3472
_cell_angle_gamma    90.5964

_symmetry_space_group_name_H-M    "P 1"
_symmetry_int_tables_number       1

loop_
  _symmetry_equiv_pos_as_xyz
  'x, y, z'

loop_
  _atom_site_label
  _atom_site_occupancy
  _atom_site_fract_x
  _atom_site_fract_y
  _atom_site_fract_z
  _atom_site_thermal_displace_type
  _atom_site_B_iso_or_equiv
  _atom_site_type_symbol
  Zr1      1.0000 0.28055  0.01818  0.14897  Biso   1.000  Zr
  Zr2      1.0000 0.33232  0.23213  0.40422  Biso   1.000  Zr
  Zr3      1.0000 0.67816  0.28197  0.10139  Biso   1.000  Zr
  Zr4      1.0000 0.70967  0.47587  0.34342  Biso   1.000  Zr
  O1       1.0000 0.04840  0.18578  0.11210  Biso   1.000  O
  O2       1.0000 0.06522  0.08509  0.33437  Biso   1.000  O
  O3       1.0000 0.90609  0.43482  0.15628  Biso   1.000  O
  O4       1.0000 0.96320  0.32294  0.41500  Biso   1.000  O
  O5       1.0000 0.56772  0.11686  0.24356  Biso   1.000  O
  O6       1.0000 0.58990  0.11660  0.49273  Biso   1.000  O
  O7       1.0000 0.42556  0.38606  0.00364  Biso   1.000  O
  O8       1.0000 0.39541  0.37790  0.25167  Biso   1.000  O
  Zr5      1.0000 0.28048  0.02043  0.65026  Biso   1.000  Zr
  Zr6      1.0000 0.26470  0.23468  0.89748  Biso   1.000  Zr
  Zr7      1.0000 0.73899  0.26787  0.60888  Biso   1.000  Zr
  Zr8      1.0000 0.71721  0.48114  0.85307  Biso   1.000  Zr
  O9       1.0000 0.09556  0.17157  0.58531  Biso   1.000  O
  O10      1.0000 0.06477  0.08171  0.83944  Biso   1.000  O
  O11      1.0000 0.93568  0.41850  0.66952  Biso   1.000  O
  O12      1.0000 0.91337  0.32992  0.91924  Biso   1.000  O
  O13      1.0000 0.55083  0.12978  0.74461  Biso   1.000  O
  O14      1.0000 0.52239  0.12512  0.99418  Biso   1.000  O
  O15      1.0000 0.47441  0.37840  0.51097  Biso   1.000  O
  O16      1.0000 0.44702  0.36958  0.75844  Biso   1.000  O
  Zr9      1.0000 0.26278  0.52807  0.14443  Biso   1.000  Zr
  Zr10     1.0000 0.27086  0.72200  0.39948  Biso   1.000  Zr
  Zr11     1.0000 0.71471  0.77200  0.10349  Biso   1.000  Zr
  Zr12     1.0000 0.71100  0.96125  0.35884  Biso   1.000  Zr
  O17      1.0000 0.06336  0.67681  0.08066  Biso   1.000  O
  O18      1.0000 0.05356  0.58144  0.33104  Biso   1.000  O
  O19      1.0000 0.92873  0.91764  0.17347  Biso   1.000  O
  O20      1.0000 0.93255  0.83002  0.42577  Biso   1.000  O
  O21      1.0000 0.54179  0.62917  0.24187  Biso   1.000  O
  O22      1.0000 0.54371  0.62040  0.49135  Biso   1.000  O
  O23      1.0000 0.44492  0.88038  0.01034  Biso   1.000  O
  O24      1.0000 0.43332  0.86926  0.26068  Biso   1.000  O
  Zr13     1.0000 0.28176  0.52226  0.64634  Biso   1.000  Zr
  Zr14     1.0000 0.27085  0.73025  0.89748  Biso   1.000  Zr
  Zr15     1.0000 0.72138  0.77044  0.60789  Biso   1.000  Zr
  Zr16     1.0000 0.71689  0.97951  0.85719  Biso   1.000  Zr
  O25      1.0000 0.06193  0.66535  0.58391  Biso   1.000  O
  O26      1.0000 0.06629  0.58145  0.83127  Biso   1.000  O
  O27      1.0000 0.93056  0.92020  0.67375  Biso   1.000  O
  O28      1.0000 0.92599  0.83324  0.92001  Biso   1.000  O
  O29      1.0000 0.54875  0.62786  0.74193  Biso   1.000  O
  O30      1.0000 0.54664  0.62487  0.99073  Biso   1.000  O
  O31      1.0000 0.44289  0.87335  0.51458  Biso   1.000  O
  O32      1.0000 0.44635  0.87242  0.76188  Biso   1.000  O
  Al1      1.0000 0.89344  0.21756  0.28789  Biso   1.000  Al
