data_image0
_cell_length_a       10.2466
_cell_length_b       10.398
_cell_length_c       5.24737
_cell_angle_alpha    89.2756
_cell_angle_beta     79.2953
_cell_angle_gamma    89.0711

_symmetry_space_group_name_H-M    "P 1"
_symmetry_int_tables_number       1

loop_
  _symmetry_equiv_pos_as_xyz
  'x, y, z'

loop_
  _atom_site_label
  _atom_site_occupancy
  _atom_site_fract_x
  _atom_site_fract_y
  _atom_site_fract_z
  _atom_site_thermal_displace_type
  _atom_site_B_iso_or_equiv
  _atom_site_type_symbol
  Hf1      1.0000 0.13164  0.01826  0.28627  Biso   1.000  Hf
  Hf2      1.0000 0.13785  0.22602  0.78175  Biso   1.000  Hf
  Hf3      1.0000 0.35916  0.27185  0.19919  Biso   1.000  Hf
  Hf4      1.0000 0.35707  0.48493  0.71185  Biso   1.000  Hf
  O1       1.0000 0.03499  0.16953  0.15834  Biso   1.000  O
  O2       1.0000 0.02802  0.08154  0.66060  Biso   1.000  O
  O3       1.0000 0.46845  0.41913  0.36295  Biso   1.000  O
  O4       1.0000 0.48248  0.38074  0.89957  Biso   1.000  O
  O5       1.0000 0.26136  0.11971  0.46453  Biso   1.000  O
  O6       1.0000 0.26772  0.11214  0.97254  Biso   1.000  O
  O7       1.0000 0.22226  0.37736  0.01017  Biso   1.000  O
  O8       1.0000 0.22128  0.37222  0.51098  Biso   1.000  O
  Hf5      1.0000 0.13897  0.52028  0.29120  Biso   1.000  Hf
  Hf6      1.0000 0.13300  0.72704  0.79378  Biso   1.000  Hf
  Hf7      1.0000 0.35716  0.76946  0.20397  Biso   1.000  Hf
  Hf8      1.0000 0.34675  0.96679  0.70187  Biso   1.000  Hf
  O9       1.0000 0.02929  0.66632  0.16046  Biso   1.000  O
  O10      1.0000 0.03555  0.58270  0.65806  Biso   1.000  O
  O11      1.0000 0.45854  0.91483  0.32649  Biso   1.000  O
  O12      1.0000 0.45504  0.82504  0.83572  Biso   1.000  O
  O13      1.0000 0.27308  0.62777  0.48011  Biso   1.000  O
  O14      1.0000 0.27001  0.62145  0.98384  Biso   1.000  O
  O15      1.0000 0.21524  0.87338  0.01704  Biso   1.000  O
  O16      1.0000 0.21598  0.86548  0.51348  Biso   1.000  O
  Hf9      1.0000 0.63442  0.01507  0.29248  Biso   1.000  Hf
  Hf10     1.0000 0.66525  0.24489  0.82501  Biso   1.000  Hf
  Hf11     1.0000 0.86606  0.27338  0.22996  Biso   1.000  Hf
  Hf12     1.0000 0.86554  0.48417  0.71781  Biso   1.000  Hf
  O17      1.0000 0.53056  0.16265  0.13412  Biso   1.000  O
  O18      1.0000 0.52510  0.05203  0.65967  Biso   1.000  O
  O19      1.0000 0.96882  0.41906  0.34691  Biso   1.000  O
  O20      1.0000 0.96230  0.33032  0.84615  Biso   1.000  O
  O21      1.0000 0.77101  0.13222  0.50271  Biso   1.000  O
  O22      1.0000 0.78120  0.11799  0.00669  Biso   1.000  O
  O23      1.0000 0.73153  0.38351  0.04736  Biso   1.000  O
  O24      1.0000 0.73407  0.38160  0.53919  Biso   1.000  O
  Hf13     1.0000 0.63661  0.52811  0.30266  Biso   1.000  Hf
  Hf14     1.0000 0.63420  0.72953  0.79134  Biso   1.000  Hf
  Hf15     1.0000 0.85830  0.77256  0.20983  Biso   1.000  Hf
  Hf16     1.0000 0.85739  0.97974  0.71071  Biso   1.000  Hf
  O25      1.0000 0.53101  0.66644  0.15214  Biso   1.000  O
  O26      1.0000 0.52894  0.59504  0.64771  Biso   1.000  O
  O27      1.0000 0.95763  0.91819  0.34353  Biso   1.000  O
  O28      1.0000 0.96066  0.83145  0.84260  Biso   1.000  O
  O29      1.0000 0.77420  0.63209  0.48580  Biso   1.000  O
  O30      1.0000 0.77296  0.62397  0.98456  Biso   1.000  O
  O31      1.0000 0.71850  0.87883  0.01825  Biso   1.000  O
  O32      1.0000 0.71997  0.87278  0.51863  Biso   1.000  O
  As1      1.0000 0.47417  0.23041  0.60933  Biso   1.000  As
