data_image0
_cell_length_a       10.3693
_cell_length_b       5.11716
_cell_length_c       10.4672
_cell_angle_alpha    85.4817
_cell_angle_beta     90.6961
_cell_angle_gamma    87.736

_symmetry_space_group_name_H-M    "P 1"
_symmetry_int_tables_number       1

loop_
  _symmetry_equiv_pos_as_xyz
  'x, y, z'

loop_
  _atom_site_label
  _atom_site_occupancy
  _atom_site_fract_x
  _atom_site_fract_y
  _atom_site_fract_z
  _atom_site_thermal_displace_type
  _atom_site_B_iso_or_equiv
  _atom_site_type_symbol
  Zr1      1.0000 0.13385  0.11860  0.12974  Biso   1.000  Zr
  Zr2      1.0000 0.11038  0.44323  0.38093  Biso   1.000  Zr
  Zr3      1.0000 0.40508  0.50630  0.09725  Biso   1.000  Zr
  Zr4      1.0000 0.37789  0.94601  0.35140  Biso   1.000  Zr
  O1       1.0000 0.01517  0.32276  0.98784  Biso   1.000  O
  O2       1.0000 0.98838  0.20735  0.26082  Biso   1.000  O
  O3       1.0000 0.95058  0.68114  0.32722  Biso   1.000  O
  O4       1.0000 0.96394  0.85474  0.08296  Biso   1.000  O
  O5       1.0000 0.24695  0.24757  0.27187  Biso   1.000  O
  O6       1.0000 0.27767  0.22933  0.00232  Biso   1.000  O
  O7       1.0000 0.31557  0.69808  0.92225  Biso   1.000  O
  O8       1.0000 0.28106  0.80311  0.17151  Biso   1.000  O
  Zr5      1.0000 0.10062  0.00951  0.64848  Biso   1.000  Zr
  Zr6      1.0000 0.16366  0.49949  0.85823  Biso   1.000  Zr
  Zr7      1.0000 0.34952  0.43917  0.59407  Biso   1.000  Zr
  Zr8      1.0000 0.41059  0.03025  0.86950  Biso   1.000  Zr
  O9       1.0000 0.98051  0.25270  0.50454  Biso   1.000  O
  O10      1.0000 0.00244  0.30159  0.74415  Biso   1.000  O
  O11      1.0000 0.03410  0.82081  0.82589  Biso   1.000  O
  O12      1.0000 0.97300  0.77195  0.56613  Biso   1.000  O
  O13      1.0000 0.25462  0.19830  0.75912  Biso   1.000  O
  O14      1.0000 0.22735  0.19111  0.51554  Biso   1.000  O
  O15      1.0000 0.24646  0.68679  0.42950  Biso   1.000  O
  O16      1.0000 0.22713  0.68455  0.68287  Biso   1.000  O
  Zr9      1.0000 0.64372  0.03148  0.11466  Biso   1.000  Zr
  Zr10     1.0000 0.62125  0.47646  0.38291  Biso   1.000  Zr
  Zr11     1.0000 0.86456  0.52194  0.16195  Biso   1.000  Zr
  Zr12     1.0000 0.87052  0.99365  0.40655  Biso   1.000  Zr
  O17      1.0000 0.52814  0.28375  0.96374  Biso   1.000  O
  O18      1.0000 0.48838  0.17290  0.20381  Biso   1.000  O
  O19      1.0000 0.47988  0.65271  0.27099  Biso   1.000  O
  O20      1.0000 0.52963  0.77479  0.01989  Biso   1.000  O
  O21      1.0000 0.74087  0.23004  0.28216  Biso   1.000  O
  O22      1.0000 0.76859  0.29741  0.03516  Biso   1.000  O
  O23      1.0000 0.76389  0.80512  0.97952  Biso   1.000  O
  O24      1.0000 0.71796  0.72511  0.23222  Biso   1.000  O
  Zr13     1.0000 0.59865  0.95415  0.61220  Biso   1.000  Zr
  Zr14     1.0000 0.65778  0.56233  0.88087  Biso   1.000  Zr
  Zr15     1.0000 0.84915  0.47897  0.63048  Biso   1.000  Zr
  Zr16     1.0000 0.89915  0.06535  0.90007  Biso   1.000  Zr
  O25      1.0000 0.48687  0.20209  0.45797  Biso   1.000  O
  O26      1.0000 0.49214  0.23594  0.70386  Biso   1.000  O
  O27      1.0000 0.51559  0.75839  0.77003  Biso   1.000  O
  O28      1.0000 0.48476  0.70594  0.51417  Biso   1.000  O
  O29      1.0000 0.76130  0.27907  0.78961  Biso   1.000  O
  O30      1.0000 0.73401  0.22620  0.53370  Biso   1.000  O
  O31      1.0000 0.72977  0.73044  0.48176  Biso   1.000  O
  O32      1.0000 0.75205  0.76461  0.72452  Biso   1.000  O
  As1      1.0000 0.12611  0.64034  0.10623  Biso   1.000  As
