data_image0
_cell_length_a       10.2792
_cell_length_b       10.3286
_cell_length_c       10.6088
_cell_angle_alpha    89.8345
_cell_angle_beta     79.5235
_cell_angle_gamma    89.7082

_symmetry_space_group_name_H-M    "P 1"
_symmetry_int_tables_number       1

loop_
  _symmetry_equiv_pos_as_xyz
  'x, y, z'

loop_
  _atom_site_label
  _atom_site_occupancy
  _atom_site_fract_x
  _atom_site_fract_y
  _atom_site_fract_z
  _atom_site_thermal_displace_type
  _atom_site_B_iso_or_equiv
  _atom_site_type_symbol
  Zr1      1.0000 0.13032  0.01876  0.14450  Biso   1.000  Zr
  Zr2      1.0000 0.13936  0.22649  0.39228  Biso   1.000  Zr
  Zr3      1.0000 0.34479  0.26293  0.09391  Biso   1.000  Zr
  Zr4      1.0000 0.35802  0.48133  0.35445  Biso   1.000  Zr
  O1       1.0000 0.02788  0.16399  0.07560  Biso   1.000  O
  O2       1.0000 0.02751  0.08499  0.32843  Biso   1.000  O
  O3       1.0000 0.46701  0.42421  0.16849  Biso   1.000  O
  O4       1.0000 0.48155  0.36455  0.44845  Biso   1.000  O
  O5       1.0000 0.26180  0.11841  0.23502  Biso   1.000  O
  O6       1.0000 0.27668  0.12165  0.48663  Biso   1.000  O
  O7       1.0000 0.21693  0.38070  0.00505  Biso   1.000  O
  O8       1.0000 0.22081  0.37176  0.25573  Biso   1.000  O
  Zr5      1.0000 0.13780  0.02134  0.64537  Biso   1.000  Zr
  Zr6      1.0000 0.13159  0.22900  0.89212  Biso   1.000  Zr
  Zr7      1.0000 0.36188  0.27422  0.60563  Biso   1.000  Zr
  Zr8      1.0000 0.35976  0.47812  0.85611  Biso   1.000  Zr
  O9       1.0000 0.03522  0.16388  0.57598  Biso   1.000  O
  O10      1.0000 0.02794  0.08735  0.82467  Biso   1.000  O
  O11      1.0000 0.47061  0.40664  0.68674  Biso   1.000  O
  O12      1.0000 0.46497  0.33802  0.93019  Biso   1.000  O
  O13      1.0000 0.27112  0.12803  0.73779  Biso   1.000  O
  O14      1.0000 0.26557  0.12178  0.98467  Biso   1.000  O
  O15      1.0000 0.22717  0.37677  0.50746  Biso   1.000  O
  O16      1.0000 0.22450  0.37231  0.75837  Biso   1.000  O
  Zr9      1.0000 0.13881  0.52240  0.14505  Biso   1.000  Zr
  Zr10     1.0000 0.13684  0.72815  0.39707  Biso   1.000  Zr
  Zr11     1.0000 0.36046  0.77257  0.10527  Biso   1.000  Zr
  Zr12     1.0000 0.35542  0.97274  0.35536  Biso   1.000  Zr
  O17      1.0000 0.03129  0.66478  0.07588  Biso   1.000  O
  O18      1.0000 0.03429  0.58871  0.32470  Biso   1.000  O
  O19      1.0000 0.46670  0.90955  0.17862  Biso   1.000  O
  O20      1.0000 0.46345  0.83376  0.42710  Biso   1.000  O
  O21      1.0000 0.27566  0.62765  0.24105  Biso   1.000  O
  O22      1.0000 0.27245  0.62141  0.49143  Biso   1.000  O
  O23      1.0000 0.22414  0.87819  0.01048  Biso   1.000  O
  O24      1.0000 0.22123  0.86816  0.26042  Biso   1.000  O
  Zr13     1.0000 0.13785  0.52176  0.64670  Biso   1.000  Zr
  Zr14     1.0000 0.13717  0.72816  0.89665  Biso   1.000  Zr
  Zr15     1.0000 0.36050  0.77097  0.60617  Biso   1.000  Zr
  Zr16     1.0000 0.36053  0.97869  0.85299  Biso   1.000  Zr
  O25      1.0000 0.02946  0.66163  0.57684  Biso   1.000  O
  O26      1.0000 0.03103  0.58698  0.82660  Biso   1.000  O
  O27      1.0000 0.46743  0.91094  0.67511  Biso   1.000  O
  O28      1.0000 0.46762  0.84022  0.92581  Biso   1.000  O
  O29      1.0000 0.27341  0.62723  0.74073  Biso   1.000  O
  O30      1.0000 0.27475  0.62314  0.99115  Biso   1.000  O
  O31      1.0000 0.22191  0.87704  0.51157  Biso   1.000  O
  O32      1.0000 0.22445  0.87196  0.76116  Biso   1.000  O
  Zr17     1.0000 0.63894  0.01881  0.14807  Biso   1.000  Zr
  Zr18     1.0000 0.65217  0.23721  0.40862  Biso   1.000  Zr
  Zr19     1.0000 0.85760  0.27365  0.11025  Biso   1.000  Zr
  Zr20     1.0000 0.86664  0.48138  0.35802  Biso   1.000  Zr
  O33      1.0000 0.51541  0.13559  0.05408  Biso   1.000  O
  O34      1.0000 0.52994  0.07591  0.33403  Biso   1.000  O
  O35      1.0000 0.96945  0.41514  0.17410  Biso   1.000  O
  O36      1.0000 0.96908  0.33615  0.42692  Biso   1.000  O
  O37      1.0000 0.77615  0.12837  0.24680  Biso   1.000  O
  O38      1.0000 0.78003  0.11943  0.49747  Biso   1.000  O
  O39      1.0000 0.72028  0.37849  0.01590  Biso   1.000  O
  O40      1.0000 0.73515  0.38173  0.26751  Biso   1.000  O
  Zr21     1.0000 0.63719  0.02201  0.64642  Biso   1.000  Zr
  Zr22     1.0000 0.63508  0.22592  0.89689  Biso   1.000  Zr
  Zr23     1.0000 0.86537  0.27113  0.61041  Biso   1.000  Zr
  Zr24     1.0000 0.85916  0.47879  0.85715  Biso   1.000  Zr
  O41      1.0000 0.53199  0.16211  0.57234  Biso   1.000  O
  O42      1.0000 0.52635  0.09349  0.81579  Biso   1.000  O
  O43      1.0000 0.96902  0.41278  0.67786  Biso   1.000  O
  O44      1.0000 0.96174  0.33625  0.92655  Biso   1.000  O
  O45      1.0000 0.77246  0.12783  0.74416  Biso   1.000  O
  O46      1.0000 0.76978  0.12336  0.99506  Biso   1.000  O
  O47      1.0000 0.73139  0.37836  0.51786  Biso   1.000  O
  O48      1.0000 0.72584  0.37211  0.76474  Biso   1.000  O
  Zr25     1.0000 0.64154  0.52740  0.14716  Biso   1.000  Zr
  Zr26     1.0000 0.63650  0.72757  0.39725  Biso   1.000  Zr
  Zr27     1.0000 0.86012  0.77198  0.10545  Biso   1.000  Zr
  Zr28     1.0000 0.85815  0.97773  0.35748  Biso   1.000  Zr
  O49      1.0000 0.53350  0.66637  0.07543  Biso   1.000  O
  O50      1.0000 0.53026  0.59059  0.32390  Biso   1.000  O
  O51      1.0000 0.96267  0.91143  0.17782  Biso   1.000  O
  O52      1.0000 0.96567  0.83535  0.42664  Biso   1.000  O
  O53      1.0000 0.77572  0.63198  0.24211  Biso   1.000  O
  O54      1.0000 0.77281  0.62195  0.49205  Biso   1.000  O
  O55      1.0000 0.72451  0.87873  0.01110  Biso   1.000  O
  O56      1.0000 0.72129  0.87249  0.26148  Biso   1.000  O
  Zr29     1.0000 0.63642  0.52144  0.64953  Biso   1.000  Zr
  Zr30     1.0000 0.63646  0.72917  0.89636  Biso   1.000  Zr
  Zr31     1.0000 0.85978  0.77198  0.60588  Biso   1.000  Zr
  Zr32     1.0000 0.85911  0.97837  0.85582  Biso   1.000  Zr
  O57      1.0000 0.52933  0.65992  0.57671  Biso   1.000  O
  O58      1.0000 0.52953  0.58919  0.82741  Biso   1.000  O
  O59      1.0000 0.96593  0.91315  0.67592  Biso   1.000  O
  O60      1.0000 0.96749  0.83851  0.92569  Biso   1.000  O
  O61      1.0000 0.77251  0.62818  0.74136  Biso   1.000  O
  O62      1.0000 0.77504  0.62310  0.99096  Biso   1.000  O
  O63      1.0000 0.72220  0.87700  0.51138  Biso   1.000  O
  O64      1.0000 0.72354  0.87291  0.76179  Biso   1.000  O
  As1      1.0000 0.49848  0.25006  0.25126  Biso   1.000  As
