data_image0
_cell_length_a       10.1456
_cell_length_b       10.4445
_cell_length_c       5.07879
_cell_angle_alpha    92.3052
_cell_angle_beta     88.1878
_cell_angle_gamma    88.4609

_symmetry_space_group_name_H-M    "P 1"
_symmetry_int_tables_number       1

loop_
  _symmetry_equiv_pos_as_xyz
  'x, y, z'

loop_
  _atom_site_label
  _atom_site_occupancy
  _atom_site_fract_x
  _atom_site_fract_y
  _atom_site_fract_z
  _atom_site_thermal_displace_type
  _atom_site_B_iso_or_equiv
  _atom_site_type_symbol
  Hf1      1.0000 0.12786  0.94235  0.28142  Biso   1.000  Hf
  Hf2      1.0000 0.11953  0.28909  0.74612  Biso   1.000  Hf
  Hf3      1.0000 0.35843  0.23068  0.31162  Biso   1.000  Hf
  Hf4      1.0000 0.38040  0.00096  0.79039  Biso   1.000  Hf
  O1       1.0000 0.97633  0.16226  0.86343  Biso   1.000  O
  O2       1.0000 0.95103  0.04864  0.38817  Biso   1.000  O
  O3       1.0000 0.97552  0.35565  0.49662  Biso   1.000  O
  O4       1.0000 0.99375  0.41335  0.99726  Biso   1.000  O
  O5       1.0000 0.27307  0.15785  0.65925  Biso   1.000  O
  O6       1.0000 0.28853  0.05291  0.15092  Biso   1.000  O
  O7       1.0000 0.24717  0.34556  0.04292  Biso   1.000  O
  O8       1.0000 0.24663  0.39943  0.51916  Biso   1.000  O
  Hf5      1.0000 0.13254  0.50579  0.23753  Biso   1.000  Hf
  Hf6      1.0000 0.13080  0.73212  0.76870  Biso   1.000  Hf
  Hf7      1.0000 0.39917  0.75697  0.27809  Biso   1.000  Hf
  Hf8      1.0000 0.38791  0.51003  0.70019  Biso   1.000  Hf
  O9       1.0000 0.01313  0.65505  0.07272  Biso   1.000  O
  O10      1.0000 0.03285  0.58350  0.57259  Biso   1.000  O
  O11      1.0000 0.00245  0.82629  0.50208  Biso   1.000  O
  O12      1.0000 0.01055  0.88940  0.97332  Biso   1.000  O
  O13      1.0000 0.26792  0.64376  0.46589  Biso   1.000  O
  O14      1.0000 0.24252  0.58042  0.94534  Biso   1.000  O
  O15      1.0000 0.25013  0.81754  0.05746  Biso   1.000  O
  O16      1.0000 0.24100  0.89279  0.58575  Biso   1.000  O
  Hf9      1.0000 0.63931  0.02467  0.23375  Biso   1.000  Hf
  Hf10     1.0000 0.60368  0.24845  0.74156  Biso   1.000  Hf
  Hf11     1.0000 0.85377  0.27384  0.19732  Biso   1.000  Hf
  Hf12     1.0000 0.88484  0.99504  0.74264  Biso   1.000  Hf
  O17      1.0000 0.49798  0.15481  0.02299  Biso   1.000  O
  O18      1.0000 0.50166  0.09970  0.52324  Biso   1.000  O
  O19      1.0000 0.49819  0.35677  0.45582  Biso   1.000  O
  O20      1.0000 0.50073  0.40460  0.94039  Biso   1.000  O
  O21      1.0000 0.72539  0.18373  0.43065  Biso   1.000  O
  O22      1.0000 0.74067  0.11508  0.94166  Biso   1.000  O
  O23      1.0000 0.74490  0.36579  0.92338  Biso   1.000  O
  O24      1.0000 0.75631  0.43087  0.41386  Biso   1.000  O
  Hf13     1.0000 0.61594  0.50114  0.18667  Biso   1.000  Hf
  Hf14     1.0000 0.63322  0.76373  0.76463  Biso   1.000  Hf
  Hf15     1.0000 0.86567  0.76248  0.24164  Biso   1.000  Hf
  Hf16     1.0000 0.86794  0.50574  0.71203  Biso   1.000  Hf
  O25      1.0000 0.49783  0.65079  0.97956  Biso   1.000  O
  O26      1.0000 0.52232  0.61273  0.47823  Biso   1.000  O
  O27      1.0000 0.48824  0.85246  0.56937  Biso   1.000  O
  O28      1.0000 0.50943  0.89957  0.05299  Biso   1.000  O
  O29      1.0000 0.78092  0.67031  0.54246  Biso   1.000  O
  O30      1.0000 0.74937  0.62071  0.01613  Biso   1.000  O
  O31      1.0000 0.75833  0.87215  0.99418  Biso   1.000  O
  O32      1.0000 0.73707  0.91109  0.50039  Biso   1.000  O
  Au1      1.0000 0.09931  0.18492  0.23264  Biso   1.000  Au
