data_image0
_cell_length_a       10.1082
_cell_length_b       5.12882
_cell_length_c       10.4765
_cell_angle_alpha    89.6884
_cell_angle_beta     81.152
_cell_angle_gamma    89.6586

_symmetry_space_group_name_H-M    "P 1"
_symmetry_int_tables_number       1

loop_
  _symmetry_equiv_pos_as_xyz
  'x, y, z'

loop_
  _atom_site_label
  _atom_site_occupancy
  _atom_site_fract_x
  _atom_site_fract_y
  _atom_site_fract_z
  _atom_site_thermal_displace_type
  _atom_site_B_iso_or_equiv
  _atom_site_type_symbol
  Au1      1.0000 0.12542  0.02820  0.16692  Biso   1.000  Au
  Hf1      1.0000 0.13525  0.46217  0.39768  Biso   1.000  Hf
  Hf2      1.0000 0.36039  0.54273  0.09551  Biso   1.000  Hf
  Hf3      1.0000 0.36117  0.95859  0.35071  Biso   1.000  Hf
  O1       1.0000 0.04416  0.33128  0.08314  Biso   1.000  O
  O2       1.0000 0.02243  0.17198  0.34913  Biso   1.000  O
  O3       1.0000 0.46324  0.83315  0.17130  Biso   1.000  O
  O4       1.0000 0.46244  0.66161  0.41846  Biso   1.000  O
  O5       1.0000 0.27076  0.25065  0.23287  Biso   1.000  O
  O6       1.0000 0.27615  0.24470  0.48457  Biso   1.000  O
  O7       1.0000 0.22958  0.76791  0.00229  Biso   1.000  O
  O8       1.0000 0.21803  0.73610  0.25553  Biso   1.000  O
  Hf4      1.0000 0.13876  0.04157  0.64403  Biso   1.000  Hf
  Hf5      1.0000 0.14510  0.45434  0.89334  Biso   1.000  Hf
  Hf6      1.0000 0.36107  0.54460  0.60259  Biso   1.000  Hf
  Hf7      1.0000 0.36208  0.96460  0.85267  Biso   1.000  Hf
  O9       1.0000 0.03701  0.34547  0.58283  Biso   1.000  O
  O10      1.0000 0.03954  0.15765  0.83004  Biso   1.000  O
  O11      1.0000 0.46547  0.83652  0.66909  Biso   1.000  O
  O12      1.0000 0.47241  0.67779  0.92048  Biso   1.000  O
  O13      1.0000 0.27632  0.25564  0.73250  Biso   1.000  O
  O14      1.0000 0.29450  0.27071  0.97139  Biso   1.000  O
  O15      1.0000 0.22286  0.76168  0.50604  Biso   1.000  O
  O16      1.0000 0.22539  0.73955  0.75622  Biso   1.000  O
  Hf8      1.0000 0.63738  0.03698  0.14436  Biso   1.000  Hf
  Hf9      1.0000 0.63612  0.45533  0.39578  Biso   1.000  Hf
  Hf10     1.0000 0.86336  0.52934  0.10480  Biso   1.000  Hf
  Hf11     1.0000 0.85198  0.95614  0.36044  Biso   1.000  Hf
  O17      1.0000 0.53729  0.33537  0.07734  Biso   1.000  O
  O18      1.0000 0.53431  0.16055  0.32828  Biso   1.000  O
  O19      1.0000 0.95495  0.84248  0.17259  Biso   1.000  O
  O20      1.0000 0.96160  0.66812  0.42398  Biso   1.000  O
  O21      1.0000 0.77355  0.25342  0.24203  Biso   1.000  O
  O22      1.0000 0.77386  0.24253  0.49340  Biso   1.000  O
  O23      1.0000 0.72675  0.75414  0.01125  Biso   1.000  O
  O24      1.0000 0.72443  0.73592  0.25986  Biso   1.000  O
  Hf12     1.0000 0.63811  0.04368  0.64817  Biso   1.000  Hf
  Hf13     1.0000 0.64092  0.45814  0.89597  Biso   1.000  Hf
  Hf14     1.0000 0.86025  0.54334  0.60730  Biso   1.000  Hf
  Hf15     1.0000 0.86603  0.95447  0.85668  Biso   1.000  Hf
  O25      1.0000 0.53439  0.33616  0.57761  Biso   1.000  O
  O26      1.0000 0.53867  0.16812  0.82651  Biso   1.000  O
  O27      1.0000 0.96467  0.83697  0.67271  Biso   1.000  O
  O28      1.0000 0.96688  0.65411  0.92585  Biso   1.000  O
  O29      1.0000 0.77948  0.25790  0.74187  Biso   1.000  O
  O30      1.0000 0.77915  0.23785  0.99181  Biso   1.000  O
  O31      1.0000 0.71998  0.75688  0.51118  Biso   1.000  O
  O32      1.0000 0.72637  0.74288  0.76087  Biso   1.000  O
