data_image0
_cell_length_a       10.3926
_cell_length_b       5.43146
_cell_length_c       10.3926
_cell_angle_alpha    101.528
_cell_angle_beta     84.264
_cell_angle_gamma    101.528

_symmetry_space_group_name_H-M    "P 1"
_symmetry_int_tables_number       1

loop_
  _symmetry_equiv_pos_as_xyz
  'x, y, z'

loop_
  _atom_site_label
  _atom_site_occupancy
  _atom_site_fract_x
  _atom_site_fract_y
  _atom_site_fract_z
  _atom_site_thermal_displace_type
  _atom_site_B_iso_or_equiv
  _atom_site_type_symbol
  Zr1      1.0000 0.15188  0.96238  0.15187  Biso   1.000  Zr
  Zr2      1.0000 0.10957  0.51381  0.35614  Biso   1.000  Zr
  Zr3      1.0000 0.35615  0.51381  0.10956  Biso   1.000  Zr
  Zr4      1.0000 0.39970  0.97877  0.39969  Biso   1.000  Zr
  O1       1.0000 0.93132  0.39792  0.93130  Biso   1.000  O
  O2       1.0000 0.00976  0.15792  0.26320  Biso   1.000  O
  O3       1.0000 0.99242  0.69227  0.25721  Biso   1.000  O
  O4       1.0000 0.00824  0.85757  0.00822  Biso   1.000  O
  O5       1.0000 0.25577  0.31356  0.25576  Biso   1.000  O
  O6       1.0000 0.26322  0.15793  0.00975  Biso   1.000  O
  O7       1.0000 0.25723  0.69228  0.99241  Biso   1.000  O
  O8       1.0000 0.25774  0.79584  0.25773  Biso   1.000  O
  Zr5      1.0000 0.15301  0.98085  0.64549  Biso   1.000  Zr
  Zr6      1.0000 0.11116  0.53852  0.84153  Biso   1.000  Zr
  Zr7      1.0000 0.35912  0.52136  0.60438  Biso   1.000  Zr
  Zr8      1.0000 0.40464  0.97727  0.89897  Biso   1.000  Zr
  O9       1.0000 0.99854  0.33187  0.50005  Biso   1.000  O
  O10      1.0000 0.01662  0.16491  0.74945  Biso   1.000  O
  O11      1.0000 0.00055  0.69749  0.74123  Biso   1.000  O
  O12      1.0000 0.00835  0.80997  0.50539  Biso   1.000  O
  O13      1.0000 0.25264  0.33827  0.74445  Biso   1.000  O
  O14      1.0000 0.25931  0.16754  0.50382  Biso   1.000  O
  O15      1.0000 0.25097  0.68380  0.49757  Biso   1.000  O
  O16      1.0000 0.26001  0.81846  0.75336  Biso   1.000  O
  Zr9      1.0000 0.64550  0.98084  0.15300  Biso   1.000  Zr
  Zr10     1.0000 0.60439  0.52136  0.35911  Biso   1.000  Zr
  Zr11     1.0000 0.84154  0.53851  0.11115  Biso   1.000  Zr
  Zr12     1.0000 0.89898  0.97727  0.40463  Biso   1.000  Zr
  O17      1.0000 0.50006  0.33186  0.99853  Biso   1.000  O
  O18      1.0000 0.50383  0.16754  0.25929  Biso   1.000  O
  O19      1.0000 0.49758  0.68380  0.25095  Biso   1.000  O
  O20      1.0000 0.50540  0.80996  0.00834  Biso   1.000  O
  O21      1.0000 0.74446  0.33826  0.25263  Biso   1.000  O
  O22      1.0000 0.74946  0.16491  0.01661  Biso   1.000  O
  O23      1.0000 0.74125  0.69749  0.00054  Biso   1.000  O
  O24      1.0000 0.75337  0.81846  0.26000  Biso   1.000  O
  Zr13     1.0000 0.64838  0.98690  0.64837  Biso   1.000  Zr
  Zr14     1.0000 0.60444  0.52296  0.85695  Biso   1.000  Zr
  Zr15     1.0000 0.85696  0.52296  0.60443  Biso   1.000  Zr
  Zr16     1.0000 0.89091  0.99446  0.89089  Biso   1.000  Zr
  O25      1.0000 0.50089  0.33208  0.50088  Biso   1.000  O
  O26      1.0000 0.50708  0.17077  0.75636  Biso   1.000  O
  O27      1.0000 0.50053  0.69194  0.74923  Biso   1.000  O
  O28      1.0000 0.50696  0.81470  0.50694  Biso   1.000  O
  O29      1.0000 0.74740  0.33943  0.74739  Biso   1.000  O
  O30      1.0000 0.75637  0.17077  0.50706  Biso   1.000  O
  O31      1.0000 0.74924  0.69194  0.50051  Biso   1.000  O
  O32      1.0000 0.75513  0.81845  0.75512  Biso   1.000  O
  Au1      1.0000 0.06973  0.35414  0.06972  Biso   1.000  Au
