data_image0
_cell_length_a       10.0321
_cell_length_b       5.13971
_cell_length_c       9.94772
_cell_angle_alpha    92.3316
_cell_angle_beta     87.0289
_cell_angle_gamma    89.5391

_symmetry_space_group_name_H-M    "P 1"
_symmetry_int_tables_number       1

loop_
  _symmetry_equiv_pos_as_xyz
  'x, y, z'

loop_
  _atom_site_label
  _atom_site_occupancy
  _atom_site_fract_x
  _atom_site_fract_y
  _atom_site_fract_z
  _atom_site_thermal_displace_type
  _atom_site_B_iso_or_equiv
  _atom_site_type_symbol
  B1       1.0000 0.06568  0.02789  0.09224  Biso   1.000  B
  Hf1      1.0000 0.15225  0.42840  0.36566  Biso   1.000  Hf
  Hf2      1.0000 0.38687  0.50422  0.12859  Biso   1.000  Hf
  Hf3      1.0000 0.37243  0.95022  0.37652  Biso   1.000  Hf
  O1       1.0000 0.05648  0.28292  0.18752  Biso   1.000  O
  O2       1.0000 0.04267  0.11781  0.45148  Biso   1.000  O
  O3       1.0000 0.48592  0.83995  0.20353  Biso   1.000  O
  O4       1.0000 0.48352  0.64313  0.46465  Biso   1.000  O
  O5       1.0000 0.30251  0.21692  0.25115  Biso   1.000  O
  O6       1.0000 0.27554  0.25581  0.50356  Biso   1.000  O
  O7       1.0000 0.23547  0.74819  0.50652  Biso   1.000  O
  O8       1.0000 0.25507  0.69540  0.25724  Biso   1.000  O
  Hf4      1.0000 0.13603  0.03162  0.62716  Biso   1.000  Hf
  Hf5      1.0000 0.12405  0.49722  0.87599  Biso   1.000  Hf
  Hf6      1.0000 0.36692  0.54184  0.63328  Biso   1.000  Hf
  Hf7      1.0000 0.34625  0.00983  0.89538  Biso   1.000  Hf
  O9       1.0000 0.02627  0.35747  0.70726  Biso   1.000  O
  O10      1.0000 0.00011  0.15240  0.97667  Biso   1.000  O
  O11      1.0000 0.45960  0.87835  0.70930  Biso   1.000  O
  O12      1.0000 0.44792  0.67363  0.94740  Biso   1.000  O
  O13      1.0000 0.26143  0.24553  0.75317  Biso   1.000  O
  O14      1.0000 0.25701  0.34789  0.99470  Biso   1.000  O
  O15      1.0000 0.18318  0.88862  0.02366  Biso   1.000  O
  O16      1.0000 0.22439  0.75374  0.76398  Biso   1.000  O
  Hf8      1.0000 0.64157  0.03083  0.13020  Biso   1.000  Hf
  Hf9      1.0000 0.64908  0.46735  0.37628  Biso   1.000  Hf
  Hf10     1.0000 0.89253  0.48477  0.11712  Biso   1.000  Hf
  Hf11     1.0000 0.88539  0.95384  0.36380  Biso   1.000  Hf
  O17      1.0000 0.55086  0.36550  0.20823  Biso   1.000  O
  O18      1.0000 0.54296  0.13239  0.44237  Biso   1.000  O
  O19      1.0000 0.98716  0.84403  0.17187  Biso   1.000  O
  O20      1.0000 0.97591  0.61210  0.42823  Biso   1.000  O
  O21      1.0000 0.78725  0.20942  0.24185  Biso   1.000  O
  O22      1.0000 0.77647  0.25784  0.49222  Biso   1.000  O
  O23      1.0000 0.74607  0.76696  0.48990  Biso   1.000  O
  O24      1.0000 0.75269  0.70856  0.23654  Biso   1.000  O
  Hf12     1.0000 0.62605  0.02090  0.61757  Biso   1.000  Hf
  Hf13     1.0000 0.62271  0.48135  0.87324  Biso   1.000  Hf
  Hf14     1.0000 0.87124  0.52160  0.61484  Biso   1.000  Hf
  Hf15     1.0000 0.85101  0.97639  0.86489  Biso   1.000  Hf
  O25      1.0000 0.52768  0.36315  0.70043  Biso   1.000  O
  O26      1.0000 0.50755  0.18503  0.97496  Biso   1.000  O
  O27      1.0000 0.96602  0.85834  0.69170  Biso   1.000  O
  O28      1.0000 0.94668  0.64289  0.93645  Biso   1.000  O
  O29      1.0000 0.75769  0.22707  0.74252  Biso   1.000  O
  O30      1.0000 0.75428  0.28826  0.99479  Biso   1.000  O
  O31      1.0000 0.70807  0.79147  0.97827  Biso   1.000  O
  O32      1.0000 0.72674  0.72303  0.73560  Biso   1.000  O
