data_image0
_cell_length_a       9.95039
_cell_length_b       10.1056
_cell_length_c       4.99009
_cell_angle_alpha    90.0002
_cell_angle_beta     90
_cell_angle_gamma    90.0006

_symmetry_space_group_name_H-M    "P 1"
_symmetry_int_tables_number       1

loop_
  _symmetry_equiv_pos_as_xyz
  'x, y, z'

loop_
  _atom_site_label
  _atom_site_occupancy
  _atom_site_fract_x
  _atom_site_fract_y
  _atom_site_fract_z
  _atom_site_thermal_displace_type
  _atom_site_B_iso_or_equiv
  _atom_site_type_symbol
  B1       1.0000 0.12491  0.00005  0.24983  Biso   1.000  B
  Hf1      1.0000 0.12490  0.25639  0.74981  Biso   1.000  Hf
  Hf2      1.0000 0.36969  0.24293  0.26478  Biso   1.000  Hf
  Hf3      1.0000 0.36974  0.00005  0.74982  Biso   1.000  Hf
  O1       1.0000 0.97536  0.15639  0.92091  Biso   1.000  O
  O2       1.0000 0.03049  0.08397  0.41952  Biso   1.000  O
  O3       1.0000 0.99595  0.34861  0.49090  Biso   1.000  O
  O4       1.0000 0.00574  0.39998  0.99070  Biso   1.000  O
  O5       1.0000 0.27447  0.15639  0.57874  Biso   1.000  O
  O6       1.0000 0.21933  0.08397  0.08015  Biso   1.000  O
  O7       1.0000 0.25387  0.34861  0.00872  Biso   1.000  O
  O8       1.0000 0.24408  0.39998  0.50892  Biso   1.000  O
  Hf4      1.0000 0.12491  0.50005  0.24981  Biso   1.000  Hf
  Hf5      1.0000 0.12491  0.74372  0.74981  Biso   1.000  Hf
  Hf6      1.0000 0.36970  0.75718  0.23485  Biso   1.000  Hf
  Hf7      1.0000 0.38093  0.50005  0.74981  Biso   1.000  Hf
  O9       1.0000 0.99595  0.65150  0.00872  Biso   1.000  O
  O10      1.0000 0.00573  0.60013  0.50892  Biso   1.000  O
  O11      1.0000 0.97535  0.84372  0.57874  Biso   1.000  O
  O12      1.0000 0.03049  0.91614  0.08016  Biso   1.000  O
  O13      1.0000 0.25387  0.65150  0.49090  Biso   1.000  O
  O14      1.0000 0.24408  0.60012  0.99070  Biso   1.000  O
  O15      1.0000 0.27446  0.84372  0.92091  Biso   1.000  O
  O16      1.0000 0.21933  0.91613  0.41952  Biso   1.000  O
  Hf8      1.0000 0.62491  0.00005  0.24982  Biso   1.000  Hf
  Hf9      1.0000 0.62490  0.24940  0.74981  Biso   1.000  Hf
  Hf10     1.0000 0.88012  0.24293  0.23485  Biso   1.000  Hf
  Hf11     1.0000 0.88008  0.00006  0.74982  Biso   1.000  Hf
  O17      1.0000 0.47817  0.14135  0.98717  Biso   1.000  O
  O18      1.0000 0.51423  0.10853  0.49897  Biso   1.000  O
  O19      1.0000 0.49327  0.35685  0.49708  Biso   1.000  O
  O20      1.0000 0.50791  0.39171  0.99198  Biso   1.000  O
  O21      1.0000 0.77165  0.14135  0.51247  Biso   1.000  O
  O22      1.0000 0.73559  0.10853  0.00065  Biso   1.000  O
  O23      1.0000 0.75654  0.35685  0.00255  Biso   1.000  O
  O24      1.0000 0.74190  0.39171  0.50765  Biso   1.000  O
  Hf12     1.0000 0.62491  0.50005  0.24982  Biso   1.000  Hf
  Hf13     1.0000 0.62491  0.75070  0.74981  Biso   1.000  Hf
  Hf14     1.0000 0.88013  0.75718  0.26478  Biso   1.000  Hf
  Hf15     1.0000 0.86889  0.50006  0.74981  Biso   1.000  Hf
  O25      1.0000 0.49328  0.64326  0.00255  Biso   1.000  O
  O26      1.0000 0.50791  0.60839  0.50765  Biso   1.000  O
  O27      1.0000 0.47817  0.85876  0.51247  Biso   1.000  O
  O28      1.0000 0.51423  0.89158  0.00066  Biso   1.000  O
  O29      1.0000 0.75654  0.64326  0.49708  Biso   1.000  O
  O30      1.0000 0.74190  0.60840  0.99198  Biso   1.000  O
  O31      1.0000 0.77165  0.85876  0.98716  Biso   1.000  O
  O32      1.0000 0.73559  0.89158  0.49898  Biso   1.000  O
