data_image0
_cell_length_a       10.1551
_cell_length_b       5.11055
_cell_length_c       10.5316
_cell_angle_alpha    89.9012
_cell_angle_beta     90.4516
_cell_angle_gamma    90.1391

_symmetry_space_group_name_H-M    "P 1"
_symmetry_int_tables_number       1

loop_
  _symmetry_equiv_pos_as_xyz
  'x, y, z'

loop_
  _atom_site_label
  _atom_site_occupancy
  _atom_site_fract_x
  _atom_site_fract_y
  _atom_site_fract_z
  _atom_site_thermal_displace_type
  _atom_site_B_iso_or_equiv
  _atom_site_type_symbol
  B1       1.0000 0.02183  0.12105  0.17859  Biso   1.000  B
  Zr1      1.0000 0.14112  0.03756  0.67121  Biso   1.000  Zr
  Zr2      1.0000 0.14442  0.45661  0.41725  Biso   1.000  Zr
  Zr3      1.0000 0.14804  0.45059  0.92441  Biso   1.000  Zr
  Zr4      1.0000 0.35452  0.53860  0.17268  Biso   1.000  Zr
  Zr5      1.0000 0.36240  0.53917  0.67241  Biso   1.000  Zr
  Zr6      1.0000 0.35910  0.95714  0.41833  Biso   1.000  Zr
  Zr7      1.0000 0.36083  0.95287  0.92704  Biso   1.000  Zr
  Zr8      1.0000 0.63941  0.04630  0.07910  Biso   1.000  Zr
  Zr9      1.0000 0.63823  0.03629  0.58098  Biso   1.000  Zr
  Zr10     1.0000 0.63628  0.45557  0.32816  Biso   1.000  Zr
  Zr11     1.0000 0.64083  0.45692  0.82852  Biso   1.000  Zr
  Zr12     1.0000 0.86152  0.55245  0.07673  Biso   1.000  Zr
  Zr13     1.0000 0.86523  0.53409  0.57878  Biso   1.000  Zr
  Zr14     1.0000 0.85463  0.95475  0.33624  Biso   1.000  Zr
  Zr15     1.0000 0.86706  0.95494  0.82898  Biso   1.000  Zr
  O1       1.0000 0.03158  0.31118  0.08773  Biso   1.000  O
  O2       1.0000 0.02858  0.29936  0.56773  Biso   1.000  O
  O3       1.0000 0.02750  0.18981  0.30559  Biso   1.000  O
  O4       1.0000 0.03246  0.17844  0.82702  Biso   1.000  O
  O5       1.0000 0.47661  0.81596  0.08188  Biso   1.000  O
  O6       1.0000 0.46952  0.82038  0.58139  Biso   1.000  O
  O7       1.0000 0.47589  0.68635  0.32858  Biso   1.000  O
  O8       1.0000 0.47318  0.67513  0.83034  Biso   1.000  O
  O9       1.0000 0.28453  0.25731  0.30636  Biso   1.000  O
  O10      1.0000 0.27659  0.24084  0.79413  Biso   1.000  O
  O11      1.0000 0.28800  0.25846  0.03798  Biso   1.000  O
  O12      1.0000 0.27547  0.24895  0.54781  Biso   1.000  O
  O13      1.0000 0.23166  0.73571  0.30150  Biso   1.000  O
  O14      1.0000 0.22678  0.73996  0.79465  Biso   1.000  O
  O15      1.0000 0.23655  0.73231  0.03887  Biso   1.000  O
  O16      1.0000 0.22461  0.74685  0.54592  Biso   1.000  O
  O17      1.0000 0.53180  0.32262  0.16959  Biso   1.000  O
  O18      1.0000 0.53329  0.32101  0.66986  Biso   1.000  O
  O19      1.0000 0.53415  0.17261  0.42017  Biso   1.000  O
  O20      1.0000 0.53611  0.17215  0.91910  Biso   1.000  O
  O21      1.0000 0.96602  0.87928  0.16006  Biso   1.000  O
  O22      1.0000 0.97325  0.80775  0.67291  Biso   1.000  O
  O23      1.0000 0.96971  0.67867  0.41599  Biso   1.000  O
  O24      1.0000 0.97406  0.67067  0.92514  Biso   1.000  O
  O25      1.0000 0.78000  0.25473  0.95675  Biso   1.000  O
  O26      1.0000 0.77603  0.24141  0.45561  Biso   1.000  O
  O27      1.0000 0.77660  0.25714  0.20569  Biso   1.000  O
  O28      1.0000 0.77762  0.24678  0.70528  Biso   1.000  O
  O29      1.0000 0.72953  0.75191  0.95574  Biso   1.000  O
  O30      1.0000 0.72557  0.74015  0.45838  Biso   1.000  O
  O31      1.0000 0.73202  0.75362  0.20703  Biso   1.000  O
  O32      1.0000 0.72929  0.74763  0.70583  Biso   1.000  O
