data_image0
_cell_length_a       10.1466
_cell_length_b       10.3263
_cell_length_c       10.4466
_cell_angle_alpha    90.0438
_cell_angle_beta     80.7946
_cell_angle_gamma    90.2219

_symmetry_space_group_name_H-M    "P 1"
_symmetry_int_tables_number       1

loop_
  _symmetry_equiv_pos_as_xyz
  'x, y, z'

loop_
  _atom_site_label
  _atom_site_occupancy
  _atom_site_fract_x
  _atom_site_fract_y
  _atom_site_fract_z
  _atom_site_thermal_displace_type
  _atom_site_B_iso_or_equiv
  _atom_site_type_symbol
  Ba1      1.0000 0.11375  0.99555  0.12889  Biso   1.000  Ba
  Hf1      1.0000 0.14003  0.02129  0.64570  Biso   1.000  Hf
  Hf2      1.0000 0.13970  0.52079  0.14430  Biso   1.000  Hf
  Hf3      1.0000 0.14044  0.52138  0.64452  Biso   1.000  Hf
  Hf4      1.0000 0.64365  0.02217  0.14652  Biso   1.000  Hf
  Hf5      1.0000 0.63935  0.02288  0.64808  Biso   1.000  Hf
  Hf6      1.0000 0.63560  0.51630  0.14784  Biso   1.000  Hf
  Hf7      1.0000 0.63890  0.51967  0.64598  Biso   1.000  Hf
  Hf8      1.0000 0.13913  0.22523  0.39298  Biso   1.000  Hf
  Hf9      1.0000 0.13952  0.23299  0.89423  Biso   1.000  Hf
  Hf10     1.0000 0.13992  0.72733  0.39546  Biso   1.000  Hf
  Hf11     1.0000 0.14282  0.72728  0.89321  Biso   1.000  Hf
  Hf12     1.0000 0.63568  0.23142  0.39752  Biso   1.000  Hf
  Hf13     1.0000 0.64009  0.22970  0.89749  Biso   1.000  Hf
  Hf14     1.0000 0.63391  0.72409  0.39921  Biso   1.000  Hf
  Hf15     1.0000 0.64234  0.72841  0.89237  Biso   1.000  Hf
  Hf16     1.0000 0.35802  0.26467  0.10446  Biso   1.000  Hf
  Hf17     1.0000 0.36036  0.27056  0.60317  Biso   1.000  Hf
  Hf18     1.0000 0.37144  0.76718  0.10621  Biso   1.000  Hf
  Hf19     1.0000 0.36094  0.77239  0.60345  Biso   1.000  Hf
  Hf20     1.0000 0.85864  0.27540  0.10564  Biso   1.000  Hf
  Hf21     1.0000 0.86306  0.27221  0.60432  Biso   1.000  Hf
  Hf22     1.0000 0.85540  0.76027  0.10091  Biso   1.000  Hf
  Hf23     1.0000 0.86327  0.77096  0.60351  Biso   1.000  Hf
  Hf24     1.0000 0.35727  0.47612  0.35274  Biso   1.000  Hf
  Hf25     1.0000 0.36378  0.47704  0.85425  Biso   1.000  Hf
  Hf26     1.0000 0.36171  0.98054  0.35202  Biso   1.000  Hf
  Hf27     1.0000 0.36698  0.98071  0.85045  Biso   1.000  Hf
  Hf28     1.0000 0.86249  0.47951  0.35515  Biso   1.000  Hf
  Hf29     1.0000 0.86223  0.47826  0.85224  Biso   1.000  Hf
  Hf30     1.0000 0.84888  0.98125  0.36668  Biso   1.000  Hf
  Hf31     1.0000 0.86288  0.97933  0.85562  Biso   1.000  Hf
  O1       1.0000 0.03946  0.19963  0.08253  Biso   1.000  O
  O2       1.0000 0.03670  0.17095  0.58234  Biso   1.000  O
  O3       1.0000 0.04215  0.68534  0.08814  Biso   1.000  O
  O4       1.0000 0.03746  0.67140  0.58173  Biso   1.000  O
  O5       1.0000 0.53800  0.16859  0.08059  Biso   1.000  O
  O6       1.0000 0.53480  0.16996  0.58193  Biso   1.000  O
  O7       1.0000 0.54282  0.66735  0.07860  Biso   1.000  O
  O8       1.0000 0.53475  0.66783  0.58181  Biso   1.000  O
  O9       1.0000 0.02517  0.07727  0.34424  Biso   1.000  O
  O10      1.0000 0.03926  0.07843  0.83523  Biso   1.000  O
  O11      1.0000 0.03801  0.57862  0.33130  Biso   1.000  O
  O12      1.0000 0.03723  0.57995  0.83190  Biso   1.000  O
  O13      1.0000 0.53861  0.07915  0.33170  Biso   1.000  O
  O14      1.0000 0.54090  0.08024  0.83018  Biso   1.000  O
  O15      1.0000 0.53252  0.57850  0.33045  Biso   1.000  O
  O16      1.0000 0.53813  0.57906  0.83027  Biso   1.000  O
  O17      1.0000 0.46250  0.41561  0.17021  Biso   1.000  O
  O18      1.0000 0.46428  0.41893  0.66911  Biso   1.000  O
  O19      1.0000 0.47017  0.91956  0.16828  Biso   1.000  O
  O20      1.0000 0.46586  0.91984  0.66856  Biso   1.000  O
  O21      1.0000 0.95727  0.43253  0.16463  Biso   1.000  O
  O22      1.0000 0.96437  0.42254  0.66732  Biso   1.000  O
  O23      1.0000 0.90026  0.93798  0.17076  Biso   1.000  O
  O24      1.0000 0.96461  0.91991  0.67068  Biso   1.000  O
  O25      1.0000 0.46158  0.32958  0.41929  Biso   1.000  O
  O26      1.0000 0.46679  0.33037  0.91930  Biso   1.000  O
  O27      1.0000 0.46468  0.83029  0.42151  Biso   1.000  O
  O28      1.0000 0.47497  0.83236  0.91674  Biso   1.000  O
  O29      1.0000 0.96260  0.32885  0.41737  Biso   1.000  O
  O30      1.0000 0.96091  0.32980  0.91426  Biso   1.000  O
  O31      1.0000 0.96245  0.82958  0.41457  Biso   1.000  O
  O32      1.0000 0.97054  0.83504  0.92560  Biso   1.000  O
  O33      1.0000 0.28219  0.13302  0.24814  Biso   1.000  O
  O34      1.0000 0.27700  0.12930  0.73758  Biso   1.000  O
  O35      1.0000 0.27852  0.62243  0.23816  Biso   1.000  O
  O36      1.0000 0.27773  0.62914  0.73941  Biso   1.000  O
  O37      1.0000 0.77264  0.13790  0.24683  Biso   1.000  O
  O38      1.0000 0.77950  0.13017  0.74252  Biso   1.000  O
  O39      1.0000 0.77283  0.62899  0.24230  Biso   1.000  O
  O40      1.0000 0.77802  0.62967  0.73889  Biso   1.000  O
  O41      1.0000 0.27489  0.12000  0.49204  Biso   1.000  O
  O42      1.0000 0.28512  0.12722  0.97792  Biso   1.000  O
  O43      1.0000 0.27609  0.62021  0.48984  Biso   1.000  O
  O44      1.0000 0.27626  0.61783  0.98960  Biso   1.000  O
  O45      1.0000 0.77227  0.12292  0.49599  Biso   1.000  O
  O46      1.0000 0.77889  0.12129  0.99265  Biso   1.000  O
  O47      1.0000 0.77580  0.62026  0.49109  Biso   1.000  O
  O48      1.0000 0.77949  0.61903  0.98885  Biso   1.000  O
  O49      1.0000 0.22628  0.38078  0.00741  Biso   1.000  O
  O50      1.0000 0.22197  0.37875  0.50795  Biso   1.000  O
  O51      1.0000 0.25136  0.86419  0.99410  Biso   1.000  O
  O52      1.0000 0.22378  0.87967  0.51023  Biso   1.000  O
  O53      1.0000 0.72277  0.38036  0.00911  Biso   1.000  O
  O54      1.0000 0.72413  0.37942  0.51034  Biso   1.000  O
  O55      1.0000 0.72492  0.87659  0.00727  Biso   1.000  O
  O56      1.0000 0.72196  0.87838  0.51384  Biso   1.000  O
  O57      1.0000 0.21886  0.37051  0.25680  Biso   1.000  O
  O58      1.0000 0.22420  0.37211  0.75768  Biso   1.000  O
  O59      1.0000 0.24049  0.85581  0.26342  Biso   1.000  O
  O60      1.0000 0.22468  0.87073  0.75780  Biso   1.000  O
  O61      1.0000 0.72204  0.37433  0.26164  Biso   1.000  O
  O62      1.0000 0.72474  0.37085  0.75887  Biso   1.000  O
  O63      1.0000 0.71123  0.86937  0.26662  Biso   1.000  O
  O64      1.0000 0.72736  0.87087  0.75887  Biso   1.000  O
