data_image0
_cell_length_a       10.129
_cell_length_b       10.4994
_cell_length_c       5.07575
_cell_angle_alpha    90.1029
_cell_angle_beta     90.1075
_cell_angle_gamma    90.2666

_symmetry_space_group_name_H-M    "P 1"
_symmetry_int_tables_number       1

loop_
  _symmetry_equiv_pos_as_xyz
  'x, y, z'

loop_
  _atom_site_label
  _atom_site_occupancy
  _atom_site_fract_x
  _atom_site_fract_y
  _atom_site_fract_z
  _atom_site_thermal_displace_type
  _atom_site_B_iso_or_equiv
  _atom_site_type_symbol
  Ba1      1.0000 0.11243  0.99920  0.24855  Biso   1.000  Ba
  Zr1      1.0000 0.13495  0.51489  0.24973  Biso   1.000  Zr
  Zr2      1.0000 0.63530  0.01775  0.25060  Biso   1.000  Zr
  Zr3      1.0000 0.63172  0.51219  0.25388  Biso   1.000  Zr
  Zr4      1.0000 0.13407  0.23565  0.74292  Biso   1.000  Zr
  Zr5      1.0000 0.13908  0.73208  0.75637  Biso   1.000  Zr
  Zr6      1.0000 0.63235  0.23523  0.74946  Biso   1.000  Zr
  Zr7      1.0000 0.63187  0.73016  0.75551  Biso   1.000  Zr
  Zr8      1.0000 0.36433  0.26386  0.25373  Biso   1.000  Zr
  Zr9      1.0000 0.37196  0.76095  0.25218  Biso   1.000  Zr
  Zr10     1.0000 0.86227  0.27163  0.24984  Biso   1.000  Zr
  Zr11     1.0000 0.86365  0.75426  0.24089  Biso   1.000  Zr
  Zr12     1.0000 0.36487  0.48131  0.75294  Biso   1.000  Zr
  Zr13     1.0000 0.37070  0.98482  0.74753  Biso   1.000  Zr
  Zr14     1.0000 0.86694  0.48351  0.75188  Biso   1.000  Zr
  Zr15     1.0000 0.85514  0.98572  0.75937  Biso   1.000  Zr
  O1       1.0000 0.03519  0.21265  0.37573  Biso   1.000  O
  O2       1.0000 0.03942  0.69598  0.38750  Biso   1.000  O
  O3       1.0000 0.53824  0.18546  0.38253  Biso   1.000  O
  O4       1.0000 0.53794  0.67970  0.39741  Biso   1.000  O
  O5       1.0000 0.03070  0.06831  0.78841  Biso   1.000  O
  O6       1.0000 0.03316  0.57018  0.89451  Biso   1.000  O
  O7       1.0000 0.54074  0.06634  0.88827  Biso   1.000  O
  O8       1.0000 0.53276  0.56610  0.89759  Biso   1.000  O
  O9       1.0000 0.46550  0.43187  0.39481  Biso   1.000  O
  O10      1.0000 0.47264  0.93228  0.39421  Biso   1.000  O
  O11      1.0000 0.96067  0.44496  0.38634  Biso   1.000  O
  O12      1.0000 0.91057  0.93745  0.37491  Biso   1.000  O
  O13      1.0000 0.46459  0.31624  0.88958  Biso   1.000  O
  O14      1.0000 0.47461  0.81770  0.90205  Biso   1.000  O
  O15      1.0000 0.96414  0.32038  0.88743  Biso   1.000  O
  O16      1.0000 0.97178  0.82306  0.89881  Biso   1.000  O
  O17      1.0000 0.28558  0.12846  0.51502  Biso   1.000  O
  O18      1.0000 0.26757  0.61081  0.49950  Biso   1.000  O
  O19      1.0000 0.76508  0.12193  0.50510  Biso   1.000  O
  O20      1.0000 0.76988  0.61570  0.49516  Biso   1.000  O
  O21      1.0000 0.27214  0.13346  0.99111  Biso   1.000  O
  O22      1.0000 0.27128  0.62876  0.00122  Biso   1.000  O
  O23      1.0000 0.77196  0.13392  0.00212  Biso   1.000  O
  O24      1.0000 0.76754  0.62879  0.99232  Biso   1.000  O
  O25      1.0000 0.23045  0.38333  0.00030  Biso   1.000  O
  O26      1.0000 0.24822  0.87143  0.98954  Biso   1.000  O
  O27      1.0000 0.72881  0.38354  0.99705  Biso   1.000  O
  O28      1.0000 0.72827  0.87622  0.00180  Biso   1.000  O
  O29      1.0000 0.22998  0.36963  0.49779  Biso   1.000  O
  O30      1.0000 0.25307  0.85146  0.51846  Biso   1.000  O
  O31      1.0000 0.72977  0.36959  0.50022  Biso   1.000  O
  O32      1.0000 0.72635  0.86565  0.49917  Biso   1.000  O
