data_image0
_cell_length_a       5.10948
_cell_length_b       10.4909
_cell_length_c       10.7689
_cell_angle_alpha    90.1062
_cell_angle_beta     78.9974
_cell_angle_gamma    90.5552

_symmetry_space_group_name_H-M    "P 1"
_symmetry_int_tables_number       1

loop_
  _symmetry_equiv_pos_as_xyz
  'x, y, z'

loop_
  _atom_site_label
  _atom_site_occupancy
  _atom_site_fract_x
  _atom_site_fract_y
  _atom_site_fract_z
  _atom_site_thermal_displace_type
  _atom_site_B_iso_or_equiv
  _atom_site_type_symbol
  Zr1      1.0000 0.28131  0.00937  0.14968  Biso   1.000  Zr
  Zr2      1.0000 0.31326  0.22992  0.42587  Biso   1.000  Zr
  Zr3      1.0000 0.67541  0.27008  0.07926  Biso   1.000  Zr
  Zr4      1.0000 0.70737  0.49062  0.35541  Biso   1.000  Zr
  O1       1.0000 0.02684  0.14903  0.05238  Biso   1.000  O
  O2       1.0000 0.08361  0.05479  0.35545  Biso   1.000  O
  O3       1.0000 0.90501  0.44525  0.14966  Biso   1.000  O
  O4       1.0000 0.96181  0.35092  0.45270  Biso   1.000  O
  O5       1.0000 0.53271  0.13008  0.24124  Biso   1.000  O
  O6       1.0000 0.58359  0.11576  0.49870  Biso   1.000  O
  O7       1.0000 0.40503  0.38423  0.00643  Biso   1.000  O
  O8       1.0000 0.45600  0.36994  0.26387  Biso   1.000  O
  Zr5      1.0000 0.28139  0.01751  0.64747  Biso   1.000  Zr
  Zr6      1.0000 0.25352  0.22221  0.88976  Biso   1.000  Zr
  Zr7      1.0000 0.73515  0.27778  0.61535  Biso   1.000  Zr
  Zr8      1.0000 0.70729  0.48248  0.85764  Biso   1.000  Zr
  O9       1.0000 0.08270  0.16958  0.59309  Biso   1.000  O
  O10      1.0000 0.05572  0.07947  0.81976  Biso   1.000  O
  O11      1.0000 0.93296  0.42053  0.68534  Biso   1.000  O
  O12      1.0000 0.90596  0.33042  0.91203  Biso   1.000  O
  O13      1.0000 0.54465  0.12726  0.74378  Biso   1.000  O
  O14      1.0000 0.52212  0.11762  0.98704  Biso   1.000  O
  O15      1.0000 0.46656  0.38238  0.51807  Biso   1.000  O
  O16      1.0000 0.44402  0.37274  0.76134  Biso   1.000  O
  Zr9      1.0000 0.26537  0.53049  0.14299  Biso   1.000  Zr
  Zr10     1.0000 0.27081  0.72696  0.39897  Biso   1.000  Zr
  Zr11     1.0000 0.71786  0.77305  0.10613  Biso   1.000  Zr
  Zr12     1.0000 0.72330  0.96954  0.36211  Biso   1.000  Zr
  O17      1.0000 0.07214  0.68089  0.08135  Biso   1.000  O
  O18      1.0000 0.06528  0.58204  0.32659  Biso   1.000  O
  O19      1.0000 0.92340  0.91796  0.17851  Biso   1.000  O
  O20      1.0000 0.91654  0.81913  0.42375  Biso   1.000  O
  O21      1.0000 0.54690  0.63269  0.24479  Biso   1.000  O
  O22      1.0000 0.53913  0.62238  0.49376  Biso   1.000  O
  O23      1.0000 0.44955  0.87763  0.01134  Biso   1.000  O
  O24      1.0000 0.44177  0.86733  0.26031  Biso   1.000  O
  Zr13     1.0000 0.27415  0.52338  0.65109  Biso   1.000  Zr
  Zr14     1.0000 0.26891  0.73075  0.89770  Biso   1.000  Zr
  Zr15     1.0000 0.71977  0.76925  0.60739  Biso   1.000  Zr
  Zr16     1.0000 0.71454  0.97662  0.85401  Biso   1.000  Zr
  O25      1.0000 0.05954  0.66322  0.58045  Biso   1.000  O
  O26      1.0000 0.05990  0.58730  0.83285  Biso   1.000  O
  O27      1.0000 0.92877  0.91270  0.67225  Biso   1.000  O
  O28      1.0000 0.92914  0.83678  0.92465  Biso   1.000  O
  O29      1.0000 0.54587  0.62914  0.74273  Biso   1.000  O
  O30      1.0000 0.54597  0.62567  0.99206  Biso   1.000  O
  O31      1.0000 0.44271  0.87433  0.51304  Biso   1.000  O
  O32      1.0000 0.44280  0.87086  0.76237  Biso   1.000  O
  Ba1      1.0000 0.99452  0.25003  0.25250  Biso   1.000  Ba
