data_image0
_cell_length_a       10.1558
_cell_length_b       10.4602
_cell_length_c       5.29204
_cell_angle_alpha    89.347
_cell_angle_beta     90.5873
_cell_angle_gamma    90.5355

_symmetry_space_group_name_H-M    "P 1"
_symmetry_int_tables_number       1

loop_
  _symmetry_equiv_pos_as_xyz
  'x, y, z'

loop_
  _atom_site_label
  _atom_site_occupancy
  _atom_site_fract_x
  _atom_site_fract_y
  _atom_site_fract_z
  _atom_site_thermal_displace_type
  _atom_site_B_iso_or_equiv
  _atom_site_type_symbol
  Ba1      1.0000 0.10037  0.99282  0.29956  Biso   1.000  Ba
  Zr1      1.0000 0.14581  0.51975  0.33907  Biso   1.000  Zr
  Zr2      1.0000 0.14012  0.22939  0.84076  Biso   1.000  Zr
  Zr3      1.0000 0.15547  0.72654  0.82933  Biso   1.000  Zr
  Zr4      1.0000 0.35149  0.26157  0.33999  Biso   1.000  Zr
  Zr5      1.0000 0.36924  0.77089  0.33069  Biso   1.000  Zr
  Zr6      1.0000 0.36153  0.47304  0.83817  Biso   1.000  Zr
  Zr7      1.0000 0.36460  0.98310  0.82520  Biso   1.000  Zr
  Zr8      1.0000 0.63242  0.03164  0.16814  Biso   1.000  Zr
  Zr9      1.0000 0.63331  0.51402  0.15932  Biso   1.000  Zr
  Zr10     1.0000 0.63853  0.23622  0.66125  Biso   1.000  Zr
  Zr11     1.0000 0.63446  0.72292  0.65794  Biso   1.000  Zr
  Zr12     1.0000 0.86665  0.28047  0.15939  Biso   1.000  Zr
  Zr13     1.0000 0.87132  0.73958  0.11524  Biso   1.000  Zr
  Zr14     1.0000 0.86602  0.47948  0.64778  Biso   1.000  Zr
  Zr15     1.0000 0.85333  0.99240  0.71992  Biso   1.000  Zr
  O1       1.0000 0.03955  0.20738  0.19190  Biso   1.000  O
  O2       1.0000 0.05384  0.68719  0.19199  Biso   1.000  O
  O3       1.0000 0.02541  0.07559  0.75324  Biso   1.000  O
  O4       1.0000 0.03825  0.58170  0.67825  Biso   1.000  O
  O5       1.0000 0.46832  0.40820  0.16026  Biso   1.000  O
  O6       1.0000 0.47798  0.91363  0.15310  Biso   1.000  O
  O7       1.0000 0.46801  0.33727  0.65745  Biso   1.000  O
  O8       1.0000 0.48590  0.84634  0.64001  Biso   1.000  O
  O9       1.0000 0.27439  0.12667  0.59262  Biso   1.000  O
  O10      1.0000 0.28288  0.61854  0.58216  Biso   1.000  O
  O11      1.0000 0.28570  0.13029  0.06781  Biso   1.000  O
  O12      1.0000 0.27915  0.61769  0.08373  Biso   1.000  O
  O13      1.0000 0.22238  0.37365  0.58323  Biso   1.000  O
  O14      1.0000 0.24227  0.85970  0.58209  Biso   1.000  O
  O15      1.0000 0.22480  0.37762  0.08432  Biso   1.000  O
  O16      1.0000 0.25196  0.86032  0.05364  Biso   1.000  O
  O17      1.0000 0.53154  0.16768  0.33817  Biso   1.000  O
  O18      1.0000 0.53306  0.65770  0.34115  Biso   1.000  O
  O19      1.0000 0.53934  0.08771  0.83180  Biso   1.000  O
  O20      1.0000 0.52966  0.58809  0.84360  Biso   1.000  O
  O21      1.0000 0.96021  0.44378  0.30257  Biso   1.000  O
  O22      1.0000 0.86113  0.89452  0.36484  Biso   1.000  O
  O23      1.0000 0.96208  0.33092  0.80566  Biso   1.000  O
  O24      1.0000 0.97754  0.83479  0.83667  Biso   1.000  O
  O25      1.0000 0.77304  0.13163  0.94119  Biso   1.000  O
  O26      1.0000 0.77449  0.61511  0.89752  Biso   1.000  O
  O27      1.0000 0.77799  0.12983  0.43871  Biso   1.000  O
  O28      1.0000 0.77325  0.63076  0.40507  Biso   1.000  O
  O29      1.0000 0.72372  0.37827  0.90579  Biso   1.000  O
  O30      1.0000 0.73060  0.86800  0.92922  Biso   1.000  O
  O31      1.0000 0.72679  0.37760  0.40800  Biso   1.000  O
  O32      1.0000 0.72198  0.88859  0.43011  Biso   1.000  O
