data_image0
_cell_length_a       10.0807
_cell_length_b       5.0819
_cell_length_c       10.4662
_cell_angle_alpha    89.9245
_cell_angle_beta     90.4211
_cell_angle_gamma    90.0565

_symmetry_space_group_name_H-M    "P 1"
_symmetry_int_tables_number       1

loop_
  _symmetry_equiv_pos_as_xyz
  'x, y, z'

loop_
  _atom_site_label
  _atom_site_occupancy
  _atom_site_fract_x
  _atom_site_fract_y
  _atom_site_fract_z
  _atom_site_thermal_displace_type
  _atom_site_B_iso_or_equiv
  _atom_site_type_symbol
  Be1      1.0000 0.04997  0.09920  0.18041  Biso   1.000  Be
  Hf1      1.0000 0.14060  0.03857  0.67183  Biso   1.000  Hf
  Hf2      1.0000 0.14130  0.45430  0.41766  Biso   1.000  Hf
  Hf3      1.0000 0.14453  0.45156  0.92596  Biso   1.000  Hf
  Hf4      1.0000 0.35433  0.53812  0.17261  Biso   1.000  Hf
  Hf5      1.0000 0.36059  0.54023  0.67252  Biso   1.000  Hf
  Hf6      1.0000 0.35727  0.95802  0.41868  Biso   1.000  Hf
  Hf7      1.0000 0.35988  0.95496  0.92618  Biso   1.000  Hf
  Hf8      1.0000 0.64140  0.04292  0.07783  Biso   1.000  Hf
  Hf9      1.0000 0.63877  0.03817  0.57833  Biso   1.000  Hf
  Hf10     1.0000 0.63873  0.45760  0.32676  Biso   1.000  Hf
  Hf11     1.0000 0.64112  0.45725  0.82830  Biso   1.000  Hf
  Hf12     1.0000 0.86625  0.54714  0.07903  Biso   1.000  Hf
  Hf13     1.0000 0.86299  0.53754  0.57808  Biso   1.000  Hf
  Hf14     1.0000 0.85866  0.95724  0.33094  Biso   1.000  Hf
  Hf15     1.0000 0.86372  0.95696  0.82893  Biso   1.000  Hf
  O1       1.0000 0.03470  0.32436  0.08399  Biso   1.000  O
  O2       1.0000 0.03113  0.31690  0.57794  Biso   1.000  O
  O3       1.0000 0.02694  0.18498  0.32255  Biso   1.000  O
  O4       1.0000 0.03282  0.17278  0.83066  Biso   1.000  O
  O5       1.0000 0.47522  0.81858  0.08311  Biso   1.000  O
  O6       1.0000 0.46890  0.82257  0.58160  Biso   1.000  O
  O7       1.0000 0.47423  0.68359  0.33023  Biso   1.000  O
  O8       1.0000 0.47170  0.67362  0.83137  Biso   1.000  O
  O9       1.0000 0.28337  0.25493  0.30365  Biso   1.000  O
  O10      1.0000 0.27674  0.24310  0.79441  Biso   1.000  O
  O11      1.0000 0.28931  0.26019  0.03836  Biso   1.000  O
  O12      1.0000 0.27587  0.25031  0.54704  Biso   1.000  O
  O13      1.0000 0.23002  0.73559  0.30094  Biso   1.000  O
  O14      1.0000 0.22558  0.74302  0.79473  Biso   1.000  O
  O15      1.0000 0.23551  0.73648  0.03972  Biso   1.000  O
  O16      1.0000 0.22366  0.75056  0.54645  Biso   1.000  O
  O17      1.0000 0.53242  0.32396  0.16779  Biso   1.000  O
  O18      1.0000 0.53254  0.32351  0.66773  Biso   1.000  O
  O19      1.0000 0.53292  0.17301  0.41763  Biso   1.000  O
  O20      1.0000 0.53561  0.16978  0.91701  Biso   1.000  O
  O21      1.0000 0.96600  0.84772  0.16462  Biso   1.000  O
  O22      1.0000 0.96960  0.82049  0.66877  Biso   1.000  O
  O23      1.0000 0.96859  0.67494  0.41696  Biso   1.000  O
  O24      1.0000 0.97185  0.67179  0.91930  Biso   1.000  O
  O25      1.0000 0.77949  0.24890  0.95442  Biso   1.000  O
  O26      1.0000 0.77595  0.24462  0.45467  Biso   1.000  O
  O27      1.0000 0.77702  0.25584  0.20425  Biso   1.000  O
  O28      1.0000 0.77692  0.24960  0.70413  Biso   1.000  O
  O29      1.0000 0.72774  0.74741  0.95492  Biso   1.000  O
  O30      1.0000 0.72465  0.74398  0.45625  Biso   1.000  O
  O31      1.0000 0.72669  0.75333  0.20592  Biso   1.000  O
  O32      1.0000 0.72622  0.74977  0.70483  Biso   1.000  O
