data_image0
_cell_length_a       10.0755
_cell_length_b       10.3158
_cell_length_c       10.5138
_cell_angle_alpha    90.2042
_cell_angle_beta     91.1655
_cell_angle_gamma    89.8534

_symmetry_space_group_name_H-M    "P 1"
_symmetry_int_tables_number       1

loop_
  _symmetry_equiv_pos_as_xyz
  'x, y, z'

loop_
  _atom_site_label
  _atom_site_occupancy
  _atom_site_fract_x
  _atom_site_fract_y
  _atom_site_fract_z
  _atom_site_thermal_displace_type
  _atom_site_B_iso_or_equiv
  _atom_site_type_symbol
  Hf1      1.0000 0.13271  0.01708  0.17399  Biso   1.000  Hf
  Hf2      1.0000 0.13421  0.22653  0.43047  Biso   1.000  Hf
  Hf3      1.0000 0.32880  0.26221  0.19236  Biso   1.000  Hf
  Hf4      1.0000 0.36218  0.47770  0.42243  Biso   1.000  Hf
  Hf5      1.0000 0.64462  0.00793  0.07924  Biso   1.000  Hf
  Hf6      1.0000 0.63381  0.22328  0.32633  Biso   1.000  Hf
  Hf7      1.0000 0.85874  0.27163  0.07546  Biso   1.000  Hf
  Hf8      1.0000 0.86056  0.47797  0.32779  Biso   1.000  Hf
  O1       1.0000 0.03197  0.16815  0.08730  Biso   1.000  O
  O2       1.0000 0.02910  0.08420  0.33634  Biso   1.000  O
  O3       1.0000 0.46548  0.45743  0.09424  Biso   1.000  O
  O4       1.0000 0.46120  0.33135  0.32767  Biso   1.000  O
  O5       1.0000 0.26497  0.12044  0.30631  Biso   1.000  O
  O6       1.0000 0.26606  0.11469  0.05211  Biso   1.000  O
  O7       1.0000 0.21158  0.37710  0.30687  Biso   1.000  O
  O8       1.0000 0.22017  0.37794  0.05387  Biso   1.000  O
  O9       1.0000 0.51430  0.11132  0.19830  Biso   1.000  O
  O10      1.0000 0.52768  0.09349  0.43196  Biso   1.000  O
  O11      1.0000 0.96377  0.41651  0.16690  Biso   1.000  O
  O12      1.0000 0.96655  0.33511  0.41843  Biso   1.000  O
  O13      1.0000 0.77403  0.12389  0.45210  Biso   1.000  O
  O14      1.0000 0.77410  0.12652  0.20340  Biso   1.000  O
  O15      1.0000 0.72368  0.37350  0.45246  Biso   1.000  O
  O16      1.0000 0.72121  0.38085  0.20448  Biso   1.000  O
  Hf9      1.0000 0.14205  0.02130  0.67522  Biso   1.000  Hf
  Hf10     1.0000 0.14100  0.22913  0.92608  Biso   1.000  Hf
  Hf11     1.0000 0.36491  0.27234  0.67549  Biso   1.000  Hf
  Hf12     1.0000 0.36245  0.48894  0.92424  Biso   1.000  Hf
  Hf13     1.0000 0.64091  0.02065  0.57889  Biso   1.000  Hf
  Hf14     1.0000 0.65579  0.23163  0.81354  Biso   1.000  Hf
  Hf15     1.0000 0.86310  0.27270  0.57517  Biso   1.000  Hf
  Hf16     1.0000 0.86908  0.48239  0.82656  Biso   1.000  Hf
  O17      1.0000 0.03224  0.16395  0.58638  Biso   1.000  O
  O18      1.0000 0.03895  0.08324  0.83521  Biso   1.000  O
  O19      1.0000 0.47245  0.40946  0.57614  Biso   1.000  O
  O20      1.0000 0.48267  0.35229  0.81995  Biso   1.000  O
  O21      1.0000 0.28102  0.12620  0.80002  Biso   1.000  O
  O22      1.0000 0.27579  0.12418  0.55129  Biso   1.000  O
  O23      1.0000 0.23085  0.37467  0.80112  Biso   1.000  O
  O24      1.0000 0.22701  0.37441  0.55112  Biso   1.000  O
  O25      1.0000 0.53523  0.16174  0.67245  Biso   1.000  O
  O26      1.0000 0.53635  0.06915  0.91151  Biso   1.000  O
  O27      1.0000 0.97202  0.41505  0.66589  Biso   1.000  O
  O28      1.0000 0.97056  0.33247  0.91475  Biso   1.000  O
  O29      1.0000 0.78461  0.12149  0.94756  Biso   1.000  O
  O30      1.0000 0.78442  0.12400  0.69843  Biso   1.000  O
  O31      1.0000 0.73907  0.39081  0.94931  Biso   1.000  O
  O32      1.0000 0.73203  0.37597  0.69997  Biso   1.000  O
  Hf17     1.0000 0.13539  0.52267  0.17255  Biso   1.000  Hf
  Hf18     1.0000 0.13926  0.72804  0.42151  Biso   1.000  Hf
  Hf19     1.0000 0.36219  0.77151  0.17379  Biso   1.000  Hf
  Hf20     1.0000 0.36331  0.97750  0.42647  Biso   1.000  Hf
  Hf21     1.0000 0.64661  0.53578  0.07743  Biso   1.000  Hf
  Hf22     1.0000 0.63977  0.73044  0.33053  Biso   1.000  Hf
  Hf23     1.0000 0.86492  0.77043  0.07873  Biso   1.000  Hf
  Hf24     1.0000 0.86083  0.97959  0.33094  Biso   1.000  Hf
  O33      1.0000 0.03458  0.66617  0.08280  Biso   1.000  O
  O34      1.0000 0.03173  0.58586  0.33362  Biso   1.000  O
  O35      1.0000 0.47098  0.90179  0.07541  Biso   1.000  O
  O36      1.0000 0.46910  0.83771  0.33527  Biso   1.000  O
  O37      1.0000 0.27598  0.62349  0.29390  Biso   1.000  O
  O38      1.0000 0.27444  0.62817  0.04387  Biso   1.000  O
  O39      1.0000 0.22425  0.87286  0.29721  Biso   1.000  O
  O40      1.0000 0.22325  0.87317  0.04874  Biso   1.000  O
  O41      1.0000 0.54051  0.67695  0.16767  Biso   1.000  O
  O42      1.0000 0.53230  0.58478  0.41428  Biso   1.000  O
  O43      1.0000 0.96336  0.91730  0.16681  Biso   1.000  O
  O44      1.0000 0.96731  0.83381  0.41708  Biso   1.000  O
  O45      1.0000 0.77664  0.62364  0.45441  Biso   1.000  O
  O46      1.0000 0.78131  0.62998  0.20560  Biso   1.000  O
  O47      1.0000 0.72600  0.87542  0.45683  Biso   1.000  O
  O48      1.0000 0.72710  0.87363  0.20764  Biso   1.000  O
  Hf25     1.0000 0.14215  0.52011  0.67183  Biso   1.000  Hf
  Hf26     1.0000 0.14065  0.73097  0.92156  Biso   1.000  Hf
  Hf27     1.0000 0.36394  0.76996  0.67080  Biso   1.000  Hf
  Hf28     1.0000 0.36136  0.97295  0.92332  Biso   1.000  Hf
  Hf29     1.0000 0.64009  0.52084  0.57441  Biso   1.000  Hf
  Hf30     1.0000 0.64196  0.73009  0.82420  Biso   1.000  Hf
  Hf31     1.0000 0.86528  0.77090  0.57891  Biso   1.000  Hf
  Hf32     1.0000 0.86705  0.97837  0.82876  Biso   1.000  Hf
  O49      1.0000 0.03656  0.66510  0.58408  Biso   1.000  O
  O50      1.0000 0.03964  0.58427  0.83426  Biso   1.000  O
  O51      1.0000 0.47162  0.91171  0.58361  Biso   1.000  O
  O52      1.0000 0.46890  0.83341  0.82875  Biso   1.000  O
  O53      1.0000 0.27895  0.62612  0.79421  Biso   1.000  O
  O54      1.0000 0.27704  0.62319  0.54397  Biso   1.000  O
  O55      1.0000 0.22563  0.87323  0.79640  Biso   1.000  O
  O56      1.0000 0.22661  0.87517  0.54671  Biso   1.000  O
  O57      1.0000 0.53430  0.66305  0.66340  Biso   1.000  O
  O58      1.0000 0.53613  0.59171  0.91384  Biso   1.000  O
  O59      1.0000 0.97179  0.91437  0.66703  Biso   1.000  O
  O60      1.0000 0.97053  0.83574  0.91835  Biso   1.000  O
  O61      1.0000 0.78143  0.63122  0.95127  Biso   1.000  O
  O62      1.0000 0.77876  0.62569  0.70241  Biso   1.000  O
  O63      1.0000 0.72894  0.87298  0.95506  Biso   1.000  O
  O64      1.0000 0.72919  0.87550  0.70559  Biso   1.000  O
  Bi1      1.0000 0.52317  0.25801  0.03238  Biso   1.000  Bi
