data_image0
_cell_length_a       9.98387
_cell_length_b       5.17465
_cell_length_c       10.0012
_cell_angle_alpha    89.6344
_cell_angle_beta     89.3546
_cell_angle_gamma    90.2209

_symmetry_space_group_name_H-M    "P 1"
_symmetry_int_tables_number       1

loop_
  _symmetry_equiv_pos_as_xyz
  'x, y, z'

loop_
  _atom_site_label
  _atom_site_occupancy
  _atom_site_fract_x
  _atom_site_fract_y
  _atom_site_fract_z
  _atom_site_thermal_displace_type
  _atom_site_B_iso_or_equiv
  _atom_site_type_symbol
  C1       1.0000 0.01891  0.11320  0.11536  Biso   1.000  C
  Hf1      1.0000 0.15030  0.46377  0.37935  Biso   1.000  Hf
  Hf2      1.0000 0.36053  0.52794  0.12744  Biso   1.000  Hf
  Hf3      1.0000 0.36111  0.96512  0.36802  Biso   1.000  Hf
  O1       1.0000 0.03574  0.33165  0.17738  Biso   1.000  O
  O2       1.0000 0.03336  0.14353  0.45629  Biso   1.000  O
  O3       1.0000 0.47213  0.86292  0.19837  Biso   1.000  O
  O4       1.0000 0.47090  0.63757  0.45336  Biso   1.000  O
  O5       1.0000 0.28405  0.25398  0.26083  Biso   1.000  O
  O6       1.0000 0.27221  0.25992  0.50872  Biso   1.000  O
  O7       1.0000 0.22986  0.75821  0.50512  Biso   1.000  O
  O8       1.0000 0.23803  0.72271  0.25824  Biso   1.000  O
  Hf4      1.0000 0.13890  0.03345  0.63066  Biso   1.000  Hf
  Hf5      1.0000 0.14651  0.47173  0.88894  Biso   1.000  Hf
  Hf6      1.0000 0.36750  0.53640  0.63036  Biso   1.000  Hf
  Hf7      1.0000 0.36129  0.96591  0.88802  Biso   1.000  Hf
  O9       1.0000 0.02413  0.33215  0.72154  Biso   1.000  O
  O10      1.0000 0.02532  0.12276  0.98700  Biso   1.000  O
  O11      1.0000 0.46410  0.86565  0.70071  Biso   1.000  O
  O12      1.0000 0.47130  0.63708  0.94613  Biso   1.000  O
  O13      1.0000 0.26882  0.23686  0.75488  Biso   1.000  O
  O14      1.0000 0.27844  0.26346  0.99882  Biso   1.000  O
  O15      1.0000 0.23456  0.74717  0.00206  Biso   1.000  O
  O16      1.0000 0.22781  0.73630  0.75428  Biso   1.000  O
  Hf8      1.0000 0.63304  0.04015  0.12445  Biso   1.000  Hf
  Hf9      1.0000 0.63279  0.47274  0.37085  Biso   1.000  Hf
  Hf10     1.0000 0.85590  0.54278  0.11047  Biso   1.000  Hf
  Hf11     1.0000 0.86824  0.97707  0.38046  Biso   1.000  Hf
  O17      1.0000 0.54652  0.37797  0.18944  Biso   1.000  O
  O18      1.0000 0.53752  0.13437  0.43819  Biso   1.000  O
  O19      1.0000 0.98016  0.91334  0.18000  Biso   1.000  O
  O20      1.0000 0.96883  0.63374  0.43140  Biso   1.000  O
  O21      1.0000 0.78030  0.24000  0.24284  Biso   1.000  O
  O22      1.0000 0.76916  0.26682  0.49254  Biso   1.000  O
  O23      1.0000 0.73551  0.76473  0.49726  Biso   1.000  O
  O24      1.0000 0.74346  0.74819  0.24535  Biso   1.000  O
  Hf12     1.0000 0.62625  0.02337  0.61688  Biso   1.000  Hf
  Hf13     1.0000 0.62786  0.46096  0.86974  Biso   1.000  Hf
  Hf14     1.0000 0.87319  0.51317  0.61948  Biso   1.000  Hf
  Hf15     1.0000 0.86436  0.95744  0.85858  Biso   1.000  Hf
  O25      1.0000 0.53533  0.36235  0.69229  Biso   1.000  O
  O26      1.0000 0.53847  0.12898  0.94578  Biso   1.000  O
  O27      1.0000 0.96935  0.84349  0.69002  Biso   1.000  O
  O28      1.0000 0.96732  0.63604  0.94367  Biso   1.000  O
  O29      1.0000 0.76473  0.21402  0.73876  Biso   1.000  O
  O30      1.0000 0.77275  0.27199  0.99037  Biso   1.000  O
  O31      1.0000 0.73301  0.77278  0.99417  Biso   1.000  O
  O32      1.0000 0.73713  0.71603  0.74498  Biso   1.000  O
