data_image0
_cell_length_a       10.0401
_cell_length_b       10.4358
_cell_length_c       10.0872
_cell_angle_alpha    90.1905
_cell_angle_beta     89.5828
_cell_angle_gamma    90.466

_symmetry_space_group_name_H-M    "P 1"
_symmetry_int_tables_number       1

loop_
  _symmetry_equiv_pos_as_xyz
  'x, y, z'

loop_
  _atom_site_label
  _atom_site_occupancy
  _atom_site_fract_x
  _atom_site_fract_y
  _atom_site_fract_z
  _atom_site_thermal_displace_type
  _atom_site_B_iso_or_equiv
  _atom_site_type_symbol
  Zr1      1.0000 0.14322  0.02018  0.12404  Biso   1.000  Zr
  Zr2      1.0000 0.13543  0.22647  0.39908  Biso   1.000  Zr
  Zr3      1.0000 0.36173  0.25929  0.12017  Biso   1.000  Zr
  Zr4      1.0000 0.37709  0.48944  0.37927  Biso   1.000  Zr
  O1       1.0000 0.02641  0.17717  0.21977  Biso   1.000  O
  O2       1.0000 0.03583  0.06455  0.45512  Biso   1.000  O
  O3       1.0000 0.45284  0.42912  0.19766  Biso   1.000  O
  O4       1.0000 0.46522  0.31657  0.44509  Biso   1.000  O
  O5       1.0000 0.26995  0.11605  0.26005  Biso   1.000  O
  O6       1.0000 0.27558  0.12895  0.50911  Biso   1.000  O
  O7       1.0000 0.23313  0.38376  0.49151  Biso   1.000  O
  O8       1.0000 0.18148  0.33928  0.22202  Biso   1.000  O
  Zr5      1.0000 0.13843  0.01504  0.63457  Biso   1.000  Zr
  Zr6      1.0000 0.13548  0.23657  0.88815  Biso   1.000  Zr
  Zr7      1.0000 0.36916  0.26629  0.63079  Biso   1.000  Zr
  Zr8      1.0000 0.36977  0.48824  0.87216  Biso   1.000  Zr
  O9       1.0000 0.03936  0.18548  0.69446  Biso   1.000  O
  O10      1.0000 0.03688  0.06940  0.95167  Biso   1.000  O
  O11      1.0000 0.46467  0.43558  0.69238  Biso   1.000  O
  O12      1.0000 0.46616  0.31547  0.94198  Biso   1.000  O
  O13      1.0000 0.26966  0.11887  0.75642  Biso   1.000  O
  O14      1.0000 0.29119  0.11875  0.99523  Biso   1.000  O
  O15      1.0000 0.23993  0.38917  0.99426  Biso   1.000  O
  O16      1.0000 0.22814  0.36809  0.74747  Biso   1.000  O
  Zr9      1.0000 0.12525  0.51674  0.11849  Biso   1.000  Zr
  Zr10     1.0000 0.13352  0.73299  0.37585  Biso   1.000  Zr
  Zr11     1.0000 0.36533  0.76211  0.12698  Biso   1.000  Zr
  Zr12     1.0000 0.36919  0.98110  0.37821  Biso   1.000  Zr
  O17      1.0000 0.03662  0.68621  0.19232  Biso   1.000  O
  O18      1.0000 0.03459  0.56700  0.44419  Biso   1.000  O
  O19      1.0000 0.46680  0.93065  0.19623  Biso   1.000  O
  O20      1.0000 0.46649  0.81448  0.44648  Biso   1.000  O
  O21      1.0000 0.26257  0.60401  0.24962  Biso   1.000  O
  O22      1.0000 0.27083  0.63353  0.49847  Biso   1.000  O
  O23      1.0000 0.23071  0.88221  0.50168  Biso   1.000  O
  O24      1.0000 0.23481  0.86304  0.25108  Biso   1.000  O
  Zr13     1.0000 0.13347  0.51584  0.62417  Biso   1.000  Zr
  Zr14     1.0000 0.13387  0.73564  0.87590  Biso   1.000  Zr
  Zr15     1.0000 0.36801  0.76445  0.62602  Biso   1.000  Zr
  Zr16     1.0000 0.37247  0.97977  0.87525  Biso   1.000  Zr
  O25      1.0000 0.03775  0.68566  0.69259  Biso   1.000  O
  O26      1.0000 0.03415  0.56580  0.94081  Biso   1.000  O
  O27      1.0000 0.46686  0.93316  0.69170  Biso   1.000  O
  O28      1.0000 0.46685  0.81432  0.94901  Biso   1.000  O
  O29      1.0000 0.26867  0.61747  0.74847  Biso   1.000  O
  O30      1.0000 0.26731  0.63478  0.99818  Biso   1.000  O
  O31      1.0000 0.23060  0.88044  0.00089  Biso   1.000  O
  O32      1.0000 0.23425  0.86624  0.75128  Biso   1.000  O
  Zr17     1.0000 0.63452  0.01816  0.12650  Biso   1.000  Zr
  Zr18     1.0000 0.63542  0.23404  0.37494  Biso   1.000  Zr
  Zr19     1.0000 0.87213  0.27414  0.11510  Biso   1.000  Zr
  Zr20     1.0000 0.86415  0.48544  0.37682  Biso   1.000  Zr
  O33      1.0000 0.53258  0.18232  0.19307  Biso   1.000  O
  O34      1.0000 0.53849  0.06533  0.44454  Biso   1.000  O
  O35      1.0000 0.94896  0.44750  0.19108  Biso   1.000  O
  O36      1.0000 0.96672  0.31877  0.44846  Biso   1.000  O
  O37      1.0000 0.76996  0.11874  0.24858  Biso   1.000  O
  O38      1.0000 0.77190  0.13553  0.49941  Biso   1.000  O
  O39      1.0000 0.72989  0.38343  0.49946  Biso   1.000  O
  O40      1.0000 0.72630  0.36867  0.24853  Biso   1.000  O
  Zr21     1.0000 0.63702  0.01789  0.62597  Biso   1.000  Zr
  Zr22     1.0000 0.63594  0.23373  0.87740  Biso   1.000  Zr
  Zr23     1.0000 0.86955  0.26732  0.62954  Biso   1.000  Zr
  Zr24     1.0000 0.86174  0.48718  0.87287  Biso   1.000  Zr
  O41      1.0000 0.53702  0.18413  0.69529  Biso   1.000  O
  O42      1.0000 0.54495  0.06214  0.94056  Biso   1.000  O
  O43      1.0000 0.95976  0.44080  0.68834  Biso   1.000  O
  O44      1.0000 0.95075  0.31592  0.91900  Biso   1.000  O
  O45      1.0000 0.77226  0.11818  0.74959  Biso   1.000  O
  O46      1.0000 0.77285  0.13405  0.99954  Biso   1.000  O
  O47      1.0000 0.72817  0.38427  0.00003  Biso   1.000  O
  O48      1.0000 0.72698  0.36993  0.74883  Biso   1.000  O
  Zr25     1.0000 0.63139  0.51471  0.12951  Biso   1.000  Zr
  Zr26     1.0000 0.63772  0.73750  0.37722  Biso   1.000  Zr
  Zr27     1.0000 0.86817  0.76828  0.12684  Biso   1.000  Zr
  Zr28     1.0000 0.86752  0.98698  0.37360  Biso   1.000  Zr
  O49      1.0000 0.52904  0.67765  0.20383  Biso   1.000  O
  O50      1.0000 0.53805  0.56851  0.45045  Biso   1.000  O
  O51      1.0000 0.96932  0.93499  0.19551  Biso   1.000  O
  O52      1.0000 0.96467  0.81713  0.44360  Biso   1.000  O
  O53      1.0000 0.76578  0.61998  0.25205  Biso   1.000  O
  O54      1.0000 0.76970  0.63482  0.50111  Biso   1.000  O
  O55      1.0000 0.73358  0.88533  0.49985  Biso   1.000  O
  O56      1.0000 0.73182  0.86888  0.24984  Biso   1.000  O
  Zr29     1.0000 0.63770  0.51666  0.62810  Biso   1.000  Zr
  Zr30     1.0000 0.63628  0.73555  0.87836  Biso   1.000  Zr
  Zr31     1.0000 0.86944  0.76845  0.62601  Biso   1.000  Zr
  Zr32     1.0000 0.86622  0.98578  0.87783  Biso   1.000  Zr
  O57      1.0000 0.53456  0.68238  0.70036  Biso   1.000  O
  O58      1.0000 0.53556  0.56701  0.95025  Biso   1.000  O
  O59      1.0000 0.96778  0.93335  0.70065  Biso   1.000  O
  O60      1.0000 0.96402  0.81694  0.94444  Biso   1.000  O
  O61      1.0000 0.77003  0.62121  0.75022  Biso   1.000  O
  O62      1.0000 0.76775  0.63328  0.00269  Biso   1.000  O
  O63      1.0000 0.73240  0.88337  0.00116  Biso   1.000  O
  O64      1.0000 0.73164  0.86898  0.75026  Biso   1.000  O
  C1       1.0000 0.10455  0.25372  0.13333  Biso   1.000  C
