data_image0
_cell_length_a       10.057
_cell_length_b       10.3973
_cell_length_c       5.03682
_cell_angle_alpha    89.749
_cell_angle_beta     89.4052
_cell_angle_gamma    89.9638

_symmetry_space_group_name_H-M    "P 1"
_symmetry_int_tables_number       1

loop_
  _symmetry_equiv_pos_as_xyz
  'x, y, z'

loop_
  _atom_site_label
  _atom_site_occupancy
  _atom_site_fract_x
  _atom_site_fract_y
  _atom_site_fract_z
  _atom_site_thermal_displace_type
  _atom_site_B_iso_or_equiv
  _atom_site_type_symbol
  C1       1.0000 0.01740  0.05289  0.23934  Biso   1.000  C
  Zr1      1.0000 0.13763  0.51773  0.25632  Biso   1.000  Zr
  Zr2      1.0000 0.62832  0.01409  0.24117  Biso   1.000  Zr
  Zr3      1.0000 0.62991  0.51706  0.24760  Biso   1.000  Zr
  Zr4      1.0000 0.15196  0.23257  0.77074  Biso   1.000  Zr
  Zr5      1.0000 0.14404  0.73839  0.76250  Biso   1.000  Zr
  Zr6      1.0000 0.62904  0.23214  0.74234  Biso   1.000  Zr
  Zr7      1.0000 0.63097  0.73567  0.73742  Biso   1.000  Zr
  Zr8      1.0000 0.36279  0.25930  0.26137  Biso   1.000  Zr
  Zr9      1.0000 0.36172  0.77107  0.25548  Biso   1.000  Zr
  Zr10     1.0000 0.85592  0.27296  0.23531  Biso   1.000  Zr
  Zr11     1.0000 0.87161  0.75656  0.22389  Biso   1.000  Zr
  Zr12     1.0000 0.36883  0.48360  0.75434  Biso   1.000  Zr
  Zr13     1.0000 0.35607  0.98208  0.76333  Biso   1.000  Zr
  Zr14     1.0000 0.87131  0.48338  0.74078  Biso   1.000  Zr
  Zr15     1.0000 0.85706  0.98276  0.74722  Biso   1.000  Zr
  O1       1.0000 0.03219  0.15608  0.38006  Biso   1.000  O
  O2       1.0000 0.03698  0.68681  0.38413  Biso   1.000  O
  O3       1.0000 0.54239  0.18551  0.37714  Biso   1.000  O
  O4       1.0000 0.53772  0.68274  0.38829  Biso   1.000  O
  O5       1.0000 0.02485  0.06290  0.98485  Biso   1.000  O
  O6       1.0000 0.03345  0.56748  0.89740  Biso   1.000  O
  O7       1.0000 0.53611  0.06627  0.88637  Biso   1.000  O
  O8       1.0000 0.53893  0.56627  0.88199  Biso   1.000  O
  O9       1.0000 0.46295  0.43309  0.38848  Biso   1.000  O
  O10      1.0000 0.47363  0.93029  0.40989  Biso   1.000  O
  O11      1.0000 0.96865  0.42321  0.38423  Biso   1.000  O
  O12      1.0000 0.97830  0.95077  0.35580  Biso   1.000  O
  O13      1.0000 0.46683  0.31732  0.88836  Biso   1.000  O
  O14      1.0000 0.47456  0.82015  0.90772  Biso   1.000  O
  O15      1.0000 0.96791  0.31066  0.88039  Biso   1.000  O
  O16      1.0000 0.96490  0.82173  0.86402  Biso   1.000  O
  O17      1.0000 0.28204  0.12994  0.52800  Biso   1.000  O
  O18      1.0000 0.26914  0.61548  0.50469  Biso   1.000  O
  O19      1.0000 0.77337  0.11531  0.48197  Biso   1.000  O
  O20      1.0000 0.77440  0.61287  0.48166  Biso   1.000  O
  O21      1.0000 0.27198  0.13390  0.01040  Biso   1.000  O
  O22      1.0000 0.27460  0.62652  0.00583  Biso   1.000  O
  O23      1.0000 0.77100  0.13209  0.98255  Biso   1.000  O
  O24      1.0000 0.76956  0.63426  0.98297  Biso   1.000  O
  O25      1.0000 0.23183  0.38028  0.00747  Biso   1.000  O
  O26      1.0000 0.23369  0.87226  0.00628  Biso   1.000  O
  O27      1.0000 0.73331  0.38337  0.99141  Biso   1.000  O
  O28      1.0000 0.73241  0.88334  0.98872  Biso   1.000  O
  O29      1.0000 0.22635  0.36836  0.50773  Biso   1.000  O
  O30      1.0000 0.24262  0.86109  0.52049  Biso   1.000  O
  O31      1.0000 0.72868  0.36851  0.49212  Biso   1.000  O
  O32      1.0000 0.74764  0.86520  0.48502  Biso   1.000  O
