data_image0
_cell_length_a       10.1212
_cell_length_b       5.29348
_cell_length_c       10.1159
_cell_angle_alpha    84.144
_cell_angle_beta     89.9852
_cell_angle_gamma    89.8569

_symmetry_space_group_name_H-M    "P 1"
_symmetry_int_tables_number       1

loop_
  _symmetry_equiv_pos_as_xyz
  'x, y, z'

loop_
  _atom_site_label
  _atom_site_occupancy
  _atom_site_fract_x
  _atom_site_fract_y
  _atom_site_fract_z
  _atom_site_thermal_displace_type
  _atom_site_B_iso_or_equiv
  _atom_site_type_symbol
  Hf1      1.0000 0.15281  0.11699  0.13104  Biso   1.000  Hf
  Hf2      1.0000 0.14161  0.46498  0.38309  Biso   1.000  Hf
  Hf3      1.0000 0.37554  0.56735  0.11436  Biso   1.000  Hf
  Hf4      1.0000 0.36228  0.94985  0.38029  Biso   1.000  Hf
  O1       1.0000 0.02838  0.38222  0.20545  Biso   1.000  O
  O2       1.0000 0.04952  0.11468  0.44082  Biso   1.000  O
  O3       1.0000 0.48574  0.81245  0.22631  Biso   1.000  O
  O4       1.0000 0.45771  0.61260  0.46098  Biso   1.000  O
  O5       1.0000 0.28777  0.26313  0.25703  Biso   1.000  O
  O6       1.0000 0.27424  0.24516  0.50921  Biso   1.000  O
  O7       1.0000 0.22508  0.74175  0.50629  Biso   1.000  O
  O8       1.0000 0.22738  0.75095  0.24695  Biso   1.000  O
  Hf5      1.0000 0.13687  0.00048  0.62871  Biso   1.000  Hf
  Hf6      1.0000 0.09729  0.42066  0.83408  Biso   1.000  Hf
  Hf7      1.0000 0.36166  0.51090  0.63773  Biso   1.000  Hf
  Hf8      1.0000 0.40206  0.97237  0.84932  Biso   1.000  Hf
  O9       1.0000 0.01828  0.30896  0.66561  Biso   1.000  O
  O10      1.0000 0.03879  0.08683  0.94073  Biso   1.000  O
  O11      1.0000 0.47239  0.82926  0.67946  Biso   1.000  O
  O12      1.0000 0.47609  0.62376  0.93618  Biso   1.000  O
  O13      1.0000 0.25446  0.20477  0.75576  Biso   1.000  O
  O14      1.0000 0.23654  0.39281  0.00160  Biso   1.000  O
  O15      1.0000 0.29398  0.90645  0.01810  Biso   1.000  O
  O16      1.0000 0.23640  0.70554  0.76107  Biso   1.000  O
  Hf9      1.0000 0.64146  0.01902  0.13868  Biso   1.000  Hf
  Hf10     1.0000 0.59920  0.46943  0.35415  Biso   1.000  Hf
  Hf11     1.0000 0.84654  0.51423  0.13363  Biso   1.000  Hf
  Hf12     1.0000 0.89856  0.95724  0.35320  Biso   1.000  Hf
  O17      1.0000 0.53610  0.34267  0.17944  Biso   1.000  O
  O18      1.0000 0.52990  0.11486  0.43861  Biso   1.000  O
  O19      1.0000 0.96735  0.87587  0.17805  Biso   1.000  O
  O20      1.0000 0.96955  0.61328  0.44242  Biso   1.000  O
  O21      1.0000 0.76369  0.22252  0.26553  Biso   1.000  O
  O22      1.0000 0.71405  0.38238  0.51534  Biso   1.000  O
  O23      1.0000 0.77809  0.87824  0.51346  Biso   1.000  O
  O24      1.0000 0.73883  0.72087  0.26419  Biso   1.000  O
  Hf13     1.0000 0.63943  0.04330  0.61557  Biso   1.000  Hf
  Hf14     1.0000 0.63786  0.43995  0.87880  Biso   1.000  Hf
  Hf15     1.0000 0.85550  0.54445  0.61915  Biso   1.000  Hf
  Hf16     1.0000 0.86346  0.93822  0.87493  Biso   1.000  Hf
  O25      1.0000 0.51167  0.29705  0.72633  Biso   1.000  O
  O26      1.0000 0.54091  0.11254  0.96145  Biso   1.000  O
  O27      1.0000 0.98054  0.79958  0.71416  Biso   1.000  O
  O28      1.0000 0.93943  0.57960  0.93859  Biso   1.000  O
  O29      1.0000 0.76462  0.22120  0.75179  Biso   1.000  O
  O30      1.0000 0.77021  0.24834  0.01102  Biso   1.000  O
  O31      1.0000 0.72608  0.75737  0.00978  Biso   1.000  O
  O32      1.0000 0.72615  0.72495  0.75146  Biso   1.000  O
  Ca1      1.0000 0.10588  0.69710  0.04656  Biso   1.000  Ca
