data_image0
_cell_length_a       10.0609
_cell_length_b       10.2798
_cell_length_c       5.30558
_cell_angle_alpha    90.053
_cell_angle_beta     91.1113
_cell_angle_gamma    90.4017

_symmetry_space_group_name_H-M    "P 1"
_symmetry_int_tables_number       1

loop_
  _symmetry_equiv_pos_as_xyz
  'x, y, z'

loop_
  _atom_site_label
  _atom_site_occupancy
  _atom_site_fract_x
  _atom_site_fract_y
  _atom_site_fract_z
  _atom_site_thermal_displace_type
  _atom_site_B_iso_or_equiv
  _atom_site_type_symbol
  Hf1      1.0000 0.14048  0.02060  0.35278  Biso   1.000  Hf
  Hf2      1.0000 0.14117  0.22768  0.85867  Biso   1.000  Hf
  Hf3      1.0000 0.35144  0.27378  0.38372  Biso   1.000  Hf
  Hf4      1.0000 0.35920  0.48485  0.85679  Biso   1.000  Hf
  Hf5      1.0000 0.64379  0.00714  0.15533  Biso   1.000  Hf
  Hf6      1.0000 0.65434  0.22018  0.60286  Biso   1.000  Hf
  Hf7      1.0000 0.86824  0.27201  0.14540  Biso   1.000  Hf
  Hf8      1.0000 0.86144  0.47757  0.65481  Biso   1.000  Hf
  O1       1.0000 0.03593  0.16134  0.16780  Biso   1.000  O
  O2       1.0000 0.03430  0.08683  0.66850  Biso   1.000  O
  O3       1.0000 0.45941  0.42958  0.19049  Biso   1.000  O
  O4       1.0000 0.47162  0.33447  0.67824  Biso   1.000  O
  O5       1.0000 0.27463  0.12440  0.60800  Biso   1.000  O
  O6       1.0000 0.28223  0.12828  0.10330  Biso   1.000  O
  O7       1.0000 0.22021  0.37653  0.61534  Biso   1.000  O
  O8       1.0000 0.22218  0.37651  0.11025  Biso   1.000  O
  O9       1.0000 0.52190  0.14401  0.35573  Biso   1.000  O
  O10      1.0000 0.53484  0.08065  0.83945  Biso   1.000  O
  O11      1.0000 0.96815  0.41264  0.34556  Biso   1.000  O
  O12      1.0000 0.97207  0.33636  0.84157  Biso   1.000  O
  O13      1.0000 0.77198  0.12757  0.89955  Biso   1.000  O
  O14      1.0000 0.79127  0.11759  0.39009  Biso   1.000  O
  O15      1.0000 0.72641  0.37753  0.89375  Biso   1.000  O
  O16      1.0000 0.71889  0.37419  0.38138  Biso   1.000  O
  Hf9      1.0000 0.13893  0.52137  0.35229  Biso   1.000  Hf
  Hf10     1.0000 0.13880  0.72942  0.84904  Biso   1.000  Hf
  Hf11     1.0000 0.36134  0.77167  0.35318  Biso   1.000  Hf
  Hf12     1.0000 0.36349  0.97691  0.85379  Biso   1.000  Hf
  Hf13     1.0000 0.64262  0.53421  0.15391  Biso   1.000  Hf
  Hf14     1.0000 0.64067  0.72996  0.65652  Biso   1.000  Hf
  Hf15     1.0000 0.86708  0.76990  0.16055  Biso   1.000  Hf
  Hf16     1.0000 0.86500  0.97913  0.66057  Biso   1.000  Hf
  O17      1.0000 0.03446  0.66188  0.16737  Biso   1.000  O
  O18      1.0000 0.03280  0.58624  0.67000  Biso   1.000  O
  O19      1.0000 0.47131  0.90539  0.16123  Biso   1.000  O
  O20      1.0000 0.47040  0.83746  0.66636  Biso   1.000  O
  O21      1.0000 0.27563  0.62608  0.59714  Biso   1.000  O
  O22      1.0000 0.27568  0.62775  0.09536  Biso   1.000  O
  O23      1.0000 0.22592  0.87418  0.60047  Biso   1.000  O
  O24      1.0000 0.22463  0.87741  0.10169  Biso   1.000  O
  O25      1.0000 0.53350  0.66715  0.34216  Biso   1.000  O
  O26      1.0000 0.53168  0.58941  0.83963  Biso   1.000  O
  O27      1.0000 0.97243  0.91082  0.34649  Biso   1.000  O
  O28      1.0000 0.97088  0.83772  0.84538  Biso   1.000  O
  O29      1.0000 0.77903  0.62768  0.90410  Biso   1.000  O
  O30      1.0000 0.78040  0.62599  0.41058  Biso   1.000  O
  O31      1.0000 0.72828  0.87342  0.91190  Biso   1.000  O
  O32      1.0000 0.73035  0.87082  0.41357  Biso   1.000  O
  Ca1      1.0000 0.55737  0.26600  0.03791  Biso   1.000  Ca
