data_image0
_cell_length_a       9.97132
_cell_length_b       10.3795
_cell_length_c       5.02048
_cell_angle_alpha    90.0637
_cell_angle_beta     89.6525
_cell_angle_gamma    90.018

_symmetry_space_group_name_H-M    "P 1"
_symmetry_int_tables_number       1

loop_
  _symmetry_equiv_pos_as_xyz
  'x, y, z'

loop_
  _atom_site_label
  _atom_site_occupancy
  _atom_site_fract_x
  _atom_site_fract_y
  _atom_site_fract_z
  _atom_site_thermal_displace_type
  _atom_site_B_iso_or_equiv
  _atom_site_type_symbol
  Cd1      1.0000 0.12431  0.01949  0.23892  Biso   1.000  Cd
  Hf1      1.0000 0.13550  0.51658  0.25378  Biso   1.000  Hf
  Hf2      1.0000 0.63365  0.01577  0.24748  Biso   1.000  Hf
  Hf3      1.0000 0.63365  0.51606  0.25430  Biso   1.000  Hf
  Hf4      1.0000 0.13484  0.23333  0.75096  Biso   1.000  Hf
  Hf5      1.0000 0.13551  0.73345  0.75619  Biso   1.000  Hf
  Hf6      1.0000 0.63266  0.23206  0.74915  Biso   1.000  Hf
  Hf7      1.0000 0.63304  0.73297  0.75328  Biso   1.000  Hf
  Hf8      1.0000 0.36575  0.26737  0.25990  Biso   1.000  Hf
  Hf9      1.0000 0.36570  0.76620  0.25875  Biso   1.000  Hf
  Hf10     1.0000 0.86149  0.26628  0.24729  Biso   1.000  Hf
  Hf11     1.0000 0.86693  0.76377  0.24543  Biso   1.000  Hf
  Hf12     1.0000 0.36513  0.48312  0.75578  Biso   1.000  Hf
  Hf13     1.0000 0.36328  0.98207  0.75305  Biso   1.000  Hf
  Hf14     1.0000 0.86530  0.48323  0.75291  Biso   1.000  Hf
  Hf15     1.0000 0.86431  0.98264  0.74822  Biso   1.000  Hf
  O1       1.0000 0.04025  0.19895  0.37624  Biso   1.000  O
  O2       1.0000 0.03666  0.68435  0.39001  Biso   1.000  O
  O3       1.0000 0.54026  0.18607  0.38102  Biso   1.000  O
  O4       1.0000 0.53669  0.68286  0.39425  Biso   1.000  O
  O5       1.0000 0.03331  0.06968  0.83185  Biso   1.000  O
  O6       1.0000 0.03503  0.56512  0.89268  Biso   1.000  O
  O7       1.0000 0.53676  0.06451  0.88551  Biso   1.000  O
  O8       1.0000 0.53583  0.56506  0.89268  Biso   1.000  O
  O9       1.0000 0.46443  0.43372  0.39359  Biso   1.000  O
  O10      1.0000 0.46705  0.93317  0.39396  Biso   1.000  O
  O11      1.0000 0.96352  0.43304  0.38855  Biso   1.000  O
  O12      1.0000 0.94970  0.93544  0.37707  Biso   1.000  O
  O13      1.0000 0.46269  0.31450  0.88901  Biso   1.000  O
  O14      1.0000 0.46493  0.81574  0.89656  Biso   1.000  O
  O15      1.0000 0.96263  0.31742  0.88629  Biso   1.000  O
  O16      1.0000 0.96358  0.81563  0.88550  Biso   1.000  O
  O17      1.0000 0.28498  0.13004  0.52204  Biso   1.000  O
  O18      1.0000 0.27064  0.61555  0.50258  Biso   1.000  O
  O19      1.0000 0.77023  0.11788  0.49580  Biso   1.000  O
  O20      1.0000 0.77137  0.61631  0.49781  Biso   1.000  O
  O21      1.0000 0.27171  0.12974  0.00817  Biso   1.000  O
  O22      1.0000 0.27113  0.63091  0.00343  Biso   1.000  O
  O23      1.0000 0.77066  0.13192  0.99525  Biso   1.000  O
  O24      1.0000 0.76933  0.63080  0.99753  Biso   1.000  O
  O25      1.0000 0.23007  0.38118  0.00366  Biso   1.000  O
  O26      1.0000 0.23085  0.87730  0.00849  Biso   1.000  O
  O27      1.0000 0.72797  0.38163  0.99987  Biso   1.000  O
  O28      1.0000 0.72750  0.87962  0.99756  Biso   1.000  O
  O29      1.0000 0.22795  0.37197  0.50271  Biso   1.000  O
  O30      1.0000 0.23812  0.86062  0.51750  Biso   1.000  O
  O31      1.0000 0.72900  0.36821  0.50058  Biso   1.000  O
  O32      1.0000 0.72997  0.86578  0.49508  Biso   1.000  O
