data_image0
_cell_length_a       10.2663
_cell_length_b       10.318
_cell_length_c       5.29576
_cell_angle_alpha    90.4164
_cell_angle_beta     78.6506
_cell_angle_gamma    90.0915

_symmetry_space_group_name_H-M    "P 1"
_symmetry_int_tables_number       1

loop_
  _symmetry_equiv_pos_as_xyz
  'x, y, z'

loop_
  _atom_site_label
  _atom_site_occupancy
  _atom_site_fract_x
  _atom_site_fract_y
  _atom_site_fract_z
  _atom_site_thermal_displace_type
  _atom_site_B_iso_or_equiv
  _atom_site_type_symbol
  Hf1      1.0000 0.12997  0.02083  0.28098  Biso   1.000  Hf
  Hf2      1.0000 0.14029  0.23071  0.77198  Biso   1.000  Hf
  Hf3      1.0000 0.35054  0.27686  0.19760  Biso   1.000  Hf
  Hf4      1.0000 0.35702  0.48102  0.69591  Biso   1.000  Hf
  O1       1.0000 0.03581  0.16748  0.14434  Biso   1.000  O
  O2       1.0000 0.02725  0.08552  0.65008  Biso   1.000  O
  O3       1.0000 0.46152  0.43246  0.33491  Biso   1.000  O
  O4       1.0000 0.48970  0.35653  0.89082  Biso   1.000  O
  O5       1.0000 0.25992  0.11556  0.45607  Biso   1.000  O
  O6       1.0000 0.27495  0.11861  0.96671  Biso   1.000  O
  O7       1.0000 0.22043  0.38187  0.00229  Biso   1.000  O
  O8       1.0000 0.20385  0.37733  0.49337  Biso   1.000  O
  Hf5      1.0000 0.13694  0.52451  0.28499  Biso   1.000  Hf
  Hf6      1.0000 0.13450  0.72652  0.79439  Biso   1.000  Hf
  Hf7      1.0000 0.35959  0.77032  0.21132  Biso   1.000  Hf
  Hf8      1.0000 0.35617  0.96575  0.71216  Biso   1.000  Hf
  O9       1.0000 0.02709  0.66479  0.15056  Biso   1.000  O
  O10      1.0000 0.02983  0.58880  0.64918  Biso   1.000  O
  O11      1.0000 0.46591  0.91562  0.35165  Biso   1.000  O
  O12      1.0000 0.46274  0.83078  0.84964  Biso   1.000  O
  O13      1.0000 0.27319  0.62718  0.48148  Biso   1.000  O
  O14      1.0000 0.27251  0.62395  0.98133  Biso   1.000  O
  O15      1.0000 0.22155  0.87549  0.02237  Biso   1.000  O
  O16      1.0000 0.22268  0.86640  0.52271  Biso   1.000  O
  Hf9      1.0000 0.64119  0.01763  0.30388  Biso   1.000  Hf
  Hf10     1.0000 0.65630  0.23213  0.82940  Biso   1.000  Hf
  Hf11     1.0000 0.86597  0.27285  0.22071  Biso   1.000  Hf
  Hf12     1.0000 0.86282  0.47928  0.71168  Biso   1.000  Hf
  O17      1.0000 0.53358  0.16543  0.17196  Biso   1.000  O
  O18      1.0000 0.54337  0.07007  0.68691  Biso   1.000  O
  O19      1.0000 0.96313  0.42028  0.34411  Biso   1.000  O
  O20      1.0000 0.96456  0.33458  0.84425  Biso   1.000  O
  O21      1.0000 0.77653  0.13000  0.49548  Biso   1.000  O
  O22      1.0000 0.77998  0.11876  0.00074  Biso   1.000  O
  O23      1.0000 0.73048  0.37751  0.04172  Biso   1.000  O
  O24      1.0000 0.72430  0.37133  0.53784  Biso   1.000  O
  Hf13     1.0000 0.63575  0.52515  0.29903  Biso   1.000  Hf
  Hf14     1.0000 0.63680  0.72696  0.79631  Biso   1.000  Hf
  Hf15     1.0000 0.85738  0.77020  0.20981  Biso   1.000  Hf
  Hf16     1.0000 0.86089  0.97643  0.71222  Biso   1.000  Hf
  O25      1.0000 0.53389  0.67083  0.16080  Biso   1.000  O
  O26      1.0000 0.53053  0.58766  0.65790  Biso   1.000  O
  O27      1.0000 0.96090  0.91176  0.35127  Biso   1.000  O
  O28      1.0000 0.96510  0.83620  0.85053  Biso   1.000  O
  O29      1.0000 0.77366  0.62955  0.48430  Biso   1.000  O
  O30      1.0000 0.77208  0.62099  0.98186  Biso   1.000  O
  O31      1.0000 0.72230  0.87826  0.02564  Biso   1.000  O
  O32      1.0000 0.72119  0.87109  0.52569  Biso   1.000  O
  Cd1      1.0000 0.43470  0.23013  0.60910  Biso   1.000  Cd
