data_image0
_cell_length_a       5.01282
_cell_length_b       10.4383
_cell_length_c       10.1077
_cell_angle_alpha    89.9718
_cell_angle_beta     89.4531
_cell_angle_gamma    90.0689

_symmetry_space_group_name_H-M    "P 1"
_symmetry_int_tables_number       1

loop_
  _symmetry_equiv_pos_as_xyz
  'x, y, z'

loop_
  _atom_site_label
  _atom_site_occupancy
  _atom_site_fract_x
  _atom_site_fract_y
  _atom_site_fract_z
  _atom_site_thermal_displace_type
  _atom_site_B_iso_or_equiv
  _atom_site_type_symbol
  Cd1      1.0000 0.25227  0.01930  0.11479  Biso   1.000  Cd
  Zr1      1.0000 0.26458  0.01688  0.62929  Biso   1.000  Zr
  Zr2      1.0000 0.27149  0.51526  0.12787  Biso   1.000  Zr
  Zr3      1.0000 0.26744  0.51658  0.62671  Biso   1.000  Zr
  Zr4      1.0000 0.27318  0.23206  0.37760  Biso   1.000  Zr
  Zr5      1.0000 0.26357  0.23443  0.87325  Biso   1.000  Zr
  Zr6      1.0000 0.27202  0.73559  0.37717  Biso   1.000  Zr
  Zr7      1.0000 0.26648  0.73233  0.87747  Biso   1.000  Zr
  Zr8      1.0000 0.72217  0.26529  0.12913  Biso   1.000  Zr
  Zr9      1.0000 0.73211  0.26680  0.62516  Biso   1.000  Zr
  Zr10     1.0000 0.73473  0.76274  0.12563  Biso   1.000  Zr
  Zr11     1.0000 0.73175  0.76598  0.62542  Biso   1.000  Zr
  Zr12     1.0000 0.73226  0.48431  0.37773  Biso   1.000  Zr
  Zr13     1.0000 0.72942  0.48318  0.87628  Biso   1.000  Zr
  Zr14     1.0000 0.72948  0.98544  0.37732  Biso   1.000  Zr
  Zr15     1.0000 0.72527  0.98169  0.87383  Biso   1.000  Zr
  O1       1.0000 0.08124  0.19333  0.19197  Biso   1.000  O
  O2       1.0000 0.08168  0.19103  0.68398  Biso   1.000  O
  O3       1.0000 0.07792  0.68423  0.19541  Biso   1.000  O
  O4       1.0000 0.06930  0.68376  0.69595  Biso   1.000  O
  O5       1.0000 0.07317  0.06548  0.44355  Biso   1.000  O
  O6       1.0000 0.07353  0.06498  0.90948  Biso   1.000  O
  O7       1.0000 0.07295  0.56586  0.44528  Biso   1.000  O
  O8       1.0000 0.06805  0.56436  0.94721  Biso   1.000  O
  O9       1.0000 0.92955  0.43125  0.19540  Biso   1.000  O
  O10      1.0000 0.92696  0.43509  0.69530  Biso   1.000  O
  O11      1.0000 0.91314  0.93598  0.19235  Biso   1.000  O
  O12      1.0000 0.91874  0.93440  0.68801  Biso   1.000  O
  O13      1.0000 0.92868  0.31708  0.44303  Biso   1.000  O
  O14      1.0000 0.92002  0.31333  0.94282  Biso   1.000  O
  O15      1.0000 0.93164  0.81570  0.44563  Biso   1.000  O
  O16      1.0000 0.92329  0.81487  0.94234  Biso   1.000  O
  O17      1.0000 0.56259  0.12749  0.25791  Biso   1.000  O
  O18      1.0000 0.54562  0.11989  0.74975  Biso   1.000  O
  O19      1.0000 0.54446  0.61435  0.24918  Biso   1.000  O
  O20      1.0000 0.53710  0.61720  0.75040  Biso   1.000  O
  O21      1.0000 0.53879  0.13167  0.50329  Biso   1.000  O
  O22      1.0000 0.54191  0.13033  0.99901  Biso   1.000  O
  O23      1.0000 0.53981  0.63288  0.49992  Biso   1.000  O
  O24      1.0000 0.53866  0.62968  0.99971  Biso   1.000  O
  O25      1.0000 0.46131  0.38257  0.50082  Biso   1.000  O
  O26      1.0000 0.45655  0.38076  0.00107  Biso   1.000  O
  O27      1.0000 0.45724  0.88342  0.50229  Biso   1.000  O
  O28      1.0000 0.45925  0.87502  0.00135  Biso   1.000  O
  O29      1.0000 0.45686  0.37086  0.25186  Biso   1.000  O
  O30      1.0000 0.45885  0.36895  0.74993  Biso   1.000  O
  O31      1.0000 0.48713  0.85995  0.25559  Biso   1.000  O
  O32      1.0000 0.45543  0.86708  0.75057  Biso   1.000  O
