data_image0
_cell_length_a       10.1326
_cell_length_b       5.29118
_cell_length_c       10.1626
_cell_angle_alpha    89.2315
_cell_angle_beta     88.6809
_cell_angle_gamma    89.9793

_symmetry_space_group_name_H-M    "P 1"
_symmetry_int_tables_number       1

loop_
  _symmetry_equiv_pos_as_xyz
  'x, y, z'

loop_
  _atom_site_label
  _atom_site_occupancy
  _atom_site_fract_x
  _atom_site_fract_y
  _atom_site_fract_z
  _atom_site_thermal_displace_type
  _atom_site_B_iso_or_equiv
  _atom_site_type_symbol
  Zr1      1.0000 0.13023  0.11438  0.11370  Biso   1.000  Zr
  Zr2      1.0000 0.13719  0.45180  0.39568  Biso   1.000  Zr
  Zr3      1.0000 0.37773  0.53372  0.12172  Biso   1.000  Zr
  Zr4      1.0000 0.36605  0.95993  0.37806  Biso   1.000  Zr
  O1       1.0000 0.99389  0.31499  0.24839  Biso   1.000  O
  O2       1.0000 0.04254  0.11281  0.45820  Biso   1.000  O
  O3       1.0000 0.47084  0.85724  0.20611  Biso   1.000  O
  O4       1.0000 0.47038  0.63620  0.45419  Biso   1.000  O
  O5       1.0000 0.26592  0.22702  0.24756  Biso   1.000  O
  O6       1.0000 0.27663  0.25520  0.50249  Biso   1.000  O
  O7       1.0000 0.23501  0.75457  0.51067  Biso   1.000  O
  O8       1.0000 0.24210  0.70034  0.26830  Biso   1.000  O
  Zr5      1.0000 0.13626  0.01299  0.63031  Biso   1.000  Zr
  Zr6      1.0000 0.12249  0.44924  0.85356  Biso   1.000  Zr
  Zr7      1.0000 0.37108  0.52867  0.63090  Biso   1.000  Zr
  Zr8      1.0000 0.37495  0.98457  0.87344  Biso   1.000  Zr
  O9       1.0000 0.03460  0.36006  0.67952  Biso   1.000  O
  O10      1.0000 0.03649  0.11299  0.93022  Biso   1.000  O
  O11      1.0000 0.46925  0.85980  0.69401  Biso   1.000  O
  O12      1.0000 0.47415  0.64396  0.94449  Biso   1.000  O
  O13      1.0000 0.26559  0.22293  0.74443  Biso   1.000  O
  O14      1.0000 0.27961  0.30079  0.98081  Biso   1.000  O
  O15      1.0000 0.26231  0.84235  0.02545  Biso   1.000  O
  O16      1.0000 0.23638  0.72668  0.76186  Biso   1.000  O
  Zr9      1.0000 0.63135  0.02178  0.12687  Biso   1.000  Zr
  Zr10     1.0000 0.63291  0.46860  0.37522  Biso   1.000  Zr
  Zr11     1.0000 0.84676  0.51362  0.12095  Biso   1.000  Zr
  Zr12     1.0000 0.88245  0.98708  0.36329  Biso   1.000  Zr
  O17      1.0000 0.53477  0.36469  0.19778  Biso   1.000  O
  O18      1.0000 0.53397  0.13452  0.44607  Biso   1.000  O
  O19      1.0000 0.96257  0.86965  0.17660  Biso   1.000  O
  O20      1.0000 0.97194  0.64569  0.44662  Biso   1.000  O
  O21      1.0000 0.75621  0.21961  0.24588  Biso   1.000  O
  O22      1.0000 0.77096  0.27880  0.49216  Biso   1.000  O
  O23      1.0000 0.73843  0.77993  0.49405  Biso   1.000  O
  O24      1.0000 0.73390  0.72527  0.24833  Biso   1.000  O
  Zr13     1.0000 0.63615  0.02834  0.61831  Biso   1.000  Zr
  Zr14     1.0000 0.63569  0.46216  0.87229  Biso   1.000  Zr
  Zr15     1.0000 0.86368  0.53859  0.61783  Biso   1.000  Zr
  Zr16     1.0000 0.86113  0.95510  0.86946  Biso   1.000  Zr
  O25      1.0000 0.53177  0.35256  0.70257  Biso   1.000  O
  O26      1.0000 0.53580  0.14004  0.95285  Biso   1.000  O
  O27      1.0000 0.96658  0.85491  0.69623  Biso   1.000  O
  O28      1.0000 0.94346  0.61350  0.92190  Biso   1.000  O
  O29      1.0000 0.76858  0.22782  0.74278  Biso   1.000  O
  O30      1.0000 0.76783  0.25325  0.99624  Biso   1.000  O
  O31      1.0000 0.72422  0.75620  0.99931  Biso   1.000  O
  O32      1.0000 0.72747  0.73215  0.74404  Biso   1.000  O
  Cd1      1.0000 0.10371  0.61110  0.10605  Biso   1.000  Cd
