data_image0
_cell_length_a       5.07834
_cell_length_b       10.3289
_cell_length_c       10.4752
_cell_angle_alpha    90.0837
_cell_angle_beta     80.6238
_cell_angle_gamma    90.0868

_symmetry_space_group_name_H-M    "P 1"
_symmetry_int_tables_number       1

loop_
  _symmetry_equiv_pos_as_xyz
  'x, y, z'

loop_
  _atom_site_label
  _atom_site_occupancy
  _atom_site_fract_x
  _atom_site_fract_y
  _atom_site_fract_z
  _atom_site_thermal_displace_type
  _atom_site_B_iso_or_equiv
  _atom_site_type_symbol
  Ce1      1.0000 0.27073  0.01611  0.14472  Biso   1.000  Ce
  Hf1      1.0000 0.27666  0.23001  0.39809  Biso   1.000  Hf
  Hf2      1.0000 0.71878  0.27328  0.10298  Biso   1.000  Hf
  Hf3      1.0000 0.72040  0.47771  0.35385  Biso   1.000  Hf
  O1       1.0000 0.07203  0.18027  0.07739  Biso   1.000  O
  O2       1.0000 0.06113  0.08121  0.34044  Biso   1.000  O
  O3       1.0000 0.92325  0.42158  0.16898  Biso   1.000  O
  O4       1.0000 0.92656  0.33067  0.42003  Biso   1.000  O
  O5       1.0000 0.55925  0.13497  0.24678  Biso   1.000  O
  O6       1.0000 0.54841  0.12071  0.49331  Biso   1.000  O
  O7       1.0000 0.44709  0.38017  0.00807  Biso   1.000  O
  O8       1.0000 0.44195  0.37184  0.25924  Biso   1.000  O
  Hf4      1.0000 0.27901  0.02199  0.64669  Biso   1.000  Hf
  Hf5      1.0000 0.27914  0.23133  0.89345  Biso   1.000  Hf
  Hf6      1.0000 0.72390  0.27136  0.60419  Biso   1.000  Hf
  Hf7      1.0000 0.72478  0.47880  0.85262  Biso   1.000  Hf
  O9       1.0000 0.07311  0.17182  0.58378  Biso   1.000  O
  O10      1.0000 0.07834  0.07952  0.83171  Biso   1.000  O
  O11      1.0000 0.92814  0.42061  0.66849  Biso   1.000  O
  O12      1.0000 0.92888  0.33283  0.91722  Biso   1.000  O
  O13      1.0000 0.55525  0.12963  0.73939  Biso   1.000  O
  O14      1.0000 0.56477  0.12547  0.98362  Biso   1.000  O
  O15      1.0000 0.44686  0.37914  0.50922  Biso   1.000  O
  O16      1.0000 0.44888  0.37171  0.75797  Biso   1.000  O
  Hf8      1.0000 0.27587  0.51964  0.14547  Biso   1.000  Hf
  Hf9      1.0000 0.27342  0.72506  0.39748  Biso   1.000  Hf
  Hf10     1.0000 0.72363  0.76445  0.10289  Biso   1.000  Hf
  Hf11     1.0000 0.71349  0.97789  0.35954  Biso   1.000  Hf
  O17      1.0000 0.07877  0.67162  0.08065  Biso   1.000  O
  O18      1.0000 0.06893  0.57969  0.32978  Biso   1.000  O
  O19      1.0000 0.89236  0.92228  0.17173  Biso   1.000  O
  O20      1.0000 0.92682  0.83002  0.42033  Biso   1.000  O
  O21      1.0000 0.55086  0.62544  0.23979  Biso   1.000  O
  O22      1.0000 0.55128  0.62014  0.49027  Biso   1.000  O
  O23      1.0000 0.46823  0.87067  0.00091  Biso   1.000  O
  O24      1.0000 0.44661  0.86195  0.26469  Biso   1.000  O
  Hf12     1.0000 0.27751  0.52114  0.64550  Biso   1.000  Hf
  Hf13     1.0000 0.28228  0.72815  0.89317  Biso   1.000  Hf
  Hf14     1.0000 0.72274  0.77159  0.60397  Biso   1.000  Hf
  Hf15     1.0000 0.72932  0.97823  0.85271  Biso   1.000  Hf
  O25      1.0000 0.07055  0.66907  0.58132  Biso   1.000  O
  O26      1.0000 0.07339  0.58034  0.82944  Biso   1.000  O
  O27      1.0000 0.93016  0.91950  0.66971  Biso   1.000  O
  O28      1.0000 0.94170  0.83257  0.92076  Biso   1.000  O
  O29      1.0000 0.55364  0.62943  0.73912  Biso   1.000  O
  O30      1.0000 0.55454  0.61854  0.98949  Biso   1.000  O
  O31      1.0000 0.44561  0.87886  0.51122  Biso   1.000  O
  O32      1.0000 0.45101  0.87098  0.75781  Biso   1.000  O
