data_image0
_cell_length_a       10.1071
_cell_length_b       10.2467
_cell_length_c       5.05257
_cell_angle_alpha    89.9999
_cell_angle_beta     90.0002
_cell_angle_gamma    90.002

_symmetry_space_group_name_H-M    "P 1"
_symmetry_int_tables_number       1

loop_
  _symmetry_equiv_pos_as_xyz
  'x, y, z'

loop_
  _atom_site_label
  _atom_site_occupancy
  _atom_site_fract_x
  _atom_site_fract_y
  _atom_site_fract_z
  _atom_site_thermal_displace_type
  _atom_site_B_iso_or_equiv
  _atom_site_type_symbol
  Ce1      1.0000 0.12530  0.00025  0.25212  Biso   1.000  Ce
  Zr1      1.0000 0.12531  0.50025  0.25212  Biso   1.000  Zr
  Zr2      1.0000 0.62530  0.00026  0.25212  Biso   1.000  Zr
  Zr3      1.0000 0.62531  0.50025  0.25214  Biso   1.000  Zr
  Zr4      1.0000 0.12530  0.25392  0.75212  Biso   1.000  Zr
  Zr5      1.0000 0.12530  0.74658  0.75211  Biso   1.000  Zr
  Zr6      1.0000 0.62531  0.25022  0.75212  Biso   1.000  Zr
  Zr7      1.0000 0.62530  0.75028  0.75211  Biso   1.000  Zr
  Zr8      1.0000 0.37648  0.25176  0.24972  Biso   1.000  Zr
  Zr9      1.0000 0.37648  0.74874  0.25451  Biso   1.000  Zr
  Zr10     1.0000 0.87413  0.25176  0.25452  Biso   1.000  Zr
  Zr11     1.0000 0.87413  0.74874  0.24970  Biso   1.000  Zr
  Zr12     1.0000 0.37854  0.00025  0.75212  Biso   1.000  Zr
  Zr13     1.0000 0.37508  0.50024  0.75213  Biso   1.000  Zr
  Zr14     1.0000 0.87206  0.00024  0.75212  Biso   1.000  Zr
  Zr15     1.0000 0.87554  0.50025  0.75213  Biso   1.000  Zr
  O1       1.0000 0.00070  0.14851  0.00644  Biso   1.000  O
  O2       1.0000 0.00409  0.64308  0.01302  Biso   1.000  O
  O3       1.0000 0.50640  0.14697  0.01091  Biso   1.000  O
  O4       1.0000 0.50367  0.64604  0.00587  Biso   1.000  O
  O5       1.0000 0.99194  0.11304  0.51800  Biso   1.000  O
  O6       1.0000 0.99896  0.60488  0.50962  Biso   1.000  O
  O7       1.0000 0.49853  0.10394  0.50539  Biso   1.000  O
  O8       1.0000 0.49774  0.60398  0.50324  Biso   1.000  O
  O9       1.0000 0.00407  0.35742  0.49125  Biso   1.000  O
  O10      1.0000 0.00070  0.85199  0.49782  Biso   1.000  O
  O11      1.0000 0.50365  0.35447  0.49842  Biso   1.000  O
  O12      1.0000 0.50639  0.85353  0.49335  Biso   1.000  O
  O13      1.0000 0.99895  0.39562  0.99465  Biso   1.000  O
  O14      1.0000 0.99194  0.88746  0.98626  Biso   1.000  O
  O15      1.0000 0.49773  0.39653  0.00105  Biso   1.000  O
  O16      1.0000 0.49854  0.89656  0.99885  Biso   1.000  O
  O17      1.0000 0.24990  0.14852  0.49782  Biso   1.000  O
  O18      1.0000 0.24653  0.64309  0.49121  Biso   1.000  O
  O19      1.0000 0.74420  0.14697  0.49332  Biso   1.000  O
  O20      1.0000 0.74694  0.64604  0.49838  Biso   1.000  O
  O21      1.0000 0.25866  0.11304  0.98625  Biso   1.000  O
  O22      1.0000 0.25165  0.60488  0.99462  Biso   1.000  O
  O23      1.0000 0.75206  0.10395  0.99882  Biso   1.000  O
  O24      1.0000 0.75288  0.60398  0.00101  Biso   1.000  O
  O25      1.0000 0.24653  0.35742  0.01303  Biso   1.000  O
  O26      1.0000 0.24991  0.85199  0.00642  Biso   1.000  O
  O27      1.0000 0.74694  0.35446  0.00587  Biso   1.000  O
  O28      1.0000 0.74421  0.85354  0.01088  Biso   1.000  O
  O29      1.0000 0.25164  0.39563  0.50963  Biso   1.000  O
  O30      1.0000 0.25866  0.88747  0.51798  Biso   1.000  O
  O31      1.0000 0.75286  0.39652  0.50324  Biso   1.000  O
  O32      1.0000 0.75206  0.89656  0.50537  Biso   1.000  O
