data_image0
_cell_length_a       5.20463
_cell_length_b       10.359
_cell_length_c       10.154
_cell_angle_alpha    88.7431
_cell_angle_beta     89.8472
_cell_angle_gamma    93.2274

_symmetry_space_group_name_H-M    "P 1"
_symmetry_int_tables_number       1

loop_
  _symmetry_equiv_pos_as_xyz
  'x, y, z'

loop_
  _atom_site_label
  _atom_site_occupancy
  _atom_site_fract_x
  _atom_site_fract_y
  _atom_site_fract_z
  _atom_site_thermal_displace_type
  _atom_site_B_iso_or_equiv
  _atom_site_type_symbol
  Zr1      1.0000 0.27054  0.96304  0.13809  Biso   1.000  Zr
  Zr2      1.0000 0.29622  0.25982  0.41105  Biso   1.000  Zr
  Zr3      1.0000 0.68911  0.24237  0.13033  Biso   1.000  Zr
  Zr4      1.0000 0.72204  0.00475  0.38076  Biso   1.000  Zr
  O1       1.0000 0.92140  0.17516  0.96644  Biso   1.000  O
  O2       1.0000 0.92797  0.06300  0.21445  Biso   1.000  O
  O3       1.0000 0.92427  0.31174  0.29588  Biso   1.000  O
  O4       1.0000 0.96039  0.41168  0.04354  Biso   1.000  O
  O5       1.0000 0.44642  0.11592  0.26751  Biso   1.000  O
  O6       1.0000 0.44286  0.10940  0.00236  Biso   1.000  O
  O7       1.0000 0.47711  0.36893  0.00051  Biso   1.000  O
  O8       1.0000 0.47300  0.38157  0.25672  Biso   1.000  O
  Zr5      1.0000 0.21470  0.98644  0.60747  Biso   1.000  Zr
  Zr6      1.0000 0.27228  0.25553  0.84950  Biso   1.000  Zr
  Zr7      1.0000 0.81001  0.24487  0.61972  Biso   1.000  Zr
  Zr8      1.0000 0.73259  0.02066  0.87666  Biso   1.000  Zr
  O9       1.0000 0.00792  0.12924  0.48798  Biso   1.000  O
  O10      1.0000 0.04624  0.11467  0.73695  Biso   1.000  O
  O11      1.0000 0.99278  0.37143  0.76246  Biso   1.000  O
  O12      1.0000 0.07584  0.38743  0.51506  Biso   1.000  O
  O13      1.0000 0.57307  0.17633  0.76385  Biso   1.000  O
  O14      1.0000 0.51078  0.11049  0.51729  Biso   1.000  O
  O15      1.0000 0.58407  0.35747  0.50919  Biso   1.000  O
  O16      1.0000 0.47892  0.42727  0.76213  Biso   1.000  O
  Zr9      1.0000 0.29940  0.52212  0.11190  Biso   1.000  Zr
  Zr10     1.0000 0.30264  0.71908  0.36298  Biso   1.000  Zr
  Zr11     1.0000 0.76501  0.75915  0.10376  Biso   1.000  Zr
  Zr12     1.0000 0.78083  0.48387  0.37275  Biso   1.000  Zr
  O17      1.0000 0.05164  0.65485  0.00685  Biso   1.000  O
  O18      1.0000 0.09773  0.56359  0.27403  Biso   1.000  O
  O19      1.0000 0.06233  0.81115  0.23166  Biso   1.000  O
  O20      1.0000 0.99958  0.90636  0.98900  Biso   1.000  O
  O21      1.0000 0.58624  0.62790  0.24438  Biso   1.000  O
  O22      1.0000 0.55382  0.62493  0.98383  Biso   1.000  O
  O23      1.0000 0.50225  0.86566  0.99785  Biso   1.000  O
  O24      1.0000 0.54506  0.86816  0.25114  Biso   1.000  O
  Zr13     1.0000 0.23127  0.52387  0.64582  Biso   1.000  Zr
  Zr14     1.0000 0.22534  0.77741  0.85875  Biso   1.000  Zr
  Zr15     1.0000 0.75096  0.74257  0.60503  Biso   1.000  Zr
  Zr16     1.0000 0.76669  0.49227  0.89173  Biso   1.000  Zr
  O25      1.0000 0.00743  0.63735  0.50097  Biso   1.000  O
  O26      1.0000 0.95757  0.62060  0.75351  Biso   1.000  O
  O27      1.0000 0.95497  0.86572  0.73829  Biso   1.000  O
  O28      1.0000 0.95911  0.88522  0.48657  Biso   1.000  O
  O29      1.0000 0.44010  0.68503  0.72625  Biso   1.000  O
  O30      1.0000 0.51160  0.59877  0.49524  Biso   1.000  O
  O31      1.0000 0.46624  0.85605  0.50164  Biso   1.000  O
  O32      1.0000 0.44085  0.93367  0.76151  Biso   1.000  O
  Ce1      1.0000 0.18129  0.24160  0.13413  Biso   1.000  Ce
