data_image0
_cell_length_a       5.00216
_cell_length_b       10.4227
_cell_length_c       10.0345
_cell_angle_alpha    89.658
_cell_angle_beta     90.1864
_cell_angle_gamma    90.0325

_symmetry_space_group_name_H-M    "P 1"
_symmetry_int_tables_number       1

loop_
  _symmetry_equiv_pos_as_xyz
  'x, y, z'

loop_
  _atom_site_label
  _atom_site_occupancy
  _atom_site_fract_x
  _atom_site_fract_y
  _atom_site_fract_z
  _atom_site_thermal_displace_type
  _atom_site_B_iso_or_equiv
  _atom_site_type_symbol
  Hf1      1.0000 0.26494  0.01918  0.12108  Biso   1.000  Hf
  Hf2      1.0000 0.26584  0.23029  0.38250  Biso   1.000  Hf
  Hf3      1.0000 0.70012  0.26077  0.12461  Biso   1.000  Hf
  Hf4      1.0000 0.73724  0.48386  0.37564  Biso   1.000  Hf
  O1       1.0000 0.03480  0.17274  0.21174  Biso   1.000  O
  O2       1.0000 0.07075  0.06462  0.45009  Biso   1.000  O
  O3       1.0000 0.91831  0.43448  0.19380  Biso   1.000  O
  O4       1.0000 0.93264  0.31819  0.44826  Biso   1.000  O
  O5       1.0000 0.52322  0.11574  0.25176  Biso   1.000  O
  O6       1.0000 0.54517  0.13238  0.49986  Biso   1.000  O
  O7       1.0000 0.46431  0.38263  0.50034  Biso   1.000  O
  O8       1.0000 0.44339  0.36852  0.25124  Biso   1.000  O
  Hf5      1.0000 0.27273  0.01404  0.62620  Biso   1.000  Hf
  Hf6      1.0000 0.28065  0.22541  0.87202  Biso   1.000  Hf
  Hf7      1.0000 0.73756  0.26597  0.62655  Biso   1.000  Hf
  Hf8      1.0000 0.73786  0.48261  0.87624  Biso   1.000  Hf
  O9       1.0000 0.07601  0.18126  0.69291  Biso   1.000  O
  O10      1.0000 0.08730  0.05924  0.93730  Biso   1.000  O
  O11      1.0000 0.93618  0.43235  0.69888  Biso   1.000  O
  O12      1.0000 0.93621  0.31346  0.94803  Biso   1.000  O
  O13      1.0000 0.54843  0.11393  0.74705  Biso   1.000  O
  O14      1.0000 0.57262  0.12126  0.99344  Biso   1.000  O
  O15      1.0000 0.45842  0.38369  0.99897  Biso   1.000  O
  O16      1.0000 0.46797  0.36548  0.74991  Biso   1.000  O
  Hf9      1.0000 0.26584  0.53085  0.12560  Biso   1.000  Hf
  Hf10     1.0000 0.27137  0.73549  0.37770  Biso   1.000  Hf
  Hf11     1.0000 0.72903  0.76903  0.12696  Biso   1.000  Hf
  Hf12     1.0000 0.73471  0.98415  0.37398  Biso   1.000  Hf
  O17      1.0000 0.06800  0.68685  0.19932  Biso   1.000  O
  O18      1.0000 0.07184  0.56686  0.44620  Biso   1.000  O
  O19      1.0000 0.92757  0.93371  0.19330  Biso   1.000  O
  O20      1.0000 0.93028  0.81657  0.44403  Biso   1.000  O
  O21      1.0000 0.54443  0.62155  0.25195  Biso   1.000  O
  O22      1.0000 0.54157  0.63229  0.50047  Biso   1.000  O
  O23      1.0000 0.46478  0.88311  0.49900  Biso   1.000  O
  O24      1.0000 0.45816  0.86884  0.24943  Biso   1.000  O
  Hf13     1.0000 0.27321  0.51466  0.62635  Biso   1.000  Hf
  Hf14     1.0000 0.27164  0.73433  0.87389  Biso   1.000  Hf
  Hf15     1.0000 0.73891  0.76430  0.62425  Biso   1.000  Hf
  Hf16     1.0000 0.74035  0.97772  0.87403  Biso   1.000  Hf
  O25      1.0000 0.07717  0.68216  0.69369  Biso   1.000  O
  O26      1.0000 0.07288  0.56852  0.94493  Biso   1.000  O
  O27      1.0000 0.93787  0.92923  0.69440  Biso   1.000  O
  O28      1.0000 0.93305  0.81350  0.94648  Biso   1.000  O
  O29      1.0000 0.54487  0.61496  0.75022  Biso   1.000  O
  O30      1.0000 0.54334  0.63398  0.99928  Biso   1.000  O
  O31      1.0000 0.46024  0.87996  0.99928  Biso   1.000  O
  O32      1.0000 0.46893  0.86439  0.74822  Biso   1.000  O
  Co1      1.0000 0.18783  0.30202  0.10533  Biso   1.000  Co
