data_image0
_cell_length_a       10.1098
_cell_length_b       10.3637
_cell_length_c       5.26612
_cell_angle_alpha    89.8938
_cell_angle_beta     90.4066
_cell_angle_gamma    90.3169

_symmetry_space_group_name_H-M    "P 1"
_symmetry_int_tables_number       1

loop_
  _symmetry_equiv_pos_as_xyz
  'x, y, z'

loop_
  _atom_site_label
  _atom_site_occupancy
  _atom_site_fract_x
  _atom_site_fract_y
  _atom_site_fract_z
  _atom_site_thermal_displace_type
  _atom_site_B_iso_or_equiv
  _atom_site_type_symbol
  Zr1      1.0000 0.14069  0.02048  0.34479  Biso   1.000  Zr
  Zr2      1.0000 0.13794  0.22713  0.84709  Biso   1.000  Zr
  Zr3      1.0000 0.35639  0.27149  0.35474  Biso   1.000  Zr
  Zr4      1.0000 0.36024  0.47979  0.84257  Biso   1.000  Zr
  Zr5      1.0000 0.64454  0.02312  0.15274  Biso   1.000  Zr
  Zr6      1.0000 0.64230  0.22284  0.66517  Biso   1.000  Zr
  Zr7      1.0000 0.86062  0.26632  0.15760  Biso   1.000  Zr
  Zr8      1.0000 0.86395  0.47816  0.65695  Biso   1.000  Zr
  O1       1.0000 0.03418  0.16299  0.16905  Biso   1.000  O
  O2       1.0000 0.03577  0.08242  0.66742  Biso   1.000  O
  O3       1.0000 0.46140  0.42648  0.18602  Biso   1.000  O
  O4       1.0000 0.46768  0.33203  0.67856  Biso   1.000  O
  O5       1.0000 0.27583  0.12460  0.59605  Biso   1.000  O
  O6       1.0000 0.27628  0.12531  0.09347  Biso   1.000  O
  O7       1.0000 0.22257  0.37441  0.59501  Biso   1.000  O
  O8       1.0000 0.22308  0.37535  0.09211  Biso   1.000  O
  O9       1.0000 0.52607  0.15768  0.34314  Biso   1.000  O
  O10      1.0000 0.53532  0.07772  0.82824  Biso   1.000  O
  O11      1.0000 0.96543  0.41472  0.33599  Biso   1.000  O
  O12      1.0000 0.96615  0.33384  0.83488  Biso   1.000  O
  O13      1.0000 0.78790  0.11689  0.90152  Biso   1.000  O
  O14      1.0000 0.77941  0.12127  0.41551  Biso   1.000  O
  O15      1.0000 0.71956  0.37264  0.91693  Biso   1.000  O
  O16      1.0000 0.71947  0.37292  0.40690  Biso   1.000  O
  Zr9      1.0000 0.13861  0.51993  0.34150  Biso   1.000  Zr
  Zr10     1.0000 0.14053  0.72790  0.84370  Biso   1.000  Zr
  Zr11     1.0000 0.36234  0.77293  0.34499  Biso   1.000  Zr
  Zr12     1.0000 0.36190  0.97745  0.84800  Biso   1.000  Zr
  Zr13     1.0000 0.63971  0.53217  0.15722  Biso   1.000  Zr
  Zr14     1.0000 0.64051  0.73141  0.65768  Biso   1.000  Zr
  Zr15     1.0000 0.86440  0.77106  0.15813  Biso   1.000  Zr
  Zr16     1.0000 0.86447  0.97543  0.65716  Biso   1.000  Zr
  O17      1.0000 0.03420  0.66344  0.16741  Biso   1.000  O
  O18      1.0000 0.03295  0.58296  0.66784  Biso   1.000  O
  O19      1.0000 0.46852  0.91612  0.17025  Biso   1.000  O
  O20      1.0000 0.46782  0.83319  0.67181  Biso   1.000  O
  O21      1.0000 0.27543  0.62336  0.59014  Biso   1.000  O
  O22      1.0000 0.27660  0.62519  0.09012  Biso   1.000  O
  O23      1.0000 0.22617  0.87370  0.59311  Biso   1.000  O
  O24      1.0000 0.22504  0.87441  0.09262  Biso   1.000  O
  O25      1.0000 0.53421  0.67099  0.33340  Biso   1.000  O
  O26      1.0000 0.53329  0.58502  0.83162  Biso   1.000  O
  O27      1.0000 0.97116  0.91309  0.33195  Biso   1.000  O
  O28      1.0000 0.97007  0.83167  0.83385  Biso   1.000  O
  O29      1.0000 0.77818  0.62480  0.90681  Biso   1.000  O
  O30      1.0000 0.77754  0.62596  0.41064  Biso   1.000  O
  O31      1.0000 0.72669  0.87252  0.91220  Biso   1.000  O
  O32      1.0000 0.72783  0.87394  0.41000  Biso   1.000  O
  Co1      1.0000 0.59777  0.29093  0.14594  Biso   1.000  Co
