data_image0
_cell_length_a       4.95735
_cell_length_b       10.375
_cell_length_c       9.96616
_cell_angle_alpha    90.6619
_cell_angle_beta     89.3658
_cell_angle_gamma    90.4046

_symmetry_space_group_name_H-M    "P 1"
_symmetry_int_tables_number       1

loop_
  _symmetry_equiv_pos_as_xyz
  'x, y, z'

loop_
  _atom_site_label
  _atom_site_occupancy
  _atom_site_fract_x
  _atom_site_fract_y
  _atom_site_fract_z
  _atom_site_thermal_displace_type
  _atom_site_B_iso_or_equiv
  _atom_site_type_symbol
  Cr1      1.0000 0.24234  0.03303  0.11387  Biso   1.000  Cr
  Hf1      1.0000 0.26548  0.22800  0.37273  Biso   1.000  Hf
  Hf2      1.0000 0.72754  0.26247  0.12117  Biso   1.000  Hf
  Hf3      1.0000 0.73533  0.48084  0.37581  Biso   1.000  Hf
  O1       1.0000 0.06011  0.17956  0.19386  Biso   1.000  O
  O2       1.0000 0.07243  0.06479  0.44717  Biso   1.000  O
  O3       1.0000 0.92986  0.42914  0.19421  Biso   1.000  O
  O4       1.0000 0.93083  0.31375  0.44323  Biso   1.000  O
  O5       1.0000 0.51386  0.09935  0.23567  Biso   1.000  O
  O6       1.0000 0.54674  0.13175  0.49233  Biso   1.000  O
  O7       1.0000 0.45896  0.38076  0.49872  Biso   1.000  O
  O8       1.0000 0.46102  0.35873  0.24769  Biso   1.000  O
  Hf4      1.0000 0.26314  0.01554  0.62495  Biso   1.000  Hf
  Hf5      1.0000 0.26231  0.23683  0.87304  Biso   1.000  Hf
  Hf6      1.0000 0.73042  0.26603  0.62365  Biso   1.000  Hf
  Hf7      1.0000 0.72876  0.48654  0.87420  Biso   1.000  Hf
  O9       1.0000 0.06868  0.18478  0.69489  Biso   1.000  O
  O10      1.0000 0.05920  0.07076  0.95531  Biso   1.000  O
  O11      1.0000 0.92659  0.43472  0.69317  Biso   1.000  O
  O12      1.0000 0.91993  0.31754  0.94171  Biso   1.000  O
  O13      1.0000 0.53732  0.11809  0.74747  Biso   1.000  O
  O14      1.0000 0.52077  0.13525  0.99649  Biso   1.000  O
  O15      1.0000 0.45454  0.38472  0.99775  Biso   1.000  O
  O16      1.0000 0.45599  0.36916  0.74822  Biso   1.000  O
  Hf8      1.0000 0.26675  0.51428  0.12716  Biso   1.000  Hf
  Hf9      1.0000 0.28013  0.73308  0.37718  Biso   1.000  Hf
  Hf10     1.0000 0.74388  0.76121  0.12222  Biso   1.000  Hf
  Hf11     1.0000 0.73483  0.98242  0.37247  Biso   1.000  Hf
  O17      1.0000 0.07867  0.68518  0.19766  Biso   1.000  O
  O18      1.0000 0.07698  0.56438  0.44412  Biso   1.000  O
  O19      1.0000 0.98819  0.93891  0.18753  Biso   1.000  O
  O20      1.0000 0.94421  0.81984  0.44961  Biso   1.000  O
  O21      1.0000 0.54346  0.60641  0.24863  Biso   1.000  O
  O22      1.0000 0.54851  0.63289  0.50055  Biso   1.000  O
  O23      1.0000 0.46838  0.88388  0.50361  Biso   1.000  O
  O24      1.0000 0.52135  0.84844  0.26120  Biso   1.000  O
  Hf12     1.0000 0.26972  0.51792  0.62498  Biso   1.000  Hf
  Hf13     1.0000 0.26436  0.73776  0.88021  Biso   1.000  Hf
  Hf14     1.0000 0.73752  0.76918  0.62816  Biso   1.000  Hf
  Hf15     1.0000 0.71461  0.98540  0.88151  Biso   1.000  Hf
  O25      1.0000 0.07295  0.68494  0.69701  Biso   1.000  O
  O26      1.0000 0.06365  0.56982  0.94913  Biso   1.000  O
  O27      1.0000 0.92707  0.93644  0.70062  Biso   1.000  O
  O28      1.0000 0.91340  0.81865  0.93997  Biso   1.000  O
  O29      1.0000 0.53917  0.62011  0.75141  Biso   1.000  O
  O30      1.0000 0.53485  0.63495  0.00037  Biso   1.000  O
  O31      1.0000 0.44332  0.89111  0.01319  Biso   1.000  O
  O32      1.0000 0.45525  0.86949  0.75479  Biso   1.000  O
