data_image0
_cell_length_a       10.141
_cell_length_b       10.3057
_cell_length_c       10.5503
_cell_angle_alpha    89.7177
_cell_angle_beta     90.486
_cell_angle_gamma    89.9416

_symmetry_space_group_name_H-M    "P 1"
_symmetry_int_tables_number       1

loop_
  _symmetry_equiv_pos_as_xyz
  'x, y, z'

loop_
  _atom_site_label
  _atom_site_occupancy
  _atom_site_fract_x
  _atom_site_fract_y
  _atom_site_fract_z
  _atom_site_thermal_displace_type
  _atom_site_B_iso_or_equiv
  _atom_site_type_symbol
  Zr1      1.0000 0.13909  0.01971  0.17138  Biso   1.000  Zr
  Zr2      1.0000 0.13596  0.22919  0.42320  Biso   1.000  Zr
  Zr3      1.0000 0.35185  0.27015  0.17690  Biso   1.000  Zr
  Zr4      1.0000 0.36068  0.48045  0.42386  Biso   1.000  Zr
  Zr5      1.0000 0.63903  0.01821  0.06958  Biso   1.000  Zr
  Zr6      1.0000 0.63436  0.23175  0.33807  Biso   1.000  Zr
  Zr7      1.0000 0.87280  0.27157  0.07549  Biso   1.000  Zr
  Zr8      1.0000 0.86268  0.48007  0.32932  Biso   1.000  Zr
  O1       1.0000 0.03711  0.16075  0.07777  Biso   1.000  O
  O2       1.0000 0.02599  0.09218  0.32663  Biso   1.000  O
  O3       1.0000 0.47460  0.40461  0.08158  Biso   1.000  O
  O4       1.0000 0.46336  0.33780  0.33406  Biso   1.000  O
  O5       1.0000 0.26935  0.12446  0.29792  Biso   1.000  O
  O6       1.0000 0.27617  0.12402  0.04436  Biso   1.000  O
  O7       1.0000 0.22067  0.37555  0.29795  Biso   1.000  O
  O8       1.0000 0.22579  0.37645  0.04503  Biso   1.000  O
  O9       1.0000 0.51109  0.14646  0.17527  Biso   1.000  O
  O10      1.0000 0.52867  0.08789  0.42481  Biso   1.000  O
  O11      1.0000 0.97113  0.41410  0.17054  Biso   1.000  O
  O12      1.0000 0.96765  0.33914  0.42117  Biso   1.000  O
  O13      1.0000 0.77720  0.12286  0.45372  Biso   1.000  O
  O14      1.0000 0.75410  0.14235  0.19346  Biso   1.000  O
  O15      1.0000 0.72504  0.37475  0.45997  Biso   1.000  O
  O16      1.0000 0.72491  0.38392  0.20819  Biso   1.000  O
  Zr9      1.0000 0.14013  0.02041  0.67071  Biso   1.000  Zr
  Zr10     1.0000 0.14295  0.22651  0.91857  Biso   1.000  Zr
  Zr11     1.0000 0.36480  0.26995  0.67246  Biso   1.000  Zr
  Zr12     1.0000 0.36206  0.47753  0.91995  Biso   1.000  Zr
  Zr13     1.0000 0.63894  0.02133  0.57990  Biso   1.000  Zr
  Zr14     1.0000 0.64296  0.22467  0.83334  Biso   1.000  Zr
  Zr15     1.0000 0.86131  0.27070  0.58127  Biso   1.000  Zr
  Zr16     1.0000 0.86296  0.47896  0.82960  Biso   1.000  Zr
  O17      1.0000 0.03150  0.16258  0.58119  Biso   1.000  O
  O18      1.0000 0.03623  0.08548  0.82942  Biso   1.000  O
  O19      1.0000 0.46947  0.41385  0.58358  Biso   1.000  O
  O20      1.0000 0.46983  0.33476  0.83521  Biso   1.000  O
  O21      1.0000 0.27789  0.12286  0.79448  Biso   1.000  O
  O22      1.0000 0.27483  0.12558  0.54597  Biso   1.000  O
  O23      1.0000 0.22703  0.37332  0.79494  Biso   1.000  O
  O24      1.0000 0.22549  0.37567  0.54650  Biso   1.000  O
  O25      1.0000 0.53378  0.16335  0.66975  Biso   1.000  O
  O26      1.0000 0.53253  0.07616  0.90940  Biso   1.000  O
  O27      1.0000 0.96821  0.41368  0.66863  Biso   1.000  O
  O28      1.0000 0.97261  0.33750  0.91549  Biso   1.000  O
  O29      1.0000 0.79071  0.11734  0.94662  Biso   1.000  O
  O30      1.0000 0.77711  0.12443  0.70221  Biso   1.000  O
  O31      1.0000 0.72278  0.37122  0.96591  Biso   1.000  O
  O32      1.0000 0.72639  0.37558  0.71063  Biso   1.000  O
  Zr17     1.0000 0.13947  0.52251  0.17220  Biso   1.000  Zr
  Zr18     1.0000 0.13764  0.72977  0.42145  Biso   1.000  Zr
  Zr19     1.0000 0.36109  0.77173  0.17265  Biso   1.000  Zr
  Zr20     1.0000 0.36155  0.97850  0.42353  Biso   1.000  Zr
  Zr21     1.0000 0.64219  0.53078  0.07791  Biso   1.000  Zr
  Zr22     1.0000 0.63890  0.73059  0.32908  Biso   1.000  Zr
  Zr23     1.0000 0.86362  0.77338  0.07855  Biso   1.000  Zr
  Zr24     1.0000 0.85983  0.98028  0.32761  Biso   1.000  Zr
  O33      1.0000 0.03292  0.66352  0.08143  Biso   1.000  O
  O34      1.0000 0.03104  0.58893  0.33114  Biso   1.000  O
  O35      1.0000 0.46742  0.90849  0.07871  Biso   1.000  O
  O36      1.0000 0.46874  0.83880  0.33150  Biso   1.000  O
  O37      1.0000 0.27392  0.62524  0.29683  Biso   1.000  O
  O38      1.0000 0.27751  0.62390  0.04589  Biso   1.000  O
  O39      1.0000 0.22439  0.87450  0.29627  Biso   1.000  O
  O40      1.0000 0.22294  0.87405  0.04619  Biso   1.000  O
  O41      1.0000 0.52957  0.66194  0.17215  Biso   1.000  O
  O42      1.0000 0.53162  0.58809  0.42029  Biso   1.000  O
  O43      1.0000 0.96719  0.91641  0.16716  Biso   1.000  O
  O44      1.0000 0.96665  0.83978  0.41618  Biso   1.000  O
  O45      1.0000 0.77545  0.62447  0.45421  Biso   1.000  O
  O46      1.0000 0.77731  0.63197  0.20481  Biso   1.000  O
  O47      1.0000 0.72412  0.87477  0.45480  Biso   1.000  O
  O48      1.0000 0.72643  0.87912  0.20494  Biso   1.000  O
  Zr25     1.0000 0.13843  0.52038  0.67082  Biso   1.000  Zr
  Zr26     1.0000 0.13967  0.72731  0.92149  Biso   1.000  Zr
  Zr27     1.0000 0.36207  0.76985  0.67186  Biso   1.000  Zr
  Zr28     1.0000 0.36068  0.97521  0.92104  Biso   1.000  Zr
  Zr29     1.0000 0.63977  0.52116  0.57958  Biso   1.000  Zr
  Zr30     1.0000 0.63969  0.72849  0.82673  Biso   1.000  Zr
  Zr31     1.0000 0.86138  0.77173  0.57780  Biso   1.000  Zr
  Zr32     1.0000 0.86480  0.97693  0.82667  Biso   1.000  Zr
  O49      1.0000 0.03138  0.66336  0.57997  Biso   1.000  O
  O50      1.0000 0.03229  0.58662  0.83016  Biso   1.000  O
  O51      1.0000 0.46879  0.91160  0.58285  Biso   1.000  O
  O52      1.0000 0.46825  0.83314  0.83109  Biso   1.000  O
  O53      1.0000 0.27582  0.62187  0.79545  Biso   1.000  O
  O54      1.0000 0.27399  0.62581  0.54590  Biso   1.000  O
  O55      1.0000 0.22532  0.87199  0.79517  Biso   1.000  O
  O56      1.0000 0.22525  0.87532  0.54524  Biso   1.000  O
  O57      1.0000 0.53191  0.66200  0.66863  Biso   1.000  O
  O58      1.0000 0.53197  0.58699  0.91876  Biso   1.000  O
  O59      1.0000 0.97058  0.91231  0.66536  Biso   1.000  O
  O60      1.0000 0.97129  0.83588  0.91831  Biso   1.000  O
  O61      1.0000 0.77848  0.62429  0.95278  Biso   1.000  O
  O62      1.0000 0.77652  0.62556  0.70385  Biso   1.000  O
  O63      1.0000 0.72702  0.87079  0.95314  Biso   1.000  O
  O64      1.0000 0.72615  0.87445  0.70399  Biso   1.000  O
  Cr1      1.0000 0.61513  0.27453  0.10362  Biso   1.000  Cr
