data_image0
_cell_length_a       10.0661
_cell_length_b       10.2897
_cell_length_c       10.4777
_cell_angle_alpha    89.8895
_cell_angle_beta     89.9673
_cell_angle_gamma    89.9987

_symmetry_space_group_name_H-M    "P 1"
_symmetry_int_tables_number       1

loop_
  _symmetry_equiv_pos_as_xyz
  'x, y, z'

loop_
  _atom_site_label
  _atom_site_occupancy
  _atom_site_fract_x
  _atom_site_fract_y
  _atom_site_fract_z
  _atom_site_thermal_displace_type
  _atom_site_B_iso_or_equiv
  _atom_site_type_symbol
  Cr1      1.0000 0.13122  0.02559  0.17860  Biso   1.000  Cr
  Zr1      1.0000 0.13896  0.02104  0.67079  Biso   1.000  Zr
  Zr2      1.0000 0.13963  0.52075  0.17115  Biso   1.000  Zr
  Zr3      1.0000 0.13904  0.52120  0.67166  Biso   1.000  Zr
  Zr4      1.0000 0.14001  0.23021  0.41964  Biso   1.000  Zr
  Zr5      1.0000 0.13874  0.22419  0.92516  Biso   1.000  Zr
  Zr6      1.0000 0.13866  0.73075  0.41936  Biso   1.000  Zr
  Zr7      1.0000 0.14063  0.73037  0.92140  Biso   1.000  Zr
  Zr8      1.0000 0.35890  0.26779  0.17162  Biso   1.000  Zr
  Zr9      1.0000 0.36098  0.27147  0.67191  Biso   1.000  Zr
  Zr10     1.0000 0.35656  0.77543  0.17015  Biso   1.000  Zr
  Zr11     1.0000 0.36160  0.77141  0.67039  Biso   1.000  Zr
  Zr12     1.0000 0.36140  0.48009  0.42102  Biso   1.000  Zr
  Zr13     1.0000 0.36102  0.47807  0.92162  Biso   1.000  Zr
  Zr14     1.0000 0.35831  0.98001  0.41826  Biso   1.000  Zr
  Zr15     1.0000 0.35869  0.97773  0.92399  Biso   1.000  Zr
  Zr16     1.0000 0.63883  0.02169  0.07787  Biso   1.000  Zr
  Zr17     1.0000 0.63749  0.02066  0.57790  Biso   1.000  Zr
  Zr18     1.0000 0.63797  0.52169  0.08006  Biso   1.000  Zr
  Zr19     1.0000 0.63914  0.52120  0.58014  Biso   1.000  Zr
  Zr20     1.0000 0.63810  0.22923  0.32893  Biso   1.000  Zr
  Zr21     1.0000 0.63899  0.22924  0.82944  Biso   1.000  Zr
  Zr22     1.0000 0.63767  0.72956  0.32769  Biso   1.000  Zr
  Zr23     1.0000 0.63873  0.72927  0.83014  Biso   1.000  Zr
  Zr24     1.0000 0.86359  0.26912  0.08114  Biso   1.000  Zr
  Zr25     1.0000 0.86115  0.27071  0.57860  Biso   1.000  Zr
  Zr26     1.0000 0.86547  0.77242  0.07822  Biso   1.000  Zr
  Zr27     1.0000 0.86051  0.77083  0.57849  Biso   1.000  Zr
  Zr28     1.0000 0.86084  0.47972  0.32898  Biso   1.000  Zr
  Zr29     1.0000 0.86224  0.47813  0.83072  Biso   1.000  Zr
  Zr30     1.0000 0.86347  0.98061  0.32755  Biso   1.000  Zr
  Zr31     1.0000 0.86069  0.97903  0.82774  Biso   1.000  Zr
  O1       1.0000 0.03506  0.15824  0.08949  Biso   1.000  O
  O2       1.0000 0.03100  0.16117  0.57749  Biso   1.000  O
  O3       1.0000 0.03371  0.66608  0.08484  Biso   1.000  O
  O4       1.0000 0.03258  0.66569  0.58294  Biso   1.000  O
  O5       1.0000 0.03818  0.08449  0.32282  Biso   1.000  O
  O6       1.0000 0.03133  0.08545  0.83108  Biso   1.000  O
  O7       1.0000 0.03308  0.58411  0.33386  Biso   1.000  O
  O8       1.0000 0.03345  0.58349  0.83504  Biso   1.000  O
  O9       1.0000 0.46630  0.41554  0.08579  Biso   1.000  O
  O10      1.0000 0.46620  0.41756  0.58529  Biso   1.000  O
  O11      1.0000 0.46912  0.91499  0.08401  Biso   1.000  O
  O12      1.0000 0.46573  0.91685  0.58363  Biso   1.000  O
  O13      1.0000 0.46467  0.33148  0.33602  Biso   1.000  O
  O14      1.0000 0.46730  0.33390  0.83474  Biso   1.000  O
  O15      1.0000 0.46457  0.83479  0.33378  Biso   1.000  O
  O16      1.0000 0.46612  0.83361  0.83524  Biso   1.000  O
  O17      1.0000 0.27057  0.12220  0.29264  Biso   1.000  O
  O18      1.0000 0.27607  0.12383  0.79771  Biso   1.000  O
  O19      1.0000 0.27547  0.62668  0.29474  Biso   1.000  O
  O20      1.0000 0.27646  0.62400  0.79474  Biso   1.000  O
  O21      1.0000 0.26744  0.11743  0.05419  Biso   1.000  O
  O22      1.0000 0.27613  0.12676  0.54481  Biso   1.000  O
  O23      1.0000 0.27594  0.62508  0.04482  Biso   1.000  O
  O24      1.0000 0.27592  0.62650  0.54443  Biso   1.000  O
  O25      1.0000 0.22453  0.37547  0.29488  Biso   1.000  O
  O26      1.0000 0.22390  0.37326  0.79570  Biso   1.000  O
  O27      1.0000 0.21859  0.88083  0.28996  Biso   1.000  O
  O28      1.0000 0.22390  0.87415  0.79355  Biso   1.000  O
  O29      1.0000 0.22471  0.37287  0.04538  Biso   1.000  O
  O30      1.0000 0.22367  0.37585  0.54444  Biso   1.000  O
  O31      1.0000 0.22242  0.87573  0.04437  Biso   1.000  O
  O32      1.0000 0.22338  0.87626  0.54303  Biso   1.000  O
  O33      1.0000 0.53273  0.16603  0.16593  Biso   1.000  O
  O34      1.0000 0.53301  0.16651  0.66580  Biso   1.000  O
  O35      1.0000 0.53244  0.66827  0.16501  Biso   1.000  O
  O36      1.0000 0.53405  0.66735  0.66533  Biso   1.000  O
  O37      1.0000 0.53234  0.08359  0.41476  Biso   1.000  O
  O38      1.0000 0.53078  0.08594  0.91782  Biso   1.000  O
  O39      1.0000 0.53383  0.58362  0.41497  Biso   1.000  O
  O40      1.0000 0.53416  0.58241  0.91518  Biso   1.000  O
  O41      1.0000 0.96789  0.41562  0.16603  Biso   1.000  O
  O42      1.0000 0.96806  0.41347  0.66733  Biso   1.000  O
  O43      1.0000 0.98360  0.92236  0.16380  Biso   1.000  O
  O44      1.0000 0.96740  0.91500  0.66528  Biso   1.000  O
  O45      1.0000 0.96663  0.33303  0.41451  Biso   1.000  O
  O46      1.0000 0.96863  0.33146  0.91901  Biso   1.000  O
  O47      1.0000 0.96667  0.83528  0.41414  Biso   1.000  O
  O48      1.0000 0.96743  0.83426  0.91552  Biso   1.000  O
  O49      1.0000 0.77602  0.12422  0.95469  Biso   1.000  O
  O50      1.0000 0.77698  0.12357  0.45339  Biso   1.000  O
  O51      1.0000 0.77746  0.62582  0.95714  Biso   1.000  O
  O52      1.0000 0.77550  0.62452  0.45537  Biso   1.000  O
  O53      1.0000 0.77564  0.12548  0.20476  Biso   1.000  O
  O54      1.0000 0.77541  0.12559  0.70421  Biso   1.000  O
  O55      1.0000 0.77601  0.62630  0.20554  Biso   1.000  O
  O56      1.0000 0.77665  0.62534  0.70649  Biso   1.000  O
  O57      1.0000 0.72543  0.37418  0.95645  Biso   1.000  O
  O58      1.0000 0.72393  0.37395  0.45611  Biso   1.000  O
  O59      1.0000 0.72465  0.87481  0.95497  Biso   1.000  O
  O60      1.0000 0.72379  0.87466  0.45387  Biso   1.000  O
  O61      1.0000 0.72474  0.37542  0.20582  Biso   1.000  O
  O62      1.0000 0.72451  0.37597  0.70600  Biso   1.000  O
  O63      1.0000 0.73315  0.87676  0.20432  Biso   1.000  O
  O64      1.0000 0.72369  0.87563  0.70464  Biso   1.000  O
