data_image0
_cell_length_a       10.2638
_cell_length_b       10.4006
_cell_length_c       5.32683
_cell_angle_alpha    90.7095
_cell_angle_beta     79.1863
_cell_angle_gamma    90.853

_symmetry_space_group_name_H-M    "P 1"
_symmetry_int_tables_number       1

loop_
  _symmetry_equiv_pos_as_xyz
  'x, y, z'

loop_
  _atom_site_label
  _atom_site_occupancy
  _atom_site_fract_x
  _atom_site_fract_y
  _atom_site_fract_z
  _atom_site_thermal_displace_type
  _atom_site_B_iso_or_equiv
  _atom_site_type_symbol
  Hf1      1.0000 0.12903  0.02485  0.28116  Biso   1.000  Hf
  Hf2      1.0000 0.12725  0.22850  0.77371  Biso   1.000  Hf
  Hf3      1.0000 0.34597  0.28981  0.16705  Biso   1.000  Hf
  Hf4      1.0000 0.35482  0.49335  0.71271  Biso   1.000  Hf
  O1       1.0000 0.03011  0.16449  0.14149  Biso   1.000  O
  O2       1.0000 0.02315  0.08219  0.64968  Biso   1.000  O
  O3       1.0000 0.45898  0.43072  0.35626  Biso   1.000  O
  O4       1.0000 0.47392  0.38718  0.89769  Biso   1.000  O
  O5       1.0000 0.24693  0.14302  0.44082  Biso   1.000  O
  O6       1.0000 0.26785  0.11936  0.95244  Biso   1.000  O
  O7       1.0000 0.20867  0.38607  0.00505  Biso   1.000  O
  O8       1.0000 0.22129  0.38028  0.50552  Biso   1.000  O
  Hf5      1.0000 0.13420  0.52601  0.29743  Biso   1.000  Hf
  Hf6      1.0000 0.13378  0.73095  0.80039  Biso   1.000  Hf
  Hf7      1.0000 0.35994  0.77138  0.22423  Biso   1.000  Hf
  Hf8      1.0000 0.36964  0.96113  0.73225  Biso   1.000  Hf
  O9       1.0000 0.02851  0.66351  0.15367  Biso   1.000  O
  O10      1.0000 0.02927  0.58852  0.65512  Biso   1.000  O
  O11      1.0000 0.46554  0.91949  0.35689  Biso   1.000  O
  O12      1.0000 0.46249  0.82285  0.86095  Biso   1.000  O
  O13      1.0000 0.27023  0.63416  0.48803  Biso   1.000  O
  O14      1.0000 0.26993  0.62836  0.99138  Biso   1.000  O
  O15      1.0000 0.22629  0.87730  0.03960  Biso   1.000  O
  O16      1.0000 0.22842  0.87343  0.54185  Biso   1.000  O
  Hf9      1.0000 0.64584  0.01198  0.30075  Biso   1.000  Hf
  Hf10     1.0000 0.66073  0.22378  0.82083  Biso   1.000  Hf
  Hf11     1.0000 0.86212  0.27248  0.22194  Biso   1.000  Hf
  Hf12     1.0000 0.85888  0.47734  0.71261  Biso   1.000  Hf
  O17      1.0000 0.52760  0.16446  0.12360  Biso   1.000  O
  O18      1.0000 0.57217  0.03873  0.69597  Biso   1.000  O
  O19      1.0000 0.96593  0.41499  0.35360  Biso   1.000  O
  O20      1.0000 0.95977  0.33369  0.84674  Biso   1.000  O
  O21      1.0000 0.78355  0.12712  0.48682  Biso   1.000  O
  O22      1.0000 0.78167  0.11691  0.99910  Biso   1.000  O
  O23      1.0000 0.72686  0.37542  0.04106  Biso   1.000  O
  O24      1.0000 0.72180  0.37008  0.53614  Biso   1.000  O
  Hf13     1.0000 0.63327  0.52486  0.29489  Biso   1.000  Hf
  Hf14     1.0000 0.63975  0.72465  0.79509  Biso   1.000  Hf
  Hf15     1.0000 0.85946  0.76665  0.20879  Biso   1.000  Hf
  Hf16     1.0000 0.85699  0.97252  0.70912  Biso   1.000  Hf
  O25      1.0000 0.53352  0.66851  0.15696  Biso   1.000  O
  O26      1.0000 0.52860  0.59918  0.64157  Biso   1.000  O
  O27      1.0000 0.96331  0.90879  0.35339  Biso   1.000  O
  O28      1.0000 0.96562  0.83617  0.85324  Biso   1.000  O
  O29      1.0000 0.77531  0.62321  0.48149  Biso   1.000  O
  O30      1.0000 0.77116  0.61836  0.97943  Biso   1.000  O
  O31      1.0000 0.72479  0.87365  0.02220  Biso   1.000  O
  O32      1.0000 0.72652  0.86056  0.51192  Biso   1.000  O
  Cs1      1.0000 0.44987  0.21899  0.57734  Biso   1.000  Cs
