data_image0
_cell_length_a       10.0403
_cell_length_b       10.4585
_cell_length_c       10.1132
_cell_angle_alpha    89.9327
_cell_angle_beta     89.7221
_cell_angle_gamma    90.0164

_symmetry_space_group_name_H-M    "P 1"
_symmetry_int_tables_number       1

loop_
  _symmetry_equiv_pos_as_xyz
  'x, y, z'

loop_
  _atom_site_label
  _atom_site_occupancy
  _atom_site_fract_x
  _atom_site_fract_y
  _atom_site_fract_z
  _atom_site_thermal_displace_type
  _atom_site_B_iso_or_equiv
  _atom_site_type_symbol
  Cs1      1.0000 0.10990  0.01253  0.11252  Biso   1.000  Cs
  Zr1      1.0000 0.13031  0.02012  0.63737  Biso   1.000  Zr
  Zr2      1.0000 0.13466  0.51474  0.12741  Biso   1.000  Zr
  Zr3      1.0000 0.13428  0.51762  0.62708  Biso   1.000  Zr
  Zr4      1.0000 0.63711  0.01340  0.12608  Biso   1.000  Zr
  Zr5      1.0000 0.63217  0.01665  0.62491  Biso   1.000  Zr
  Zr6      1.0000 0.63223  0.51423  0.12729  Biso   1.000  Zr
  Zr7      1.0000 0.63257  0.51561  0.62637  Biso   1.000  Zr
  Zr8      1.0000 0.13769  0.23337  0.38519  Biso   1.000  Zr
  Zr9      1.0000 0.13146  0.23914  0.86441  Biso   1.000  Zr
  Zr10     1.0000 0.13507  0.73518  0.37864  Biso   1.000  Zr
  Zr11     1.0000 0.13683  0.73107  0.87788  Biso   1.000  Zr
  Zr12     1.0000 0.63101  0.23286  0.37470  Biso   1.000  Zr
  Zr13     1.0000 0.63521  0.23259  0.87612  Biso   1.000  Zr
  Zr14     1.0000 0.63166  0.73491  0.37708  Biso   1.000  Zr
  Zr15     1.0000 0.63407  0.73200  0.87493  Biso   1.000  Zr
  Zr16     1.0000 0.36401  0.26602  0.13189  Biso   1.000  Zr
  Zr17     1.0000 0.36825  0.26568  0.62738  Biso   1.000  Zr
  Zr18     1.0000 0.36899  0.76288  0.12982  Biso   1.000  Zr
  Zr19     1.0000 0.36454  0.76696  0.62693  Biso   1.000  Zr
  Zr20     1.0000 0.85815  0.26766  0.12731  Biso   1.000  Zr
  Zr21     1.0000 0.86599  0.26953  0.62141  Biso   1.000  Zr
  Zr22     1.0000 0.86290  0.75834  0.12278  Biso   1.000  Zr
  Zr23     1.0000 0.86643  0.76137  0.62109  Biso   1.000  Zr
  Zr24     1.0000 0.36448  0.48459  0.37758  Biso   1.000  Zr
  Zr25     1.0000 0.36678  0.48203  0.87853  Biso   1.000  Zr
  Zr26     1.0000 0.36165  0.98450  0.37791  Biso   1.000  Zr
  Zr27     1.0000 0.37021  0.98322  0.87491  Biso   1.000  Zr
  Zr28     1.0000 0.86584  0.48543  0.37556  Biso   1.000  Zr
  Zr29     1.0000 0.86604  0.48190  0.87563  Biso   1.000  Zr
  Zr30     1.0000 0.86389  0.98634  0.38728  Biso   1.000  Zr
  Zr31     1.0000 0.86435  0.98036  0.86289  Biso   1.000  Zr
  O1       1.0000 0.02751  0.20473  0.20804  Biso   1.000  O
  O2       1.0000 0.04885  0.20289  0.66569  Biso   1.000  O
  O3       1.0000 0.03771  0.68886  0.19246  Biso   1.000  O
  O4       1.0000 0.03646  0.68642  0.69603  Biso   1.000  O
  O5       1.0000 0.54153  0.18563  0.18858  Biso   1.000  O
  O6       1.0000 0.53870  0.18469  0.69481  Biso   1.000  O
  O7       1.0000 0.53786  0.68180  0.19706  Biso   1.000  O
  O8       1.0000 0.53477  0.68316  0.69586  Biso   1.000  O
  O9       1.0000 0.03754  0.06405  0.44120  Biso   1.000  O
  O10      1.0000 0.04540  0.06171  0.86051  Biso   1.000  O
  O11      1.0000 0.03435  0.56647  0.44752  Biso   1.000  O
  O12      1.0000 0.03470  0.56597  0.94471  Biso   1.000  O
  O13      1.0000 0.53496  0.06625  0.44575  Biso   1.000  O
  O14      1.0000 0.53887  0.06464  0.94445  Biso   1.000  O
  O15      1.0000 0.53426  0.56645  0.44569  Biso   1.000  O
  O16      1.0000 0.53560  0.56423  0.94711  Biso   1.000  O
  O17      1.0000 0.46305  0.43247  0.19624  Biso   1.000  O
  O18      1.0000 0.46566  0.43322  0.69726  Biso   1.000  O
  O19      1.0000 0.47058  0.93216  0.19767  Biso   1.000  O
  O20      1.0000 0.46538  0.93314  0.69684  Biso   1.000  O
  O21      1.0000 0.95877  0.43892  0.18997  Biso   1.000  O
  O22      1.0000 0.96456  0.43624  0.69723  Biso   1.000  O
  O23      1.0000 0.94357  0.93778  0.19577  Biso   1.000  O
  O24      1.0000 0.95122  0.93470  0.67033  Biso   1.000  O
  O25      1.0000 0.46377  0.31615  0.44493  Biso   1.000  O
  O26      1.0000 0.46208  0.31134  0.94381  Biso   1.000  O
  O27      1.0000 0.46498  0.81689  0.45003  Biso   1.000  O
  O28      1.0000 0.46866  0.81545  0.94576  Biso   1.000  O
  O29      1.0000 0.96189  0.32028  0.44070  Biso   1.000  O
  O30      1.0000 0.96362  0.31137  0.94455  Biso   1.000  O
  O31      1.0000 0.96020  0.81287  0.43755  Biso   1.000  O
  O32      1.0000 0.97104  0.82294  0.94808  Biso   1.000  O
  O33      1.0000 0.28529  0.13256  0.26372  Biso   1.000  O
  O34      1.0000 0.28005  0.12348  0.75403  Biso   1.000  O
  O35      1.0000 0.26875  0.61374  0.25102  Biso   1.000  O
  O36      1.0000 0.27017  0.61712  0.75153  Biso   1.000  O
  O37      1.0000 0.76870  0.11624  0.25210  Biso   1.000  O
  O38      1.0000 0.77082  0.11867  0.74615  Biso   1.000  O
  O39      1.0000 0.76891  0.61607  0.24802  Biso   1.000  O
  O40      1.0000 0.76979  0.61506  0.74882  Biso   1.000  O
  O41      1.0000 0.27000  0.12904  0.50874  Biso   1.000  O
  O42      1.0000 0.25950  0.12803  0.00214  Biso   1.000  O
  O43      1.0000 0.26948  0.63308  0.50157  Biso   1.000  O
  O44      1.0000 0.27111  0.62876  0.00206  Biso   1.000  O
  O45      1.0000 0.76809  0.13426  0.49980  Biso   1.000  O
  O46      1.0000 0.77859  0.12816  0.99740  Biso   1.000  O
  O47      1.0000 0.76694  0.63240  0.49749  Biso   1.000  O
  O48      1.0000 0.76987  0.62950  0.99782  Biso   1.000  O
  O49      1.0000 0.23152  0.38349  0.50255  Biso   1.000  O
  O50      1.0000 0.23006  0.38042  0.00134  Biso   1.000  O
  O51      1.0000 0.22587  0.88383  0.50628  Biso   1.000  O
  O52      1.0000 0.24505  0.87176  0.99589  Biso   1.000  O
  O53      1.0000 0.72958  0.38354  0.49973  Biso   1.000  O
  O54      1.0000 0.72800  0.38082  0.99953  Biso   1.000  O
  O55      1.0000 0.72616  0.88146  0.50050  Biso   1.000  O
  O56      1.0000 0.73082  0.87790  0.99889  Biso   1.000  O
  O57      1.0000 0.22648  0.37092  0.25298  Biso   1.000  O
  O58      1.0000 0.23192  0.37116  0.74954  Biso   1.000  O
  O59      1.0000 0.24615  0.85510  0.26134  Biso   1.000  O
  O60      1.0000 0.23005  0.86846  0.75238  Biso   1.000  O
  O61      1.0000 0.72718  0.36878  0.25093  Biso   1.000  O
  O62      1.0000 0.73096  0.36707  0.75019  Biso   1.000  O
  O63      1.0000 0.73614  0.86554  0.25035  Biso   1.000  O
  O64      1.0000 0.73065  0.86484  0.74867  Biso   1.000  O
