data_image0
_cell_length_a       10.1663
_cell_length_b       5.20746
_cell_length_c       10.5255
_cell_angle_alpha    89.7399
_cell_angle_beta     90.8055
_cell_angle_gamma    90.4749

_symmetry_space_group_name_H-M    "P 1"
_symmetry_int_tables_number       1

loop_
  _symmetry_equiv_pos_as_xyz
  'x, y, z'

loop_
  _atom_site_label
  _atom_site_occupancy
  _atom_site_fract_x
  _atom_site_fract_y
  _atom_site_fract_z
  _atom_site_thermal_displace_type
  _atom_site_B_iso_or_equiv
  _atom_site_type_symbol
  Cs1      1.0000 0.11466  0.01048  0.13482  Biso   1.000  Cs
  Zr1      1.0000 0.14021  0.04175  0.66889  Biso   1.000  Zr
  Zr2      1.0000 0.13778  0.45104  0.41814  Biso   1.000  Zr
  Zr3      1.0000 0.13944  0.46530  0.91048  Biso   1.000  Zr
  Zr4      1.0000 0.36442  0.52539  0.17556  Biso   1.000  Zr
  Zr5      1.0000 0.36005  0.53948  0.66653  Biso   1.000  Zr
  Zr6      1.0000 0.35708  0.95781  0.41659  Biso   1.000  Zr
  Zr7      1.0000 0.37126  0.94702  0.91624  Biso   1.000  Zr
  Zr8      1.0000 0.63933  0.03935  0.08328  Biso   1.000  Zr
  Zr9      1.0000 0.63465  0.04031  0.58143  Biso   1.000  Zr
  Zr10     1.0000 0.63789  0.46050  0.33360  Biso   1.000  Zr
  Zr11     1.0000 0.63980  0.45835  0.82716  Biso   1.000  Zr
  Zr12     1.0000 0.85106  0.53471  0.07835  Biso   1.000  Zr
  Zr13     1.0000 0.86446  0.54336  0.58194  Biso   1.000  Zr
  Zr14     1.0000 0.85592  0.96929  0.34482  Biso   1.000  Zr
  Zr15     1.0000 0.86124  0.96162  0.82854  Biso   1.000  Zr
  O1       1.0000 0.04110  0.43645  0.09072  Biso   1.000  O
  O2       1.0000 0.03746  0.35083  0.59578  Biso   1.000  O
  O3       1.0000 0.02594  0.15884  0.35489  Biso   1.000  O
  O4       1.0000 0.03698  0.15363  0.84195  Biso   1.000  O
  O5       1.0000 0.47550  0.83010  0.08474  Biso   1.000  O
  O6       1.0000 0.46597  0.82801  0.58192  Biso   1.000  O
  O7       1.0000 0.47321  0.67774  0.33167  Biso   1.000  O
  O8       1.0000 0.47200  0.66944  0.82700  Biso   1.000  O
  O9       1.0000 0.28212  0.24910  0.30083  Biso   1.000  O
  O10      1.0000 0.27776  0.24908  0.79281  Biso   1.000  O
  O11      1.0000 0.27059  0.21953  0.04007  Biso   1.000  O
  O12      1.0000 0.27404  0.24876  0.54444  Biso   1.000  O
  O13      1.0000 0.23271  0.72217  0.29727  Biso   1.000  O
  O14      1.0000 0.22569  0.74827  0.78799  Biso   1.000  O
  O15      1.0000 0.25958  0.69190  0.02476  Biso   1.000  O
  O16      1.0000 0.22280  0.75355  0.54267  Biso   1.000  O
  O17      1.0000 0.53578  0.32862  0.16871  Biso   1.000  O
  O18      1.0000 0.53171  0.32806  0.66700  Biso   1.000  O
  O19      1.0000 0.53325  0.16849  0.41761  Biso   1.000  O
  O20      1.0000 0.53628  0.17309  0.91872  Biso   1.000  O
  O21      1.0000 0.92994  0.87790  0.16220  Biso   1.000  O
  O22      1.0000 0.96375  0.84928  0.66247  Biso   1.000  O
  O23      1.0000 0.96181  0.65949  0.41349  Biso   1.000  O
  O24      1.0000 0.96491  0.66458  0.90945  Biso   1.000  O
  O25      1.0000 0.77852  0.24798  0.95805  Biso   1.000  O
  O26      1.0000 0.77235  0.25268  0.46267  Biso   1.000  O
  O27      1.0000 0.77452  0.26006  0.21175  Biso   1.000  O
  O28      1.0000 0.77463  0.25271  0.70851  Biso   1.000  O
  O29      1.0000 0.72486  0.75044  0.95591  Biso   1.000  O
  O30      1.0000 0.72273  0.75053  0.46135  Biso   1.000  O
  O31      1.0000 0.72582  0.75321  0.20935  Biso   1.000  O
  O32      1.0000 0.72641  0.74974  0.70688  Biso   1.000  O
