data_image0
_cell_length_a       10.2214
_cell_length_b       10.4599
_cell_length_c       5.3391
_cell_angle_alpha    89.1703
_cell_angle_beta     90.6179
_cell_angle_gamma    90.6053

_symmetry_space_group_name_H-M    "P 1"
_symmetry_int_tables_number       1

loop_
  _symmetry_equiv_pos_as_xyz
  'x, y, z'

loop_
  _atom_site_label
  _atom_site_occupancy
  _atom_site_fract_x
  _atom_site_fract_y
  _atom_site_fract_z
  _atom_site_thermal_displace_type
  _atom_site_B_iso_or_equiv
  _atom_site_type_symbol
  Zr1      1.0000 0.14235  0.02048  0.34640  Biso   1.000  Zr
  Zr2      1.0000 0.14121  0.22592  0.84948  Biso   1.000  Zr
  Zr3      1.0000 0.34290  0.27700  0.36901  Biso   1.000  Zr
  Zr4      1.0000 0.35688  0.48761  0.85245  Biso   1.000  Zr
  Zr5      1.0000 0.64393  0.00321  0.14484  Biso   1.000  Zr
  Zr6      1.0000 0.63902  0.20217  0.59653  Biso   1.000  Zr
  Zr7      1.0000 0.87781  0.27570  0.16163  Biso   1.000  Zr
  Zr8      1.0000 0.86652  0.48006  0.66838  Biso   1.000  Zr
  O1       1.0000 0.03576  0.15819  0.15913  Biso   1.000  O
  O2       1.0000 0.03267  0.08833  0.65718  Biso   1.000  O
  O3       1.0000 0.43584  0.45470  0.21300  Biso   1.000  O
  O4       1.0000 0.46571  0.33132  0.65209  Biso   1.000  O
  O5       1.0000 0.27095  0.12531  0.60101  Biso   1.000  O
  O6       1.0000 0.27892  0.12502  0.09665  Biso   1.000  O
  O7       1.0000 0.22046  0.37751  0.60704  Biso   1.000  O
  O8       1.0000 0.21753  0.37660  0.09878  Biso   1.000  O
  O9       1.0000 0.51894  0.10327  0.38393  Biso   1.000  O
  O10      1.0000 0.53188  0.07164  0.84422  Biso   1.000  O
  O11      1.0000 0.97524  0.41054  0.35492  Biso   1.000  O
  O12      1.0000 0.97700  0.33406  0.83948  Biso   1.000  O
  O13      1.0000 0.77378  0.12497  0.87743  Biso   1.000  O
  O14      1.0000 0.78194  0.11740  0.37542  Biso   1.000  O
  O15      1.0000 0.76273  0.40438  0.95995  Biso   1.000  O
  O16      1.0000 0.72939  0.37129  0.44199  Biso   1.000  O
  Zr9      1.0000 0.14092  0.52371  0.34548  Biso   1.000  Zr
  Zr10     1.0000 0.13749  0.73111  0.84222  Biso   1.000  Zr
  Zr11     1.0000 0.36187  0.77186  0.34638  Biso   1.000  Zr
  Zr12     1.0000 0.36180  0.97377  0.84672  Biso   1.000  Zr
  Zr13     1.0000 0.64054  0.53763  0.17213  Biso   1.000  Zr
  Zr14     1.0000 0.63994  0.73214  0.66087  Biso   1.000  Zr
  Zr15     1.0000 0.86800  0.77120  0.16030  Biso   1.000  Zr
  Zr16     1.0000 0.86772  0.97949  0.65384  Biso   1.000  Zr
  O17      1.0000 0.03090  0.66012  0.16024  Biso   1.000  O
  O18      1.0000 0.03316  0.59133  0.66065  Biso   1.000  O
  O19      1.0000 0.47335  0.89323  0.13937  Biso   1.000  O
  O20      1.0000 0.46877  0.83512  0.65784  Biso   1.000  O
  O21      1.0000 0.27354  0.62698  0.58987  Biso   1.000  O
  O22      1.0000 0.26988  0.63202  0.08322  Biso   1.000  O
  O23      1.0000 0.22774  0.87475  0.59353  Biso   1.000  O
  O24      1.0000 0.22557  0.87720  0.09683  Biso   1.000  O
  O25      1.0000 0.53715  0.67218  0.34360  Biso   1.000  O
  O26      1.0000 0.53512  0.58283  0.84217  Biso   1.000  O
  O27      1.0000 0.97454  0.91096  0.34313  Biso   1.000  O
  O28      1.0000 0.97255  0.84075  0.84603  Biso   1.000  O
  O29      1.0000 0.77210  0.63776  0.91665  Biso   1.000  O
  O30      1.0000 0.77778  0.62473  0.41844  Biso   1.000  O
  O31      1.0000 0.73196  0.87483  0.90542  Biso   1.000  O
  O32      1.0000 0.73278  0.86966  0.41044  Biso   1.000  O
  Cs1      1.0000 0.56417  0.27815  0.06423  Biso   1.000  Cs
