data_image0
_cell_length_a       10.2901
_cell_length_b       10.6092
_cell_length_c       5.24742
_cell_angle_alpha    95.9237
_cell_angle_beta     83.1112
_cell_angle_gamma    94.526

_symmetry_space_group_name_H-M    "P 1"
_symmetry_int_tables_number       1

loop_
  _symmetry_equiv_pos_as_xyz
  'x, y, z'

loop_
  _atom_site_label
  _atom_site_occupancy
  _atom_site_fract_x
  _atom_site_fract_y
  _atom_site_fract_z
  _atom_site_thermal_displace_type
  _atom_site_B_iso_or_equiv
  _atom_site_type_symbol
  Zr1      1.0000 0.15757  0.95610  0.32212  Biso   1.000  Zr
  Zr2      1.0000 0.17859  0.21561  0.89510  Biso   1.000  Zr
  Zr3      1.0000 0.41387  0.27348  0.23645  Biso   1.000  Zr
  Zr4      1.0000 0.34389  0.48161  0.74095  Biso   1.000  Zr
  O1       1.0000 0.98957  0.03823  0.39568  Biso   1.000  O
  O2       1.0000 0.98519  0.13908  0.94007  Biso   1.000  O
  O3       1.0000 0.44785  0.46093  0.38405  Biso   1.000  O
  O4       1.0000 0.50816  0.37475  0.88557  Biso   1.000  O
  O5       1.0000 0.23853  0.06207  0.64464  Biso   1.000  O
  O6       1.0000 0.25165  0.13105  0.16623  Biso   1.000  O
  O7       1.0000 0.26192  0.38284  0.08694  Biso   1.000  O
  O8       1.0000 0.29689  0.29975  0.59876  Biso   1.000  O
  Zr5      1.0000 0.09768  0.51924  0.20087  Biso   1.000  Zr
  Zr6      1.0000 0.13805  0.73312  0.75561  Biso   1.000  Zr
  Zr7      1.0000 0.40044  0.75985  0.14573  Biso   1.000  Zr
  Zr8      1.0000 0.40286  0.98687  0.70856  Biso   1.000  Zr
  O9       1.0000 0.00053  0.65765  0.45750  Biso   1.000  O
  O10      1.0000 0.98061  0.60721  0.94374  Biso   1.000  O
  O11      1.0000 0.53881  0.90548  0.43315  Biso   1.000  O
  O12      1.0000 0.53083  0.87766  0.92163  Biso   1.000  O
  O13      1.0000 0.19994  0.55152  0.54634  Biso   1.000  O
  O14      1.0000 0.24336  0.63350  0.01289  Biso   1.000  O
  O15      1.0000 0.28331  0.87956  0.97570  Biso   1.000  O
  O16      1.0000 0.28139  0.82178  0.47029  Biso   1.000  O
  Zr9      1.0000 0.63040  0.02964  0.16000  Biso   1.000  Zr
  Zr10     1.0000 0.62914  0.24372  0.65690  Biso   1.000  Zr
  Zr11     1.0000 0.84182  0.28107  0.08499  Biso   1.000  Zr
  Zr12     1.0000 0.85753  0.54974  0.65734  Biso   1.000  Zr
  O17      1.0000 0.49419  0.13560  0.44177  Biso   1.000  O
  O18      1.0000 0.50376  0.12667  0.93959  Biso   1.000  O
  O19      1.0000 0.89960  0.42953  0.34578  Biso   1.000  O
  O20      1.0000 0.03745  0.36394  0.96057  Biso   1.000  O
  O21      1.0000 0.75838  0.15378  0.35387  Biso   1.000  O
  O22      1.0000 0.74418  0.13185  0.84760  Biso   1.000  O
  O23      1.0000 0.76730  0.39059  0.83445  Biso   1.000  O
  O24      1.0000 0.64425  0.34182  0.29293  Biso   1.000  O
  Zr13     1.0000 0.60520  0.51344  0.13897  Biso   1.000  Zr
  Zr14     1.0000 0.61751  0.74866  0.63446  Biso   1.000  Zr
  Zr15     1.0000 0.86272  0.75493  0.18600  Biso   1.000  Zr
  Zr16     1.0000 0.89752  0.99032  0.72925  Biso   1.000  Zr
  O25      1.0000 0.52579  0.67721  0.33173  Biso   1.000  O
  O26      1.0000 0.48858  0.62216  0.85426  Biso   1.000  O
  O27      1.0000 0.04975  0.88099  0.66500  Biso   1.000  O
  O28      1.0000 0.04750  0.82253  0.11388  Biso   1.000  O
  O29      1.0000 0.74042  0.61077  0.39972  Biso   1.000  O
  O30      1.0000 0.73315  0.65845  0.91365  Biso   1.000  O
  O31      1.0000 0.78636  0.90890  0.04965  Biso   1.000  O
  O32      1.0000 0.78777  0.84705  0.52866  Biso   1.000  O
  Cs1      1.0000 0.04708  0.26854  0.47128  Biso   1.000  Cs
