data_image0
_cell_length_a       5.08544
_cell_length_b       10.292
_cell_length_c       10.5013
_cell_angle_alpha    90.4295
_cell_angle_beta     80.6336
_cell_angle_gamma    89.5478

_symmetry_space_group_name_H-M    "P 1"
_symmetry_int_tables_number       1

loop_
  _symmetry_equiv_pos_as_xyz
  'x, y, z'

loop_
  _atom_site_label
  _atom_site_occupancy
  _atom_site_fract_x
  _atom_site_fract_y
  _atom_site_fract_z
  _atom_site_thermal_displace_type
  _atom_site_B_iso_or_equiv
  _atom_site_type_symbol
  Cu1      1.0000 0.24457  0.01038  0.16813  Biso   1.000  Cu
  Zr1      1.0000 0.27363  0.02105  0.64347  Biso   1.000  Zr
  Zr2      1.0000 0.27497  0.52161  0.14451  Biso   1.000  Zr
  Zr3      1.0000 0.28071  0.52045  0.64750  Biso   1.000  Zr
  Zr4      1.0000 0.27994  0.22880  0.38845  Biso   1.000  Zr
  Zr5      1.0000 0.28544  0.22704  0.89678  Biso   1.000  Zr
  Zr6      1.0000 0.27499  0.72520  0.39785  Biso   1.000  Zr
  Zr7      1.0000 0.27173  0.73374  0.89816  Biso   1.000  Zr
  Zr8      1.0000 0.72947  0.26359  0.10199  Biso   1.000  Zr
  Zr9      1.0000 0.72280  0.27122  0.60293  Biso   1.000  Zr
  Zr10     1.0000 0.71547  0.77503  0.10504  Biso   1.000  Zr
  Zr11     1.0000 0.72118  0.77076  0.60851  Biso   1.000  Zr
  Zr12     1.0000 0.72332  0.47770  0.35304  Biso   1.000  Zr
  Zr13     1.0000 0.72669  0.47924  0.85734  Biso   1.000  Zr
  Zr14     1.0000 0.71214  0.97435  0.35454  Biso   1.000  Zr
  Zr15     1.0000 0.72083  0.98551  0.85673  Biso   1.000  Zr
  O1       1.0000 0.08492  0.16208  0.07855  Biso   1.000  O
  O2       1.0000 0.06419  0.16014  0.56728  Biso   1.000  O
  O3       1.0000 0.06696  0.67023  0.08039  Biso   1.000  O
  O4       1.0000 0.06786  0.66508  0.58031  Biso   1.000  O
  O5       1.0000 0.06055  0.08251  0.32016  Biso   1.000  O
  O6       1.0000 0.07263  0.08595  0.82335  Biso   1.000  O
  O7       1.0000 0.07121  0.57939  0.33063  Biso   1.000  O
  O8       1.0000 0.07043  0.58651  0.82976  Biso   1.000  O
  O9       1.0000 0.93442  0.41640  0.17181  Biso   1.000  O
  O10      1.0000 0.93762  0.41292  0.67425  Biso   1.000  O
  O11      1.0000 0.93472  0.91908  0.17279  Biso   1.000  O
  O12      1.0000 0.93027  0.91582  0.67322  Biso   1.000  O
  O13      1.0000 0.93151  0.33120  0.41993  Biso   1.000  O
  O14      1.0000 0.94696  0.33922  0.92752  Biso   1.000  O
  O15      1.0000 0.92966  0.83252  0.42302  Biso   1.000  O
  O16      1.0000 0.91673  0.83400  0.92360  Biso   1.000  O
  O17      1.0000 0.52419  0.11518  0.22910  Biso   1.000  O
  O18      1.0000 0.55107  0.12764  0.73176  Biso   1.000  O
  O19      1.0000 0.55138  0.62746  0.24093  Biso   1.000  O
  O20      1.0000 0.55190  0.62919  0.74279  Biso   1.000  O
  O21      1.0000 0.55223  0.12183  0.48202  Biso   1.000  O
  O22      1.0000 0.59007  0.13963  0.97147  Biso   1.000  O
  O23      1.0000 0.55252  0.61941  0.49239  Biso   1.000  O
  O24      1.0000 0.55003  0.62870  0.99147  Biso   1.000  O
  O25      1.0000 0.45768  0.38385  0.00979  Biso   1.000  O
  O26      1.0000 0.44682  0.37659  0.50833  Biso   1.000  O
  O27      1.0000 0.43868  0.89788  0.02126  Biso   1.000  O
  O28      1.0000 0.44652  0.87653  0.51198  Biso   1.000  O
  O29      1.0000 0.45714  0.36648  0.25777  Biso   1.000  O
  O30      1.0000 0.45563  0.37185  0.76014  Biso   1.000  O
  O31      1.0000 0.44942  0.86632  0.26314  Biso   1.000  O
  O32      1.0000 0.44619  0.87276  0.76410  Biso   1.000  O
