data_image0
_cell_length_a       10.0593
_cell_length_b       10.4518
_cell_length_c       10.0968
_cell_angle_alpha    89.7564
_cell_angle_beta     90.0237
_cell_angle_gamma    90

_symmetry_space_group_name_H-M    "P 1"
_symmetry_int_tables_number       1

loop_
  _symmetry_equiv_pos_as_xyz
  'x, y, z'

loop_
  _atom_site_label
  _atom_site_occupancy
  _atom_site_fract_x
  _atom_site_fract_y
  _atom_site_fract_z
  _atom_site_thermal_displace_type
  _atom_site_B_iso_or_equiv
  _atom_site_type_symbol
  Zr1      1.0000 0.13417  0.01896  0.12032  Biso   1.000  Zr
  Zr2      1.0000 0.13437  0.23191  0.38426  Biso   1.000  Zr
  Zr3      1.0000 0.36632  0.26491  0.12353  Biso   1.000  Zr
  Zr4      1.0000 0.36718  0.48494  0.37596  Biso   1.000  Zr
  O1       1.0000 0.01058  0.17018  0.21947  Biso   1.000  O
  O2       1.0000 0.03602  0.06525  0.45206  Biso   1.000  O
  O3       1.0000 0.46236  0.43434  0.19474  Biso   1.000  O
  O4       1.0000 0.46453  0.31744  0.44571  Biso   1.000  O
  O5       1.0000 0.26509  0.11876  0.25020  Biso   1.000  O
  O6       1.0000 0.27156  0.13228  0.49998  Biso   1.000  O
  O7       1.0000 0.23221  0.38305  0.50041  Biso   1.000  O
  O8       1.0000 0.22739  0.37049  0.25138  Biso   1.000  O
  Zr5      1.0000 0.13464  0.01305  0.62711  Biso   1.000  Zr
  Zr6      1.0000 0.13864  0.22819  0.86899  Biso   1.000  Zr
  Zr7      1.0000 0.36834  0.26610  0.62596  Biso   1.000  Zr
  Zr8      1.0000 0.36829  0.48474  0.87435  Biso   1.000  Zr
  O9       1.0000 0.03565  0.18081  0.69338  Biso   1.000  O
  O10      1.0000 0.03800  0.06278  0.94159  Biso   1.000  O
  O11      1.0000 0.46766  0.43292  0.69564  Biso   1.000  O
  O12      1.0000 0.46565  0.31601  0.94327  Biso   1.000  O
  O13      1.0000 0.27188  0.11479  0.74581  Biso   1.000  O
  O14      1.0000 0.28463  0.12597  0.99163  Biso   1.000  O
  O15      1.0000 0.23149  0.38666  0.99953  Biso   1.000  O
  O16      1.0000 0.23378  0.36655  0.74868  Biso   1.000  O
  Zr9      1.0000 0.13577  0.53029  0.12672  Biso   1.000  Zr
  Zr10     1.0000 0.13529  0.73704  0.37811  Biso   1.000  Zr
  Zr11     1.0000 0.36639  0.76801  0.12636  Biso   1.000  Zr
  Zr12     1.0000 0.36505  0.98505  0.37501  Biso   1.000  Zr
  O17      1.0000 0.03387  0.68486  0.19935  Biso   1.000  O
  O18      1.0000 0.03589  0.56742  0.44512  Biso   1.000  O
  O19      1.0000 0.46302  0.93469  0.19495  Biso   1.000  O
  O20      1.0000 0.46578  0.81673  0.44377  Biso   1.000  O
  O21      1.0000 0.27220  0.62201  0.25074  Biso   1.000  O
  O22      1.0000 0.27010  0.63296  0.49956  Biso   1.000  O
  O23      1.0000 0.23232  0.88311  0.49942  Biso   1.000  O
  O24      1.0000 0.23045  0.86860  0.24944  Biso   1.000  O
  Zr13     1.0000 0.13431  0.51498  0.62615  Biso   1.000  Zr
  Zr14     1.0000 0.13367  0.73560  0.87377  Biso   1.000  Zr
  Zr15     1.0000 0.36927  0.76453  0.62449  Biso   1.000  Zr
  Zr16     1.0000 0.36876  0.98072  0.87423  Biso   1.000  Zr
  O25      1.0000 0.03658  0.68284  0.69348  Biso   1.000  O
  O26      1.0000 0.03536  0.56891  0.94718  Biso   1.000  O
  O27      1.0000 0.46798  0.93154  0.69295  Biso   1.000  O
  O28      1.0000 0.46826  0.81624  0.94743  Biso   1.000  O
  O29      1.0000 0.26983  0.61576  0.74908  Biso   1.000  O
  O30      1.0000 0.27021  0.63542  0.99898  Biso   1.000  O
  O31      1.0000 0.23066  0.88079  0.99874  Biso   1.000  O
  O32      1.0000 0.23421  0.86481  0.74826  Biso   1.000  O
  Zr17     1.0000 0.63058  0.01328  0.12251  Biso   1.000  Zr
  Zr18     1.0000 0.63081  0.23227  0.37734  Biso   1.000  Zr
  Zr19     1.0000 0.84661  0.26335  0.12741  Biso   1.000  Zr
  Zr20     1.0000 0.86818  0.48440  0.37534  Biso   1.000  Zr
  O33      1.0000 0.53288  0.18241  0.19494  Biso   1.000  O
  O34      1.0000 0.53419  0.06616  0.44566  Biso   1.000  O
  O35      1.0000 0.96421  0.43086  0.19176  Biso   1.000  O
  O36      1.0000 0.96766  0.31970  0.44964  Biso   1.000  O
  O37      1.0000 0.75945  0.11399  0.24913  Biso   1.000  O
  O38      1.0000 0.77069  0.13455  0.49728  Biso   1.000  O
  O39      1.0000 0.73225  0.38357  0.49932  Biso   1.000  O
  O40      1.0000 0.72582  0.36835  0.25161  Biso   1.000  O
  Zr21     1.0000 0.63631  0.01440  0.62391  Biso   1.000  Zr
  Zr22     1.0000 0.63259  0.23265  0.87242  Biso   1.000  Zr
  Zr23     1.0000 0.86666  0.26577  0.62607  Biso   1.000  Zr
  Zr24     1.0000 0.86794  0.48181  0.87811  Biso   1.000  Zr
  O41      1.0000 0.53780  0.18305  0.69203  Biso   1.000  O
  O42      1.0000 0.54004  0.06388  0.94036  Biso   1.000  O
  O43      1.0000 0.96752  0.43183  0.69944  Biso   1.000  O
  O44      1.0000 0.96425  0.31377  0.94730  Biso   1.000  O
  O45      1.0000 0.77132  0.11555  0.74760  Biso   1.000  O
  O46      1.0000 0.76975  0.13107  0.99786  Biso   1.000  O
  O47      1.0000 0.72658  0.38172  0.00017  Biso   1.000  O
  O48      1.0000 0.73240  0.36651  0.74958  Biso   1.000  O
  Zr25     1.0000 0.63158  0.51750  0.12653  Biso   1.000  Zr
  Zr26     1.0000 0.63512  0.73487  0.37549  Biso   1.000  Zr
  Zr27     1.0000 0.86466  0.76592  0.12513  Biso   1.000  Zr
  Zr28     1.0000 0.87025  0.98670  0.37084  Biso   1.000  Zr
  O49      1.0000 0.53594  0.68432  0.19541  Biso   1.000  O
  O50      1.0000 0.53574  0.56685  0.44550  Biso   1.000  O
  O51      1.0000 0.96517  0.93124  0.19273  Biso   1.000  O
  O52      1.0000 0.96629  0.81829  0.44547  Biso   1.000  O
  O53      1.0000 0.76978  0.61640  0.24923  Biso   1.000  O
  O54      1.0000 0.77049  0.63339  0.49876  Biso   1.000  O
  O55      1.0000 0.73353  0.88472  0.49685  Biso   1.000  O
  O56      1.0000 0.73058  0.86614  0.24772  Biso   1.000  O
  Zr29     1.0000 0.63658  0.51537  0.62577  Biso   1.000  Zr
  Zr30     1.0000 0.63587  0.73315  0.87526  Biso   1.000  Zr
  Zr31     1.0000 0.86743  0.76551  0.62469  Biso   1.000  Zr
  Zr32     1.0000 0.86695  0.98252  0.87478  Biso   1.000  Zr
  O57      1.0000 0.53682  0.68213  0.69563  Biso   1.000  O
  O58      1.0000 0.53527  0.56695  0.94559  Biso   1.000  O
  O59      1.0000 0.96755  0.93004  0.69794  Biso   1.000  O
  O60      1.0000 0.96475  0.81471  0.94527  Biso   1.000  O
  O61      1.0000 0.77164  0.61568  0.74946  Biso   1.000  O
  O62      1.0000 0.76931  0.63139  0.99942  Biso   1.000  O
  O63      1.0000 0.73165  0.88103  0.99843  Biso   1.000  O
  O64      1.0000 0.73224  0.86571  0.74795  Biso   1.000  O
  Cu1      1.0000 0.09807  0.28820  0.10944  Biso   1.000  Cu
