data_image0
_cell_length_a       10.144
_cell_length_b       10.3049
_cell_length_c       5.10789
_cell_angle_alpha    89.9906
_cell_angle_beta     86.4976
_cell_angle_gamma    91.6144

_symmetry_space_group_name_H-M    "P 1"
_symmetry_int_tables_number       1

loop_
  _symmetry_equiv_pos_as_xyz
  'x, y, z'

loop_
  _atom_site_label
  _atom_site_occupancy
  _atom_site_fract_x
  _atom_site_fract_y
  _atom_site_fract_z
  _atom_site_thermal_displace_type
  _atom_site_B_iso_or_equiv
  _atom_site_type_symbol
  Zr1      1.0000 0.13257  0.95990  0.26102  Biso   1.000  Zr
  Zr2      1.0000 0.12312  0.26410  0.71692  Biso   1.000  Zr
  Zr3      1.0000 0.37266  0.24990  0.29351  Biso   1.000  Zr
  Zr4      1.0000 0.38679  0.01181  0.79158  Biso   1.000  Zr
  O1       1.0000 0.98967  0.14628  0.95699  Biso   1.000  O
  O2       1.0000 0.03245  0.09416  0.48226  Biso   1.000  O
  O3       1.0000 0.01803  0.33157  0.40696  Biso   1.000  O
  O4       1.0000 0.99094  0.40590  0.93246  Biso   1.000  O
  O5       1.0000 0.29241  0.16238  0.64325  Biso   1.000  O
  O6       1.0000 0.26832  0.09301  0.11646  Biso   1.000  O
  O7       1.0000 0.23320  0.33720  0.03428  Biso   1.000  O
  O8       1.0000 0.25365  0.41431  0.51219  Biso   1.000  O
  Zr5      1.0000 0.12662  0.49839  0.24306  Biso   1.000  Zr
  Zr6      1.0000 0.13517  0.75015  0.75586  Biso   1.000  Zr
  Zr7      1.0000 0.38751  0.76251  0.28746  Biso   1.000  Zr
  Zr8      1.0000 0.38260  0.49170  0.78350  Biso   1.000  Zr
  O9       1.0000 0.97465  0.65663  0.93990  Biso   1.000  O
  O10      1.0000 0.96677  0.58134  0.42821  Biso   1.000  O
  O11      1.0000 0.99883  0.83691  0.50136  Biso   1.000  O
  O12      1.0000 0.01090  0.89409  0.98698  Biso   1.000  O
  O13      1.0000 0.21756  0.66253  0.41964  Biso   1.000  O
  O14      1.0000 0.22156  0.58922  0.92326  Biso   1.000  O
  O15      1.0000 0.26335  0.84393  0.00720  Biso   1.000  O
  O16      1.0000 0.25991  0.89903  0.53072  Biso   1.000  O
  Zr9      1.0000 0.64286  0.00414  0.25609  Biso   1.000  Zr
  Zr10     1.0000 0.63817  0.23835  0.72451  Biso   1.000  Zr
  Zr11     1.0000 0.86836  0.26434  0.18326  Biso   1.000  Zr
  Zr12     1.0000 0.89165  0.99745  0.73598  Biso   1.000  Zr
  O17      1.0000 0.50606  0.15465  0.00235  Biso   1.000  O
  O18      1.0000 0.52024  0.10730  0.50336  Biso   1.000  O
  O19      1.0000 0.50449  0.35952  0.55871  Biso   1.000  O
  O20      1.0000 0.47715  0.40733  0.07515  Biso   1.000  O
  O21      1.0000 0.77346  0.14404  0.47259  Biso   1.000  O
  O22      1.0000 0.75046  0.10888  0.96845  Biso   1.000  O
  O23      1.0000 0.73393  0.36693  0.97935  Biso   1.000  O
  O24      1.0000 0.75420  0.39409  0.47650  Biso   1.000  O
  Zr13     1.0000 0.61598  0.49769  0.28284  Biso   1.000  Zr
  Zr14     1.0000 0.62281  0.76145  0.77803  Biso   1.000  Zr
  Zr15     1.0000 0.86851  0.74387  0.24850  Biso   1.000  Zr
  Zr16     1.0000 0.85456  0.51526  0.75507  Biso   1.000  Zr
  O25      1.0000 0.48190  0.65243  0.99617  Biso   1.000  O
  O26      1.0000 0.47951  0.60992  0.50122  Biso   1.000  O
  O27      1.0000 0.50427  0.86217  0.54251  Biso   1.000  O
  O28      1.0000 0.50972  0.90111  0.04254  Biso   1.000  O
  O29      1.0000 0.73279  0.64703  0.52280  Biso   1.000  O
  O30      1.0000 0.73254  0.61427  0.02574  Biso   1.000  O
  O31      1.0000 0.76012  0.86056  0.99000  Biso   1.000  O
  O32      1.0000 0.75782  0.89646  0.48921  Biso   1.000  O
  Fe1      1.0000 0.12501  0.20486  0.22297  Biso   1.000  Fe
