data_image0
_cell_length_a       10.0888
_cell_length_b       10.0887
_cell_length_c       10.089
_cell_angle_alpha    90
_cell_angle_beta     89.9987
_cell_angle_gamma    89.9994

_symmetry_space_group_name_H-M    "P 1"
_symmetry_int_tables_number       1

loop_
  _symmetry_equiv_pos_as_xyz
  'x, y, z'

loop_
  _atom_site_label
  _atom_site_occupancy
  _atom_site_fract_x
  _atom_site_fract_y
  _atom_site_fract_z
  _atom_site_thermal_displace_type
  _atom_site_B_iso_or_equiv
  _atom_site_type_symbol
  Fe1      1.0000 0.12501  0.99991  0.12504  Biso   1.000  Fe
  Zr1      1.0000 0.12503  0.99993  0.62504  Biso   1.000  Zr
  Zr2      1.0000 0.12503  0.49993  0.12504  Biso   1.000  Zr
  Zr3      1.0000 0.12504  0.49993  0.62504  Biso   1.000  Zr
  Zr4      1.0000 0.62504  0.99993  0.12504  Biso   1.000  Zr
  Zr5      1.0000 0.62503  0.99995  0.62504  Biso   1.000  Zr
  Zr6      1.0000 0.62504  0.49994  0.12504  Biso   1.000  Zr
  Zr7      1.0000 0.62503  0.49993  0.62504  Biso   1.000  Zr
  Zr8      1.0000 0.12863  0.24997  0.37508  Biso   1.000  Zr
  Zr9      1.0000 0.12145  0.24996  0.87501  Biso   1.000  Zr
  Zr10     1.0000 0.12145  0.74991  0.37507  Biso   1.000  Zr
  Zr11     1.0000 0.12862  0.74990  0.87500  Biso   1.000  Zr
  Zr12     1.0000 0.62677  0.24992  0.37502  Biso   1.000  Zr
  Zr13     1.0000 0.62330  0.24992  0.87506  Biso   1.000  Zr
  Zr14     1.0000 0.62331  0.74996  0.37502  Biso   1.000  Zr
  Zr15     1.0000 0.62676  0.74995  0.87505  Biso   1.000  Zr
  Zr16     1.0000 0.37507  0.24996  0.12864  Biso   1.000  Zr
  Zr17     1.0000 0.37503  0.24993  0.62677  Biso   1.000  Zr
  Zr18     1.0000 0.37507  0.74991  0.12145  Biso   1.000  Zr
  Zr19     1.0000 0.37503  0.74995  0.62332  Biso   1.000  Zr
  Zr20     1.0000 0.87501  0.24997  0.12145  Biso   1.000  Zr
  Zr21     1.0000 0.87505  0.24993  0.62331  Biso   1.000  Zr
  Zr22     1.0000 0.87501  0.74991  0.12862  Biso   1.000  Zr
  Zr23     1.0000 0.87504  0.74995  0.62676  Biso   1.000  Zr
  Zr24     1.0000 0.37508  0.00353  0.37508  Biso   1.000  Zr
  Zr25     1.0000 0.37506  0.99635  0.87502  Biso   1.000  Zr
  Zr26     1.0000 0.37502  0.50167  0.37502  Biso   1.000  Zr
  Zr27     1.0000 0.37501  0.49820  0.87507  Biso   1.000  Zr
  Zr28     1.0000 0.87501  0.99635  0.37507  Biso   1.000  Zr
  Zr29     1.0000 0.87499  0.00352  0.87499  Biso   1.000  Zr
  Zr30     1.0000 0.87506  0.49821  0.37501  Biso   1.000  Zr
  Zr31     1.0000 0.87506  0.50167  0.87506  Biso   1.000  Zr
  O1       1.0000 0.97552  0.14943  0.97550  Biso   1.000  O
  O2       1.0000 0.98862  0.13635  0.47913  Biso   1.000  O
  O3       1.0000 0.98860  0.64582  0.98857  Biso   1.000  O
  O4       1.0000 0.98858  0.63574  0.48919  Biso   1.000  O
  O5       1.0000 0.47914  0.13637  0.98859  Biso   1.000  O
  O6       1.0000 0.48924  0.13638  0.48920  Biso   1.000  O
  O7       1.0000 0.48922  0.63575  0.98854  Biso   1.000  O
  O8       1.0000 0.48912  0.63585  0.48909  Biso   1.000  O
  O9       1.0000 0.02406  0.10094  0.22600  Biso   1.000  O
  O10      1.0000 0.00769  0.11728  0.73384  Biso   1.000  O
  O11      1.0000 0.00770  0.60879  0.24233  Biso   1.000  O
  O12      1.0000 0.00857  0.61607  0.74112  Biso   1.000  O
  O13      1.0000 0.51620  0.11727  0.24234  Biso   1.000  O
  O14      1.0000 0.50890  0.11641  0.74113  Biso   1.000  O
  O15      1.0000 0.50891  0.61607  0.24146  Biso   1.000  O
  O16      1.0000 0.50863  0.61635  0.74139  Biso   1.000  O
  O17      1.0000 0.98860  0.35405  0.26150  Biso   1.000  O
  O18      1.0000 0.98858  0.36413  0.76089  Biso   1.000  O
  O19      1.0000 0.97554  0.85044  0.27454  Biso   1.000  O
  O20      1.0000 0.98861  0.86352  0.77094  Biso   1.000  O
  O21      1.0000 0.48922  0.36412  0.26154  Biso   1.000  O
  O22      1.0000 0.48912  0.36403  0.76100  Biso   1.000  O
  O23      1.0000 0.47915  0.86350  0.26150  Biso   1.000  O
  O24      1.0000 0.48923  0.86349  0.76089  Biso   1.000  O
  O25      1.0000 0.00770  0.39108  0.00775  Biso   1.000  O
  O26      1.0000 0.00857  0.38379  0.50896  Biso   1.000  O
  O27      1.0000 0.02404  0.89892  0.02406  Biso   1.000  O
  O28      1.0000 0.00770  0.88259  0.51622  Biso   1.000  O
  O29      1.0000 0.50891  0.38380  0.00862  Biso   1.000  O
  O30      1.0000 0.50864  0.38352  0.50869  Biso   1.000  O
  O31      1.0000 0.51619  0.88259  0.00775  Biso   1.000  O
  O32      1.0000 0.50890  0.88346  0.50896  Biso   1.000  O
  O33      1.0000 0.27457  0.14947  0.27460  Biso   1.000  O
  O34      1.0000 0.26145  0.13635  0.77096  Biso   1.000  O
  O35      1.0000 0.26147  0.64583  0.26150  Biso   1.000  O
  O36      1.0000 0.26149  0.63573  0.76089  Biso   1.000  O
  O37      1.0000 0.77093  0.13637  0.26150  Biso   1.000  O
  O38      1.0000 0.76084  0.13639  0.76088  Biso   1.000  O
  O39      1.0000 0.76086  0.63575  0.26154  Biso   1.000  O
  O40      1.0000 0.76095  0.63585  0.76100  Biso   1.000  O
  O41      1.0000 0.22602  0.10092  0.02410  Biso   1.000  O
  O42      1.0000 0.24238  0.11729  0.51624  Biso   1.000  O
  O43      1.0000 0.24237  0.60878  0.00774  Biso   1.000  O
  O44      1.0000 0.24150  0.61608  0.50895  Biso   1.000  O
  O45      1.0000 0.73387  0.11728  0.00774  Biso   1.000  O
  O46      1.0000 0.74117  0.11641  0.50895  Biso   1.000  O
  O47      1.0000 0.74116  0.61608  0.00862  Biso   1.000  O
  O48      1.0000 0.74144  0.61635  0.50869  Biso   1.000  O
  O49      1.0000 0.26147  0.35404  0.98858  Biso   1.000  O
  O50      1.0000 0.26150  0.36414  0.48920  Biso   1.000  O
  O51      1.0000 0.27455  0.85041  0.97550  Biso   1.000  O
  O52      1.0000 0.26146  0.86352  0.47913  Biso   1.000  O
  O53      1.0000 0.76085  0.36413  0.98854  Biso   1.000  O
  O54      1.0000 0.76096  0.36403  0.48908  Biso   1.000  O
  O55      1.0000 0.77092  0.86351  0.98858  Biso   1.000  O
  O56      1.0000 0.76084  0.86349  0.48919  Biso   1.000  O
  O57      1.0000 0.24237  0.39110  0.24234  Biso   1.000  O
  O58      1.0000 0.24150  0.38379  0.74113  Biso   1.000  O
  O59      1.0000 0.22604  0.89895  0.22600  Biso   1.000  O
  O60      1.0000 0.24237  0.88259  0.73385  Biso   1.000  O
  O61      1.0000 0.74116  0.38380  0.24146  Biso   1.000  O
  O62      1.0000 0.74144  0.38353  0.74139  Biso   1.000  O
  O63      1.0000 0.73389  0.88259  0.24234  Biso   1.000  O
  O64      1.0000 0.74117  0.88346  0.74113  Biso   1.000  O
