data_image0
_cell_length_a       10.0971
_cell_length_b       5.02632
_cell_length_c       10.0973
_cell_angle_alpha    89.9965
_cell_angle_beta     89.9988
_cell_angle_gamma    89.9965

_symmetry_space_group_name_H-M    "P 1"
_symmetry_int_tables_number       1

loop_
  _symmetry_equiv_pos_as_xyz
  'x, y, z'

loop_
  _atom_site_label
  _atom_site_occupancy
  _atom_site_fract_x
  _atom_site_fract_y
  _atom_site_fract_z
  _atom_site_thermal_displace_type
  _atom_site_B_iso_or_equiv
  _atom_site_type_symbol
  Fe1      1.0000 0.12507  0.00095  0.12507  Biso   1.000  Fe
  Zr1      1.0000 0.12511  0.00096  0.62511  Biso   1.000  Zr
  Zr2      1.0000 0.62511  0.00096  0.12511  Biso   1.000  Zr
  Zr3      1.0000 0.62511  0.00098  0.62511  Biso   1.000  Zr
  Zr4      1.0000 0.12512  0.50100  0.37555  Biso   1.000  Zr
  Zr5      1.0000 0.12511  0.50095  0.87467  Biso   1.000  Zr
  Zr6      1.0000 0.62512  0.50099  0.37596  Biso   1.000  Zr
  Zr7      1.0000 0.62511  0.50096  0.87425  Biso   1.000  Zr
  Zr8      1.0000 0.37554  0.50100  0.12512  Biso   1.000  Zr
  Zr9      1.0000 0.37597  0.50099  0.62512  Biso   1.000  Zr
  Zr10     1.0000 0.87468  0.50095  0.12511  Biso   1.000  Zr
  Zr11     1.0000 0.87424  0.50096  0.62511  Biso   1.000  Zr
  Zr12     1.0000 0.37386  0.01241  0.37386  Biso   1.000  Zr
  Zr13     1.0000 0.37385  0.98958  0.87638  Biso   1.000  Zr
  Zr14     1.0000 0.87639  0.98958  0.37385  Biso   1.000  Zr
  Zr15     1.0000 0.87638  0.01236  0.87637  Biso   1.000  Zr
  O1       1.0000 0.97462  0.31222  0.97461  Biso   1.000  O
  O2       1.0000 0.98849  0.26173  0.47926  Biso   1.000  O
  O3       1.0000 0.47927  0.26175  0.98847  Biso   1.000  O
  O4       1.0000 0.48875  0.26074  0.48873  Biso   1.000  O
  O5       1.0000 0.02468  0.20082  0.22555  Biso   1.000  O
  O6       1.0000 0.00986  0.24739  0.73234  Biso   1.000  O
  O7       1.0000 0.51789  0.24741  0.24034  Biso   1.000  O
  O8       1.0000 0.51099  0.24805  0.73922  Biso   1.000  O
  O9       1.0000 0.97460  0.68964  0.27562  Biso   1.000  O
  O10      1.0000 0.98848  0.74021  0.77095  Biso   1.000  O
  O11      1.0000 0.47928  0.74025  0.26174  Biso   1.000  O
  O12      1.0000 0.48873  0.74123  0.76150  Biso   1.000  O
  O13      1.0000 0.02466  0.80104  0.02467  Biso   1.000  O
  O14      1.0000 0.00986  0.75456  0.51788  Biso   1.000  O
  O15      1.0000 0.51787  0.75457  0.00987  Biso   1.000  O
  O16      1.0000 0.51098  0.75392  0.51100  Biso   1.000  O
  O17      1.0000 0.27565  0.31242  0.27566  Biso   1.000  O
  O18      1.0000 0.26173  0.26171  0.77096  Biso   1.000  O
  O19      1.0000 0.77095  0.26173  0.26175  Biso   1.000  O
  O20      1.0000 0.76148  0.26069  0.76150  Biso   1.000  O
  O21      1.0000 0.22556  0.20082  0.02470  Biso   1.000  O
  O22      1.0000 0.24036  0.24742  0.51790  Biso   1.000  O
  O23      1.0000 0.73235  0.24739  0.00988  Biso   1.000  O
  O24      1.0000 0.73924  0.24805  0.51101  Biso   1.000  O
  O25      1.0000 0.27561  0.68964  0.97459  Biso   1.000  O
  O26      1.0000 0.26172  0.74027  0.47927  Biso   1.000  O
  O27      1.0000 0.77094  0.74019  0.98846  Biso   1.000  O
  O28      1.0000 0.76148  0.74123  0.48871  Biso   1.000  O
  O29      1.0000 0.22554  0.80120  0.22553  Biso   1.000  O
  O30      1.0000 0.24035  0.75454  0.73233  Biso   1.000  O
  O31      1.0000 0.73235  0.75454  0.24033  Biso   1.000  O
  O32      1.0000 0.73923  0.75386  0.73921  Biso   1.000  O
