data_image0
_cell_length_a       10.0916
_cell_length_b       10.2842
_cell_length_c       5.27137
_cell_angle_alpha    89.8699
_cell_angle_beta     91.6366
_cell_angle_gamma    90.0764

_symmetry_space_group_name_H-M    "P 1"
_symmetry_int_tables_number       1

loop_
  _symmetry_equiv_pos_as_xyz
  'x, y, z'

loop_
  _atom_site_label
  _atom_site_occupancy
  _atom_site_fract_x
  _atom_site_fract_y
  _atom_site_fract_z
  _atom_site_thermal_displace_type
  _atom_site_B_iso_or_equiv
  _atom_site_type_symbol
  Hf1      1.0000 0.13983  0.01809  0.34951  Biso   1.000  Hf
  Hf2      1.0000 0.13747  0.22619  0.85684  Biso   1.000  Hf
  Hf3      1.0000 0.34405  0.27024  0.37984  Biso   1.000  Hf
  Hf4      1.0000 0.35875  0.48185  0.85164  Biso   1.000  Hf
  Hf5      1.0000 0.64367  0.01778  0.14384  Biso   1.000  Hf
  Hf6      1.0000 0.64454  0.22462  0.66908  Biso   1.000  Hf
  Hf7      1.0000 0.86404  0.26870  0.14616  Biso   1.000  Hf
  Hf8      1.0000 0.86530  0.47940  0.64517  Biso   1.000  Hf
  O1       1.0000 0.03585  0.16567  0.17529  Biso   1.000  O
  O2       1.0000 0.03642  0.08238  0.66781  Biso   1.000  O
  O3       1.0000 0.46829  0.41362  0.18341  Biso   1.000  O
  O4       1.0000 0.46727  0.33415  0.68630  Biso   1.000  O
  O5       1.0000 0.27411  0.12373  0.60712  Biso   1.000  O
  O6       1.0000 0.27772  0.12424  0.10548  Biso   1.000  O
  O7       1.0000 0.21857  0.37459  0.61103  Biso   1.000  O
  O8       1.0000 0.22362  0.37635  0.10843  Biso   1.000  O
  O9       1.0000 0.51747  0.15795  0.36489  Biso   1.000  O
  O10      1.0000 0.53550  0.07045  0.81966  Biso   1.000  O
  O11      1.0000 0.96492  0.41525  0.33022  Biso   1.000  O
  O12      1.0000 0.97120  0.33391  0.83520  Biso   1.000  O
  O13      1.0000 0.79207  0.11763  0.89332  Biso   1.000  O
  O14      1.0000 0.77463  0.12393  0.40055  Biso   1.000  O
  O15      1.0000 0.73548  0.38884  0.88776  Biso   1.000  O
  O16      1.0000 0.71490  0.37180  0.38571  Biso   1.000  O
  Hf9      1.0000 0.13766  0.52238  0.34584  Biso   1.000  Hf
  Hf10     1.0000 0.13922  0.72871  0.84686  Biso   1.000  Hf
  Hf11     1.0000 0.36245  0.77054  0.35204  Biso   1.000  Hf
  Hf12     1.0000 0.36253  0.97503  0.85429  Biso   1.000  Hf
  Hf13     1.0000 0.64812  0.53854  0.14588  Biso   1.000  Hf
  Hf14     1.0000 0.64027  0.73089  0.65336  Biso   1.000  Hf
  Hf15     1.0000 0.86369  0.77243  0.15259  Biso   1.000  Hf
  Hf16     1.0000 0.86517  0.97737  0.65016  Biso   1.000  Hf
  O17      1.0000 0.03455  0.66526  0.16618  Biso   1.000  O
  O18      1.0000 0.03603  0.58332  0.66906  Biso   1.000  O
  O19      1.0000 0.47112  0.91271  0.17284  Biso   1.000  O
  O20      1.0000 0.46687  0.83084  0.67489  Biso   1.000  O
  O21      1.0000 0.27562  0.62391  0.59652  Biso   1.000  O
  O22      1.0000 0.27706  0.62423  0.09631  Biso   1.000  O
  O23      1.0000 0.22500  0.87294  0.59870  Biso   1.000  O
  O24      1.0000 0.22493  0.87413  0.09922  Biso   1.000  O
  O25      1.0000 0.53143  0.66325  0.33970  Biso   1.000  O
  O26      1.0000 0.53176  0.58691  0.83749  Biso   1.000  O
  O27      1.0000 0.96917  0.91606  0.32829  Biso   1.000  O
  O28      1.0000 0.96913  0.83381  0.83097  Biso   1.000  O
  O29      1.0000 0.78174  0.62984  0.89564  Biso   1.000  O
  O30      1.0000 0.78320  0.62885  0.40473  Biso   1.000  O
  O31      1.0000 0.72714  0.87668  0.90579  Biso   1.000  O
  O32      1.0000 0.72602  0.87393  0.40620  Biso   1.000  O
  Ga1      1.0000 0.58331  0.27638  0.12272  Biso   1.000  Ga
