data_image0
_cell_length_a       10.0344
_cell_length_b       10.1665
_cell_length_c       5.22099
_cell_angle_alpha    90.0443
_cell_angle_beta     90.7193
_cell_angle_gamma    89.5961

_symmetry_space_group_name_H-M    "P 1"
_symmetry_int_tables_number       1

loop_
  _symmetry_equiv_pos_as_xyz
  'x, y, z'

loop_
  _atom_site_label
  _atom_site_occupancy
  _atom_site_fract_x
  _atom_site_fract_y
  _atom_site_fract_z
  _atom_site_thermal_displace_type
  _atom_site_B_iso_or_equiv
  _atom_site_type_symbol
  Ga1      1.0000 0.12402  0.00979  0.36622  Biso   1.000  Ga
  Hf1      1.0000 0.14268  0.22543  0.83559  Biso   1.000  Hf
  Hf2      1.0000 0.35669  0.26833  0.33761  Biso   1.000  Hf
  Hf3      1.0000 0.35990  0.47876  0.84506  Biso   1.000  Hf
  Hf4      1.0000 0.63796  0.02113  0.15428  Biso   1.000  Hf
  Hf5      1.0000 0.63960  0.23005  0.65641  Biso   1.000  Hf
  Hf6      1.0000 0.86876  0.26572  0.16327  Biso   1.000  Hf
  Hf7      1.0000 0.86305  0.47775  0.66321  Biso   1.000  Hf
  O1       1.0000 0.04463  0.15391  0.16753  Biso   1.000  O
  O2       1.0000 0.02863  0.08517  0.66947  Biso   1.000  O
  O3       1.0000 0.46788  0.41436  0.16760  Biso   1.000  O
  O4       1.0000 0.46855  0.33612  0.66579  Biso   1.000  O
  O5       1.0000 0.26895  0.11686  0.55651  Biso   1.000  O
  O6       1.0000 0.29828  0.14551  0.04391  Biso   1.000  O
  O7       1.0000 0.22484  0.37301  0.59277  Biso   1.000  O
  O8       1.0000 0.22073  0.38226  0.09170  Biso   1.000  O
  O9       1.0000 0.53373  0.16640  0.32917  Biso   1.000  O
  O10      1.0000 0.53522  0.08239  0.82244  Biso   1.000  O
  O11      1.0000 0.97119  0.41071  0.34416  Biso   1.000  O
  O12      1.0000 0.97024  0.33456  0.84538  Biso   1.000  O
  O13      1.0000 0.77730  0.12316  0.91271  Biso   1.000  O
  O14      1.0000 0.77689  0.12537  0.40988  Biso   1.000  O
  O15      1.0000 0.72703  0.37218  0.91496  Biso   1.000  O
  O16      1.0000 0.72752  0.37483  0.41246  Biso   1.000  O
  Hf8      1.0000 0.14021  0.52270  0.34624  Biso   1.000  Hf
  Hf9      1.0000 0.13915  0.73301  0.84662  Biso   1.000  Hf
  Hf10     1.0000 0.35735  0.77697  0.34267  Biso   1.000  Hf
  Hf11     1.0000 0.35614  0.98280  0.83893  Biso   1.000  Hf
  Hf12     1.0000 0.63951  0.51943  0.15817  Biso   1.000  Hf
  Hf13     1.0000 0.63714  0.72839  0.65588  Biso   1.000  Hf
  Hf14     1.0000 0.85980  0.77039  0.16036  Biso   1.000  Hf
  Hf15     1.0000 0.85812  0.97851  0.66024  Biso   1.000  Hf
  O17      1.0000 0.03202  0.66436  0.16897  Biso   1.000  O
  O18      1.0000 0.03290  0.58699  0.67109  Biso   1.000  O
  O19      1.0000 0.46757  0.91482  0.16159  Biso   1.000  O
  O20      1.0000 0.46613  0.83700  0.66445  Biso   1.000  O
  O21      1.0000 0.27636  0.62500  0.59141  Biso   1.000  O
  O22      1.0000 0.27674  0.63137  0.09094  Biso   1.000  O
  O23      1.0000 0.21853  0.87336  0.59071  Biso   1.000  O
  O24      1.0000 0.22015  0.88811  0.09552  Biso   1.000  O
  O25      1.0000 0.53069  0.66485  0.33178  Biso   1.000  O
  O26      1.0000 0.53194  0.58501  0.83331  Biso   1.000  O
  O27      1.0000 0.96443  0.91229  0.33977  Biso   1.000  O
  O28      1.0000 0.96520  0.83546  0.83888  Biso   1.000  O
  O29      1.0000 0.77576  0.62234  0.91124  Biso   1.000  O
  O30      1.0000 0.77601  0.62501  0.41190  Biso   1.000  O
  O31      1.0000 0.72207  0.87249  0.91056  Biso   1.000  O
  O32      1.0000 0.72178  0.87562  0.41069  Biso   1.000  O
