data_image0
_cell_length_a       10.1011
_cell_length_b       5.23763
_cell_length_c       10.1678
_cell_angle_alpha    89.9719
_cell_angle_beta     89.0454
_cell_angle_gamma    90.2816

_symmetry_space_group_name_H-M    "P 1"
_symmetry_int_tables_number       1

loop_
  _symmetry_equiv_pos_as_xyz
  'x, y, z'

loop_
  _atom_site_label
  _atom_site_occupancy
  _atom_site_fract_x
  _atom_site_fract_y
  _atom_site_fract_z
  _atom_site_thermal_displace_type
  _atom_site_B_iso_or_equiv
  _atom_site_type_symbol
  Zr1      1.0000 0.13904  0.09193  0.11760  Biso   1.000  Zr
  Zr2      1.0000 0.13702  0.45397  0.39852  Biso   1.000  Zr
  Zr3      1.0000 0.37207  0.52902  0.12102  Biso   1.000  Zr
  Zr4      1.0000 0.36796  0.96563  0.37757  Biso   1.000  Zr
  O1       1.0000 0.00445  0.32824  0.24140  Biso   1.000  O
  O2       1.0000 0.03791  0.12691  0.46234  Biso   1.000  O
  O3       1.0000 0.45890  0.86561  0.19657  Biso   1.000  O
  O4       1.0000 0.46800  0.63256  0.44615  Biso   1.000  O
  O5       1.0000 0.27178  0.24293  0.25718  Biso   1.000  O
  O6       1.0000 0.27581  0.25486  0.50641  Biso   1.000  O
  O7       1.0000 0.23509  0.75947  0.50393  Biso   1.000  O
  O8       1.0000 0.21783  0.73131  0.25215  Biso   1.000  O
  Zr5      1.0000 0.13773  0.02413  0.63345  Biso   1.000  Zr
  Zr6      1.0000 0.13331  0.46669  0.87261  Biso   1.000  Zr
  Zr7      1.0000 0.37175  0.52945  0.62792  Biso   1.000  Zr
  Zr8      1.0000 0.37297  0.96876  0.87160  Biso   1.000  Zr
  O9       1.0000 0.03886  0.36855  0.69226  Biso   1.000  O
  O10      1.0000 0.03657  0.12830  0.94050  Biso   1.000  O
  O11      1.0000 0.46970  0.86442  0.69126  Biso   1.000  O
  O12      1.0000 0.46971  0.63372  0.94189  Biso   1.000  O
  O13      1.0000 0.26996  0.23294  0.75069  Biso   1.000  O
  O14      1.0000 0.28637  0.26239  0.99032  Biso   1.000  O
  O15      1.0000 0.23740  0.78413  0.00049  Biso   1.000  O
  O16      1.0000 0.23609  0.73110  0.75174  Biso   1.000  O
  Zr9      1.0000 0.62886  0.02605  0.12411  Biso   1.000  Zr
  Zr10     1.0000 0.63540  0.46814  0.37467  Biso   1.000  Zr
  Zr11     1.0000 0.84507  0.51966  0.11774  Biso   1.000  Zr
  Zr12     1.0000 0.87810  0.98082  0.36692  Biso   1.000  Zr
  O17      1.0000 0.53472  0.36544  0.19396  Biso   1.000  O
  O18      1.0000 0.53491  0.13238  0.44362  Biso   1.000  O
  O19      1.0000 0.96668  0.85319  0.18420  Biso   1.000  O
  O20      1.0000 0.97178  0.64705  0.44986  Biso   1.000  O
  O21      1.0000 0.75939  0.22392  0.24561  Biso   1.000  O
  O22      1.0000 0.77223  0.27419  0.49314  Biso   1.000  O
  O23      1.0000 0.73724  0.77424  0.49246  Biso   1.000  O
  O24      1.0000 0.72895  0.73357  0.24598  Biso   1.000  O
  Zr13     1.0000 0.63945  0.02856  0.61913  Biso   1.000  Zr
  Zr14     1.0000 0.63531  0.46153  0.86971  Biso   1.000  Zr
  Zr15     1.0000 0.86980  0.53437  0.62269  Biso   1.000  Zr
  Zr16     1.0000 0.86521  0.96064  0.87102  Biso   1.000  Zr
  O25      1.0000 0.53712  0.36058  0.69423  Biso   1.000  O
  O26      1.0000 0.53868  0.13110  0.94412  Biso   1.000  O
  O27      1.0000 0.96732  0.86380  0.69721  Biso   1.000  O
  O28      1.0000 0.94950  0.62233  0.92685  Biso   1.000  O
  O29      1.0000 0.77143  0.23037  0.74327  Biso   1.000  O
  O30      1.0000 0.76712  0.25200  0.99435  Biso   1.000  O
  O31      1.0000 0.72432  0.75590  0.99699  Biso   1.000  O
  O32      1.0000 0.73001  0.73333  0.74344  Biso   1.000  O
  Ga1      1.0000 0.09911  0.58802  0.12690  Biso   1.000  Ga
