data_image0
_cell_length_a       10.1046
_cell_length_b       5.02867
_cell_length_c       10.1046
_cell_angle_alpha    90.0008
_cell_angle_beta     89.9989
_cell_angle_gamma    90.0005

_symmetry_space_group_name_H-M    "P 1"
_symmetry_int_tables_number       1

loop_
  _symmetry_equiv_pos_as_xyz
  'x, y, z'

loop_
  _atom_site_label
  _atom_site_occupancy
  _atom_site_fract_x
  _atom_site_fract_y
  _atom_site_fract_z
  _atom_site_thermal_displace_type
  _atom_site_B_iso_or_equiv
  _atom_site_type_symbol
  Ga1      1.0000 0.12493  0.99995  0.12495  Biso   1.000  Ga
  Zr1      1.0000 0.12493  0.99997  0.62495  Biso   1.000  Zr
  Zr2      1.0000 0.62493  0.99996  0.12494  Biso   1.000  Zr
  Zr3      1.0000 0.62493  0.99997  0.62495  Biso   1.000  Zr
  Zr4      1.0000 0.12493  0.49996  0.37409  Biso   1.000  Zr
  Zr5      1.0000 0.12493  0.49997  0.87580  Biso   1.000  Zr
  Zr6      1.0000 0.62493  0.49996  0.37528  Biso   1.000  Zr
  Zr7      1.0000 0.62493  0.49997  0.87461  Biso   1.000  Zr
  Zr8      1.0000 0.37407  0.49995  0.12495  Biso   1.000  Zr
  Zr9      1.0000 0.37529  0.49997  0.62495  Biso   1.000  Zr
  Zr10     1.0000 0.87578  0.49997  0.12495  Biso   1.000  Zr
  Zr11     1.0000 0.87457  0.49996  0.62495  Biso   1.000  Zr
  Zr12     1.0000 0.37405  0.00320  0.37406  Biso   1.000  Zr
  Zr13     1.0000 0.37404  0.99672  0.87584  Biso   1.000  Zr
  Zr14     1.0000 0.87581  0.99672  0.37405  Biso   1.000  Zr
  Zr15     1.0000 0.87581  0.00320  0.87584  Biso   1.000  Zr
  O1       1.0000 0.97728  0.30002  0.97726  Biso   1.000  O
  O2       1.0000 0.98743  0.26794  0.48295  Biso   1.000  O
  O3       1.0000 0.48297  0.26799  0.98739  Biso   1.000  O
  O4       1.0000 0.48819  0.26538  0.48814  Biso   1.000  O
  O5       1.0000 0.01808  0.21047  0.23174  Biso   1.000  O
  O6       1.0000 0.00962  0.23961  0.73512  Biso   1.000  O
  O7       1.0000 0.51469  0.23955  0.24019  Biso   1.000  O
  O8       1.0000 0.51019  0.24071  0.73962  Biso   1.000  O
  O9       1.0000 0.97728  0.69991  0.27263  Biso   1.000  O
  O10      1.0000 0.98743  0.73200  0.76695  Biso   1.000  O
  O11      1.0000 0.48297  0.73191  0.26251  Biso   1.000  O
  O12      1.0000 0.48818  0.73456  0.76175  Biso   1.000  O
  O13      1.0000 0.01807  0.78945  0.01816  Biso   1.000  O
  O14      1.0000 0.00962  0.76033  0.51477  Biso   1.000  O
  O15      1.0000 0.51468  0.76035  0.00970  Biso   1.000  O
  O16      1.0000 0.51019  0.75924  0.51028  Biso   1.000  O
  O17      1.0000 0.27258  0.29999  0.27263  Biso   1.000  O
  O18      1.0000 0.26243  0.26796  0.76695  Biso   1.000  O
  O19      1.0000 0.76689  0.26801  0.26251  Biso   1.000  O
  O20      1.0000 0.76168  0.26536  0.76175  Biso   1.000  O
  O21      1.0000 0.23178  0.21047  0.01815  Biso   1.000  O
  O22      1.0000 0.24024  0.23958  0.51477  Biso   1.000  O
  O23      1.0000 0.73517  0.23958  0.00970  Biso   1.000  O
  O24      1.0000 0.73967  0.24070  0.51027  Biso   1.000  O
  O25      1.0000 0.27257  0.69990  0.97726  Biso   1.000  O
  O26      1.0000 0.26244  0.73197  0.48294  Biso   1.000  O
  O27      1.0000 0.76688  0.73195  0.98739  Biso   1.000  O
  O28      1.0000 0.76168  0.73456  0.48815  Biso   1.000  O
  O29      1.0000 0.23178  0.78943  0.23174  Biso   1.000  O
  O30      1.0000 0.24024  0.76035  0.73513  Biso   1.000  O
  O31      1.0000 0.73517  0.76038  0.24019  Biso   1.000  O
  O32      1.0000 0.73966  0.75921  0.73962  Biso   1.000  O
