data_image0
_cell_length_a       5.13861
_cell_length_b       10.339
_cell_length_c       10.5002
_cell_angle_alpha    89.8315
_cell_angle_beta     78.7226
_cell_angle_gamma    89.6489

_symmetry_space_group_name_H-M    "P 1"
_symmetry_int_tables_number       1

loop_
  _symmetry_equiv_pos_as_xyz
  'x, y, z'

loop_
  _atom_site_label
  _atom_site_occupancy
  _atom_site_fract_x
  _atom_site_fract_y
  _atom_site_fract_z
  _atom_site_thermal_displace_type
  _atom_site_B_iso_or_equiv
  _atom_site_type_symbol
  Hf1      1.0000 0.26669  0.01326  0.14931  Biso   1.000  Hf
  Hf2      1.0000 0.31688  0.23362  0.40106  Biso   1.000  Hf
  Hf3      1.0000 0.67179  0.26637  0.10403  Biso   1.000  Hf
  Hf4      1.0000 0.72198  0.48675  0.35579  Biso   1.000  Hf
  O1       1.0000 0.03034  0.15311  0.07206  Biso   1.000  O
  O2       1.0000 0.05627  0.06866  0.34031  Biso   1.000  O
  O3       1.0000 0.93244  0.43133  0.16481  Biso   1.000  O
  O4       1.0000 0.95834  0.34688  0.43303  Biso   1.000  O
  O5       1.0000 0.53338  0.11184  0.24180  Biso   1.000  O
  O6       1.0000 0.56847  0.11858  0.49507  Biso   1.000  O
  O7       1.0000 0.42021  0.38142  0.01003  Biso   1.000  O
  O8       1.0000 0.45531  0.38816  0.26329  Biso   1.000  O
  Hf5      1.0000 0.27387  0.02207  0.64753  Biso   1.000  Hf
  Hf6      1.0000 0.25679  0.22852  0.89606  Biso   1.000  Hf
  Hf7      1.0000 0.73188  0.27148  0.60904  Biso   1.000  Hf
  Hf8      1.0000 0.71481  0.47793  0.85757  Biso   1.000  Hf
  O9       1.0000 0.08056  0.16905  0.57799  Biso   1.000  O
  O10      1.0000 0.05375  0.08610  0.82590  Biso   1.000  O
  O11      1.0000 0.93492  0.41391  0.67919  Biso   1.000  O
  O12      1.0000 0.90812  0.33095  0.92711  Biso   1.000  O
  O13      1.0000 0.54206  0.12884  0.74310  Biso   1.000  O
  O14      1.0000 0.52155  0.12193  0.99210  Biso   1.000  O
  O15      1.0000 0.46713  0.37806  0.51300  Biso   1.000  O
  O16      1.0000 0.44662  0.37116  0.76200  Biso   1.000  O
  Hf9      1.0000 0.27874  0.52762  0.14743  Biso   1.000  Hf
  Hf10     1.0000 0.27036  0.72821  0.39991  Biso   1.000  Hf
  Hf11     1.0000 0.71831  0.77180  0.10520  Biso   1.000  Hf
  Hf12     1.0000 0.70995  0.97238  0.35767  Biso   1.000  Hf
  O17      1.0000 0.06904  0.67305  0.07970  Biso   1.000  O
  O18      1.0000 0.06644  0.58834  0.32884  Biso   1.000  O
  O19      1.0000 0.92225  0.91166  0.17626  Biso   1.000  O
  O20      1.0000 0.91963  0.82695  0.42540  Biso   1.000  O
  O21      1.0000 0.55367  0.63273  0.24460  Biso   1.000  O
  O22      1.0000 0.54214  0.62202  0.49466  Biso   1.000  O
  O23      1.0000 0.44653  0.87798  0.01044  Biso   1.000  O
  O24      1.0000 0.43501  0.86727  0.26050  Biso   1.000  O
  Hf13     1.0000 0.27389  0.52148  0.65078  Biso   1.000  Hf
  Hf14     1.0000 0.26977  0.72851  0.89785  Biso   1.000  Hf
  Hf15     1.0000 0.71891  0.77149  0.60726  Biso   1.000  Hf
  Hf16     1.0000 0.71478  0.97852  0.85432  Biso   1.000  Hf
  O25      1.0000 0.05932  0.66406  0.58355  Biso   1.000  O
  O26      1.0000 0.06180  0.58281  0.83265  Biso   1.000  O
  O27      1.0000 0.92688  0.91719  0.67245  Biso   1.000  O
  O28      1.0000 0.92935  0.83594  0.92156  Biso   1.000  O
  O29      1.0000 0.54398  0.62763  0.74302  Biso   1.000  O
  O30      1.0000 0.55073  0.62289  0.99233  Biso   1.000  O
  O31      1.0000 0.43796  0.87712  0.51277  Biso   1.000  O
  O32      1.0000 0.44469  0.87237  0.76208  Biso   1.000  O
  Ge1      1.0000 0.99434  0.25002  0.25255  Biso   1.000  Ge
