data_image0
_cell_length_a       10.0115
_cell_length_b       10.1898
_cell_length_c       10.0115
_cell_angle_alpha    90.1538
_cell_angle_beta     90.1345
_cell_angle_gamma    90.1538

_symmetry_space_group_name_H-M    "P 1"
_symmetry_int_tables_number       1

loop_
  _symmetry_equiv_pos_as_xyz
  'x, y, z'

loop_
  _atom_site_label
  _atom_site_occupancy
  _atom_site_fract_x
  _atom_site_fract_y
  _atom_site_fract_z
  _atom_site_thermal_displace_type
  _atom_site_B_iso_or_equiv
  _atom_site_type_symbol
  H1       1.0000 0.06647  0.95653  0.06647  Biso   1.000  H
  Hf1      1.0000 0.12393  0.24835  0.36924  Biso   1.000  Hf
  Hf2      1.0000 0.36923  0.24834  0.12394  Biso   1.000  Hf
  Hf3      1.0000 0.36910  0.99905  0.36910  Biso   1.000  Hf
  O1       1.0000 0.98733  0.15229  0.98733  Biso   1.000  O
  O2       1.0000 0.99326  0.11738  0.25413  Biso   1.000  O
  O3       1.0000 0.00050  0.35921  0.24729  Biso   1.000  O
  O4       1.0000 0.99865  0.39916  0.99865  Biso   1.000  O
  O5       1.0000 0.25776  0.14376  0.25776  Biso   1.000  O
  O6       1.0000 0.25412  0.11738  0.99327  Biso   1.000  O
  O7       1.0000 0.24730  0.35921  0.00050  Biso   1.000  O
  O8       1.0000 0.24873  0.39177  0.24874  Biso   1.000  O
  Hf4      1.0000 0.12694  0.00138  0.62655  Biso   1.000  Hf
  Hf5      1.0000 0.12388  0.24992  0.87673  Biso   1.000  Hf
  Hf6      1.0000 0.37560  0.25045  0.62524  Biso   1.000  Hf
  Hf7      1.0000 0.37366  0.00002  0.88084  Biso   1.000  Hf
  O9       1.0000 0.00279  0.14738  0.50042  Biso   1.000  O
  O10      1.0000 0.99862  0.10418  0.74631  Biso   1.000  O
  O11      1.0000 0.00149  0.35468  0.74737  Biso   1.000  O
  O12      1.0000 0.00114  0.39729  0.49764  Biso   1.000  O
  O13      1.0000 0.24793  0.14793  0.74815  Biso   1.000  O
  O14      1.0000 0.25190  0.10261  0.50214  Biso   1.000  O
  O15      1.0000 0.25128  0.35183  0.49852  Biso   1.000  O
  O16      1.0000 0.25202  0.39831  0.74889  Biso   1.000  O
  Hf8      1.0000 0.12433  0.50009  0.12433  Biso   1.000  Hf
  Hf9      1.0000 0.12816  0.74789  0.37214  Biso   1.000  Hf
  Hf10     1.0000 0.37214  0.74788  0.12816  Biso   1.000  Hf
  Hf11     1.0000 0.37495  0.49583  0.37495  Biso   1.000  Hf
  O17      1.0000 0.00162  0.65078  0.00162  Biso   1.000  O
  O18      1.0000 0.99980  0.60452  0.25067  Biso   1.000  O
  O19      1.0000 0.99136  0.85115  0.26698  Biso   1.000  O
  O20      1.0000 0.00968  0.90056  0.00968  Biso   1.000  O
  O21      1.0000 0.24863  0.63690  0.24862  Biso   1.000  O
  O22      1.0000 0.25067  0.60452  0.99980  Biso   1.000  O
  O23      1.0000 0.26698  0.85115  0.99135  Biso   1.000  O
  O24      1.0000 0.25735  0.87706  0.25735  Biso   1.000  O
  Hf12     1.0000 0.12485  0.50009  0.62488  Biso   1.000  Hf
  Hf13     1.0000 0.13020  0.75169  0.87767  Biso   1.000  Hf
  Hf14     1.0000 0.37569  0.75041  0.62400  Biso   1.000  Hf
  Hf15     1.0000 0.37673  0.50184  0.87413  Biso   1.000  Hf
  O25      1.0000 0.00045  0.64815  0.50220  Biso   1.000  O
  O26      1.0000 0.00252  0.60389  0.75126  Biso   1.000  O
  O27      1.0000 0.99654  0.85324  0.76199  Biso   1.000  O
  O28      1.0000 0.99392  0.89930  0.51198  Biso   1.000  O
  O29      1.0000 0.25206  0.64809  0.75023  Biso   1.000  O
  O30      1.0000 0.25112  0.60211  0.49921  Biso   1.000  O
  O31      1.0000 0.24464  0.85351  0.50459  Biso   1.000  O
  O32      1.0000 0.24983  0.89767  0.75002  Biso   1.000  O
  Hf16     1.0000 0.62654  0.00138  0.12694  Biso   1.000  Hf
  Hf17     1.0000 0.62524  0.25045  0.37560  Biso   1.000  Hf
  Hf18     1.0000 0.87673  0.24992  0.12389  Biso   1.000  Hf
  Hf19     1.0000 0.88084  0.00002  0.37367  Biso   1.000  Hf
  O33      1.0000 0.50042  0.14738  0.00279  Biso   1.000  O
  O34      1.0000 0.50214  0.10261  0.25190  Biso   1.000  O
  O35      1.0000 0.49852  0.35183  0.25128  Biso   1.000  O
  O36      1.0000 0.49765  0.39729  0.00114  Biso   1.000  O
  O37      1.0000 0.74815  0.14793  0.24793  Biso   1.000  O
  O38      1.0000 0.74630  0.10418  0.99862  Biso   1.000  O
  O39      1.0000 0.74737  0.35468  0.00149  Biso   1.000  O
  O40      1.0000 0.74889  0.39831  0.25202  Biso   1.000  O
  Hf20     1.0000 0.62323  0.00070  0.62323  Biso   1.000  Hf
  Hf21     1.0000 0.62481  0.24947  0.87555  Biso   1.000  Hf
  Hf22     1.0000 0.87555  0.24947  0.62481  Biso   1.000  Hf
  Hf23     1.0000 0.87685  0.00155  0.87686  Biso   1.000  Hf
  O41      1.0000 0.50275  0.14830  0.50275  Biso   1.000  O
  O42      1.0000 0.49926  0.10321  0.75172  Biso   1.000  O
  O43      1.0000 0.50091  0.35418  0.75099  Biso   1.000  O
  O44      1.0000 0.50125  0.39734  0.50124  Biso   1.000  O
  O45      1.0000 0.75023  0.14818  0.75023  Biso   1.000  O
  O46      1.0000 0.75172  0.10321  0.49926  Biso   1.000  O
  O47      1.0000 0.75099  0.35418  0.50091  Biso   1.000  O
  O48      1.0000 0.75098  0.39756  0.75098  Biso   1.000  O
  Hf24     1.0000 0.62488  0.50009  0.12484  Biso   1.000  Hf
  Hf25     1.0000 0.62400  0.75041  0.37570  Biso   1.000  Hf
  Hf26     1.0000 0.87767  0.75169  0.13020  Biso   1.000  Hf
  Hf27     1.0000 0.87413  0.50184  0.37673  Biso   1.000  Hf
  O49      1.0000 0.50220  0.64815  0.00045  Biso   1.000  O
  O50      1.0000 0.49921  0.60211  0.25112  Biso   1.000  O
  O51      1.0000 0.50459  0.85351  0.24464  Biso   1.000  O
  O52      1.0000 0.51198  0.89930  0.99391  Biso   1.000  O
  O53      1.0000 0.75023  0.64809  0.25206  Biso   1.000  O
  O54      1.0000 0.75126  0.60389  0.00251  Biso   1.000  O
  O55      1.0000 0.76199  0.85324  0.99655  Biso   1.000  O
  O56      1.0000 0.75002  0.89767  0.24983  Biso   1.000  O
  Hf28     1.0000 0.62637  0.50083  0.62637  Biso   1.000  Hf
  Hf29     1.0000 0.62675  0.75332  0.87605  Biso   1.000  Hf
  Hf30     1.0000 0.87605  0.75332  0.62675  Biso   1.000  Hf
  Hf31     1.0000 0.87473  0.50333  0.87473  Biso   1.000  Hf
  O57      1.0000 0.50036  0.64662  0.50036  Biso   1.000  O
  O58      1.0000 0.50190  0.60404  0.75039  Biso   1.000  O
  O59      1.0000 0.50181  0.85247  0.74649  Biso   1.000  O
  O60      1.0000 0.49664  0.89708  0.49664  Biso   1.000  O
  O61      1.0000 0.75220  0.64801  0.75219  Biso   1.000  O
  O62      1.0000 0.75038  0.60404  0.50190  Biso   1.000  O
  O63      1.0000 0.74649  0.85247  0.50181  Biso   1.000  O
  O64      1.0000 0.74923  0.89991  0.74923  Biso   1.000  O
