data_image0
_cell_length_a       10.0339
_cell_length_b       5.11587
_cell_length_c       10.4816
_cell_angle_alpha    89.8496
_cell_angle_beta     90.2713
_cell_angle_gamma    90.1926

_symmetry_space_group_name_H-M    "P 1"
_symmetry_int_tables_number       1

loop_
  _symmetry_equiv_pos_as_xyz
  'x, y, z'

loop_
  _atom_site_label
  _atom_site_occupancy
  _atom_site_fract_x
  _atom_site_fract_y
  _atom_site_fract_z
  _atom_site_thermal_displace_type
  _atom_site_B_iso_or_equiv
  _atom_site_type_symbol
  Hf1      1.0000 0.13923  0.04566  0.17367  Biso   1.000  Hf
  Hf2      1.0000 0.13906  0.45495  0.42551  Biso   1.000  Hf
  Hf3      1.0000 0.34733  0.55372  0.17751  Biso   1.000  Hf
  Hf4      1.0000 0.36220  0.95591  0.42353  Biso   1.000  Hf
  Hf5      1.0000 0.64709  0.03070  0.07341  Biso   1.000  Hf
  Hf6      1.0000 0.64259  0.46263  0.33353  Biso   1.000  Hf
  Hf7      1.0000 0.86478  0.53951  0.07833  Biso   1.000  Hf
  Hf8      1.0000 0.86244  0.95644  0.32800  Biso   1.000  Hf
  O1       1.0000 0.03603  0.33472  0.08597  Biso   1.000  O
  O2       1.0000 0.03234  0.17109  0.33461  Biso   1.000  O
  O3       1.0000 0.47174  0.82532  0.08589  Biso   1.000  O
  O4       1.0000 0.46556  0.66280  0.33420  Biso   1.000  O
  O5       1.0000 0.27814  0.24886  0.29766  Biso   1.000  O
  O6       1.0000 0.27974  0.25499  0.04806  Biso   1.000  O
  O7       1.0000 0.21780  0.75012  0.30160  Biso   1.000  O
  O8       1.0000 0.22114  0.75774  0.04792  Biso   1.000  O
  O9       1.0000 0.53696  0.36081  0.15207  Biso   1.000  O
  O10      1.0000 0.53596  0.16325  0.40935  Biso   1.000  O
  O11      1.0000 0.96662  0.83359  0.16685  Biso   1.000  O
  O12      1.0000 0.96741  0.66864  0.41788  Biso   1.000  O
  O13      1.0000 0.77878  0.24743  0.45507  Biso   1.000  O
  O14      1.0000 0.77219  0.24769  0.20419  Biso   1.000  O
  O15      1.0000 0.72369  0.74686  0.45484  Biso   1.000  O
  O16      1.0000 0.72257  0.74427  0.20335  Biso   1.000  O
  Hf9      1.0000 0.14246  0.04097  0.67361  Biso   1.000  Hf
  Hf10     1.0000 0.14184  0.45588  0.92260  Biso   1.000  Hf
  Hf11     1.0000 0.36326  0.54271  0.67351  Biso   1.000  Hf
  Hf12     1.0000 0.36340  0.95746  0.92364  Biso   1.000  Hf
  Hf13     1.0000 0.64119  0.04154  0.57768  Biso   1.000  Hf
  Hf14     1.0000 0.64172  0.45352  0.82495  Biso   1.000  Hf
  Hf15     1.0000 0.86416  0.54179  0.57951  Biso   1.000  Hf
  Hf16     1.0000 0.86496  0.95528  0.82766  Biso   1.000  Hf
  O17      1.0000 0.03530  0.33053  0.58661  Biso   1.000  O
  O18      1.0000 0.03628  0.16737  0.83503  Biso   1.000  O
  O19      1.0000 0.46933  0.83215  0.58386  Biso   1.000  O
  O20      1.0000 0.47016  0.66798  0.83504  Biso   1.000  O
  O21      1.0000 0.28039  0.24704  0.79730  Biso   1.000  O
  O22      1.0000 0.27948  0.25092  0.54748  Biso   1.000  O
  O23      1.0000 0.22618  0.74722  0.79831  Biso   1.000  O
  O24      1.0000 0.22521  0.75071  0.54903  Biso   1.000  O
  O25      1.0000 0.53549  0.33229  0.66345  Biso   1.000  O
  O26      1.0000 0.53652  0.16600  0.91607  Biso   1.000  O
  O27      1.0000 0.97004  0.83029  0.66732  Biso   1.000  O
  O28      1.0000 0.96850  0.66568  0.91703  Biso   1.000  O
  O29      1.0000 0.78113  0.24376  0.95263  Biso   1.000  O
  O30      1.0000 0.77939  0.25020  0.70340  Biso   1.000  O
  O31      1.0000 0.72381  0.74162  0.95346  Biso   1.000  O
  O32      1.0000 0.72576  0.75207  0.70334  Biso   1.000  O
  H1       1.0000 0.56149  0.51794  0.09976  Biso   1.000  H
