data_image0
_cell_length_a       9.97935
_cell_length_b       5.18746
_cell_length_c       10.0224
_cell_angle_alpha    89.7089
_cell_angle_beta     90.159
_cell_angle_gamma    90.3405

_symmetry_space_group_name_H-M    "P 1"
_symmetry_int_tables_number       1

loop_
  _symmetry_equiv_pos_as_xyz
  'x, y, z'

loop_
  _atom_site_label
  _atom_site_occupancy
  _atom_site_fract_x
  _atom_site_fract_y
  _atom_site_fract_z
  _atom_site_thermal_displace_type
  _atom_site_B_iso_or_equiv
  _atom_site_type_symbol
  Hf1      1.0000 0.13715  0.02395  0.11910  Biso   1.000  Hf
  Hf2      1.0000 0.13717  0.47075  0.38452  Biso   1.000  Hf
  Hf3      1.0000 0.36331  0.52794  0.12399  Biso   1.000  Hf
  Hf4      1.0000 0.36658  0.96792  0.37359  Biso   1.000  Hf
  O1       1.0000 0.03039  0.38092  0.19728  Biso   1.000  O
  O2       1.0000 0.03639  0.13663  0.44560  Biso   1.000  O
  O3       1.0000 0.46037  0.87098  0.19182  Biso   1.000  O
  O4       1.0000 0.46293  0.63213  0.44296  Biso   1.000  O
  O5       1.0000 0.26344  0.23268  0.24973  Biso   1.000  O
  O6       1.0000 0.27375  0.26388  0.50018  Biso   1.000  O
  O7       1.0000 0.23083  0.76696  0.50025  Biso   1.000  O
  O8       1.0000 0.22714  0.72826  0.24940  Biso   1.000  O
  Hf5      1.0000 0.13532  0.03344  0.62773  Biso   1.000  Hf
  Hf6      1.0000 0.13737  0.46356  0.87811  Biso   1.000  Hf
  Hf7      1.0000 0.36794  0.53354  0.62676  Biso   1.000  Hf
  Hf8      1.0000 0.37028  0.96427  0.87321  Biso   1.000  Hf
  O9       1.0000 0.03724  0.36659  0.69499  Biso   1.000  O
  O10      1.0000 0.03917  0.12990  0.94404  Biso   1.000  O
  O11      1.0000 0.46744  0.86632  0.69245  Biso   1.000  O
  O12      1.0000 0.46673  0.62873  0.94371  Biso   1.000  O
  O13      1.0000 0.27260  0.23595  0.74824  Biso   1.000  O
  O14      1.0000 0.28368  0.25117  0.99424  Biso   1.000  O
  O15      1.0000 0.23401  0.76226  0.99783  Biso   1.000  O
  O16      1.0000 0.23177  0.73608  0.74925  Biso   1.000  O
  Hf9      1.0000 0.63093  0.03983  0.12538  Biso   1.000  Hf
  Hf10     1.0000 0.63280  0.46787  0.37734  Biso   1.000  Hf
  Hf11     1.0000 0.85201  0.54609  0.12477  Biso   1.000  Hf
  Hf12     1.0000 0.86709  0.97081  0.37569  Biso   1.000  Hf
  O17      1.0000 0.53454  0.36900  0.19583  Biso   1.000  O
  O18      1.0000 0.53671  0.13073  0.44361  Biso   1.000  O
  O19      1.0000 0.96329  0.87603  0.19476  Biso   1.000  O
  O20      1.0000 0.96551  0.63731  0.44604  Biso   1.000  O
  O21      1.0000 0.77044  0.24425  0.25018  Biso   1.000  O
  O22      1.0000 0.77140  0.26625  0.49942  Biso   1.000  O
  O23      1.0000 0.73076  0.76486  0.49963  Biso   1.000  O
  O24      1.0000 0.72450  0.74638  0.25084  Biso   1.000  O
  Hf13     1.0000 0.63728  0.03229  0.62515  Biso   1.000  Hf
  Hf14     1.0000 0.63444  0.46606  0.87329  Biso   1.000  Hf
  Hf15     1.0000 0.86835  0.53324  0.62638  Biso   1.000  Hf
  Hf16     1.0000 0.86804  0.96675  0.87614  Biso   1.000  Hf
  O25      1.0000 0.53853  0.36719  0.69201  Biso   1.000  O
  O26      1.0000 0.54143  0.12863  0.94153  Biso   1.000  O
  O27      1.0000 0.96645  0.86609  0.69743  Biso   1.000  O
  O28      1.0000 0.96680  0.63412  0.95111  Biso   1.000  O
  O29      1.0000 0.77296  0.23478  0.74940  Biso   1.000  O
  O30      1.0000 0.77235  0.26701  0.99938  Biso   1.000  O
  O31      1.0000 0.72811  0.76698  0.99988  Biso   1.000  O
  O32      1.0000 0.73239  0.73538  0.74966  Biso   1.000  O
  H1       1.0000 0.09565  0.47012  0.13138  Biso   1.000  H
