data_image0
_cell_length_a       10.106
_cell_length_b       10.3176
_cell_length_c       5.26303
_cell_angle_alpha    89.8708
_cell_angle_beta     90.2242
_cell_angle_gamma    90.1696

_symmetry_space_group_name_H-M    "P 1"
_symmetry_int_tables_number       1

loop_
  _symmetry_equiv_pos_as_xyz
  'x, y, z'

loop_
  _atom_site_label
  _atom_site_occupancy
  _atom_site_fract_x
  _atom_site_fract_y
  _atom_site_fract_z
  _atom_site_thermal_displace_type
  _atom_site_B_iso_or_equiv
  _atom_site_type_symbol
  Zr1      1.0000 0.14119  0.01928  0.34437  Biso   1.000  Zr
  Zr2      1.0000 0.14026  0.22616  0.84875  Biso   1.000  Zr
  Zr3      1.0000 0.34725  0.27577  0.35339  Biso   1.000  Zr
  Zr4      1.0000 0.36290  0.47758  0.84651  Biso   1.000  Zr
  Zr5      1.0000 0.64588  0.01338  0.14828  Biso   1.000  Zr
  Zr6      1.0000 0.64409  0.23095  0.66263  Biso   1.000  Zr
  Zr7      1.0000 0.86489  0.27051  0.16060  Biso   1.000  Zr
  Zr8      1.0000 0.86388  0.47742  0.65914  Biso   1.000  Zr
  O1       1.0000 0.03606  0.16671  0.17516  Biso   1.000  O
  O2       1.0000 0.03367  0.08356  0.66672  Biso   1.000  O
  O3       1.0000 0.47221  0.40856  0.16375  Biso   1.000  O
  O4       1.0000 0.46694  0.33180  0.66513  Biso   1.000  O
  O5       1.0000 0.27993  0.12320  0.59261  Biso   1.000  O
  O6       1.0000 0.27948  0.12598  0.09721  Biso   1.000  O
  O7       1.0000 0.21954  0.37526  0.60441  Biso   1.000  O
  O8       1.0000 0.22099  0.37808  0.09665  Biso   1.000  O
  O9       1.0000 0.53998  0.18347  0.29393  Biso   1.000  O
  O10      1.0000 0.53727  0.08119  0.81599  Biso   1.000  O
  O11      1.0000 0.96876  0.41617  0.33672  Biso   1.000  O
  O12      1.0000 0.96685  0.33179  0.83600  Biso   1.000  O
  O13      1.0000 0.77946  0.12300  0.90952  Biso   1.000  O
  O14      1.0000 0.77168  0.12318  0.40754  Biso   1.000  O
  O15      1.0000 0.72297  0.37177  0.91184  Biso   1.000  O
  O16      1.0000 0.72416  0.37456  0.40852  Biso   1.000  O
  Zr9      1.0000 0.14044  0.52299  0.34745  Biso   1.000  Zr
  Zr10     1.0000 0.14126  0.72890  0.84552  Biso   1.000  Zr
  Zr11     1.0000 0.36330  0.77095  0.34775  Biso   1.000  Zr
  Zr12     1.0000 0.36256  0.97961  0.84587  Biso   1.000  Zr
  Zr13     1.0000 0.64185  0.52215  0.15714  Biso   1.000  Zr
  Zr14     1.0000 0.64015  0.72690  0.65639  Biso   1.000  Zr
  Zr15     1.0000 0.86441  0.76912  0.15770  Biso   1.000  Zr
  Zr16     1.0000 0.86406  0.97849  0.65480  Biso   1.000  Zr
  O17      1.0000 0.03587  0.66736  0.17217  Biso   1.000  O
  O18      1.0000 0.03426  0.58428  0.67344  Biso   1.000  O
  O19      1.0000 0.46964  0.92199  0.17863  Biso   1.000  O
  O20      1.0000 0.46838  0.83159  0.67571  Biso   1.000  O
  O21      1.0000 0.27737  0.62496  0.59524  Biso   1.000  O
  O22      1.0000 0.27912  0.62569  0.09336  Biso   1.000  O
  O23      1.0000 0.22597  0.87416  0.59424  Biso   1.000  O
  O24      1.0000 0.22780  0.87475  0.09554  Biso   1.000  O
  O25      1.0000 0.53370  0.66523  0.33182  Biso   1.000  O
  O26      1.0000 0.53519  0.58176  0.83136  Biso   1.000  O
  O27      1.0000 0.96749  0.91723  0.32838  Biso   1.000  O
  O28      1.0000 0.96866  0.83303  0.83149  Biso   1.000  O
  O29      1.0000 0.77783  0.62341  0.90890  Biso   1.000  O
  O30      1.0000 0.77791  0.62448  0.40981  Biso   1.000  O
  O31      1.0000 0.72610  0.87314  0.90778  Biso   1.000  O
  O32      1.0000 0.72595  0.87281  0.40723  Biso   1.000  O
  H1       1.0000 0.55913  0.26585  0.19746  Biso   1.000  H
