data_image0
_cell_length_a       10.063
_cell_length_b       10.2651
_cell_length_c       10.5186
_cell_angle_alpha    89.879
_cell_angle_beta     90.4872
_cell_angle_gamma    89.914

_symmetry_space_group_name_H-M    "P 1"
_symmetry_int_tables_number       1

loop_
  _symmetry_equiv_pos_as_xyz
  'x, y, z'

loop_
  _atom_site_label
  _atom_site_occupancy
  _atom_site_fract_x
  _atom_site_fract_y
  _atom_site_fract_z
  _atom_site_thermal_displace_type
  _atom_site_B_iso_or_equiv
  _atom_site_type_symbol
  Hf1      1.0000 0.13668  0.01927  0.17198  Biso   1.000  Hf
  Hf2      1.0000 0.13424  0.22738  0.42698  Biso   1.000  Hf
  Hf3      1.0000 0.34553  0.26497  0.18762  Biso   1.000  Hf
  Hf4      1.0000 0.36294  0.47931  0.42179  Biso   1.000  Hf
  Hf5      1.0000 0.63733  0.02005  0.07354  Biso   1.000  Hf
  Hf6      1.0000 0.63621  0.22197  0.33256  Biso   1.000  Hf
  Hf7      1.0000 0.86448  0.27153  0.07537  Biso   1.000  Hf
  Hf8      1.0000 0.86128  0.47860  0.32903  Biso   1.000  Hf
  O1       1.0000 0.03571  0.16540  0.08334  Biso   1.000  O
  O2       1.0000 0.02869  0.08645  0.33266  Biso   1.000  O
  O3       1.0000 0.45144  0.44325  0.10340  Biso   1.000  O
  O4       1.0000 0.46618  0.33367  0.33307  Biso   1.000  O
  O5       1.0000 0.26566  0.12450  0.30211  Biso   1.000  O
  O6       1.0000 0.27887  0.12311  0.04758  Biso   1.000  O
  O7       1.0000 0.21898  0.37424  0.30009  Biso   1.000  O
  O8       1.0000 0.22458  0.37406  0.04806  Biso   1.000  O
  O9       1.0000 0.50864  0.12386  0.20679  Biso   1.000  O
  O10      1.0000 0.52930  0.09096  0.43512  Biso   1.000  O
  O11      1.0000 0.96759  0.41381  0.16872  Biso   1.000  O
  O12      1.0000 0.96648  0.33632  0.41936  Biso   1.000  O
  O13      1.0000 0.77536  0.12254  0.45435  Biso   1.000  O
  O14      1.0000 0.77194  0.12904  0.20378  Biso   1.000  O
  O15      1.0000 0.72386  0.37298  0.45598  Biso   1.000  O
  O16      1.0000 0.72291  0.38113  0.20862  Biso   1.000  O
  Hf9      1.0000 0.14050  0.01996  0.67282  Biso   1.000  Hf
  Hf10     1.0000 0.14221  0.22765  0.92206  Biso   1.000  Hf
  Hf11     1.0000 0.36224  0.27204  0.67265  Biso   1.000  Hf
  Hf12     1.0000 0.36034  0.48319  0.92320  Biso   1.000  Hf
  Hf13     1.0000 0.64033  0.01860  0.58148  Biso   1.000  Hf
  Hf14     1.0000 0.64471  0.22489  0.81762  Biso   1.000  Hf
  Hf15     1.0000 0.86161  0.27177  0.57815  Biso   1.000  Hf
  Hf16     1.0000 0.86809  0.48203  0.82650  Biso   1.000  Hf
  O17      1.0000 0.03135  0.16296  0.58422  Biso   1.000  O
  O18      1.0000 0.03786  0.08255  0.83304  Biso   1.000  O
  O19      1.0000 0.46944  0.41335  0.58004  Biso   1.000  O
  O20      1.0000 0.47113  0.34183  0.82756  Biso   1.000  O
  O21      1.0000 0.27957  0.12412  0.79569  Biso   1.000  O
  O22      1.0000 0.27502  0.12516  0.54795  Biso   1.000  O
  O23      1.0000 0.22619  0.37370  0.79670  Biso   1.000  O
  O24      1.0000 0.22533  0.37558  0.54687  Biso   1.000  O
  O25      1.0000 0.53355  0.16444  0.66777  Biso   1.000  O
  O26      1.0000 0.54037  0.06248  0.89669  Biso   1.000  O
  O27      1.0000 0.97034  0.41399  0.66644  Biso   1.000  O
  O28      1.0000 0.97477  0.33444  0.91518  Biso   1.000  O
  O29      1.0000 0.78821  0.12160  0.94728  Biso   1.000  O
  O30      1.0000 0.78037  0.12290  0.70030  Biso   1.000  O
  O31      1.0000 0.74598  0.39167  0.95430  Biso   1.000  O
  O32      1.0000 0.72751  0.37457  0.70404  Biso   1.000  O
  Hf17     1.0000 0.13781  0.52203  0.17116  Biso   1.000  Hf
  Hf18     1.0000 0.13890  0.72887  0.42081  Biso   1.000  Hf
  Hf19     1.0000 0.36136  0.77348  0.17227  Biso   1.000  Hf
  Hf20     1.0000 0.36333  0.97901  0.42510  Biso   1.000  Hf
  Hf21     1.0000 0.64341  0.53316  0.08110  Biso   1.000  Hf
  Hf22     1.0000 0.63978  0.73220  0.32959  Biso   1.000  Hf
  Hf23     1.0000 0.86239  0.77355  0.07862  Biso   1.000  Hf
  Hf24     1.0000 0.86071  0.97955  0.32829  Biso   1.000  Hf
  O33      1.0000 0.03269  0.66433  0.08204  Biso   1.000  O
  O34      1.0000 0.03330  0.58558  0.33183  Biso   1.000  O
  O35      1.0000 0.46828  0.91038  0.07747  Biso   1.000  O
  O36      1.0000 0.46851  0.83832  0.33373  Biso   1.000  O
  O37      1.0000 0.27636  0.62437  0.29411  Biso   1.000  O
  O38      1.0000 0.27495  0.62851  0.04405  Biso   1.000  O
  O39      1.0000 0.22489  0.87481  0.29594  Biso   1.000  O
  O40      1.0000 0.22278  0.87597  0.04663  Biso   1.000  O
  O41      1.0000 0.53736  0.67454  0.16670  Biso   1.000  O
  O42      1.0000 0.53316  0.58647  0.41578  Biso   1.000  O
  O43      1.0000 0.96700  0.91627  0.16763  Biso   1.000  O
  O44      1.0000 0.96688  0.83459  0.41632  Biso   1.000  O
  O45      1.0000 0.77675  0.62366  0.45451  Biso   1.000  O
  O46      1.0000 0.77902  0.62990  0.20561  Biso   1.000  O
  O47      1.0000 0.72460  0.87450  0.45660  Biso   1.000  O
  O48      1.0000 0.72500  0.87806  0.20549  Biso   1.000  O
  Hf25     1.0000 0.14097  0.52014  0.67102  Biso   1.000  Hf
  Hf26     1.0000 0.14008  0.73051  0.92204  Biso   1.000  Hf
  Hf27     1.0000 0.36275  0.76811  0.67135  Biso   1.000  Hf
  Hf28     1.0000 0.36352  0.97570  0.91906  Biso   1.000  Hf
  Hf29     1.0000 0.64004  0.52043  0.57695  Biso   1.000  Hf
  Hf30     1.0000 0.63989  0.72859  0.82760  Biso   1.000  Hf
  Hf31     1.0000 0.86371  0.77027  0.57861  Biso   1.000  Hf
  Hf32     1.0000 0.86510  0.97761  0.82872  Biso   1.000  Hf
  O49      1.0000 0.03469  0.66385  0.58171  Biso   1.000  O
  O50      1.0000 0.03696  0.58715  0.83182  Biso   1.000  O
  O51      1.0000 0.46914  0.91119  0.58517  Biso   1.000  O
  O52      1.0000 0.46452  0.82536  0.83382  Biso   1.000  O
  O53      1.0000 0.27785  0.62250  0.79509  Biso   1.000  O
  O54      1.0000 0.27684  0.62452  0.54431  Biso   1.000  O
  O55      1.0000 0.22522  0.87257  0.79459  Biso   1.000  O
  O56      1.0000 0.22580  0.87523  0.54477  Biso   1.000  O
  O57      1.0000 0.53405  0.66193  0.66681  Biso   1.000  O
  O58      1.0000 0.53543  0.58292  0.91868  Biso   1.000  O
  O59      1.0000 0.97009  0.91294  0.66631  Biso   1.000  O
  O60      1.0000 0.96985  0.83630  0.91901  Biso   1.000  O
  O61      1.0000 0.77744  0.63179  0.95417  Biso   1.000  O
  O62      1.0000 0.77780  0.62475  0.70361  Biso   1.000  O
  O63      1.0000 0.72612  0.87487  0.95604  Biso   1.000  O
  O64      1.0000 0.72699  0.87299  0.70678  Biso   1.000  O
  Hg1      1.0000 0.56287  0.27212  0.04548  Biso   1.000  Hg
