data_image0
_cell_length_a       10.3934
_cell_length_b       10.5364
_cell_length_c       5.19133
_cell_angle_alpha    88.4478
_cell_angle_beta     96.1595
_cell_angle_gamma    91.3666

_symmetry_space_group_name_H-M    "P 1"
_symmetry_int_tables_number       1

loop_
  _symmetry_equiv_pos_as_xyz
  'x, y, z'

loop_
  _atom_site_label
  _atom_site_occupancy
  _atom_site_fract_x
  _atom_site_fract_y
  _atom_site_fract_z
  _atom_site_thermal_displace_type
  _atom_site_B_iso_or_equiv
  _atom_site_type_symbol
  Zr1      1.0000 0.18916  0.98074  0.08822  Biso   1.000  Zr
  Zr2      1.0000 0.08158  0.26891  0.82759  Biso   1.000  Zr
  Zr3      1.0000 0.33473  0.26259  0.31132  Biso   1.000  Zr
  Zr4      1.0000 0.32961  0.49251  0.80465  Biso   1.000  Zr
  O1       1.0000 0.91001  0.19152  0.66676  Biso   1.000  O
  O2       1.0000 0.08411  0.06567  0.77964  Biso   1.000  O
  O3       1.0000 0.45285  0.40989  0.55333  Biso   1.000  O
  O4       1.0000 0.45716  0.34888  0.05754  Biso   1.000  O
  O5       1.0000 0.27547  0.07581  0.42145  Biso   1.000  O
  O6       1.0000 0.25566  0.17573  0.99059  Biso   1.000  O
  O7       1.0000 0.20553  0.41081  0.05613  Biso   1.000  O
  O8       1.0000 0.20341  0.34075  0.55572  Biso   1.000  O
  Zr5      1.0000 0.07751  0.49503  0.30301  Biso   1.000  Zr
  Zr6      1.0000 0.17269  0.76043  0.61172  Biso   1.000  Zr
  Zr7      1.0000 0.42458  0.75852  0.11095  Biso   1.000  Zr
  Zr8      1.0000 0.43161  0.98856  0.60529  Biso   1.000  Zr
  O9       1.0000 0.01343  0.66597  0.44033  Biso   1.000  O
  O10      1.0000 0.99039  0.59220  0.98650  Biso   1.000  O
  O11      1.0000 0.54764  0.90452  0.36224  Biso   1.000  O
  O12      1.0000 0.55106  0.84329  0.86599  Biso   1.000  O
  O13      1.0000 0.23862  0.58564  0.48663  Biso   1.000  O
  O14      1.0000 0.26421  0.66508  0.93330  Biso   1.000  O
  O15      1.0000 0.30691  0.89983  0.85528  Biso   1.000  O
  O16      1.0000 0.29822  0.83902  0.35751  Biso   1.000  O
  Zr9      1.0000 0.67121  0.99128  0.10821  Biso   1.000  Zr
  Zr10     1.0000 0.57512  0.26485  0.81385  Biso   1.000  Zr
  Zr11     1.0000 0.81500  0.27007  0.32252  Biso   1.000  Zr
  Zr12     1.0000 0.83202  0.49466  0.81017  Biso   1.000  Zr
  O17      1.0000 0.49507  0.17129  0.48614  Biso   1.000  O
  O18      1.0000 0.51143  0.08138  0.93026  Biso   1.000  O
  O19      1.0000 0.95848  0.41570  0.55706  Biso   1.000  O
  O20      1.0000 0.94828  0.36023  0.06326  Biso   1.000  O
  O21      1.0000 0.75827  0.07664  0.42024  Biso   1.000  O
  O22      1.0000 0.73073  0.17588  0.99833  Biso   1.000  O
  O23      1.0000 0.70326  0.41302  0.05566  Biso   1.000  O
  O24      1.0000 0.69703  0.35186  0.55669  Biso   1.000  O
  Zr13     1.0000 0.57883  0.49312  0.30610  Biso   1.000  Zr
  Zr14     1.0000 0.67151  0.75737  0.61533  Biso   1.000  Zr
  Zr15     1.0000 0.92541  0.76231  0.12371  Biso   1.000  Zr
  Zr16     1.0000 0.91500  0.98551  0.61878  Biso   1.000  Zr
  O25      1.0000 0.51290  0.66495  0.43487  Biso   1.000  O
  O26      1.0000 0.48957  0.58730  0.98142  Biso   1.000  O
  O27      1.0000 0.04780  0.90443  0.35391  Biso   1.000  O
  O28      1.0000 0.04866  0.83844  0.86994  Biso   1.000  O
  O29      1.0000 0.73857  0.58703  0.48508  Biso   1.000  O
  O30      1.0000 0.76505  0.66892  0.93480  Biso   1.000  O
  O31      1.0000 0.80353  0.91298  0.88526  Biso   1.000  O
  O32      1.0000 0.79763  0.84129  0.37904  Biso   1.000  O
  Hg1      1.0000 0.05184  0.15582  0.31383  Biso   1.000  Hg
