data_image0
_cell_length_a       10.2324
_cell_length_b       10.3986
_cell_length_c       5.28071
_cell_angle_alpha    89.9248
_cell_angle_beta     78.8209
_cell_angle_gamma    89.7747

_symmetry_space_group_name_H-M    "P 1"
_symmetry_int_tables_number       1

loop_
  _symmetry_equiv_pos_as_xyz
  'x, y, z'

loop_
  _atom_site_label
  _atom_site_occupancy
  _atom_site_fract_x
  _atom_site_fract_y
  _atom_site_fract_z
  _atom_site_thermal_displace_type
  _atom_site_B_iso_or_equiv
  _atom_site_type_symbol
  Hf1      1.0000 0.13187  0.02016  0.28351  Biso   1.000  Hf
  Hf2      1.0000 0.13764  0.22870  0.77407  Biso   1.000  Hf
  Hf3      1.0000 0.34894  0.27829  0.19582  Biso   1.000  Hf
  Hf4      1.0000 0.35702  0.48383  0.70285  Biso   1.000  Hf
  O1       1.0000 0.03832  0.17022  0.15200  Biso   1.000  O
  O2       1.0000 0.02871  0.08263  0.65514  Biso   1.000  O
  O3       1.0000 0.46134  0.43408  0.34155  Biso   1.000  O
  O4       1.0000 0.48167  0.36406  0.89723  Biso   1.000  O
  O5       1.0000 0.26275  0.11777  0.45872  Biso   1.000  O
  O6       1.0000 0.27840  0.12130  0.96004  Biso   1.000  O
  O7       1.0000 0.21769  0.38198  0.00093  Biso   1.000  O
  O8       1.0000 0.20725  0.37534  0.49775  Biso   1.000  O
  Hf5      1.0000 0.13671  0.52368  0.28684  Biso   1.000  Hf
  Hf6      1.0000 0.13362  0.72730  0.79296  Biso   1.000  Hf
  Hf7      1.0000 0.35822  0.76920  0.20804  Biso   1.000  Hf
  Hf8      1.0000 0.35449  0.96387  0.70733  Biso   1.000  Hf
  O9       1.0000 0.02874  0.66747  0.15598  Biso   1.000  O
  O10      1.0000 0.03204  0.58604  0.65402  Biso   1.000  O
  O11      1.0000 0.46171  0.91584  0.33683  Biso   1.000  O
  O12      1.0000 0.45777  0.82240  0.84001  Biso   1.000  O
  O13      1.0000 0.27266  0.62791  0.48104  Biso   1.000  O
  O14      1.0000 0.27128  0.62346  0.98102  Biso   1.000  O
  O15      1.0000 0.21933  0.87701  0.01949  Biso   1.000  O
  O16      1.0000 0.21927  0.86592  0.51715  Biso   1.000  O
  Hf9      1.0000 0.63831  0.01473  0.30042  Biso   1.000  Hf
  Hf10     1.0000 0.66422  0.23671  0.83284  Biso   1.000  Hf
  Hf11     1.0000 0.86509  0.27274  0.22706  Biso   1.000  Hf
  Hf12     1.0000 0.86316  0.48160  0.71537  Biso   1.000  Hf
  O17      1.0000 0.53237  0.16467  0.15568  Biso   1.000  O
  O18      1.0000 0.53768  0.05204  0.67998  Biso   1.000  O
  O19      1.0000 0.96407  0.42120  0.34349  Biso   1.000  O
  O20      1.0000 0.96088  0.33042  0.84351  Biso   1.000  O
  O21      1.0000 0.77536  0.13089  0.50187  Biso   1.000  O
  O22      1.0000 0.78331  0.11527  0.00778  Biso   1.000  O
  O23      1.0000 0.72944  0.38176  0.04747  Biso   1.000  O
  O24      1.0000 0.72811  0.37520  0.54188  Biso   1.000  O
  Hf13     1.0000 0.63586  0.52735  0.30237  Biso   1.000  Hf
  Hf14     1.0000 0.63665  0.72764  0.79606  Biso   1.000  Hf
  Hf15     1.0000 0.85794  0.77151  0.21052  Biso   1.000  Hf
  Hf16     1.0000 0.85873  0.97728  0.71210  Biso   1.000  Hf
  O25      1.0000 0.53427  0.67211  0.16313  Biso   1.000  O
  O26      1.0000 0.53130  0.58757  0.66133  Biso   1.000  O
  O27      1.0000 0.96030  0.91581  0.34652  Biso   1.000  O
  O28      1.0000 0.96291  0.83370  0.84616  Biso   1.000  O
  O29      1.0000 0.77451  0.63075  0.48660  Biso   1.000  O
  O30      1.0000 0.77322  0.62219  0.98455  Biso   1.000  O
  O31      1.0000 0.72023  0.87744  0.02300  Biso   1.000  O
  O32      1.0000 0.72181  0.87033  0.52233  Biso   1.000  O
  In1      1.0000 0.45418  0.23060  0.59760  Biso   1.000  In
