data_image0
_cell_length_a       10.0542
_cell_length_b       10.284
_cell_length_c       10.5122
_cell_angle_alpha    89.8446
_cell_angle_beta     90.9862
_cell_angle_gamma    90.0046

_symmetry_space_group_name_H-M    "P 1"
_symmetry_int_tables_number       1

loop_
  _symmetry_equiv_pos_as_xyz
  'x, y, z'

loop_
  _atom_site_label
  _atom_site_occupancy
  _atom_site_fract_x
  _atom_site_fract_y
  _atom_site_fract_z
  _atom_site_thermal_displace_type
  _atom_site_B_iso_or_equiv
  _atom_site_type_symbol
  Hf1      1.0000 0.13526  0.01919  0.17259  Biso   1.000  Hf
  Hf2      1.0000 0.13513  0.22721  0.42764  Biso   1.000  Hf
  Hf3      1.0000 0.33965  0.26689  0.18939  Biso   1.000  Hf
  Hf4      1.0000 0.36132  0.47975  0.42406  Biso   1.000  Hf
  Hf5      1.0000 0.64304  0.01708  0.07182  Biso   1.000  Hf
  Hf6      1.0000 0.63541  0.22528  0.33314  Biso   1.000  Hf
  Hf7      1.0000 0.85833  0.27025  0.07437  Biso   1.000  Hf
  Hf8      1.0000 0.86018  0.47794  0.32752  Biso   1.000  Hf
  O1       1.0000 0.03336  0.16791  0.08615  Biso   1.000  O
  O2       1.0000 0.02947  0.08514  0.33470  Biso   1.000  O
  O3       1.0000 0.46359  0.43920  0.09951  Biso   1.000  O
  O4       1.0000 0.46257  0.33400  0.33629  Biso   1.000  O
  O5       1.0000 0.26670  0.12268  0.30283  Biso   1.000  O
  O6       1.0000 0.27191  0.11958  0.04949  Biso   1.000  O
  O7       1.0000 0.21430  0.37668  0.30387  Biso   1.000  O
  O8       1.0000 0.22021  0.37758  0.05160  Biso   1.000  O
  O9       1.0000 0.51229  0.14097  0.19572  Biso   1.000  O
  O10      1.0000 0.52969  0.08696  0.42792  Biso   1.000  O
  O11      1.0000 0.96213  0.41594  0.16676  Biso   1.000  O
  O12      1.0000 0.96598  0.33503  0.41788  Biso   1.000  O
  O13      1.0000 0.77524  0.12367  0.45360  Biso   1.000  O
  O14      1.0000 0.77163  0.12762  0.20412  Biso   1.000  O
  O15      1.0000 0.72350  0.37431  0.45399  Biso   1.000  O
  O16      1.0000 0.71666  0.37768  0.20404  Biso   1.000  O
  Hf9      1.0000 0.14199  0.02058  0.67378  Biso   1.000  Hf
  Hf10     1.0000 0.14088  0.22822  0.92439  Biso   1.000  Hf
  Hf11     1.0000 0.36458  0.27155  0.67475  Biso   1.000  Hf
  Hf12     1.0000 0.36038  0.48279  0.92509  Biso   1.000  Hf
  Hf13     1.0000 0.64052  0.01861  0.57954  Biso   1.000  Hf
  Hf14     1.0000 0.65360  0.22440  0.81510  Biso   1.000  Hf
  Hf15     1.0000 0.86340  0.27207  0.57680  Biso   1.000  Hf
  Hf16     1.0000 0.86801  0.48190  0.82658  Biso   1.000  Hf
  O17      1.0000 0.03334  0.16432  0.58550  Biso   1.000  O
  O18      1.0000 0.04000  0.08177  0.83404  Biso   1.000  O
  O19      1.0000 0.46974  0.41496  0.58294  Biso   1.000  O
  O20      1.0000 0.47709  0.34043  0.83053  Biso   1.000  O
  O21      1.0000 0.28109  0.12514  0.79753  Biso   1.000  O
  O22      1.0000 0.27695  0.12495  0.54915  Biso   1.000  O
  O23      1.0000 0.22878  0.37365  0.79934  Biso   1.000  O
  O24      1.0000 0.22593  0.37485  0.54978  Biso   1.000  O
  O25      1.0000 0.53684  0.16591  0.66505  Biso   1.000  O
  O26      1.0000 0.54084  0.06338  0.89680  Biso   1.000  O
  O27      1.0000 0.97112  0.41481  0.66627  Biso   1.000  O
  O28      1.0000 0.97055  0.33260  0.91446  Biso   1.000  O
  O29      1.0000 0.79273  0.11833  0.94547  Biso   1.000  O
  O30      1.0000 0.78445  0.12193  0.69821  Biso   1.000  O
  O31      1.0000 0.73808  0.39089  0.94982  Biso   1.000  O
  O32      1.0000 0.72989  0.37431  0.70120  Biso   1.000  O
  Hf17     1.0000 0.13586  0.52177  0.17262  Biso   1.000  Hf
  Hf18     1.0000 0.13796  0.72842  0.42142  Biso   1.000  Hf
  Hf19     1.0000 0.36132  0.77355  0.17343  Biso   1.000  Hf
  Hf20     1.0000 0.36126  0.97752  0.42637  Biso   1.000  Hf
  Hf21     1.0000 0.64490  0.53487  0.07940  Biso   1.000  Hf
  Hf22     1.0000 0.63923  0.73184  0.32960  Biso   1.000  Hf
  Hf23     1.0000 0.86399  0.77241  0.07888  Biso   1.000  Hf
  Hf24     1.0000 0.85995  0.98019  0.32864  Biso   1.000  Hf
  O33      1.0000 0.03430  0.66612  0.08376  Biso   1.000  O
  O34      1.0000 0.03129  0.58472  0.33387  Biso   1.000  O
  O35      1.0000 0.46931  0.91425  0.08136  Biso   1.000  O
  O36      1.0000 0.46793  0.83751  0.33526  Biso   1.000  O
  O37      1.0000 0.27530  0.62473  0.29512  Biso   1.000  O
  O38      1.0000 0.27657  0.62648  0.04570  Biso   1.000  O
  O39      1.0000 0.22372  0.87402  0.29709  Biso   1.000  O
  O40      1.0000 0.22380  0.87420  0.04796  Biso   1.000  O
  O41      1.0000 0.53673  0.67470  0.16638  Biso   1.000  O
  O42      1.0000 0.53238  0.58633  0.41579  Biso   1.000  O
  O43      1.0000 0.96483  0.91777  0.16661  Biso   1.000  O
  O44      1.0000 0.96620  0.83376  0.41570  Biso   1.000  O
  O45      1.0000 0.77660  0.62393  0.45400  Biso   1.000  O
  O46      1.0000 0.77925  0.62969  0.20565  Biso   1.000  O
  O47      1.0000 0.72473  0.87504  0.45594  Biso   1.000  O
  O48      1.0000 0.72491  0.87660  0.20504  Biso   1.000  O
  Hf25     1.0000 0.14166  0.51995  0.67231  Biso   1.000  Hf
  Hf26     1.0000 0.14180  0.72985  0.92278  Biso   1.000  Hf
  Hf27     1.0000 0.36278  0.76873  0.67276  Biso   1.000  Hf
  Hf28     1.0000 0.36372  0.97638  0.92103  Biso   1.000  Hf
  Hf29     1.0000 0.64026  0.52138  0.57656  Biso   1.000  Hf
  Hf30     1.0000 0.64024  0.72865  0.82664  Biso   1.000  Hf
  Hf31     1.0000 0.86424  0.77015  0.57820  Biso   1.000  Hf
  Hf32     1.0000 0.86762  0.97573  0.82740  Biso   1.000  Hf
  O49      1.0000 0.03518  0.66433  0.58343  Biso   1.000  O
  O50      1.0000 0.03865  0.58485  0.83423  Biso   1.000  O
  O51      1.0000 0.46914  0.91232  0.58639  Biso   1.000  O
  O52      1.0000 0.46567  0.82667  0.83516  Biso   1.000  O
  O53      1.0000 0.27881  0.62310  0.79606  Biso   1.000  O
  O54      1.0000 0.27642  0.62464  0.54561  Biso   1.000  O
  O55      1.0000 0.22589  0.87292  0.79615  Biso   1.000  O
  O56      1.0000 0.22511  0.87489  0.54640  Biso   1.000  O
  O57      1.0000 0.53431  0.66346  0.66580  Biso   1.000  O
  O58      1.0000 0.53471  0.58550  0.91758  Biso   1.000  O
  O59      1.0000 0.97160  0.91328  0.66538  Biso   1.000  O
  O60      1.0000 0.97085  0.83421  0.91839  Biso   1.000  O
  O61      1.0000 0.77954  0.63102  0.95300  Biso   1.000  O
  O62      1.0000 0.77820  0.62486  0.70310  Biso   1.000  O
  O63      1.0000 0.72768  0.87392  0.95534  Biso   1.000  O
  O64      1.0000 0.72778  0.87315  0.70545  Biso   1.000  O
  In1      1.0000 0.54635  0.26501  0.03346  Biso   1.000  In
