data_image0
_cell_length_a       5.12591
_cell_length_b       10.3579
_cell_length_c       10.5701
_cell_angle_alpha    89.8288
_cell_angle_beta     78.7162
_cell_angle_gamma    89.8493

_symmetry_space_group_name_H-M    "P 1"
_symmetry_int_tables_number       1

loop_
  _symmetry_equiv_pos_as_xyz
  'x, y, z'

loop_
  _atom_site_label
  _atom_site_occupancy
  _atom_site_fract_x
  _atom_site_fract_y
  _atom_site_fract_z
  _atom_site_thermal_displace_type
  _atom_site_B_iso_or_equiv
  _atom_site_type_symbol
  Hf1      1.0000 0.26462  0.01447  0.14553  Biso   1.000  Hf
  Hf2      1.0000 0.34374  0.23827  0.40543  Biso   1.000  Hf
  Hf3      1.0000 0.68728  0.27446  0.09921  Biso   1.000  Hf
  Hf4      1.0000 0.71974  0.48532  0.35081  Biso   1.000  Hf
  O1       1.0000 0.04592  0.16311  0.07916  Biso   1.000  O
  O2       1.0000 0.06455  0.05341  0.33714  Biso   1.000  O
  O3       1.0000 0.91274  0.43391  0.15774  Biso   1.000  O
  O4       1.0000 0.98401  0.36840  0.45298  Biso   1.000  O
  O5       1.0000 0.52716  0.11800  0.23806  Biso   1.000  O
  O6       1.0000 0.58325  0.11214  0.49497  Biso   1.000  O
  O7       1.0000 0.42681  0.38126  0.00806  Biso   1.000  O
  O8       1.0000 0.42201  0.38105  0.25604  Biso   1.000  O
  Hf5      1.0000 0.27931  0.02142  0.64643  Biso   1.000  Hf
  Hf6      1.0000 0.26483  0.22860  0.89564  Biso   1.000  Hf
  Hf7      1.0000 0.74663  0.27684  0.61230  Biso   1.000  Hf
  Hf8      1.0000 0.71640  0.47975  0.85844  Biso   1.000  Hf
  O9       1.0000 0.09159  0.16860  0.57558  Biso   1.000  O
  O10      1.0000 0.05955  0.08594  0.82604  Biso   1.000  O
  O11      1.0000 0.94639  0.41024  0.69004  Biso   1.000  O
  O12      1.0000 0.91740  0.33278  0.92560  Biso   1.000  O
  O13      1.0000 0.54736  0.12962  0.74200  Biso   1.000  O
  O14      1.0000 0.53304  0.12379  0.98953  Biso   1.000  O
  O15      1.0000 0.47732  0.38031  0.51651  Biso   1.000  O
  O16      1.0000 0.45334  0.37241  0.76284  Biso   1.000  O
  Hf9      1.0000 0.26596  0.52619  0.14396  Biso   1.000  Hf
  Hf10     1.0000 0.26773  0.72401  0.39767  Biso   1.000  Hf
  Hf11     1.0000 0.71246  0.77080  0.10249  Biso   1.000  Hf
  Hf12     1.0000 0.70477  0.96259  0.35618  Biso   1.000  Hf
  O17      1.0000 0.06339  0.67426  0.07659  Biso   1.000  O
  O18      1.0000 0.05692  0.58998  0.32249  Biso   1.000  O
  O19      1.0000 0.91603  0.91282  0.17173  Biso   1.000  O
  O20      1.0000 0.91573  0.82282  0.42417  Biso   1.000  O
  O21      1.0000 0.54520  0.62937  0.24203  Biso   1.000  O
  O22      1.0000 0.54010  0.62073  0.49111  Biso   1.000  O
  O23      1.0000 0.44340  0.87973  0.00859  Biso   1.000  O
  O24      1.0000 0.43259  0.86467  0.25885  Biso   1.000  O
  Hf13     1.0000 0.27681  0.52264  0.64975  Biso   1.000  Hf
  Hf14     1.0000 0.26807  0.73043  0.89627  Biso   1.000  Hf
  Hf15     1.0000 0.71958  0.77091  0.60667  Biso   1.000  Hf
  Hf16     1.0000 0.71684  0.97993  0.85268  Biso   1.000  Hf
  O25      1.0000 0.05620  0.66055  0.58045  Biso   1.000  O
  O26      1.0000 0.06173  0.58684  0.83054  Biso   1.000  O
  O27      1.0000 0.92964  0.91656  0.67129  Biso   1.000  O
  O28      1.0000 0.92626  0.83656  0.92037  Biso   1.000  O
  O29      1.0000 0.54643  0.62769  0.74114  Biso   1.000  O
  O30      1.0000 0.54375  0.62386  0.99102  Biso   1.000  O
  O31      1.0000 0.43425  0.87330  0.51238  Biso   1.000  O
  O32      1.0000 0.44616  0.87256  0.76060  Biso   1.000  O
  In1      1.0000 0.91763  0.23607  0.29985  Biso   1.000  In
