data_image0
_cell_length_a       10.2423
_cell_length_b       5.16746
_cell_length_c       10.5153
_cell_angle_alpha    90.0133
_cell_angle_beta     80.3369
_cell_angle_gamma    89.9961

_symmetry_space_group_name_H-M    "P 1"
_symmetry_int_tables_number       1

loop_
  _symmetry_equiv_pos_as_xyz
  'x, y, z'

loop_
  _atom_site_label
  _atom_site_occupancy
  _atom_site_fract_x
  _atom_site_fract_y
  _atom_site_fract_z
  _atom_site_thermal_displace_type
  _atom_site_B_iso_or_equiv
  _atom_site_type_symbol
  In1      1.0000 0.13706  0.03244  0.14646  Biso   1.000  In
  Zr1      1.0000 0.13983  0.04272  0.64519  Biso   1.000  Zr
  Zr2      1.0000 0.63892  0.03932  0.14540  Biso   1.000  Zr
  Zr3      1.0000 0.63913  0.04316  0.64580  Biso   1.000  Zr
  Zr4      1.0000 0.13986  0.45555  0.39409  Biso   1.000  Zr
  Zr5      1.0000 0.14133  0.45913  0.89606  Biso   1.000  Zr
  Zr6      1.0000 0.63761  0.45763  0.39536  Biso   1.000  Zr
  Zr7      1.0000 0.63975  0.45878  0.89598  Biso   1.000  Zr
  Zr8      1.0000 0.35908  0.53770  0.10431  Biso   1.000  Zr
  Zr9      1.0000 0.36036  0.54360  0.60431  Biso   1.000  Zr
  Zr10     1.0000 0.86193  0.53895  0.10465  Biso   1.000  Zr
  Zr11     1.0000 0.86073  0.54264  0.60459  Biso   1.000  Zr
  Zr12     1.0000 0.35933  0.95780  0.35301  Biso   1.000  Zr
  Zr13     1.0000 0.36137  0.95976  0.85506  Biso   1.000  Zr
  Zr14     1.0000 0.85845  0.95818  0.35548  Biso   1.000  Zr
  Zr15     1.0000 0.86140  0.95807  0.85506  Biso   1.000  Zr
  O1       1.0000 0.03582  0.34514  0.07768  Biso   1.000  O
  O2       1.0000 0.03472  0.33839  0.58151  Biso   1.000  O
  O3       1.0000 0.53512  0.33271  0.07870  Biso   1.000  O
  O4       1.0000 0.53324  0.33376  0.57939  Biso   1.000  O
  O5       1.0000 0.02977  0.16717  0.33698  Biso   1.000  O
  O6       1.0000 0.03479  0.16477  0.82920  Biso   1.000  O
  O7       1.0000 0.53346  0.16493  0.32909  Biso   1.000  O
  O8       1.0000 0.53577  0.16684  0.82840  Biso   1.000  O
  O9       1.0000 0.46682  0.83041  0.17095  Biso   1.000  O
  O10      1.0000 0.46668  0.83386  0.67076  Biso   1.000  O
  O11      1.0000 0.95639  0.83648  0.17196  Biso   1.000  O
  O12      1.0000 0.96564  0.83685  0.66970  Biso   1.000  O
  O13      1.0000 0.46512  0.66568  0.42141  Biso   1.000  O
  O14      1.0000 0.46878  0.66932  0.92082  Biso   1.000  O
  O15      1.0000 0.96527  0.66586  0.42086  Biso   1.000  O
  O16      1.0000 0.96578  0.66500  0.91911  Biso   1.000  O
  O17      1.0000 0.27829  0.25431  0.24190  Biso   1.000  O
  O18      1.0000 0.27542  0.25776  0.73902  Biso   1.000  O
  O19      1.0000 0.77367  0.25681  0.24132  Biso   1.000  O
  O20      1.0000 0.77616  0.25809  0.74042  Biso   1.000  O
  O21      1.0000 0.27516  0.24306  0.49070  Biso   1.000  O
  O22      1.0000 0.28204  0.25143  0.98409  Biso   1.000  O
  O23      1.0000 0.77381  0.24463  0.49160  Biso   1.000  O
  O24      1.0000 0.77516  0.24045  0.99017  Biso   1.000  O
  O25      1.0000 0.22862  0.75638  0.00595  Biso   1.000  O
  O26      1.0000 0.22429  0.75800  0.50942  Biso   1.000  O
  O27      1.0000 0.72514  0.75587  0.00921  Biso   1.000  O
  O28      1.0000 0.72399  0.75743  0.51014  Biso   1.000  O
  O29      1.0000 0.22681  0.73331  0.26031  Biso   1.000  O
  O30      1.0000 0.22541  0.74474  0.75820  Biso   1.000  O
  O31      1.0000 0.72110  0.74148  0.26099  Biso   1.000  O
  O32      1.0000 0.72565  0.74366  0.75926  Biso   1.000  O
