data_image0
_cell_length_a       5.12059
_cell_length_b       10.3362
_cell_length_c       10.5165
_cell_angle_alpha    90.0117
_cell_angle_beta     80.3217
_cell_angle_gamma    89.9879

_symmetry_space_group_name_H-M    "P 1"
_symmetry_int_tables_number       1

loop_
  _symmetry_equiv_pos_as_xyz
  'x, y, z'

loop_
  _atom_site_label
  _atom_site_occupancy
  _atom_site_fract_x
  _atom_site_fract_y
  _atom_site_fract_z
  _atom_site_thermal_displace_type
  _atom_site_B_iso_or_equiv
  _atom_site_type_symbol
  In1      1.0000 0.27469  0.01643  0.14714  Biso   1.000  In
  Zr1      1.0000 0.27864  0.02158  0.64524  Biso   1.000  Zr
  Zr2      1.0000 0.27844  0.51983  0.14454  Biso   1.000  Zr
  Zr3      1.0000 0.27903  0.52146  0.64570  Biso   1.000  Zr
  Zr4      1.0000 0.27749  0.22832  0.39464  Biso   1.000  Zr
  Zr5      1.0000 0.28072  0.22849  0.89622  Biso   1.000  Zr
  Zr6      1.0000 0.27742  0.72834  0.39497  Biso   1.000  Zr
  Zr7      1.0000 0.28103  0.73044  0.89565  Biso   1.000  Zr
  Zr8      1.0000 0.72142  0.26725  0.10429  Biso   1.000  Zr
  Zr9      1.0000 0.72045  0.27155  0.60446  Biso   1.000  Zr
  Zr10     1.0000 0.72028  0.77130  0.10469  Biso   1.000  Zr
  Zr11     1.0000 0.72165  0.77165  0.60444  Biso   1.000  Zr
  Zr12     1.0000 0.71962  0.47864  0.35376  Biso   1.000  Zr
  Zr13     1.0000 0.72286  0.47879  0.85495  Biso   1.000  Zr
  Zr14     1.0000 0.71619  0.97934  0.35462  Biso   1.000  Zr
  Zr15     1.0000 0.72225  0.98005  0.85504  Biso   1.000  Zr
  O1       1.0000 0.07167  0.17184  0.07741  Biso   1.000  O
  O2       1.0000 0.06825  0.16927  0.58115  Biso   1.000  O
  O3       1.0000 0.06897  0.66632  0.07850  Biso   1.000  O
  O4       1.0000 0.06802  0.66724  0.58004  Biso   1.000  O
  O5       1.0000 0.06000  0.08351  0.33740  Biso   1.000  O
  O6       1.0000 0.07140  0.08247  0.82858  Biso   1.000  O
  O7       1.0000 0.06682  0.58264  0.32868  Biso   1.000  O
  O8       1.0000 0.06914  0.58335  0.82909  Biso   1.000  O
  O9       1.0000 0.92983  0.41728  0.17061  Biso   1.000  O
  O10      1.0000 0.93213  0.41789  0.67035  Biso   1.000  O
  O11      1.0000 0.91869  0.91492  0.17296  Biso   1.000  O
  O12      1.0000 0.93207  0.91775  0.66999  Biso   1.000  O
  O13      1.0000 0.93068  0.33391  0.42114  Biso   1.000  O
  O14      1.0000 0.93430  0.33422  0.91987  Biso   1.000  O
  O15      1.0000 0.93029  0.83196  0.42122  Biso   1.000  O
  O16      1.0000 0.93486  0.83330  0.92033  Biso   1.000  O
  O17      1.0000 0.55488  0.12931  0.24331  Biso   1.000  O
  O18      1.0000 0.55171  0.12875  0.73917  Biso   1.000  O
  O19      1.0000 0.54983  0.62622  0.23991  Biso   1.000  O
  O20      1.0000 0.55114  0.62927  0.74032  Biso   1.000  O
  O21      1.0000 0.54793  0.12231  0.49185  Biso   1.000  O
  O22      1.0000 0.56283  0.12519  0.98467  Biso   1.000  O
  O23      1.0000 0.55024  0.62162  0.49043  Biso   1.000  O
  O24      1.0000 0.55048  0.62052  0.98977  Biso   1.000  O
  O25      1.0000 0.45121  0.37916  0.00898  Biso   1.000  O
  O26      1.0000 0.44850  0.37936  0.50941  Biso   1.000  O
  O27      1.0000 0.45590  0.87672  0.00606  Biso   1.000  O
  O28      1.0000 0.44817  0.87857  0.51001  Biso   1.000  O
  O29      1.0000 0.44750  0.37112  0.25942  Biso   1.000  O
  O30      1.0000 0.45109  0.37216  0.75903  Biso   1.000  O
  O31      1.0000 0.44861  0.86627  0.26163  Biso   1.000  O
  O32      1.0000 0.45064  0.87210  0.75835  Biso   1.000  O
