data_image0
_cell_length_a       10.0238
_cell_length_b       5.09707
_cell_length_c       10.4511
_cell_angle_alpha    90.0097
_cell_angle_beta     90.5125
_cell_angle_gamma    89.3958

_symmetry_space_group_name_H-M    "P 1"
_symmetry_int_tables_number       1

loop_
  _symmetry_equiv_pos_as_xyz
  'x, y, z'

loop_
  _atom_site_label
  _atom_site_occupancy
  _atom_site_fract_x
  _atom_site_fract_y
  _atom_site_fract_z
  _atom_site_thermal_displace_type
  _atom_site_B_iso_or_equiv
  _atom_site_type_symbol
  Ir1      1.0000 0.12469  0.02331  0.19007  Biso   1.000  Ir
  Hf1      1.0000 0.13754  0.45942  0.42071  Biso   1.000  Hf
  Hf2      1.0000 0.35744  0.54962  0.16593  Biso   1.000  Hf
  Hf3      1.0000 0.36042  0.95990  0.41991  Biso   1.000  Hf
  Hf4      1.0000 0.63897  0.04025  0.07714  Biso   1.000  Hf
  Hf5      1.0000 0.63497  0.45542  0.32726  Biso   1.000  Hf
  Hf6      1.0000 0.86502  0.52809  0.08067  Biso   1.000  Hf
  Hf7      1.0000 0.85408  0.95351  0.33187  Biso   1.000  Hf
  O1       1.0000 0.04453  0.31533  0.08995  Biso   1.000  O
  O2       1.0000 0.02700  0.17446  0.33512  Biso   1.000  O
  O3       1.0000 0.46752  0.83588  0.08356  Biso   1.000  O
  O4       1.0000 0.46106  0.66110  0.33540  Biso   1.000  O
  O5       1.0000 0.27211  0.23934  0.28419  Biso   1.000  O
  O6       1.0000 0.30060  0.30414  0.02391  Biso   1.000  O
  O7       1.0000 0.21603  0.74466  0.29445  Biso   1.000  O
  O8       1.0000 0.21775  0.78959  0.04883  Biso   1.000  O
  O9       1.0000 0.53468  0.33752  0.16334  Biso   1.000  O
  O10      1.0000 0.53274  0.16226  0.41329  Biso   1.000  O
  O11      1.0000 0.96559  0.82231  0.16752  Biso   1.000  O
  O12      1.0000 0.96543  0.67354  0.41955  Biso   1.000  O
  O13      1.0000 0.77468  0.24520  0.45608  Biso   1.000  O
  O14      1.0000 0.77631  0.24505  0.20569  Biso   1.000  O
  O15      1.0000 0.72057  0.74458  0.45621  Biso   1.000  O
  O16      1.0000 0.72536  0.74586  0.20628  Biso   1.000  O
  Hf8      1.0000 0.13829  0.04129  0.67046  Biso   1.000  Hf
  Hf9      1.0000 0.14367  0.45871  0.92155  Biso   1.000  Hf
  Hf10     1.0000 0.36157  0.54479  0.67151  Biso   1.000  Hf
  Hf11     1.0000 0.36056  0.96645  0.92264  Biso   1.000  Hf
  Hf12     1.0000 0.63751  0.04178  0.58036  Biso   1.000  Hf
  Hf13     1.0000 0.63949  0.45926  0.82946  Biso   1.000  Hf
  Hf14     1.0000 0.85985  0.54042  0.58067  Biso   1.000  Hf
  Hf15     1.0000 0.86477  0.95435  0.83165  Biso   1.000  Hf
  O17      1.0000 0.03159  0.32575  0.58088  Biso   1.000  O
  O18      1.0000 0.03515  0.17072  0.83441  Biso   1.000  O
  O19      1.0000 0.46506  0.83749  0.58405  Biso   1.000  O
  O20      1.0000 0.46806  0.67173  0.83261  Biso   1.000  O
  O21      1.0000 0.27606  0.24479  0.78690  Biso   1.000  O
  O22      1.0000 0.27613  0.25525  0.53980  Biso   1.000  O
  O23      1.0000 0.22474  0.74699  0.79663  Biso   1.000  O
  O24      1.0000 0.22278  0.75341  0.54411  Biso   1.000  O
  O25      1.0000 0.53469  0.33770  0.66354  Biso   1.000  O
  O26      1.0000 0.53883  0.16166  0.91173  Biso   1.000  O
  O27      1.0000 0.96856  0.82290  0.67049  Biso   1.000  O
  O28      1.0000 0.96866  0.66390  0.92300  Biso   1.000  O
  O29      1.0000 0.78032  0.24325  0.95679  Biso   1.000  O
  O30      1.0000 0.77772  0.25119  0.70634  Biso   1.000  O
  O31      1.0000 0.72612  0.74222  0.95698  Biso   1.000  O
  O32      1.0000 0.72475  0.75366  0.70649  Biso   1.000  O
