data_image0
_cell_length_a       10.086
_cell_length_b       10.2719
_cell_length_c       5.26817
_cell_angle_alpha    89.7468
_cell_angle_beta     90.6654
_cell_angle_gamma    90.0504

_symmetry_space_group_name_H-M    "P 1"
_symmetry_int_tables_number       1

loop_
  _symmetry_equiv_pos_as_xyz
  'x, y, z'

loop_
  _atom_site_label
  _atom_site_occupancy
  _atom_site_fract_x
  _atom_site_fract_y
  _atom_site_fract_z
  _atom_site_thermal_displace_type
  _atom_site_B_iso_or_equiv
  _atom_site_type_symbol
  Hf1      1.0000 0.13784  0.02010  0.34835  Biso   1.000  Hf
  Hf2      1.0000 0.13547  0.22763  0.85354  Biso   1.000  Hf
  Hf3      1.0000 0.34872  0.26822  0.36219  Biso   1.000  Hf
  Hf4      1.0000 0.36309  0.48115  0.84517  Biso   1.000  Hf
  Hf5      1.0000 0.64745  0.01466  0.14823  Biso   1.000  Hf
  Hf6      1.0000 0.64263  0.22733  0.62141  Biso   1.000  Hf
  Hf7      1.0000 0.85801  0.26902  0.15663  Biso   1.000  Hf
  Hf8      1.0000 0.86880  0.48198  0.66249  Biso   1.000  Hf
  O1       1.0000 0.03044  0.16282  0.16896  Biso   1.000  O
  O2       1.0000 0.03370  0.08490  0.66579  Biso   1.000  O
  O3       1.0000 0.45810  0.43775  0.19425  Biso   1.000  O
  O4       1.0000 0.47123  0.33953  0.65220  Biso   1.000  O
  O5       1.0000 0.27155  0.12568  0.60344  Biso   1.000  O
  O6       1.0000 0.27089  0.12190  0.09825  Biso   1.000  O
  O7       1.0000 0.22129  0.37553  0.60326  Biso   1.000  O
  O8       1.0000 0.22412  0.37476  0.09604  Biso   1.000  O
  O9       1.0000 0.51118  0.13394  0.36832  Biso   1.000  O
  O10      1.0000 0.53292  0.09069  0.84665  Biso   1.000  O
  O11      1.0000 0.97126  0.41340  0.33810  Biso   1.000  O
  O12      1.0000 0.96554  0.33619  0.84242  Biso   1.000  O
  O13      1.0000 0.78521  0.11974  0.89065  Biso   1.000  O
  O14      1.0000 0.78097  0.11953  0.40177  Biso   1.000  O
  O15      1.0000 0.71758  0.37413  0.91434  Biso   1.000  O
  O16      1.0000 0.73771  0.38380  0.42461  Biso   1.000  O
  Hf9      1.0000 0.14066  0.52019  0.34320  Biso   1.000  Hf
  Hf10     1.0000 0.14230  0.72925  0.84475  Biso   1.000  Hf
  Hf11     1.0000 0.36476  0.77254  0.34602  Biso   1.000  Hf
  Hf12     1.0000 0.36188  0.97781  0.85053  Biso   1.000  Hf
  Hf13     1.0000 0.64199  0.52755  0.16571  Biso   1.000  Hf
  Hf14     1.0000 0.64118  0.73005  0.65866  Biso   1.000  Hf
  Hf15     1.0000 0.86662  0.76940  0.15988  Biso   1.000  Hf
  Hf16     1.0000 0.86511  0.97651  0.65836  Biso   1.000  Hf
  O17      1.0000 0.03578  0.66227  0.16255  Biso   1.000  O
  O18      1.0000 0.03723  0.58827  0.66104  Biso   1.000  O
  O19      1.0000 0.47313  0.90710  0.15220  Biso   1.000  O
  O20      1.0000 0.47215  0.84138  0.66034  Biso   1.000  O
  O21      1.0000 0.28016  0.62404  0.59136  Biso   1.000  O
  O22      1.0000 0.27772  0.62649  0.08915  Biso   1.000  O
  O23      1.0000 0.22772  0.87409  0.59486  Biso   1.000  O
  O24      1.0000 0.22659  0.87531  0.09505  Biso   1.000  O
  O25      1.0000 0.53701  0.66950  0.33991  Biso   1.000  O
  O26      1.0000 0.53516  0.58686  0.83887  Biso   1.000  O
  O27      1.0000 0.97175  0.91109  0.33707  Biso   1.000  O
  O28      1.0000 0.97135  0.83453  0.83926  Biso   1.000  O
  O29      1.0000 0.77931  0.62372  0.91273  Biso   1.000  O
  O30      1.0000 0.77971  0.62858  0.41357  Biso   1.000  O
  O31      1.0000 0.72861  0.87176  0.91250  Biso   1.000  O
  O32      1.0000 0.72961  0.87354  0.41311  Biso   1.000  O
  Ir1      1.0000 0.56565  0.26410  0.10283  Biso   1.000  Ir
