data_image0
_cell_length_a       10.0137
_cell_length_b       10.4415
_cell_length_c       5.03719
_cell_angle_alpha    90.3295
_cell_angle_beta     89.3059
_cell_angle_gamma    90.4364

_symmetry_space_group_name_H-M    "P 1"
_symmetry_int_tables_number       1

loop_
  _symmetry_equiv_pos_as_xyz
  'x, y, z'

loop_
  _atom_site_label
  _atom_site_occupancy
  _atom_site_fract_x
  _atom_site_fract_y
  _atom_site_fract_z
  _atom_site_thermal_displace_type
  _atom_site_B_iso_or_equiv
  _atom_site_type_symbol
  Ir1      1.0000 0.12756  0.03952  0.21403  Biso   1.000  Ir
  Zr1      1.0000 0.13321  0.51424  0.25188  Biso   1.000  Zr
  Zr2      1.0000 0.63178  0.01383  0.24321  Biso   1.000  Zr
  Zr3      1.0000 0.63443  0.51820  0.25417  Biso   1.000  Zr
  Zr4      1.0000 0.13157  0.23647  0.74630  Biso   1.000  Zr
  Zr5      1.0000 0.13420  0.73404  0.75916  Biso   1.000  Zr
  Zr6      1.0000 0.63190  0.23301  0.75065  Biso   1.000  Zr
  Zr7      1.0000 0.63485  0.73642  0.75120  Biso   1.000  Zr
  Zr8      1.0000 0.36776  0.26520  0.24985  Biso   1.000  Zr
  Zr9      1.0000 0.36612  0.76439  0.25969  Biso   1.000  Zr
  Zr10     1.0000 0.86136  0.26680  0.24749  Biso   1.000  Zr
  Zr11     1.0000 0.87468  0.76774  0.24087  Biso   1.000  Zr
  Zr12     1.0000 0.36696  0.48548  0.75191  Biso   1.000  Zr
  Zr13     1.0000 0.36203  0.97959  0.75552  Biso   1.000  Zr
  Zr14     1.0000 0.86442  0.48591  0.75040  Biso   1.000  Zr
  Zr15     1.0000 0.86596  0.98608  0.73528  Biso   1.000  Zr
  O1       1.0000 0.03125  0.18649  0.38745  Biso   1.000  O
  O2       1.0000 0.03703  0.68437  0.39137  Biso   1.000  O
  O3       1.0000 0.53113  0.18204  0.39465  Biso   1.000  O
  O4       1.0000 0.53428  0.68196  0.40148  Biso   1.000  O
  O5       1.0000 0.03483  0.06306  0.88123  Biso   1.000  O
  O6       1.0000 0.03240  0.56554  0.89731  Biso   1.000  O
  O7       1.0000 0.53185  0.06851  0.89602  Biso   1.000  O
  O8       1.0000 0.53545  0.56803  0.89464  Biso   1.000  O
  O9       1.0000 0.46504  0.43214  0.38972  Biso   1.000  O
  O10      1.0000 0.47116  0.93053  0.40457  Biso   1.000  O
  O11      1.0000 0.96431  0.43190  0.39386  Biso   1.000  O
  O12      1.0000 0.97895  0.94147  0.37402  Biso   1.000  O
  O13      1.0000 0.46270  0.31633  0.89013  Biso   1.000  O
  O14      1.0000 0.46686  0.81924  0.90447  Biso   1.000  O
  O15      1.0000 0.96291  0.31579  0.88748  Biso   1.000  O
  O16      1.0000 0.96251  0.81766  0.87663  Biso   1.000  O
  O17      1.0000 0.25773  0.10602  0.49214  Biso   1.000  O
  O18      1.0000 0.26705  0.60868  0.50010  Biso   1.000  O
  O19      1.0000 0.76520  0.11667  0.49058  Biso   1.000  O
  O20      1.0000 0.77086  0.61723  0.49845  Biso   1.000  O
  O21      1.0000 0.26769  0.13403  0.99219  Biso   1.000  O
  O22      1.0000 0.26972  0.63451  0.00069  Biso   1.000  O
  O23      1.0000 0.77010  0.13401  0.98946  Biso   1.000  O
  O24      1.0000 0.76883  0.63591  0.99943  Biso   1.000  O
  O25      1.0000 0.22934  0.38363  0.99683  Biso   1.000  O
  O26      1.0000 0.22597  0.89010  0.03071  Biso   1.000  O
  O27      1.0000 0.72902  0.38382  0.99872  Biso   1.000  O
  O28      1.0000 0.73168  0.88567  0.98762  Biso   1.000  O
  O29      1.0000 0.23179  0.36225  0.49675  Biso   1.000  O
  O30      1.0000 0.24757  0.85007  0.53447  Biso   1.000  O
  O31      1.0000 0.72791  0.36746  0.49835  Biso   1.000  O
  O32      1.0000 0.73922  0.86620  0.48673  Biso   1.000  O
