data_image0
_cell_length_a       10.0228
_cell_length_b       10.4352
_cell_length_c       10.0645
_cell_angle_alpha    90.1713
_cell_angle_beta     89.6871
_cell_angle_gamma    90.194

_symmetry_space_group_name_H-M    "P 1"
_symmetry_int_tables_number       1

loop_
  _symmetry_equiv_pos_as_xyz
  'x, y, z'

loop_
  _atom_site_label
  _atom_site_occupancy
  _atom_site_fract_x
  _atom_site_fract_y
  _atom_site_fract_z
  _atom_site_thermal_displace_type
  _atom_site_B_iso_or_equiv
  _atom_site_type_symbol
  Ir1      1.0000 0.12584  0.03797  0.10583  Biso   1.000  Ir
  Zr1      1.0000 0.13477  0.01649  0.62804  Biso   1.000  Zr
  Zr2      1.0000 0.13296  0.51364  0.12580  Biso   1.000  Zr
  Zr3      1.0000 0.13403  0.51668  0.62594  Biso   1.000  Zr
  Zr4      1.0000 0.63406  0.01549  0.12559  Biso   1.000  Zr
  Zr5      1.0000 0.63134  0.01417  0.62195  Biso   1.000  Zr
  Zr6      1.0000 0.63501  0.51723  0.12757  Biso   1.000  Zr
  Zr7      1.0000 0.63340  0.51650  0.62513  Biso   1.000  Zr
  Zr8      1.0000 0.13318  0.23171  0.37576  Biso   1.000  Zr
  Zr9      1.0000 0.13245  0.23937  0.87281  Biso   1.000  Zr
  Zr10     1.0000 0.13593  0.73298  0.37692  Biso   1.000  Zr
  Zr11     1.0000 0.13279  0.73624  0.87882  Biso   1.000  Zr
  Zr12     1.0000 0.63321  0.23327  0.37679  Biso   1.000  Zr
  Zr13     1.0000 0.63256  0.23401  0.87411  Biso   1.000  Zr
  Zr14     1.0000 0.63592  0.73644  0.37501  Biso   1.000  Zr
  Zr15     1.0000 0.63251  0.73419  0.87621  Biso   1.000  Zr
  Zr16     1.0000 0.36757  0.26584  0.12516  Biso   1.000  Zr
  Zr17     1.0000 0.36643  0.26559  0.62502  Biso   1.000  Zr
  Zr18     1.0000 0.36603  0.76338  0.12750  Biso   1.000  Zr
  Zr19     1.0000 0.36626  0.76671  0.62825  Biso   1.000  Zr
  Zr20     1.0000 0.86228  0.26682  0.12516  Biso   1.000  Zr
  Zr21     1.0000 0.86551  0.26548  0.62451  Biso   1.000  Zr
  Zr22     1.0000 0.87242  0.76663  0.12322  Biso   1.000  Zr
  Zr23     1.0000 0.86801  0.76615  0.62335  Biso   1.000  Zr
  Zr24     1.0000 0.36684  0.48352  0.37606  Biso   1.000  Zr
  Zr25     1.0000 0.36616  0.48642  0.87557  Biso   1.000  Zr
  Zr26     1.0000 0.36381  0.98019  0.37382  Biso   1.000  Zr
  Zr27     1.0000 0.36378  0.98366  0.87937  Biso   1.000  Zr
  Zr28     1.0000 0.86598  0.48471  0.37609  Biso   1.000  Zr
  Zr29     1.0000 0.86497  0.48538  0.87507  Biso   1.000  Zr
  Zr30     1.0000 0.87075  0.98747  0.37287  Biso   1.000  Zr
  Zr31     1.0000 0.86068  0.98276  0.87157  Biso   1.000  Zr
  O1       1.0000 0.03198  0.18549  0.19371  Biso   1.000  O
  O2       1.0000 0.03468  0.18479  0.69602  Biso   1.000  O
  O3       1.0000 0.03724  0.68365  0.19465  Biso   1.000  O
  O4       1.0000 0.03570  0.68482  0.69534  Biso   1.000  O
  O5       1.0000 0.53178  0.18206  0.19763  Biso   1.000  O
  O6       1.0000 0.53570  0.18430  0.69317  Biso   1.000  O
  O7       1.0000 0.53650  0.68352  0.19742  Biso   1.000  O
  O8       1.0000 0.53418  0.68259  0.69716  Biso   1.000  O
  O9       1.0000 0.03532  0.06703  0.44985  Biso   1.000  O
  O10      1.0000 0.03593  0.06258  0.93565  Biso   1.000  O
  O11      1.0000 0.03480  0.56487  0.44682  Biso   1.000  O
  O12      1.0000 0.03368  0.56716  0.94595  Biso   1.000  O
  O13      1.0000 0.53492  0.06597  0.44402  Biso   1.000  O
  O14      1.0000 0.53277  0.06825  0.94750  Biso   1.000  O
  O15      1.0000 0.53667  0.56698  0.44419  Biso   1.000  O
  O16      1.0000 0.53458  0.56718  0.94719  Biso   1.000  O
  O17      1.0000 0.46515  0.43259  0.19383  Biso   1.000  O
  O18      1.0000 0.46432  0.43380  0.69524  Biso   1.000  O
  O19      1.0000 0.47069  0.93063  0.19743  Biso   1.000  O
  O20      1.0000 0.46408  0.93416  0.69840  Biso   1.000  O
  O21      1.0000 0.96391  0.43255  0.19607  Biso   1.000  O
  O22      1.0000 0.96486  0.43327  0.69543  Biso   1.000  O
  O23      1.0000 0.97933  0.94080  0.18873  Biso   1.000  O
  O24      1.0000 0.96379  0.93411  0.69294  Biso   1.000  O
  O25      1.0000 0.46493  0.31678  0.44531  Biso   1.000  O
  O26      1.0000 0.46220  0.31571  0.94376  Biso   1.000  O
  O27      1.0000 0.46923  0.81811  0.45167  Biso   1.000  O
  O28      1.0000 0.46048  0.81673  0.94372  Biso   1.000  O
  O29      1.0000 0.96380  0.31522  0.44339  Biso   1.000  O
  O30      1.0000 0.96388  0.31696  0.94551  Biso   1.000  O
  O31      1.0000 0.96558  0.81723  0.44139  Biso   1.000  O
  O32      1.0000 0.96068  0.81649  0.94099  Biso   1.000  O
  O33      1.0000 0.25753  0.10494  0.24459  Biso   1.000  O
  O34      1.0000 0.27067  0.11875  0.74963  Biso   1.000  O
  O35      1.0000 0.26826  0.60827  0.24868  Biso   1.000  O
  O36      1.0000 0.26848  0.61797  0.75066  Biso   1.000  O
  O37      1.0000 0.76784  0.11764  0.24803  Biso   1.000  O
  O38      1.0000 0.76711  0.11589  0.74669  Biso   1.000  O
  O39      1.0000 0.77183  0.61732  0.24918  Biso   1.000  O
  O40      1.0000 0.76891  0.61705  0.74914  Biso   1.000  O
  O41      1.0000 0.27122  0.13267  0.49650  Biso   1.000  O
  O42      1.0000 0.26541  0.13442  0.99828  Biso   1.000  O
  O43      1.0000 0.27158  0.63269  0.50010  Biso   1.000  O
  O44      1.0000 0.26784  0.63472  0.99952  Biso   1.000  O
  O45      1.0000 0.77004  0.13337  0.49737  Biso   1.000  O
  O46      1.0000 0.76981  0.13322  0.99676  Biso   1.000  O
  O47      1.0000 0.76900  0.63428  0.49895  Biso   1.000  O
  O48      1.0000 0.76940  0.63427  0.99975  Biso   1.000  O
  O49      1.0000 0.22976  0.38237  0.49916  Biso   1.000  O
  O50      1.0000 0.23036  0.38460  0.99848  Biso   1.000  O
  O51      1.0000 0.23036  0.88279  0.50473  Biso   1.000  O
  O52      1.0000 0.22535  0.88972  0.01026  Biso   1.000  O
  O53      1.0000 0.73074  0.38322  0.49966  Biso   1.000  O
  O54      1.0000 0.72884  0.38337  0.99883  Biso   1.000  O
  O55      1.0000 0.73374  0.88499  0.49637  Biso   1.000  O
  O56      1.0000 0.72766  0.88315  0.99725  Biso   1.000  O
  O57      1.0000 0.23219  0.36134  0.24892  Biso   1.000  O
  O58      1.0000 0.23023  0.36842  0.74861  Biso   1.000  O
  O59      1.0000 0.24767  0.84995  0.26196  Biso   1.000  O
  O60      1.0000 0.22982  0.86799  0.75428  Biso   1.000  O
  O61      1.0000 0.72841  0.36758  0.24956  Biso   1.000  O
  O62      1.0000 0.73025  0.36680  0.74887  Biso   1.000  O
  O63      1.0000 0.74026  0.86769  0.24637  Biso   1.000  O
  O64      1.0000 0.72933  0.86574  0.74676  Biso   1.000  O
