data_image0
_cell_length_a       10.1903
_cell_length_b       5.16861
_cell_length_c       10.6025
_cell_angle_alpha    89.9022
_cell_angle_beta     79.1349
_cell_angle_gamma    90.097

_symmetry_space_group_name_H-M    "P 1"
_symmetry_int_tables_number       1

loop_
  _symmetry_equiv_pos_as_xyz
  'x, y, z'

loop_
  _atom_site_label
  _atom_site_occupancy
  _atom_site_fract_x
  _atom_site_fract_y
  _atom_site_fract_z
  _atom_site_thermal_displace_type
  _atom_site_B_iso_or_equiv
  _atom_site_type_symbol
  Hf1      1.0000 0.13121  0.04311  0.14770  Biso   1.000  Hf
  Hf2      1.0000 0.13078  0.45275  0.39436  Biso   1.000  Hf
  Hf3      1.0000 0.34630  0.54914  0.08630  Biso   1.000  Hf
  Hf4      1.0000 0.35986  0.95652  0.35902  Biso   1.000  Hf
  O1       1.0000 0.03103  0.33092  0.07582  Biso   1.000  O
  O2       1.0000 0.02614  0.16516  0.32900  Biso   1.000  O
  O3       1.0000 0.45859  0.85888  0.16805  Biso   1.000  O
  O4       1.0000 0.47735  0.70469  0.44642  Biso   1.000  O
  O5       1.0000 0.26289  0.24826  0.23526  Biso   1.000  O
  O6       1.0000 0.28048  0.25528  0.48401  Biso   1.000  O
  O7       1.0000 0.21595  0.76937  0.00454  Biso   1.000  O
  O8       1.0000 0.22234  0.73271  0.25717  Biso   1.000  O
  Hf5      1.0000 0.13917  0.04517  0.64393  Biso   1.000  Hf
  Hf6      1.0000 0.13176  0.45645  0.89219  Biso   1.000  Hf
  Hf7      1.0000 0.36246  0.55161  0.60802  Biso   1.000  Hf
  Hf8      1.0000 0.35830  0.96437  0.85207  Biso   1.000  Hf
  O9       1.0000 0.03543  0.33323  0.57811  Biso   1.000  O
  O10      1.0000 0.03141  0.16884  0.82585  Biso   1.000  O
  O11      1.0000 0.46750  0.82993  0.68182  Biso   1.000  O
  O12      1.0000 0.46373  0.67608  0.92150  Biso   1.000  O
  O13      1.0000 0.27437  0.25485  0.73822  Biso   1.000  O
  O14      1.0000 0.27113  0.25303  0.98557  Biso   1.000  O
  O15      1.0000 0.22378  0.75961  0.50964  Biso   1.000  O
  O16      1.0000 0.22243  0.74340  0.75909  Biso   1.000  O
  Hf9      1.0000 0.63752  0.03776  0.14798  Biso   1.000  Hf
  Hf10     1.0000 0.65090  0.45076  0.41091  Biso   1.000  Hf
  Hf11     1.0000 0.85726  0.53968  0.10749  Biso   1.000  Hf
  Hf12     1.0000 0.85505  0.95144  0.35605  Biso   1.000  Hf
  O17      1.0000 0.52958  0.33475  0.07500  Biso   1.000  O
  O18      1.0000 0.55026  0.13367  0.34041  Biso   1.000  O
  O19      1.0000 0.96121  0.82541  0.17633  Biso   1.000  O
  O20      1.0000 0.96285  0.66637  0.42479  Biso   1.000  O
  O21      1.0000 0.77862  0.25324  0.24271  Biso   1.000  O
  O22      1.0000 0.78223  0.23724  0.49834  Biso   1.000  O
  O23      1.0000 0.72142  0.75487  0.01376  Biso   1.000  O
  O24      1.0000 0.71786  0.73087  0.26242  Biso   1.000  O
  Hf13     1.0000 0.63864  0.04396  0.65140  Biso   1.000  Hf
  Hf14     1.0000 0.63688  0.45643  0.89910  Biso   1.000  Hf
  Hf15     1.0000 0.86283  0.54529  0.61003  Biso   1.000  Hf
  Hf16     1.0000 0.85877  0.95698  0.85704  Biso   1.000  Hf
  O25      1.0000 0.53429  0.33088  0.58411  Biso   1.000  O
  O26      1.0000 0.53095  0.17478  0.82961  Biso   1.000  O
  O27      1.0000 0.96702  0.83235  0.67542  Biso   1.000  O
  O28      1.0000 0.96225  0.66888  0.92422  Biso   1.000  O
  O29      1.0000 0.77525  0.25888  0.74518  Biso   1.000  O
  O30      1.0000 0.77321  0.24185  0.99300  Biso   1.000  O
  O31      1.0000 0.72668  0.75434  0.51791  Biso   1.000  O
  O32      1.0000 0.72405  0.74554  0.76517  Biso   1.000  O
  K1       1.0000 0.44134  0.47033  0.28295  Biso   1.000  K
