data_image0
_cell_length_a       10.0467
_cell_length_b       10.2607
_cell_length_c       10.5242
_cell_angle_alpha    90.0132
_cell_angle_beta     90.6195
_cell_angle_gamma    90.067

_symmetry_space_group_name_H-M    "P 1"
_symmetry_int_tables_number       1

loop_
  _symmetry_equiv_pos_as_xyz
  'x, y, z'

loop_
  _atom_site_label
  _atom_site_occupancy
  _atom_site_fract_x
  _atom_site_fract_y
  _atom_site_fract_z
  _atom_site_thermal_displace_type
  _atom_site_B_iso_or_equiv
  _atom_site_type_symbol
  Hf1      1.0000 0.13929  0.02061  0.17273  Biso   1.000  Hf
  Hf2      1.0000 0.13795  0.22713  0.42603  Biso   1.000  Hf
  Hf3      1.0000 0.34855  0.27246  0.18635  Biso   1.000  Hf
  Hf4      1.0000 0.36168  0.47898  0.42438  Biso   1.000  Hf
  Hf5      1.0000 0.63940  0.00929  0.08020  Biso   1.000  Hf
  Hf6      1.0000 0.63635  0.22332  0.32979  Biso   1.000  Hf
  Hf7      1.0000 0.86789  0.27258  0.07533  Biso   1.000  Hf
  Hf8      1.0000 0.85924  0.47753  0.32633  Biso   1.000  Hf
  O1       1.0000 0.03612  0.16461  0.08289  Biso   1.000  O
  O2       1.0000 0.03083  0.08668  0.33211  Biso   1.000  O
  O3       1.0000 0.45295  0.43582  0.09904  Biso   1.000  O
  O4       1.0000 0.46578  0.33352  0.33729  Biso   1.000  O
  O5       1.0000 0.27165  0.12393  0.30133  Biso   1.000  O
  O6       1.0000 0.28120  0.12745  0.04747  Biso   1.000  O
  O7       1.0000 0.21800  0.37518  0.30296  Biso   1.000  O
  O8       1.0000 0.22059  0.37636  0.04894  Biso   1.000  O
  O9       1.0000 0.51788  0.13729  0.19210  Biso   1.000  O
  O10      1.0000 0.53018  0.08726  0.42798  Biso   1.000  O
  O11      1.0000 0.96702  0.41521  0.16851  Biso   1.000  O
  O12      1.0000 0.96808  0.33601  0.41729  Biso   1.000  O
  O13      1.0000 0.77651  0.12293  0.45205  Biso   1.000  O
  O14      1.0000 0.77288  0.12697  0.19957  Biso   1.000  O
  O15      1.0000 0.72396  0.37429  0.45295  Biso   1.000  O
  O16      1.0000 0.71819  0.37412  0.19986  Biso   1.000  O
  Hf9      1.0000 0.14023  0.02064  0.67367  Biso   1.000  Hf
  Hf10     1.0000 0.14310  0.22876  0.92276  Biso   1.000  Hf
  Hf11     1.0000 0.36239  0.27253  0.67421  Biso   1.000  Hf
  Hf12     1.0000 0.36046  0.48282  0.92543  Biso   1.000  Hf
  Hf13     1.0000 0.64056  0.01734  0.57714  Biso   1.000  Hf
  Hf14     1.0000 0.64984  0.22579  0.80907  Biso   1.000  Hf
  Hf15     1.0000 0.86446  0.27273  0.57406  Biso   1.000  Hf
  Hf16     1.0000 0.86558  0.48058  0.82788  Biso   1.000  Hf
  O17      1.0000 0.03259  0.16305  0.58320  Biso   1.000  O
  O18      1.0000 0.03545  0.08504  0.83369  Biso   1.000  O
  O19      1.0000 0.46973  0.41388  0.58334  Biso   1.000  O
  O20      1.0000 0.47253  0.33753  0.83233  Biso   1.000  O
  O21      1.0000 0.27868  0.12430  0.79684  Biso   1.000  O
  O22      1.0000 0.27673  0.12544  0.54933  Biso   1.000  O
  O23      1.0000 0.22687  0.37404  0.79800  Biso   1.000  O
  O24      1.0000 0.22492  0.37563  0.54939  Biso   1.000  O
  O25      1.0000 0.53322  0.16210  0.66592  Biso   1.000  O
  O26      1.0000 0.53793  0.07374  0.90997  Biso   1.000  O
  O27      1.0000 0.96993  0.41418  0.66734  Biso   1.000  O
  O28      1.0000 0.97328  0.33514  0.91648  Biso   1.000  O
  O29      1.0000 0.77588  0.12652  0.94995  Biso   1.000  O
  O30      1.0000 0.78187  0.12292  0.69789  Biso   1.000  O
  O31      1.0000 0.73606  0.38354  0.95017  Biso   1.000  O
  O32      1.0000 0.72768  0.37505  0.70018  Biso   1.000  O
  Hf17     1.0000 0.13925  0.52251  0.17333  Biso   1.000  Hf
  Hf18     1.0000 0.13771  0.72837  0.42264  Biso   1.000  Hf
  Hf19     1.0000 0.35970  0.77182  0.17478  Biso   1.000  Hf
  Hf20     1.0000 0.36139  0.97820  0.42571  Biso   1.000  Hf
  Hf21     1.0000 0.64027  0.53240  0.07950  Biso   1.000  Hf
  Hf22     1.0000 0.63879  0.72977  0.33053  Biso   1.000  Hf
  Hf23     1.0000 0.86413  0.77041  0.07871  Biso   1.000  Hf
  Hf24     1.0000 0.86258  0.97968  0.32768  Biso   1.000  Hf
  O33      1.0000 0.03370  0.66434  0.08304  Biso   1.000  O
  O34      1.0000 0.03118  0.58563  0.33341  Biso   1.000  O
  O35      1.0000 0.46813  0.90785  0.08020  Biso   1.000  O
  O36      1.0000 0.46834  0.83787  0.33459  Biso   1.000  O
  O37      1.0000 0.27490  0.62487  0.29772  Biso   1.000  O
  O38      1.0000 0.27547  0.62898  0.04579  Biso   1.000  O
  O39      1.0000 0.22343  0.87436  0.29753  Biso   1.000  O
  O40      1.0000 0.22316  0.87786  0.04746  Biso   1.000  O
  O41      1.0000 0.53396  0.67067  0.16984  Biso   1.000  O
  O42      1.0000 0.53230  0.58615  0.41755  Biso   1.000  O
  O43      1.0000 0.96759  0.91628  0.16712  Biso   1.000  O
  O44      1.0000 0.96712  0.83615  0.41809  Biso   1.000  O
  O45      1.0000 0.77682  0.62390  0.45449  Biso   1.000  O
  O46      1.0000 0.77822  0.62708  0.20586  Biso   1.000  O
  O47      1.0000 0.72472  0.87398  0.45583  Biso   1.000  O
  O48      1.0000 0.72613  0.87319  0.20604  Biso   1.000  O
  Hf25     1.0000 0.14053  0.52099  0.67293  Biso   1.000  Hf
  Hf26     1.0000 0.14046  0.73037  0.92251  Biso   1.000  Hf
  Hf27     1.0000 0.36231  0.76972  0.67297  Biso   1.000  Hf
  Hf28     1.0000 0.36383  0.97743  0.92159  Biso   1.000  Hf
  Hf29     1.0000 0.64020  0.52166  0.57668  Biso   1.000  Hf
  Hf30     1.0000 0.64035  0.72849  0.82716  Biso   1.000  Hf
  Hf31     1.0000 0.86335  0.77061  0.57924  Biso   1.000  Hf
  Hf32     1.0000 0.86456  0.97853  0.82990  Biso   1.000  Hf
  O49      1.0000 0.03398  0.66448  0.58363  Biso   1.000  O
  O50      1.0000 0.03617  0.58618  0.83368  Biso   1.000  O
  O51      1.0000 0.46942  0.91120  0.58441  Biso   1.000  O
  O52      1.0000 0.46763  0.83160  0.83322  Biso   1.000  O
  O53      1.0000 0.27789  0.62443  0.79637  Biso   1.000  O
  O54      1.0000 0.27632  0.62519  0.54644  Biso   1.000  O
  O55      1.0000 0.22515  0.87372  0.79645  Biso   1.000  O
  O56      1.0000 0.22446  0.87564  0.54724  Biso   1.000  O
  O57      1.0000 0.53372  0.66295  0.66742  Biso   1.000  O
  O58      1.0000 0.53363  0.58607  0.91886  Biso   1.000  O
  O59      1.0000 0.96914  0.91368  0.66895  Biso   1.000  O
  O60      1.0000 0.96928  0.83613  0.91861  Biso   1.000  O
  O61      1.0000 0.77931  0.62837  0.95256  Biso   1.000  O
  O62      1.0000 0.77797  0.62511  0.70352  Biso   1.000  O
  O63      1.0000 0.72685  0.87389  0.95596  Biso   1.000  O
  O64      1.0000 0.72652  0.87439  0.70669  Biso   1.000  O
  K1       1.0000 0.56470  0.26431  0.02912  Biso   1.000  K
