data_image0
_cell_length_a       10.1417
_cell_length_b       5.23518
_cell_length_c       10.1741
_cell_angle_alpha    90.0275
_cell_angle_beta     89.66
_cell_angle_gamma    90.3071

_symmetry_space_group_name_H-M    "P 1"
_symmetry_int_tables_number       1

loop_
  _symmetry_equiv_pos_as_xyz
  'x, y, z'

loop_
  _atom_site_label
  _atom_site_occupancy
  _atom_site_fract_x
  _atom_site_fract_y
  _atom_site_fract_z
  _atom_site_thermal_displace_type
  _atom_site_B_iso_or_equiv
  _atom_site_type_symbol
  K1       1.0000 0.10165  0.97721  0.13688  Biso   1.000  K
  Zr1      1.0000 0.13740  0.03412  0.62376  Biso   1.000  Zr
  Zr2      1.0000 0.63175  0.03395  0.11723  Biso   1.000  Zr
  Zr3      1.0000 0.62946  0.03126  0.62383  Biso   1.000  Zr
  Zr4      1.0000 0.14078  0.47276  0.37460  Biso   1.000  Zr
  Zr5      1.0000 0.14224  0.46366  0.87684  Biso   1.000  Zr
  Zr6      1.0000 0.63144  0.46400  0.37239  Biso   1.000  Zr
  Zr7      1.0000 0.62867  0.47366  0.86798  Biso   1.000  Zr
  Zr8      1.0000 0.36460  0.51149  0.12512  Biso   1.000  Zr
  Zr9      1.0000 0.36605  0.53604  0.62457  Biso   1.000  Zr
  Zr10     1.0000 0.88897  0.46971  0.08303  Biso   1.000  Zr
  Zr11     1.0000 0.87235  0.53774  0.62256  Biso   1.000  Zr
  Zr12     1.0000 0.36888  0.96739  0.37054  Biso   1.000  Zr
  Zr13     1.0000 0.36130  0.96270  0.87977  Biso   1.000  Zr
  Zr14     1.0000 0.86411  0.99185  0.39009  Biso   1.000  Zr
  Zr15     1.0000 0.86126  0.97062  0.86762  Biso   1.000  Zr
  O1       1.0000 0.03788  0.42587  0.20484  Biso   1.000  O
  O2       1.0000 0.03626  0.36925  0.69503  Biso   1.000  O
  O3       1.0000 0.53937  0.35594  0.19777  Biso   1.000  O
  O4       1.0000 0.53111  0.36283  0.69472  Biso   1.000  O
  O5       1.0000 0.03531  0.14236  0.44559  Biso   1.000  O
  O6       1.0000 0.99682  0.21770  0.95231  Biso   1.000  O
  O7       1.0000 0.53875  0.13779  0.44536  Biso   1.000  O
  O8       1.0000 0.52587  0.14477  0.94744  Biso   1.000  O
  O9       1.0000 0.48252  0.84443  0.20410  Biso   1.000  O
  O10      1.0000 0.46846  0.86236  0.70186  Biso   1.000  O
  O11      1.0000 0.86945  0.78145  0.21398  Biso   1.000  O
  O12      1.0000 0.96606  0.87475  0.69352  Biso   1.000  O
  O13      1.0000 0.47506  0.63780  0.45484  Biso   1.000  O
  O14      1.0000 0.47713  0.64927  0.95208  Biso   1.000  O
  O15      1.0000 0.97428  0.65490  0.45106  Biso   1.000  O
  O16      1.0000 0.98643  0.69581  0.94522  Biso   1.000  O
  O17      1.0000 0.28432  0.23661  0.25555  Biso   1.000  O
  O18      1.0000 0.26851  0.23414  0.74895  Biso   1.000  O
  O19      1.0000 0.77598  0.23513  0.24155  Biso   1.000  O
  O20      1.0000 0.76728  0.23485  0.74041  Biso   1.000  O
  O21      1.0000 0.27146  0.26840  0.50186  Biso   1.000  O
  O22      1.0000 0.27033  0.25141  0.99330  Biso   1.000  O
  O23      1.0000 0.76827  0.28154  0.49597  Biso   1.000  O
  O24      1.0000 0.75405  0.25098  0.98581  Biso   1.000  O
  O25      1.0000 0.23643  0.77361  0.50003  Biso   1.000  O
  O26      1.0000 0.24552  0.72814  0.99404  Biso   1.000  O
  O27      1.0000 0.73437  0.77449  0.49732  Biso   1.000  O
  O28      1.0000 0.73883  0.74997  0.99248  Biso   1.000  O
  O29      1.0000 0.25565  0.70867  0.25981  Biso   1.000  O
  O30      1.0000 0.22981  0.73897  0.74687  Biso   1.000  O
  O31      1.0000 0.72988  0.75774  0.24143  Biso   1.000  O
  O32      1.0000 0.73217  0.73351  0.74331  Biso   1.000  O
