data_image0
_cell_length_a       10.2721
_cell_length_b       5.20694
_cell_length_c       10.6598
_cell_angle_alpha    89.9057
_cell_angle_beta     79.0665
_cell_angle_gamma    90.127

_symmetry_space_group_name_H-M    "P 1"
_symmetry_int_tables_number       1

loop_
  _symmetry_equiv_pos_as_xyz
  'x, y, z'

loop_
  _atom_site_label
  _atom_site_occupancy
  _atom_site_fract_x
  _atom_site_fract_y
  _atom_site_fract_z
  _atom_site_thermal_displace_type
  _atom_site_B_iso_or_equiv
  _atom_site_type_symbol
  Zr1      1.0000 0.13135  0.04361  0.14705  Biso   1.000  Zr
  Zr2      1.0000 0.13062  0.45310  0.39369  Biso   1.000  Zr
  Zr3      1.0000 0.34597  0.54907  0.08579  Biso   1.000  Zr
  Zr4      1.0000 0.35980  0.95655  0.35929  Biso   1.000  Zr
  O1       1.0000 0.03042  0.33009  0.07560  Biso   1.000  O
  O2       1.0000 0.02585  0.16592  0.32879  Biso   1.000  O
  O3       1.0000 0.45973  0.85887  0.16893  Biso   1.000  O
  O4       1.0000 0.47748  0.70335  0.44626  Biso   1.000  O
  O5       1.0000 0.26246  0.24815  0.23507  Biso   1.000  O
  O6       1.0000 0.27974  0.25553  0.48368  Biso   1.000  O
  O7       1.0000 0.21638  0.76920  0.00393  Biso   1.000  O
  O8       1.0000 0.22343  0.73278  0.25659  Biso   1.000  O
  Zr5      1.0000 0.13897  0.04518  0.64318  Biso   1.000  Zr
  Zr6      1.0000 0.13147  0.45662  0.89140  Biso   1.000  Zr
  Zr7      1.0000 0.36259  0.55142  0.60811  Biso   1.000  Zr
  Zr8      1.0000 0.35808  0.96456  0.85192  Biso   1.000  Zr
  O9       1.0000 0.03479  0.33211  0.57772  Biso   1.000  O
  O10      1.0000 0.03052  0.17029  0.82540  Biso   1.000  O
  O11      1.0000 0.46827  0.82847  0.68225  Biso   1.000  O
  O12      1.0000 0.46406  0.67817  0.92221  Biso   1.000  O
  O13      1.0000 0.27331  0.25451  0.73781  Biso   1.000  O
  O14      1.0000 0.27011  0.25371  0.98521  Biso   1.000  O
  O15      1.0000 0.22469  0.75912  0.50927  Biso   1.000  O
  O16      1.0000 0.22320  0.74397  0.75847  Biso   1.000  O
  Zr9      1.0000 0.63772  0.03736  0.14810  Biso   1.000  Zr
  Zr10     1.0000 0.65128  0.45047  0.41066  Biso   1.000  Zr
  Zr11     1.0000 0.85737  0.53974  0.10807  Biso   1.000  Zr
  Zr12     1.0000 0.85547  0.95129  0.35649  Biso   1.000  Zr
  O17      1.0000 0.52887  0.33479  0.07498  Biso   1.000  O
  O18      1.0000 0.54969  0.13463  0.34044  Biso   1.000  O
  O19      1.0000 0.96214  0.82454  0.17677  Biso   1.000  O
  O20      1.0000 0.96360  0.66696  0.42519  Biso   1.000  O
  O21      1.0000 0.77824  0.25295  0.24321  Biso   1.000  O
  O22      1.0000 0.78161  0.23773  0.49868  Biso   1.000  O
  O23      1.0000 0.72228  0.75400  0.01395  Biso   1.000  O
  O24      1.0000 0.71887  0.73162  0.26274  Biso   1.000  O
  Zr13     1.0000 0.63865  0.04411  0.65128  Biso   1.000  Zr
  Zr14     1.0000 0.63670  0.45615  0.89934  Biso   1.000  Zr
  Zr15     1.0000 0.86281  0.54519  0.61088  Biso   1.000  Zr
  Zr16     1.0000 0.85859  0.95683  0.85778  Biso   1.000  Zr
  O25      1.0000 0.53395  0.32948  0.58373  Biso   1.000  O
  O26      1.0000 0.52981  0.17692  0.82906  Biso   1.000  O
  O27      1.0000 0.96760  0.83096  0.67587  Biso   1.000  O
  O28      1.0000 0.96292  0.67015  0.92462  Biso   1.000  O
  O29      1.0000 0.77432  0.25818  0.74573  Biso   1.000  O
  O30      1.0000 0.77248  0.24212  0.99346  Biso   1.000  O
  O31      1.0000 0.72761  0.75364  0.51798  Biso   1.000  O
  O32      1.0000 0.72464  0.74599  0.76552  Biso   1.000  O
  K1       1.0000 0.44082  0.47004  0.28285  Biso   1.000  K
