data_image0
_cell_length_a       5.05172
_cell_length_b       10.4607
_cell_length_c       10.1801
_cell_angle_alpha    89.8977
_cell_angle_beta     89.7894
_cell_angle_gamma    89.9518

_symmetry_space_group_name_H-M    "P 1"
_symmetry_int_tables_number       1

loop_
  _symmetry_equiv_pos_as_xyz
  'x, y, z'

loop_
  _atom_site_label
  _atom_site_occupancy
  _atom_site_fract_x
  _atom_site_fract_y
  _atom_site_fract_z
  _atom_site_thermal_displace_type
  _atom_site_B_iso_or_equiv
  _atom_site_type_symbol
  K1       1.0000 0.23334  0.99150  0.12265  Biso   1.000  K
  Zr1      1.0000 0.26040  0.01966  0.63160  Biso   1.000  Zr
  Zr2      1.0000 0.26440  0.51141  0.13077  Biso   1.000  Zr
  Zr3      1.0000 0.26981  0.51600  0.62667  Biso   1.000  Zr
  Zr4      1.0000 0.26444  0.23388  0.37561  Biso   1.000  Zr
  Zr5      1.0000 0.27664  0.23165  0.87741  Biso   1.000  Zr
  Zr6      1.0000 0.26534  0.72957  0.38008  Biso   1.000  Zr
  Zr7      1.0000 0.27783  0.73416  0.87038  Biso   1.000  Zr
  Zr8      1.0000 0.72184  0.26117  0.13055  Biso   1.000  Zr
  Zr9      1.0000 0.73284  0.26945  0.62586  Biso   1.000  Zr
  Zr10     1.0000 0.76729  0.73336  0.08793  Biso   1.000  Zr
  Zr11     1.0000 0.73502  0.76742  0.62164  Biso   1.000  Zr
  Zr12     1.0000 0.72800  0.48466  0.37612  Biso   1.000  Zr
  Zr13     1.0000 0.72934  0.47621  0.87811  Biso   1.000  Zr
  Zr14     1.0000 0.72366  0.99634  0.38997  Biso   1.000  Zr
  Zr15     1.0000 0.72319  0.98560  0.87238  Biso   1.000  Zr
  O1       1.0000 0.05041  0.19485  0.21038  Biso   1.000  O
  O2       1.0000 0.07918  0.19275  0.68598  Biso   1.000  O
  O3       1.0000 0.09286  0.69873  0.20088  Biso   1.000  O
  O4       1.0000 0.06844  0.68396  0.69449  Biso   1.000  O
  O5       1.0000 0.06705  0.06876  0.44948  Biso   1.000  O
  O6       1.0000 0.07680  0.06858  0.89793  Biso   1.000  O
  O7       1.0000 0.06965  0.57203  0.44766  Biso   1.000  O
  O8       1.0000 0.01386  0.59014  0.97033  Biso   1.000  O
  O9       1.0000 0.92120  0.44076  0.19884  Biso   1.000  O
  O10      1.0000 0.93696  0.43563  0.70254  Biso   1.000  O
  O11      1.0000 0.79928  0.91821  0.19482  Biso   1.000  O
  O12      1.0000 0.91375  0.93587  0.68328  Biso   1.000  O
  O13      1.0000 0.93097  0.32379  0.45091  Biso   1.000  O
  O14      1.0000 0.94215  0.32324  0.95114  Biso   1.000  O
  O15      1.0000 0.93401  0.82092  0.44472  Biso   1.000  O
  O16      1.0000 0.97082  0.83201  0.94320  Biso   1.000  O
  O17      1.0000 0.55336  0.12716  0.26360  Biso   1.000  O
  O18      1.0000 0.54488  0.12138  0.74710  Biso   1.000  O
  O19      1.0000 0.53539  0.61165  0.24667  Biso   1.000  O
  O20      1.0000 0.54167  0.61678  0.74676  Biso   1.000  O
  O21      1.0000 0.53106  0.13501  0.50709  Biso   1.000  O
  O22      1.0000 0.56368  0.13455  0.99273  Biso   1.000  O
  O23      1.0000 0.54193  0.63343  0.49799  Biso   1.000  O
  O24      1.0000 0.50795  0.61492  0.99201  Biso   1.000  O
  O25      1.0000 0.46093  0.38580  0.50132  Biso   1.000  O
  O26      1.0000 0.45542  0.37983  0.00310  Biso   1.000  O
  O27      1.0000 0.44886  0.88519  0.49435  Biso   1.000  O
  O28      1.0000 0.50353  0.85461  0.98552  Biso   1.000  O
  O29      1.0000 0.45470  0.36955  0.25265  Biso   1.000  O
  O30      1.0000 0.46351  0.36924  0.75127  Biso   1.000  O
  O31      1.0000 0.57435  0.85372  0.24378  Biso   1.000  O
  O32      1.0000 0.45597  0.86954  0.74261  Biso   1.000  O
