data_image0
_cell_length_a       10.0617
_cell_length_b       5.19795
_cell_length_c       10.0873
_cell_angle_alpha    90.1814
_cell_angle_beta     90.4318
_cell_angle_gamma    90.1705

_symmetry_space_group_name_H-M    "P 1"
_symmetry_int_tables_number       1

loop_
  _symmetry_equiv_pos_as_xyz
  'x, y, z'

loop_
  _atom_site_label
  _atom_site_occupancy
  _atom_site_fract_x
  _atom_site_fract_y
  _atom_site_fract_z
  _atom_site_thermal_displace_type
  _atom_site_B_iso_or_equiv
  _atom_site_type_symbol
  La1      1.0000 0.12184  0.00986  0.12174  Biso   1.000  La
  Hf1      1.0000 0.13557  0.46729  0.37873  Biso   1.000  Hf
  Hf2      1.0000 0.36824  0.52180  0.12566  Biso   1.000  Hf
  Hf3      1.0000 0.36501  0.96619  0.37467  Biso   1.000  Hf
  O1       1.0000 0.03101  0.40961  0.20222  Biso   1.000  O
  O2       1.0000 0.03514  0.12838  0.44016  Biso   1.000  O
  O3       1.0000 0.46536  0.86671  0.19396  Biso   1.000  O
  O4       1.0000 0.46481  0.63108  0.44839  Biso   1.000  O
  O5       1.0000 0.27872  0.24140  0.25496  Biso   1.000  O
  O6       1.0000 0.26967  0.26206  0.50143  Biso   1.000  O
  O7       1.0000 0.22975  0.76693  0.49992  Biso   1.000  O
  O8       1.0000 0.24340  0.71337  0.25702  Biso   1.000  O
  Hf4      1.0000 0.13421  0.03335  0.62511  Biso   1.000  Hf
  Hf5      1.0000 0.13806  0.47130  0.87066  Biso   1.000  Hf
  Hf6      1.0000 0.36631  0.53156  0.62502  Biso   1.000  Hf
  Hf7      1.0000 0.37002  0.96586  0.87428  Biso   1.000  Hf
  O9       1.0000 0.04092  0.37801  0.68329  Biso   1.000  O
  O10      1.0000 0.02970  0.15662  0.91805  Biso   1.000  O
  O11      1.0000 0.46704  0.86373  0.69603  Biso   1.000  O
  O12      1.0000 0.47445  0.63487  0.94601  Biso   1.000  O
  O13      1.0000 0.27210  0.23508  0.74732  Biso   1.000  O
  O14      1.0000 0.27701  0.26453  0.99155  Biso   1.000  O
  O15      1.0000 0.24532  0.74381  0.99000  Biso   1.000  O
  O16      1.0000 0.23153  0.73942  0.74512  Biso   1.000  O
  Hf8      1.0000 0.63472  0.02864  0.12623  Biso   1.000  Hf
  Hf9      1.0000 0.63086  0.46386  0.37926  Biso   1.000  Hf
  Hf10     1.0000 0.85779  0.53196  0.13049  Biso   1.000  Hf
  Hf11     1.0000 0.85993  0.96798  0.38262  Biso   1.000  Hf
  O17      1.0000 0.53756  0.36220  0.19556  Biso   1.000  O
  O18      1.0000 0.53511  0.12879  0.44760  Biso   1.000  O
  O19      1.0000 0.92743  0.88065  0.19872  Biso   1.000  O
  O20      1.0000 0.96310  0.63580  0.44585  Biso   1.000  O
  O21      1.0000 0.76575  0.23878  0.25407  Biso   1.000  O
  O22      1.0000 0.76827  0.26518  0.50195  Biso   1.000  O
  O23      1.0000 0.72796  0.76195  0.50310  Biso   1.000  O
  O24      1.0000 0.71589  0.73359  0.25366  Biso   1.000  O
  Hf12     1.0000 0.63338  0.03163  0.62717  Biso   1.000  Hf
  Hf13     1.0000 0.63703  0.46389  0.87551  Biso   1.000  Hf
  Hf14     1.0000 0.86768  0.53341  0.62465  Biso   1.000  Hf
  Hf15     1.0000 0.86438  0.96385  0.87369  Biso   1.000  Hf
  O25      1.0000 0.53537  0.36464  0.69605  Biso   1.000  O
  O26      1.0000 0.53916  0.13096  0.94493  Biso   1.000  O
  O27      1.0000 0.96353  0.86944  0.69325  Biso   1.000  O
  O28      1.0000 0.97482  0.65437  0.95573  Biso   1.000  O
  O29      1.0000 0.77145  0.23439  0.74880  Biso   1.000  O
  O30      1.0000 0.77241  0.26135  0.00004  Biso   1.000  O
  O31      1.0000 0.73072  0.75989  0.00020  Biso   1.000  O
  O32      1.0000 0.73181  0.73210  0.75039  Biso   1.000  O
