data_image0
_cell_length_a       10.2016
_cell_length_b       5.28957
_cell_length_c       10.2805
_cell_angle_alpha    84.4561
_cell_angle_beta     89.1193
_cell_angle_gamma    88.7952

_symmetry_space_group_name_H-M    "P 1"
_symmetry_int_tables_number       1

loop_
  _symmetry_equiv_pos_as_xyz
  'x, y, z'

loop_
  _atom_site_label
  _atom_site_occupancy
  _atom_site_fract_x
  _atom_site_fract_y
  _atom_site_fract_z
  _atom_site_thermal_displace_type
  _atom_site_B_iso_or_equiv
  _atom_site_type_symbol
  Zr1      1.0000 0.14505  0.09215  0.11591  Biso   1.000  Zr
  Zr2      1.0000 0.14271  0.45460  0.39595  Biso   1.000  Zr
  Zr3      1.0000 0.42244  0.49591  0.07917  Biso   1.000  Zr
  Zr4      1.0000 0.37537  0.98783  0.35125  Biso   1.000  Zr
  O1       1.0000 0.99863  0.30716  0.21949  Biso   1.000  O
  O2       1.0000 0.03952  0.11589  0.45379  Biso   1.000  O
  O3       1.0000 0.49226  0.74439  0.20995  Biso   1.000  O
  O4       1.0000 0.44437  0.64212  0.45261  Biso   1.000  O
  O5       1.0000 0.25731  0.31088  0.23623  Biso   1.000  O
  O6       1.0000 0.27524  0.19053  0.48778  Biso   1.000  O
  O7       1.0000 0.20256  0.66916  0.54040  Biso   1.000  O
  O8       1.0000 0.20326  0.81172  0.28111  Biso   1.000  O
  Zr5      1.0000 0.14044  0.00089  0.62344  Biso   1.000  Zr
  Zr6      1.0000 0.10162  0.45583  0.81216  Biso   1.000  Zr
  Zr7      1.0000 0.37717  0.55292  0.63939  Biso   1.000  Zr
  Zr8      1.0000 0.38537  0.01459  0.85893  Biso   1.000  Zr
  O9       1.0000 0.01074  0.30308  0.67184  Biso   1.000  O
  O10      1.0000 0.04525  0.10418  0.93049  Biso   1.000  O
  O11      1.0000 0.47063  0.86224  0.68450  Biso   1.000  O
  O12      1.0000 0.49575  0.68144  0.91718  Biso   1.000  O
  O13      1.0000 0.25515  0.23741  0.73142  Biso   1.000  O
  O14      1.0000 0.26460  0.33511  0.97050  Biso   1.000  O
  O15      1.0000 0.30400  0.86154  0.03343  Biso   1.000  O
  O16      1.0000 0.24486  0.73978  0.77413  Biso   1.000  O
  Zr9      1.0000 0.64193  0.02024  0.13323  Biso   1.000  Zr
  Zr10     1.0000 0.59300  0.46448  0.35004  Biso   1.000  Zr
  Zr11     1.0000 0.83323  0.50868  0.13356  Biso   1.000  Zr
  Zr12     1.0000 0.90194  0.97361  0.34350  Biso   1.000  Zr
  O17      1.0000 0.49440  0.22624  0.22769  Biso   1.000  O
  O18      1.0000 0.52956  0.12479  0.45710  Biso   1.000  O
  O19      1.0000 0.95632  0.84879  0.16439  Biso   1.000  O
  O20      1.0000 0.96226  0.61598  0.43336  Biso   1.000  O
  O21      1.0000 0.74784  0.21872  0.26616  Biso   1.000  O
  O22      1.0000 0.70075  0.41886  0.51888  Biso   1.000  O
  O23      1.0000 0.78704  0.91413  0.51275  Biso   1.000  O
  O24      1.0000 0.73620  0.72676  0.26579  Biso   1.000  O
  Zr13     1.0000 0.63952  0.06231  0.62067  Biso   1.000  Zr
  Zr14     1.0000 0.65222  0.45686  0.87924  Biso   1.000  Zr
  Zr15     1.0000 0.85235  0.56194  0.60656  Biso   1.000  Zr
  Zr16     1.0000 0.87291  0.95053  0.87355  Biso   1.000  Zr
  O25      1.0000 0.51468  0.31450  0.73707  Biso   1.000  O
  O26      1.0000 0.52091  0.17373  0.97958  Biso   1.000  O
  O27      1.0000 0.98981  0.78132  0.71577  Biso   1.000  O
  O28      1.0000 0.95914  0.58657  0.94471  Biso   1.000  O
  O29      1.0000 0.77088  0.23548  0.75184  Biso   1.000  O
  O30      1.0000 0.78226  0.22744  0.00502  Biso   1.000  O
  O31      1.0000 0.73366  0.76270  0.99768  Biso   1.000  O
  O32      1.0000 0.73413  0.74262  0.74729  Biso   1.000  O
  La1      1.0000 0.12990  0.60786  0.08978  Biso   1.000  La
