data_image0
_cell_length_a       10.1569
_cell_length_b       10.2999
_cell_length_c       10.1503
_cell_angle_alpha    89.8102
_cell_angle_beta     90.0022
_cell_angle_gamma    89.9966

_symmetry_space_group_name_H-M    "P 1"
_symmetry_int_tables_number       1

loop_
  _symmetry_equiv_pos_as_xyz
  'x, y, z'

loop_
  _atom_site_label
  _atom_site_occupancy
  _atom_site_fract_x
  _atom_site_fract_y
  _atom_site_fract_z
  _atom_site_thermal_displace_type
  _atom_site_B_iso_or_equiv
  _atom_site_type_symbol
  Zr1      1.0000 0.11457  0.96854  0.11660  Biso   1.000  Zr
  Zr2      1.0000 0.12191  0.24650  0.40281  Biso   1.000  Zr
  Zr3      1.0000 0.41150  0.24992  0.12583  Biso   1.000  Zr
  Zr4      1.0000 0.37466  0.00979  0.37423  Biso   1.000  Zr
  O1       1.0000 0.00224  0.13152  0.98830  Biso   1.000  O
  O2       1.0000 0.01424  0.10185  0.25452  Biso   1.000  O
  O3       1.0000 0.00227  0.36828  0.26339  Biso   1.000  O
  O4       1.0000 0.01421  0.39795  0.99717  Biso   1.000  O
  O5       1.0000 0.29009  0.17427  0.28851  Biso   1.000  O
  O6       1.0000 0.27110  0.07898  0.02858  Biso   1.000  O
  O7       1.0000 0.29007  0.32553  0.96314  Biso   1.000  O
  O8       1.0000 0.27119  0.42083  0.22296  Biso   1.000  O
  Zr5      1.0000 0.12603  0.99154  0.63150  Biso   1.000  Zr
  Zr6      1.0000 0.12193  0.25326  0.84887  Biso   1.000  Zr
  Zr7      1.0000 0.37508  0.24990  0.62582  Biso   1.000  Zr
  Zr8      1.0000 0.37604  0.00207  0.87673  Biso   1.000  Zr
  O9       1.0000 0.98744  0.14173  0.50222  Biso   1.000  O
  O10      1.0000 0.00000  0.10513  0.74444  Biso   1.000  O
  O11      1.0000 0.98742  0.35803  0.74949  Biso   1.000  O
  O12      1.0000 1.00000  0.39464  0.50725  Biso   1.000  O
  O13      1.0000 0.25592  0.13844  0.75707  Biso   1.000  O
  O14      1.0000 0.24470  0.10514  0.51381  Biso   1.000  O
  O15      1.0000 0.25592  0.36136  0.49453  Biso   1.000  O
  O16      1.0000 0.24468  0.39463  0.73782  Biso   1.000  O
  Zr9      1.0000 0.11459  0.53126  0.13502  Biso   1.000  Zr
  Zr10     1.0000 0.12325  0.75946  0.38211  Biso   1.000  Zr
  Zr11     1.0000 0.37924  0.74991  0.12583  Biso   1.000  Zr
  Zr12     1.0000 0.37605  0.49774  0.37487  Biso   1.000  Zr
  O17      1.0000 0.99172  0.64443  0.00275  Biso   1.000  O
  O18      1.0000 0.98585  0.61840  0.25748  Biso   1.000  O
  O19      1.0000 0.99173  0.85537  0.24887  Biso   1.000  O
  O20      1.0000 0.98585  0.88140  0.99414  Biso   1.000  O
  O21      1.0000 0.23683  0.66377  0.24249  Biso   1.000  O
  O22      1.0000 0.24046  0.59097  0.98858  Biso   1.000  O
  O23      1.0000 0.23681  0.83600  0.00917  Biso   1.000  O
  O24      1.0000 0.24049  0.90882  0.26303  Biso   1.000  O
  Zr13     1.0000 0.12606  0.50825  0.62012  Biso   1.000  Zr
  Zr14     1.0000 0.12326  0.74032  0.86953  Biso   1.000  Zr
  Zr15     1.0000 0.37799  0.74990  0.62583  Biso   1.000  Zr
  Zr16     1.0000 0.37465  0.49000  0.87740  Biso   1.000  Zr
  O25      1.0000 0.99921  0.64712  0.50450  Biso   1.000  O
  O26      1.0000 0.00383  0.60284  0.75355  Biso   1.000  O
  O27      1.0000 0.99921  0.85266  0.74711  Biso   1.000  O
  O28      1.0000 0.00382  0.89693  0.49808  Biso   1.000  O
  O29      1.0000 0.25125  0.64361  0.74242  Biso   1.000  O
  O30      1.0000 0.24629  0.60840  0.49009  Biso   1.000  O
  O31      1.0000 0.25124  0.85618  0.50921  Biso   1.000  O
  O32      1.0000 0.24629  0.89139  0.76155  Biso   1.000  O
  Zr17     1.0000 0.62396  0.99299  0.11823  Biso   1.000  Zr
  Zr18     1.0000 0.62800  0.24597  0.38035  Biso   1.000  Zr
  Zr19     1.0000 0.86686  0.24992  0.12583  Biso   1.000  Zr
  Zr20     1.0000 0.87693  0.00369  0.37284  Biso   1.000  Zr
  O33      1.0000 0.51465  0.13758  0.99301  Biso   1.000  O
  O34      1.0000 0.51735  0.10431  0.24927  Biso   1.000  O
  O35      1.0000 0.51469  0.36223  0.25863  Biso   1.000  O
  O36      1.0000 0.51734  0.39550  0.00238  Biso   1.000  O
  O37      1.0000 0.76363  0.14928  0.26480  Biso   1.000  O
  O38      1.0000 0.75801  0.10017  0.01033  Biso   1.000  O
  O39      1.0000 0.76361  0.35056  0.98685  Biso   1.000  O
  O40      1.0000 0.75805  0.39968  0.24130  Biso   1.000  O
  Zr21     1.0000 0.62403  0.99764  0.62735  Biso   1.000  Zr
  Zr22     1.0000 0.62800  0.25382  0.87132  Biso   1.000  Zr
  Zr23     1.0000 0.86807  0.24990  0.62584  Biso   1.000  Zr
  Zr24     1.0000 0.87567  0.00254  0.87402  Biso   1.000  Zr
  O41      1.0000 0.49617  0.14847  0.49858  Biso   1.000  O
  O42      1.0000 0.50018  0.10317  0.74722  Biso   1.000  O
  O43      1.0000 0.49616  0.35132  0.75307  Biso   1.000  O
  O44      1.0000 0.50018  0.39663  0.50443  Biso   1.000  O
  O45      1.0000 0.75234  0.14509  0.75608  Biso   1.000  O
  O46      1.0000 0.74501  0.10290  0.50593  Biso   1.000  O
  O47      1.0000 0.75236  0.35471  0.49556  Biso   1.000  O
  O48      1.0000 0.74500  0.39689  0.74571  Biso   1.000  O
  Zr25     1.0000 0.62397  0.50682  0.13340  Biso   1.000  Zr
  Zr26     1.0000 0.62203  0.75613  0.37816  Biso   1.000  Zr
  Zr27     1.0000 0.86339  0.74990  0.12582  Biso   1.000  Zr
  Zr28     1.0000 0.87570  0.49727  0.37764  Biso   1.000  Zr
  O49      1.0000 0.49302  0.64217  0.99780  Biso   1.000  O
  O50      1.0000 0.49240  0.60985  0.24771  Biso   1.000  O
  O51      1.0000 0.49305  0.85765  0.25384  Biso   1.000  O
  O52      1.0000 0.49238  0.88995  0.00394  Biso   1.000  O
  O53      1.0000 0.73862  0.64860  0.25144  Biso   1.000  O
  O54      1.0000 0.74633  0.60201  0.00171  Biso   1.000  O
  O55      1.0000 0.73861  0.85124  0.00019  Biso   1.000  O
  O56      1.0000 0.74634  0.89783  0.24993  Biso   1.000  O
  Zr29     1.0000 0.62402  0.50216  0.62428  Biso   1.000  Zr
  Zr30     1.0000 0.62202  0.74367  0.87350  Biso   1.000  Zr
  Zr31     1.0000 0.87177  0.74989  0.62583  Biso   1.000  Zr
  Zr32     1.0000 0.87694  0.49611  0.87879  Biso   1.000  Zr
  O57      1.0000 0.49781  0.64755  0.49871  Biso   1.000  O
  O58      1.0000 0.50199  0.60141  0.74939  Biso   1.000  O
  O59      1.0000 0.49781  0.85226  0.75292  Biso   1.000  O
  O60      1.0000 0.50198  0.89839  0.50226  Biso   1.000  O
  O61      1.0000 0.75274  0.64587  0.75314  Biso   1.000  O
  O62      1.0000 0.74844  0.60493  0.50210  Biso   1.000  O
  O63      1.0000 0.75274  0.85393  0.49851  Biso   1.000  O
  O64      1.0000 0.74845  0.89487  0.74954  Biso   1.000  O
  La1      1.0000 0.14328  0.24990  0.12584  Biso   1.000  La
