data_image0
_cell_length_a       10.0604
_cell_length_b       10.3895
_cell_length_c       10.0892
_cell_angle_alpha    90.073
_cell_angle_beta     89.9575
_cell_angle_gamma    90.0874

_symmetry_space_group_name_H-M    "P 1"
_symmetry_int_tables_number       1

loop_
  _symmetry_equiv_pos_as_xyz
  'x, y, z'

loop_
  _atom_site_label
  _atom_site_occupancy
  _atom_site_fract_x
  _atom_site_fract_y
  _atom_site_fract_z
  _atom_site_thermal_displace_type
  _atom_site_B_iso_or_equiv
  _atom_site_type_symbol
  Li1      1.0000 0.12174  0.00559  0.10692  Biso   1.000  Li
  Zr1      1.0000 0.13438  0.01706  0.62878  Biso   1.000  Zr
  Zr2      1.0000 0.13586  0.51488  0.12566  Biso   1.000  Zr
  Zr3      1.0000 0.13454  0.51640  0.62632  Biso   1.000  Zr
  Zr4      1.0000 0.63273  0.01500  0.12301  Biso   1.000  Zr
  Zr5      1.0000 0.63203  0.01455  0.62219  Biso   1.000  Zr
  Zr6      1.0000 0.63354  0.51606  0.12594  Biso   1.000  Zr
  Zr7      1.0000 0.63368  0.51584  0.62549  Biso   1.000  Zr
  Zr8      1.0000 0.13439  0.23041  0.37276  Biso   1.000  Zr
  Zr9      1.0000 0.13545  0.23194  0.87884  Biso   1.000  Zr
  Zr10     1.0000 0.13633  0.73618  0.37604  Biso   1.000  Zr
  Zr11     1.0000 0.13658  0.73660  0.87927  Biso   1.000  Zr
  Zr12     1.0000 0.63274  0.23362  0.37419  Biso   1.000  Zr
  Zr13     1.0000 0.63366  0.23320  0.87370  Biso   1.000  Zr
  Zr14     1.0000 0.63355  0.73575  0.37486  Biso   1.000  Zr
  Zr15     1.0000 0.63495  0.73514  0.87513  Biso   1.000  Zr
  Zr16     1.0000 0.36244  0.26308  0.12703  Biso   1.000  Zr
  Zr17     1.0000 0.36510  0.26613  0.62583  Biso   1.000  Zr
  Zr18     1.0000 0.36243  0.76718  0.12597  Biso   1.000  Zr
  Zr19     1.0000 0.36642  0.76786  0.62700  Biso   1.000  Zr
  Zr20     1.0000 0.86441  0.26371  0.12505  Biso   1.000  Zr
  Zr21     1.0000 0.86528  0.26542  0.62356  Biso   1.000  Zr
  Zr22     1.0000 0.86694  0.76932  0.12499  Biso   1.000  Zr
  Zr23     1.0000 0.86653  0.76546  0.62406  Biso   1.000  Zr
  Zr24     1.0000 0.36489  0.48418  0.37589  Biso   1.000  Zr
  Zr25     1.0000 0.36534  0.48399  0.87590  Biso   1.000  Zr
  Zr26     1.0000 0.36006  0.98435  0.37137  Biso   1.000  Zr
  Zr27     1.0000 0.36005  0.98282  0.88203  Biso   1.000  Zr
  Zr28     1.0000 0.86565  0.48517  0.37615  Biso   1.000  Zr
  Zr29     1.0000 0.86567  0.48469  0.87588  Biso   1.000  Zr
  Zr30     1.0000 0.87034  0.98495  0.37026  Biso   1.000  Zr
  Zr31     1.0000 0.86634  0.98464  0.87279  Biso   1.000  Zr
  O1       1.0000 0.02532  0.18444  0.20515  Biso   1.000  O
  O2       1.0000 0.03590  0.18675  0.69344  Biso   1.000  O
  O3       1.0000 0.03380  0.68251  0.19604  Biso   1.000  O
  O4       1.0000 0.03569  0.68470  0.69458  Biso   1.000  O
  O5       1.0000 0.53693  0.18482  0.19179  Biso   1.000  O
  O6       1.0000 0.53568  0.18441  0.69247  Biso   1.000  O
  O7       1.0000 0.53372  0.68213  0.19676  Biso   1.000  O
  O8       1.0000 0.53490  0.68303  0.69601  Biso   1.000  O
  O9       1.0000 0.03321  0.06798  0.45128  Biso   1.000  O
  O10      1.0000 0.03555  0.06759  0.92606  Biso   1.000  O
  O11      1.0000 0.03449  0.56628  0.44671  Biso   1.000  O
  O12      1.0000 0.03463  0.56757  0.94618  Biso   1.000  O
  O13      1.0000 0.53293  0.06683  0.44346  Biso   1.000  O
  O14      1.0000 0.53544  0.06670  0.94335  Biso   1.000  O
  O15      1.0000 0.53400  0.56759  0.44586  Biso   1.000  O
  O16      1.0000 0.53491  0.56694  0.94529  Biso   1.000  O
  O17      1.0000 0.46516  0.43243  0.19633  Biso   1.000  O
  O18      1.0000 0.46471  0.43391  0.69506  Biso   1.000  O
  O19      1.0000 0.46717  0.93320  0.19581  Biso   1.000  O
  O20      1.0000 0.46523  0.93366  0.69828  Biso   1.000  O
  O21      1.0000 0.96584  0.43333  0.19613  Biso   1.000  O
  O22      1.0000 0.96499  0.43410  0.69583  Biso   1.000  O
  O23      1.0000 0.96760  0.93045  0.19731  Biso   1.000  O
  O24      1.0000 0.96389  0.93336  0.69176  Biso   1.000  O
  O25      1.0000 0.46523  0.31725  0.44571  Biso   1.000  O
  O26      1.0000 0.46567  0.31716  0.94347  Biso   1.000  O
  O27      1.0000 0.46787  0.81915  0.44999  Biso   1.000  O
  O28      1.0000 0.46888  0.81855  0.94764  Biso   1.000  O
  O29      1.0000 0.96570  0.31888  0.44637  Biso   1.000  O
  O30      1.0000 0.96629  0.31839  0.94771  Biso   1.000  O
  O31      1.0000 0.96549  0.81605  0.44401  Biso   1.000  O
  O32      1.0000 0.96293  0.81551  0.94167  Biso   1.000  O
  O33      1.0000 0.27836  0.12652  0.25466  Biso   1.000  O
  O34      1.0000 0.27168  0.11878  0.74948  Biso   1.000  O
  O35      1.0000 0.26829  0.61404  0.24910  Biso   1.000  O
  O36      1.0000 0.26977  0.61864  0.75004  Biso   1.000  O
  O37      1.0000 0.76652  0.11506  0.24665  Biso   1.000  O
  O38      1.0000 0.76874  0.11630  0.74553  Biso   1.000  O
  O39      1.0000 0.76995  0.61689  0.24813  Biso   1.000  O
  O40      1.0000 0.76993  0.61653  0.74814  Biso   1.000  O
  O41      1.0000 0.26892  0.13166  0.50112  Biso   1.000  O
  O42      1.0000 0.27541  0.13540  0.99578  Biso   1.000  O
  O43      1.0000 0.27034  0.63371  0.49950  Biso   1.000  O
  O44      1.0000 0.27083  0.62963  0.99990  Biso   1.000  O
  O45      1.0000 0.76838  0.13508  0.49596  Biso   1.000  O
  O46      1.0000 0.77069  0.13310  0.99600  Biso   1.000  O
  O47      1.0000 0.76826  0.63373  0.49815  Biso   1.000  O
  O48      1.0000 0.76924  0.63319  0.99842  Biso   1.000  O
  O49      1.0000 0.23088  0.38296  0.49933  Biso   1.000  O
  O50      1.0000 0.23105  0.38234  0.99997  Biso   1.000  O
  O51      1.0000 0.22919  0.88364  0.50235  Biso   1.000  O
  O52      1.0000 0.23159  0.87637  0.99970  Biso   1.000  O
  O53      1.0000 0.72999  0.38412  0.49823  Biso   1.000  O
  O54      1.0000 0.72945  0.38350  0.99780  Biso   1.000  O
  O55      1.0000 0.73302  0.88462  0.49613  Biso   1.000  O
  O56      1.0000 0.73109  0.88324  0.99764  Biso   1.000  O
  O57      1.0000 0.22760  0.36873  0.24897  Biso   1.000  O
  O58      1.0000 0.23014  0.36800  0.74971  Biso   1.000  O
  O59      1.0000 0.24108  0.85780  0.25747  Biso   1.000  O
  O60      1.0000 0.22993  0.86880  0.75017  Biso   1.000  O
  O61      1.0000 0.73094  0.36682  0.24867  Biso   1.000  O
  O62      1.0000 0.73089  0.36701  0.74808  Biso   1.000  O
  O63      1.0000 0.72877  0.86627  0.24686  Biso   1.000  O
  O64      1.0000 0.73005  0.86609  0.74630  Biso   1.000  O
