data_image0
_cell_length_a       10.1666
_cell_length_b       10.2799
_cell_length_c       10.5017
_cell_angle_alpha    90.2822
_cell_angle_beta     79.3298
_cell_angle_gamma    90.4215

_symmetry_space_group_name_H-M    "P 1"
_symmetry_int_tables_number       1

loop_
  _symmetry_equiv_pos_as_xyz
  'x, y, z'

loop_
  _atom_site_label
  _atom_site_occupancy
  _atom_site_fract_x
  _atom_site_fract_y
  _atom_site_fract_z
  _atom_site_thermal_displace_type
  _atom_site_B_iso_or_equiv
  _atom_site_type_symbol
  Hf1      1.0000 0.13744  0.02465  0.14669  Biso   1.000  Hf
  Hf2      1.0000 0.14649  0.23364  0.39190  Biso   1.000  Hf
  Hf3      1.0000 0.33842  0.27944  0.09215  Biso   1.000  Hf
  Hf4      1.0000 0.35163  0.47482  0.34819  Biso   1.000  Hf
  O1       1.0000 0.03276  0.16947  0.07743  Biso   1.000  O
  O2       1.0000 0.03871  0.08259  0.32924  Biso   1.000  O
  O3       1.0000 0.46252  0.41366  0.17143  Biso   1.000  O
  O4       1.0000 0.47889  0.33080  0.42359  Biso   1.000  O
  O5       1.0000 0.28453  0.12186  0.23574  Biso   1.000  O
  O6       1.0000 0.28382  0.12059  0.48567  Biso   1.000  O
  O7       1.0000 0.21215  0.38592  0.99895  Biso   1.000  O
  O8       1.0000 0.19750  0.37638  0.24595  Biso   1.000  O
  Hf5      1.0000 0.13872  0.02202  0.64454  Biso   1.000  Hf
  Hf6      1.0000 0.13371  0.22913  0.89109  Biso   1.000  Hf
  Hf7      1.0000 0.36381  0.27068  0.60337  Biso   1.000  Hf
  Hf8      1.0000 0.35806  0.48146  0.85035  Biso   1.000  Hf
  O9       1.0000 0.04143  0.17030  0.57943  Biso   1.000  O
  O10      1.0000 0.03268  0.08145  0.82748  Biso   1.000  O
  O11      1.0000 0.46649  0.41692  0.67131  Biso   1.000  O
  O12      1.0000 0.46140  0.33638  0.92168  Biso   1.000  O
  O13      1.0000 0.27625  0.12815  0.73818  Biso   1.000  O
  O14      1.0000 0.27140  0.12440  0.98627  Biso   1.000  O
  O15      1.0000 0.22547  0.37896  0.50991  Biso   1.000  O
  O16      1.0000 0.22377  0.37044  0.75499  Biso   1.000  O
  Hf9      1.0000 0.13550  0.52719  0.14322  Biso   1.000  Hf
  Hf10     1.0000 0.13756  0.72616  0.39739  Biso   1.000  Hf
  Hf11     1.0000 0.35982  0.77183  0.10383  Biso   1.000  Hf
  Hf12     1.0000 0.35787  0.96806  0.35650  Biso   1.000  Hf
  O17      1.0000 0.03107  0.67257  0.07801  Biso   1.000  O
  O18      1.0000 0.03166  0.58568  0.32764  Biso   1.000  O
  O19      1.0000 0.46768  0.91464  0.17450  Biso   1.000  O
  O20      1.0000 0.46553  0.83083  0.42320  Biso   1.000  O
  O21      1.0000 0.27525  0.62949  0.24100  Biso   1.000  O
  O22      1.0000 0.27382  0.62175  0.49093  Biso   1.000  O
  O23      1.0000 0.22353  0.88098  0.01039  Biso   1.000  O
  O24      1.0000 0.22242  0.86907  0.26061  Biso   1.000  O
  Hf13     1.0000 0.13953  0.52270  0.64505  Biso   1.000  Hf
  Hf14     1.0000 0.13600  0.73068  0.89650  Biso   1.000  Hf
  Hf15     1.0000 0.36123  0.77024  0.60512  Biso   1.000  Hf
  Hf16     1.0000 0.35988  0.97802  0.85461  Biso   1.000  Hf
  O25      1.0000 0.03162  0.66616  0.57980  Biso   1.000  O
  O26      1.0000 0.03468  0.58251  0.83027  Biso   1.000  O
  O27      1.0000 0.46584  0.91647  0.67368  Biso   1.000  O
  O28      1.0000 0.46530  0.83415  0.92283  Biso   1.000  O
  O29      1.0000 0.27608  0.62875  0.74038  Biso   1.000  O
  O30      1.0000 0.27493  0.62494  0.98889  Biso   1.000  O
  O31      1.0000 0.22264  0.87723  0.51102  Biso   1.000  O
  O32      1.0000 0.22274  0.87142  0.75954  Biso   1.000  O
  Hf17     1.0000 0.64128  0.01905  0.14883  Biso   1.000  Hf
  Hf18     1.0000 0.65693  0.22809  0.41054  Biso   1.000  Hf
  Hf19     1.0000 0.85961  0.27240  0.10632  Biso   1.000  Hf
  Hf20     1.0000 0.86251  0.47769  0.35452  Biso   1.000  Hf
  O33      1.0000 0.52871  0.17389  0.09264  Biso   1.000  O
  O34      1.0000 0.53671  0.08243  0.33441  Biso   1.000  O
  O35      1.0000 0.95738  0.42421  0.16767  Biso   1.000  O
  O36      1.0000 0.96655  0.33457  0.42305  Biso   1.000  O
  O37      1.0000 0.77876  0.12788  0.24591  Biso   1.000  O
  O38      1.0000 0.78488  0.11717  0.49796  Biso   1.000  O
  O39      1.0000 0.72141  0.37897  0.01417  Biso   1.000  O
  O40      1.0000 0.72093  0.36803  0.26467  Biso   1.000  O
  Hf21     1.0000 0.64035  0.01991  0.65163  Biso   1.000  Hf
  Hf22     1.0000 0.63490  0.23132  0.90238  Biso   1.000  Hf
  Hf23     1.0000 0.86784  0.27155  0.60887  Biso   1.000  Hf
  Hf24     1.0000 0.85949  0.47957  0.85720  Biso   1.000  Hf
  O41      1.0000 0.53905  0.16631  0.58470  Biso   1.000  O
  O42      1.0000 0.53316  0.08302  0.83511  Biso   1.000  O
  O43      1.0000 0.96560  0.41935  0.67387  Biso   1.000  O
  O44      1.0000 0.95994  0.32987  0.91938  Biso   1.000  O
  O45      1.0000 0.77572  0.13029  0.74616  Biso   1.000  O
  O46      1.0000 0.77054  0.12077  0.99499  Biso   1.000  O
  O47      1.0000 0.72900  0.37691  0.51664  Biso   1.000  O
  O48      1.0000 0.72250  0.37164  0.76475  Biso   1.000  O
  Hf25     1.0000 0.63552  0.52148  0.15026  Biso   1.000  Hf
  Hf26     1.0000 0.63774  0.72467  0.39759  Biso   1.000  Hf
  Hf27     1.0000 0.85845  0.77218  0.10524  Biso   1.000  Hf
  Hf28     1.0000 0.86485  0.97631  0.35567  Biso   1.000  Hf
  O49      1.0000 0.53087  0.66472  0.07940  Biso   1.000  O
  O50      1.0000 0.53105  0.57974  0.33154  Biso   1.000  O
  O51      1.0000 0.96493  0.91780  0.17214  Biso   1.000  O
  O52      1.0000 0.96560  0.83193  0.42279  Biso   1.000  O
  O53      1.0000 0.77403  0.62976  0.24226  Biso   1.000  O
  O54      1.0000 0.77493  0.61986  0.49161  Biso   1.000  O
  O55      1.0000 0.72186  0.87842  0.01188  Biso   1.000  O
  O56      1.0000 0.72265  0.87218  0.26196  Biso   1.000  O
  Hf29     1.0000 0.63945  0.52204  0.64841  Biso   1.000  Hf
  Hf30     1.0000 0.63665  0.72744  0.89866  Biso   1.000  Hf
  Hf31     1.0000 0.86017  0.77141  0.60503  Biso   1.000  Hf
  Hf32     1.0000 0.85867  0.97870  0.85542  Biso   1.000  Hf
  O57      1.0000 0.53389  0.66629  0.58099  Biso   1.000  O
  O58      1.0000 0.53255  0.58415  0.82867  Biso   1.000  O
  O59      1.0000 0.96358  0.91856  0.67116  Biso   1.000  O
  O60      1.0000 0.96297  0.83411  0.92106  Biso   1.000  O
  O61      1.0000 0.77575  0.62901  0.74273  Biso   1.000  O
  O62      1.0000 0.77342  0.62194  0.99263  Biso   1.000  O
  O63      1.0000 0.72318  0.87792  0.51179  Biso   1.000  O
  O64      1.0000 0.72247  0.87096  0.76239  Biso   1.000  O
  Mg1      1.0000 0.45205  0.22787  0.27690  Biso   1.000  Mg
