data_image0
_cell_length_a       5.10396
_cell_length_b       10.5924
_cell_length_c       10.1397
_cell_angle_alpha    84.7035
_cell_angle_beta     89.454
_cell_angle_gamma    90.1528

_symmetry_space_group_name_H-M    "P 1"
_symmetry_int_tables_number       1

loop_
  _symmetry_equiv_pos_as_xyz
  'x, y, z'

loop_
  _atom_site_label
  _atom_site_occupancy
  _atom_site_fract_x
  _atom_site_fract_y
  _atom_site_fract_z
  _atom_site_thermal_displace_type
  _atom_site_B_iso_or_equiv
  _atom_site_type_symbol
  Zr1      1.0000 0.27539  0.03086  0.12104  Biso   1.000  Zr
  Zr2      1.0000 0.27042  0.22850  0.38706  Biso   1.000  Zr
  Zr3      1.0000 0.71798  0.27337  0.12868  Biso   1.000  Zr
  Zr4      1.0000 0.76416  0.48172  0.36337  Biso   1.000  Zr
  O1       1.0000 0.05768  0.19011  0.20252  Biso   1.000  O
  O2       1.0000 0.08134  0.05704  0.44546  Biso   1.000  O
  O3       1.0000 0.96135  0.43472  0.19150  Biso   1.000  O
  O4       1.0000 0.93483  0.31232  0.44732  Biso   1.000  O
  O5       1.0000 0.53828  0.12093  0.24761  Biso   1.000  O
  O6       1.0000 0.57686  0.11315  0.49242  Biso   1.000  O
  O7       1.0000 0.47818  0.38086  0.48806  Biso   1.000  O
  O8       1.0000 0.45691  0.36973  0.24338  Biso   1.000  O
  Zr5      1.0000 0.28047  0.00793  0.61701  Biso   1.000  Zr
  Zr6      1.0000 0.20730  0.22079  0.82416  Biso   1.000  Zr
  Zr7      1.0000 0.69549  0.24664  0.61769  Biso   1.000  Zr
  Zr8      1.0000 0.77585  0.47741  0.85234  Biso   1.000  Zr
  O9       1.0000 0.97119  0.11186  0.70925  Biso   1.000  O
  O10      1.0000 0.05140  0.06778  0.95276  Biso   1.000  O
  O11      1.0000 0.98457  0.37123  0.70848  Biso   1.000  O
  O12      1.0000 0.94767  0.31538  0.95438  Biso   1.000  O
  O13      1.0000 0.49566  0.09880  0.76066  Biso   1.000  O
  O14      1.0000 0.43917  0.20260  0.00746  Biso   1.000  O
  O15      1.0000 0.51732  0.44460  0.00830  Biso   1.000  O
  O16      1.0000 0.49481  0.35860  0.75362  Biso   1.000  O
  Zr9      1.0000 0.28303  0.56486  0.12596  Biso   1.000  Zr
  Zr10     1.0000 0.26812  0.73639  0.37911  Biso   1.000  Zr
  Zr11     1.0000 0.72962  0.79091  0.12528  Biso   1.000  Zr
  Zr12     1.0000 0.74326  0.97963  0.37117  Biso   1.000  Zr
  O17      1.0000 0.05373  0.69133  0.21352  Biso   1.000  O
  O18      1.0000 0.06822  0.55991  0.45233  Biso   1.000  O
  O19      1.0000 0.94903  0.93782  0.20486  Biso   1.000  O
  O20      1.0000 0.93909  0.80980  0.45585  Biso   1.000  O
  O21      1.0000 0.55249  0.63035  0.25196  Biso   1.000  O
  O22      1.0000 0.53265  0.62438  0.50162  Biso   1.000  O
  O23      1.0000 0.46673  0.87030  0.50060  Biso   1.000  O
  O24      1.0000 0.46232  0.87437  0.25191  Biso   1.000  O
  Zr13     1.0000 0.27957  0.49362  0.62091  Biso   1.000  Zr
  Zr14     1.0000 0.21340  0.72834  0.84347  Biso   1.000  Zr
  Zr15     1.0000 0.71935  0.74776  0.62302  Biso   1.000  Zr
  Zr16     1.0000 0.78759  0.97345  0.84813  Biso   1.000  Zr
  O25      1.0000 0.99809  0.61915  0.70863  Biso   1.000  O
  O26      1.0000 0.04618  0.57024  0.95667  Biso   1.000  O
  O27      1.0000 0.00757  0.86774  0.70881  Biso   1.000  O
  O28      1.0000 0.96043  0.81798  0.95817  Biso   1.000  O
  O29      1.0000 0.49460  0.60330  0.75142  Biso   1.000  O
  O30      1.0000 0.46077  0.70417  0.00463  Biso   1.000  O
  O31      1.0000 0.55081  0.94930  0.01063  Biso   1.000  O
  O32      1.0000 0.50646  0.85283  0.75119  Biso   1.000  O
  Mg1      1.0000 0.21932  0.32732  0.08325  Biso   1.000  Mg
