data_image0
_cell_length_a       10.1215
_cell_length_b       10.3016
_cell_length_c       5.21069
_cell_angle_alpha    89.812
_cell_angle_beta     80.3453
_cell_angle_gamma    89.9716

_symmetry_space_group_name_H-M    "P 1"
_symmetry_int_tables_number       1

loop_
  _symmetry_equiv_pos_as_xyz
  'x, y, z'

loop_
  _atom_site_label
  _atom_site_occupancy
  _atom_site_fract_x
  _atom_site_fract_y
  _atom_site_fract_z
  _atom_site_thermal_displace_type
  _atom_site_B_iso_or_equiv
  _atom_site_type_symbol
  Mn1      1.0000 0.13488  0.02334  0.30106  Biso   1.000  Mn
  Zr1      1.0000 0.14025  0.52146  0.29231  Biso   1.000  Zr
  Zr2      1.0000 0.63764  0.02102  0.29103  Biso   1.000  Zr
  Zr3      1.0000 0.63886  0.52241  0.29134  Biso   1.000  Zr
  Zr4      1.0000 0.13965  0.22467  0.79320  Biso   1.000  Zr
  Zr5      1.0000 0.13979  0.73240  0.78931  Biso   1.000  Zr
  Zr6      1.0000 0.63790  0.22891  0.79115  Biso   1.000  Zr
  Zr7      1.0000 0.63879  0.72985  0.79412  Biso   1.000  Zr
  Zr8      1.0000 0.35836  0.26913  0.21432  Biso   1.000  Zr
  Zr9      1.0000 0.35668  0.77652  0.20895  Biso   1.000  Zr
  Zr10     1.0000 0.86433  0.26819  0.21100  Biso   1.000  Zr
  Zr11     1.0000 0.86544  0.77405  0.20847  Biso   1.000  Zr
  Zr12     1.0000 0.36091  0.47929  0.71110  Biso   1.000  Zr
  Zr13     1.0000 0.35574  0.97902  0.71054  Biso   1.000  Zr
  Zr14     1.0000 0.86160  0.47874  0.71141  Biso   1.000  Zr
  Zr15     1.0000 0.86418  0.98156  0.70305  Biso   1.000  Zr
  O1       1.0000 0.03607  0.15440  0.15337  Biso   1.000  O
  O2       1.0000 0.03611  0.66906  0.16103  Biso   1.000  O
  O3       1.0000 0.53716  0.17309  0.16835  Biso   1.000  O
  O4       1.0000 0.53585  0.67326  0.16562  Biso   1.000  O
  O5       1.0000 0.03991  0.08400  0.61963  Biso   1.000  O
  O6       1.0000 0.03684  0.57995  0.66456  Biso   1.000  O
  O7       1.0000 0.53423  0.07799  0.66828  Biso   1.000  O
  O8       1.0000 0.53829  0.57650  0.66906  Biso   1.000  O
  O9       1.0000 0.46230  0.42244  0.33443  Biso   1.000  O
  O10      1.0000 0.46402  0.92026  0.33856  Biso   1.000  O
  O11      1.0000 0.96649  0.41702  0.34077  Biso   1.000  O
  O12      1.0000 0.98022  0.92415  0.32626  Biso   1.000  O
  O13      1.0000 0.45902  0.32414  0.83483  Biso   1.000  O
  O14      1.0000 0.46001  0.82748  0.83224  Biso   1.000  O
  O15      1.0000 0.96558  0.32642  0.84088  Biso   1.000  O
  O16      1.0000 0.96438  0.83198  0.83432  Biso   1.000  O
  O17      1.0000 0.27231  0.12372  0.48067  Biso   1.000  O
  O18      1.0000 0.27680  0.63232  0.48372  Biso   1.000  O
  O19      1.0000 0.77499  0.12859  0.48140  Biso   1.000  O
  O20      1.0000 0.77748  0.63037  0.48387  Biso   1.000  O
  O21      1.0000 0.26870  0.11496  0.00379  Biso   1.000  O
  O22      1.0000 0.27638  0.62210  0.98270  Biso   1.000  O
  O23      1.0000 0.77733  0.12060  0.97849  Biso   1.000  O
  O24      1.0000 0.77816  0.62262  0.98454  Biso   1.000  O
  O25      1.0000 0.22238  0.37782  0.02082  Biso   1.000  O
  O26      1.0000 0.21728  0.88467  0.02171  Biso   1.000  O
  O27      1.0000 0.72513  0.37883  0.01983  Biso   1.000  O
  O28      1.0000 0.72412  0.87971  0.01821  Biso   1.000  O
  O29      1.0000 0.22415  0.36975  0.52137  Biso   1.000  O
  O30      1.0000 0.21716  0.87747  0.50915  Biso   1.000  O
  O31      1.0000 0.72470  0.37060  0.51899  Biso   1.000  O
  O32      1.0000 0.73144  0.87320  0.51619  Biso   1.000  O
