data_image0
_cell_length_a       10.1503
_cell_length_b       10.3301
_cell_length_c       10.4581
_cell_angle_alpha    89.9148
_cell_angle_beta     80.3734
_cell_angle_gamma    89.9907

_symmetry_space_group_name_H-M    "P 1"
_symmetry_int_tables_number       1

loop_
  _symmetry_equiv_pos_as_xyz
  'x, y, z'

loop_
  _atom_site_label
  _atom_site_occupancy
  _atom_site_fract_x
  _atom_site_fract_y
  _atom_site_fract_z
  _atom_site_thermal_displace_type
  _atom_site_B_iso_or_equiv
  _atom_site_type_symbol
  Mn1      1.0000 0.13638  0.02417  0.15056  Biso   1.000  Mn
  Zr1      1.0000 0.13888  0.02110  0.64506  Biso   1.000  Zr
  Zr2      1.0000 0.13986  0.52143  0.14587  Biso   1.000  Zr
  Zr3      1.0000 0.13916  0.52132  0.64559  Biso   1.000  Zr
  Zr4      1.0000 0.63879  0.02192  0.14511  Biso   1.000  Zr
  Zr5      1.0000 0.63764  0.02040  0.64558  Biso   1.000  Zr
  Zr6      1.0000 0.63901  0.52252  0.14501  Biso   1.000  Zr
  Zr7      1.0000 0.63895  0.52133  0.64604  Biso   1.000  Zr
  Zr8      1.0000 0.13945  0.22843  0.39237  Biso   1.000  Zr
  Zr9      1.0000 0.13842  0.22471  0.89935  Biso   1.000  Zr
  Zr10     1.0000 0.13882  0.73041  0.39414  Biso   1.000  Zr
  Zr11     1.0000 0.13938  0.73026  0.89603  Biso   1.000  Zr
  Zr12     1.0000 0.63859  0.22854  0.39509  Biso   1.000  Zr
  Zr13     1.0000 0.63826  0.22885  0.89571  Biso   1.000  Zr
  Zr14     1.0000 0.64024  0.73034  0.39495  Biso   1.000  Zr
  Zr15     1.0000 0.63750  0.72825  0.89749  Biso   1.000  Zr
  Zr16     1.0000 0.35932  0.26933  0.10584  Biso   1.000  Zr
  Zr17     1.0000 0.36059  0.27169  0.60555  Biso   1.000  Zr
  Zr18     1.0000 0.35630  0.77603  0.10518  Biso   1.000  Zr
  Zr19     1.0000 0.36177  0.77156  0.60417  Biso   1.000  Zr
  Zr20     1.0000 0.86475  0.26853  0.10611  Biso   1.000  Zr
  Zr21     1.0000 0.86073  0.27093  0.60396  Biso   1.000  Zr
  Zr22     1.0000 0.86641  0.77473  0.10416  Biso   1.000  Zr
  Zr23     1.0000 0.86036  0.77111  0.60493  Biso   1.000  Zr
  Zr24     1.0000 0.36227  0.47970  0.35491  Biso   1.000  Zr
  Zr25     1.0000 0.35979  0.47838  0.85528  Biso   1.000  Zr
  Zr26     1.0000 0.35853  0.97890  0.35200  Biso   1.000  Zr
  Zr27     1.0000 0.35806  0.97878  0.85790  Biso   1.000  Zr
  Zr28     1.0000 0.86082  0.47929  0.35420  Biso   1.000  Zr
  Zr29     1.0000 0.86166  0.47811  0.85624  Biso   1.000  Zr
  Zr30     1.0000 0.86541  0.98096  0.35154  Biso   1.000  Zr
  Zr31     1.0000 0.85999  0.97904  0.85418  Biso   1.000  Zr
  O1       1.0000 0.03828  0.15995  0.08415  Biso   1.000  O
  O2       1.0000 0.03329  0.16405  0.57346  Biso   1.000  O
  O3       1.0000 0.03643  0.66937  0.08135  Biso   1.000  O
  O4       1.0000 0.03552  0.66961  0.58019  Biso   1.000  O
  O5       1.0000 0.53598  0.17124  0.08235  Biso   1.000  O
  O6       1.0000 0.53674  0.17138  0.58221  Biso   1.000  O
  O7       1.0000 0.53449  0.67138  0.08216  Biso   1.000  O
  O8       1.0000 0.53732  0.67175  0.58151  Biso   1.000  O
  O9       1.0000 0.04219  0.08098  0.31410  Biso   1.000  O
  O10      1.0000 0.03368  0.08230  0.82727  Biso   1.000  O
  O11      1.0000 0.03634  0.57987  0.33127  Biso   1.000  O
  O12      1.0000 0.03629  0.58011  0.83180  Biso   1.000  O
  O13      1.0000 0.53453  0.08055  0.33066  Biso   1.000  O
  O14      1.0000 0.53514  0.07795  0.83384  Biso   1.000  O
  O15      1.0000 0.53791  0.57914  0.33236  Biso   1.000  O
  O16      1.0000 0.53619  0.57775  0.83284  Biso   1.000  O
  O17      1.0000 0.46356  0.42072  0.16820  Biso   1.000  O
  O18      1.0000 0.46314  0.42152  0.66846  Biso   1.000  O
  O19      1.0000 0.46540  0.91916  0.16925  Biso   1.000  O
  O20      1.0000 0.46259  0.92105  0.66914  Biso   1.000  O
  O21      1.0000 0.96570  0.41924  0.16922  Biso   1.000  O
  O22      1.0000 0.96518  0.41723  0.67052  Biso   1.000  O
  O23      1.0000 0.98016  0.92512  0.16370  Biso   1.000  O
  O24      1.0000 0.96431  0.91891  0.66894  Biso   1.000  O
  O25      1.0000 0.46370  0.32978  0.41916  Biso   1.000  O
  O26      1.0000 0.45996  0.32515  0.91780  Biso   1.000  O
  O27      1.0000 0.46419  0.82977  0.41710  Biso   1.000  O
  O28      1.0000 0.45992  0.82800  0.91842  Biso   1.000  O
  O29      1.0000 0.96388  0.32897  0.41755  Biso   1.000  O
  O30      1.0000 0.96584  0.32828  0.92240  Biso   1.000  O
  O31      1.0000 0.96437  0.83161  0.41809  Biso   1.000  O
  O32      1.0000 0.96400  0.83029  0.91845  Biso   1.000  O
  O33      1.0000 0.27100  0.12356  0.23659  Biso   1.000  O
  O34      1.0000 0.27637  0.12848  0.74356  Biso   1.000  O
  O35      1.0000 0.27617  0.63173  0.24149  Biso   1.000  O
  O36      1.0000 0.27655  0.62917  0.74098  Biso   1.000  O
  O37      1.0000 0.77590  0.12859  0.24080  Biso   1.000  O
  O38      1.0000 0.77496  0.12888  0.74037  Biso   1.000  O
  O39      1.0000 0.77734  0.63088  0.24049  Biso   1.000  O
  O40      1.0000 0.77632  0.62853  0.74202  Biso   1.000  O
  O41      1.0000 0.27657  0.12197  0.48979  Biso   1.000  O
  O42      1.0000 0.26814  0.11467  0.00182  Biso   1.000  O
  O43      1.0000 0.27647  0.62149  0.49076  Biso   1.000  O
  O44      1.0000 0.27589  0.62190  0.99122  Biso   1.000  O
  O45      1.0000 0.77746  0.12042  0.48902  Biso   1.000  O
  O46      1.0000 0.77594  0.12123  0.99066  Biso   1.000  O
  O47      1.0000 0.77659  0.62119  0.49099  Biso   1.000  O
  O48      1.0000 0.77748  0.62230  0.99180  Biso   1.000  O
  O49      1.0000 0.22323  0.37834  0.01057  Biso   1.000  O
  O50      1.0000 0.22327  0.37873  0.50918  Biso   1.000  O
  O51      1.0000 0.21773  0.88525  0.01309  Biso   1.000  O
  O52      1.0000 0.22372  0.87914  0.50794  Biso   1.000  O
  O53      1.0000 0.72485  0.37874  0.00974  Biso   1.000  O
  O54      1.0000 0.72403  0.37900  0.50958  Biso   1.000  O
  O55      1.0000 0.72393  0.87929  0.00971  Biso   1.000  O
  O56      1.0000 0.72405  0.87935  0.50879  Biso   1.000  O
  O57      1.0000 0.22523  0.37059  0.25963  Biso   1.000  O
  O58      1.0000 0.22323  0.36984  0.76032  Biso   1.000  O
  O59      1.0000 0.21829  0.87655  0.25560  Biso   1.000  O
  O60      1.0000 0.22320  0.87117  0.75920  Biso   1.000  O
  O61      1.0000 0.72492  0.37054  0.25901  Biso   1.000  O
  O62      1.0000 0.72375  0.37106  0.75985  Biso   1.000  O
  O63      1.0000 0.73231  0.87362  0.25770  Biso   1.000  O
  O64      1.0000 0.72282  0.87061  0.75970  Biso   1.000  O
