data_image0
_cell_length_a       5.05904
_cell_length_b       10.3049
_cell_length_c       10.4232
_cell_angle_alpha    89.8859
_cell_angle_beta     80.3574
_cell_angle_gamma    89.9711

_symmetry_space_group_name_H-M    "P 1"
_symmetry_int_tables_number       1

loop_
  _symmetry_equiv_pos_as_xyz
  'x, y, z'

loop_
  _atom_site_label
  _atom_site_occupancy
  _atom_site_fract_x
  _atom_site_fract_y
  _atom_site_fract_z
  _atom_site_thermal_displace_type
  _atom_site_B_iso_or_equiv
  _atom_site_type_symbol
  Mn1      1.0000 0.27260  0.02499  0.15003  Biso   1.000  Mn
  Zr1      1.0000 0.27542  0.02034  0.64519  Biso   1.000  Zr
  Zr2      1.0000 0.28003  0.52255  0.14561  Biso   1.000  Zr
  Zr3      1.0000 0.27853  0.52138  0.64644  Biso   1.000  Zr
  Zr4      1.0000 0.27840  0.22809  0.39170  Biso   1.000  Zr
  Zr5      1.0000 0.27644  0.22508  0.89957  Biso   1.000  Zr
  Zr6      1.0000 0.28032  0.73177  0.39379  Biso   1.000  Zr
  Zr7      1.0000 0.27627  0.73024  0.89848  Biso   1.000  Zr
  Zr8      1.0000 0.72636  0.26635  0.10702  Biso   1.000  Zr
  Zr9      1.0000 0.72041  0.27138  0.60473  Biso   1.000  Zr
  Zr10     1.0000 0.72397  0.77922  0.10511  Biso   1.000  Zr
  Zr11     1.0000 0.72168  0.77122  0.60465  Biso   1.000  Zr
  Zr12     1.0000 0.72384  0.48011  0.35452  Biso   1.000  Zr
  Zr13     1.0000 0.72081  0.47807  0.85700  Biso   1.000  Zr
  Zr14     1.0000 0.72515  0.98061  0.34903  Biso   1.000  Zr
  Zr15     1.0000 0.71430  0.97932  0.85742  Biso   1.000  Zr
  O1       1.0000 0.07664  0.16068  0.08579  Biso   1.000  O
  O2       1.0000 0.06918  0.16612  0.57513  Biso   1.000  O
  O3       1.0000 0.07034  0.67136  0.08335  Biso   1.000  O
  O4       1.0000 0.07396  0.67165  0.58132  Biso   1.000  O
  O5       1.0000 0.08084  0.08118  0.31406  Biso   1.000  O
  O6       1.0000 0.06644  0.08011  0.83028  Biso   1.000  O
  O7       1.0000 0.07731  0.57828  0.33315  Biso   1.000  O
  O8       1.0000 0.07351  0.57797  0.83422  Biso   1.000  O
  O9       1.0000 0.93054  0.41996  0.16808  Biso   1.000  O
  O10      1.0000 0.92822  0.41906  0.66986  Biso   1.000  O
  O11      1.0000 0.96070  0.92528  0.16298  Biso   1.000  O
  O12      1.0000 0.92532  0.92041  0.66843  Biso   1.000  O
  O13      1.0000 0.92696  0.32848  0.41738  Biso   1.000  O
  O14      1.0000 0.92386  0.32370  0.92115  Biso   1.000  O
  O15      1.0000 0.92756  0.83037  0.41536  Biso   1.000  O
  O16      1.0000 0.91963  0.82814  0.91757  Biso   1.000  O
  O17      1.0000 0.54038  0.12247  0.23564  Biso   1.000  O
  O18      1.0000 0.55098  0.12858  0.74291  Biso   1.000  O
  O19      1.0000 0.55556  0.63326  0.24149  Biso   1.000  O
  O20      1.0000 0.55379  0.62886  0.74258  Biso   1.000  O
  O21      1.0000 0.55661  0.12134  0.48753  Biso   1.000  O
  O22      1.0000 0.53680  0.11530  0.00133  Biso   1.000  O
  O23      1.0000 0.55402  0.62144  0.49134  Biso   1.000  O
  O24      1.0000 0.55460  0.62350  0.99264  Biso   1.000  O
  O25      1.0000 0.44826  0.37826  0.01091  Biso   1.000  O
  O26      1.0000 0.44653  0.37871  0.50933  Biso   1.000  O
  O27      1.0000 0.43574  0.88637  0.01404  Biso   1.000  O
  O28      1.0000 0.44740  0.87954  0.50759  Biso   1.000  O
  O29      1.0000 0.45270  0.36966  0.25912  Biso   1.000  O
  O30      1.0000 0.44606  0.36993  0.76087  Biso   1.000  O
  O31      1.0000 0.45090  0.87852  0.25444  Biso   1.000  O
  O32      1.0000 0.44417  0.87082  0.75983  Biso   1.000  O
