data_image0
_cell_length_a       10.0912
_cell_length_b       5.12445
_cell_length_c       10.4388
_cell_angle_alpha    89.9541
_cell_angle_beta     80.0843
_cell_angle_gamma    89.8503

_symmetry_space_group_name_H-M    "P 1"
_symmetry_int_tables_number       1

loop_
  _symmetry_equiv_pos_as_xyz
  'x, y, z'

loop_
  _atom_site_label
  _atom_site_occupancy
  _atom_site_fract_x
  _atom_site_fract_y
  _atom_site_fract_z
  _atom_site_thermal_displace_type
  _atom_site_B_iso_or_equiv
  _atom_site_type_symbol
  Mo1      1.0000 0.13814  0.04583  0.14846  Biso   1.000  Mo
  Hf1      1.0000 0.13979  0.45920  0.39499  Biso   1.000  Hf
  Hf2      1.0000 0.35764  0.54968  0.10515  Biso   1.000  Hf
  Hf3      1.0000 0.36116  0.95853  0.35323  Biso   1.000  Hf
  O1       1.0000 0.03729  0.32848  0.08016  Biso   1.000  O
  O2       1.0000 0.03854  0.16209  0.32333  Biso   1.000  O
  O3       1.0000 0.46601  0.83714  0.17092  Biso   1.000  O
  O4       1.0000 0.46490  0.66243  0.41988  Biso   1.000  O
  O5       1.0000 0.27642  0.25761  0.24011  Biso   1.000  O
  O6       1.0000 0.27733  0.24309  0.49083  Biso   1.000  O
  O7       1.0000 0.21668  0.76041  0.01040  Biso   1.000  O
  O8       1.0000 0.22283  0.74587  0.25921  Biso   1.000  O
  Hf4      1.0000 0.13858  0.04276  0.64598  Biso   1.000  Hf
  Hf5      1.0000 0.13904  0.45514  0.89692  Biso   1.000  Hf
  Hf6      1.0000 0.36126  0.54377  0.60437  Biso   1.000  Hf
  Hf7      1.0000 0.35837  0.95775  0.85596  Biso   1.000  Hf
  O9       1.0000 0.03416  0.33240  0.57644  Biso   1.000  O
  O10      1.0000 0.03399  0.16442  0.82821  Biso   1.000  O
  O11      1.0000 0.46336  0.83961  0.67057  Biso   1.000  O
  O12      1.0000 0.46058  0.66026  0.92050  Biso   1.000  O
  O13      1.0000 0.27672  0.25787  0.74168  Biso   1.000  O
  O14      1.0000 0.27470  0.23962  0.99558  Biso   1.000  O
  O15      1.0000 0.22304  0.75749  0.50884  Biso   1.000  O
  O16      1.0000 0.22260  0.74155  0.75948  Biso   1.000  O
  Hf8      1.0000 0.63867  0.04564  0.14535  Biso   1.000  Hf
  Hf9      1.0000 0.63980  0.45763  0.39542  Biso   1.000  Hf
  Hf10     1.0000 0.86377  0.54260  0.10326  Biso   1.000  Hf
  Hf11     1.0000 0.86184  0.95756  0.35282  Biso   1.000  Hf
  O17      1.0000 0.53431  0.34101  0.08118  Biso   1.000  O
  O18      1.0000 0.53678  0.16206  0.33070  Biso   1.000  O
  O19      1.0000 0.97518  0.83078  0.16849  Biso   1.000  O
  O20      1.0000 0.96479  0.66327  0.41952  Biso   1.000  O
  O21      1.0000 0.77832  0.25685  0.23969  Biso   1.000  O
  O22      1.0000 0.77802  0.24078  0.48961  Biso   1.000  O
  O23      1.0000 0.72271  0.75943  0.00949  Biso   1.000  O
  O24      1.0000 0.72809  0.74252  0.25849  Biso   1.000  O
  Hf12     1.0000 0.63811  0.04249  0.64657  Biso   1.000  Hf
  Hf13     1.0000 0.63733  0.45733  0.89696  Biso   1.000  Hf
  Hf14     1.0000 0.86034  0.54247  0.60407  Biso   1.000  Hf
  Hf15     1.0000 0.86057  0.95655  0.85428  Biso   1.000  Hf
  O25      1.0000 0.53688  0.34052  0.58050  Biso   1.000  O
  O26      1.0000 0.53431  0.16074  0.83164  Biso   1.000  O
  O27      1.0000 0.96470  0.83430  0.67029  Biso   1.000  O
  O28      1.0000 0.96427  0.66061  0.92061  Biso   1.000  O
  O29      1.0000 0.77566  0.25769  0.74065  Biso   1.000  O
  O30      1.0000 0.77659  0.24385  0.99032  Biso   1.000  O
  O31      1.0000 0.72348  0.75853  0.50911  Biso   1.000  O
  O32      1.0000 0.72234  0.74176  0.75978  Biso   1.000  O
