data_image0
_cell_length_a       10.1087
_cell_length_b       10.3061
_cell_length_c       10.1087
_cell_angle_alpha    90
_cell_angle_beta     89.3209
_cell_angle_gamma    90

_symmetry_space_group_name_H-M    "P 1"
_symmetry_int_tables_number       1

loop_
  _symmetry_equiv_pos_as_xyz
  'x, y, z'

loop_
  _atom_site_label
  _atom_site_occupancy
  _atom_site_fract_x
  _atom_site_fract_y
  _atom_site_fract_z
  _atom_site_thermal_displace_type
  _atom_site_B_iso_or_equiv
  _atom_site_type_symbol
  Zr1      1.0000 0.12540  0.95929  0.12540  Biso   1.000  Zr
  Zr2      1.0000 0.13234  0.25725  0.38761  Biso   1.000  Zr
  Zr3      1.0000 0.38761  0.25725  0.13234  Biso   1.000  Zr
  Zr4      1.0000 0.37768  0.00539  0.37768  Biso   1.000  Zr
  O1       1.0000 0.98311  0.15444  0.98311  Biso   1.000  O
  O2       1.0000 0.00822  0.08694  0.24256  Biso   1.000  O
  O3       1.0000 0.00652  0.33659  0.24427  Biso   1.000  O
  O4       1.0000 0.99484  0.40566  0.99484  Biso   1.000  O
  O5       1.0000 0.26767  0.15443  0.26767  Biso   1.000  O
  O6       1.0000 0.24256  0.08694  0.00822  Biso   1.000  O
  O7       1.0000 0.24427  0.33659  0.00652  Biso   1.000  O
  O8       1.0000 0.25595  0.40566  0.25595  Biso   1.000  O
  Zr5      1.0000 0.12540  0.99815  0.62539  Biso   1.000  Zr
  Zr6      1.0000 0.11845  0.25725  0.86318  Biso   1.000  Zr
  Zr7      1.0000 0.37600  0.24945  0.62957  Biso   1.000  Zr
  Zr8      1.0000 0.37174  0.00107  0.87906  Biso   1.000  Zr
  O9       1.0000 0.99829  0.14714  0.49471  Biso   1.000  O
  O10      1.0000 0.99780  0.10614  0.74180  Biso   1.000  O
  O11      1.0000 0.99465  0.36068  0.74214  Biso   1.000  O
  O12      1.0000 0.00496  0.40011  0.49598  Biso   1.000  O
  O13      1.0000 0.25250  0.14714  0.75608  Biso   1.000  O
  O14      1.0000 0.25300  0.10614  0.50899  Biso   1.000  O
  O15      1.0000 0.25614  0.36068  0.50865  Biso   1.000  O
  O16      1.0000 0.24583  0.40011  0.75482  Biso   1.000  O
  Zr9      1.0000 0.12540  0.49824  0.12540  Biso   1.000  Zr
  Zr10     1.0000 0.12898  0.74695  0.38004  Biso   1.000  Zr
  Zr11     1.0000 0.38004  0.74695  0.12898  Biso   1.000  Zr
  Zr12     1.0000 0.37950  0.50178  0.37949  Biso   1.000  Zr
  O17      1.0000 0.00469  0.64884  0.00469  Biso   1.000  O
  O18      1.0000 0.99833  0.59253  0.25247  Biso   1.000  O
  O19      1.0000 0.99839  0.83758  0.25240  Biso   1.000  O
  O20      1.0000 0.99291  0.89216  0.99291  Biso   1.000  O
  O21      1.0000 0.24611  0.64883  0.24611  Biso   1.000  O
  O22      1.0000 0.25247  0.59253  0.99833  Biso   1.000  O
  O23      1.0000 0.25240  0.83758  0.99839  Biso   1.000  O
  O24      1.0000 0.25788  0.89216  0.25788  Biso   1.000  O
  Zr13     1.0000 0.12540  0.50393  0.62540  Biso   1.000  Zr
  Zr14     1.0000 0.12181  0.74696  0.87075  Biso   1.000  Zr
  Zr15     1.0000 0.37573  0.75438  0.62638  Biso   1.000  Zr
  Zr16     1.0000 0.37766  0.50034  0.87314  Biso   1.000  Zr
  O25      1.0000 0.00019  0.64742  0.50383  Biso   1.000  O
  O26      1.0000 0.00101  0.60747  0.75273  Biso   1.000  O
  O27      1.0000 0.99996  0.85562  0.74734  Biso   1.000  O
  O28      1.0000 0.00233  0.89800  0.49862  Biso   1.000  O
  O29      1.0000 0.25060  0.64742  0.74696  Biso   1.000  O
  O30      1.0000 0.24978  0.60746  0.49807  Biso   1.000  O
  O31      1.0000 0.25083  0.85562  0.50345  Biso   1.000  O
  O32      1.0000 0.24846  0.89800  0.75217  Biso   1.000  O
  Zr17     1.0000 0.62539  0.99815  0.12540  Biso   1.000  Zr
  Zr18     1.0000 0.62957  0.24945  0.37600  Biso   1.000  Zr
  Zr19     1.0000 0.86318  0.25725  0.11845  Biso   1.000  Zr
  Zr20     1.0000 0.87905  0.00107  0.37174  Biso   1.000  Zr
  O33      1.0000 0.49471  0.14714  0.99830  Biso   1.000  O
  O34      1.0000 0.50899  0.10615  0.25300  Biso   1.000  O
  O35      1.0000 0.50865  0.36068  0.25614  Biso   1.000  O
  O36      1.0000 0.49598  0.40011  0.00496  Biso   1.000  O
  O37      1.0000 0.75608  0.14714  0.25250  Biso   1.000  O
  O38      1.0000 0.74180  0.10614  0.99780  Biso   1.000  O
  O39      1.0000 0.74214  0.36068  0.99465  Biso   1.000  O
  O40      1.0000 0.75482  0.40011  0.24583  Biso   1.000  O
  Zr21     1.0000 0.62540  0.00243  0.62540  Biso   1.000  Zr
  Zr22     1.0000 0.62122  0.24945  0.87480  Biso   1.000  Zr
  Zr23     1.0000 0.87480  0.24945  0.62123  Biso   1.000  Zr
  Zr24     1.0000 0.87311  0.00539  0.87311  Biso   1.000  Zr
  O41      1.0000 0.50175  0.15047  0.50175  Biso   1.000  O
  O42      1.0000 0.49973  0.10344  0.75106  Biso   1.000  O
  O43      1.0000 0.49662  0.35427  0.75417  Biso   1.000  O
  O44      1.0000 0.50380  0.39953  0.50380  Biso   1.000  O
  O45      1.0000 0.74904  0.15047  0.74904  Biso   1.000  O
  O46      1.0000 0.75106  0.10344  0.49973  Biso   1.000  O
  O47      1.0000 0.75417  0.35427  0.49662  Biso   1.000  O
  O48      1.0000 0.74700  0.39953  0.74700  Biso   1.000  O
  Zr25     1.0000 0.62540  0.50393  0.12540  Biso   1.000  Zr
  Zr26     1.0000 0.62638  0.75438  0.37573  Biso   1.000  Zr
  Zr27     1.0000 0.87075  0.74696  0.12181  Biso   1.000  Zr
  Zr28     1.0000 0.87313  0.50034  0.37766  Biso   1.000  Zr
  O49      1.0000 0.50383  0.64743  0.00019  Biso   1.000  O
  O50      1.0000 0.49807  0.60747  0.24978  Biso   1.000  O
  O51      1.0000 0.50345  0.85562  0.25083  Biso   1.000  O
  O52      1.0000 0.49862  0.89800  0.00233  Biso   1.000  O
  O53      1.0000 0.74696  0.64742  0.25060  Biso   1.000  O
  O54      1.0000 0.75273  0.60747  0.00101  Biso   1.000  O
  O55      1.0000 0.74734  0.85562  0.99996  Biso   1.000  O
  O56      1.0000 0.75217  0.89800  0.24846  Biso   1.000  O
  Zr29     1.0000 0.62540  0.50303  0.62540  Biso   1.000  Zr
  Zr30     1.0000 0.62441  0.75438  0.87506  Biso   1.000  Zr
  Zr31     1.0000 0.87506  0.75438  0.62441  Biso   1.000  Zr
  Zr32     1.0000 0.87130  0.50177  0.87130  Biso   1.000  Zr
  O57      1.0000 0.50084  0.65097  0.50084  Biso   1.000  O
  O58      1.0000 0.50025  0.60515  0.75054  Biso   1.000  O
  O59      1.0000 0.49909  0.85473  0.75170  Biso   1.000  O
  O60      1.0000 0.50155  0.90077  0.50155  Biso   1.000  O
  O61      1.0000 0.74995  0.65097  0.74995  Biso   1.000  O
  O62      1.0000 0.75054  0.60515  0.50025  Biso   1.000  O
  O63      1.0000 0.75170  0.85473  0.49909  Biso   1.000  O
  O64      1.0000 0.74924  0.90076  0.74924  Biso   1.000  O
  Mo1      1.0000 0.12539  0.20245  0.12539  Biso   1.000  Mo
