data_image0
_cell_length_a       5.05235
_cell_length_b       10.2401
_cell_length_c       10.0069
_cell_angle_alpha    88.7189
_cell_angle_beta     91.6353
_cell_angle_gamma    92.3285

_symmetry_space_group_name_H-M    "P 1"
_symmetry_int_tables_number       1

loop_
  _symmetry_equiv_pos_as_xyz
  'x, y, z'

loop_
  _atom_site_label
  _atom_site_occupancy
  _atom_site_fract_x
  _atom_site_fract_y
  _atom_site_fract_z
  _atom_site_thermal_displace_type
  _atom_site_B_iso_or_equiv
  _atom_site_type_symbol
  N1       1.0000 0.22518  0.99422  0.13852  Biso   1.000  N
  Hf1      1.0000 0.32469  0.23180  0.34661  Biso   1.000  Hf
  Hf2      1.0000 0.73593  0.26329  0.09923  Biso   1.000  Hf
  Hf3      1.0000 0.73606  0.97776  0.37092  Biso   1.000  Hf
  O1       1.0000 0.96234  0.16797  0.96968  Biso   1.000  O
  O2       1.0000 0.11435  0.05557  0.22565  Biso   1.000  O
  O3       1.0000 0.07302  0.31333  0.21499  Biso   1.000  O
  O4       1.0000 0.93980  0.43052  0.00757  Biso   1.000  O
  O5       1.0000 0.62062  0.14129  0.25483  Biso   1.000  O
  O6       1.0000 0.48088  0.12236  0.98550  Biso   1.000  O
  O7       1.0000 0.44836  0.36586  0.98971  Biso   1.000  O
  O8       1.0000 0.54579  0.39206  0.23844  Biso   1.000  O
  Hf4      1.0000 0.26497  0.00623  0.61532  Biso   1.000  Hf
  Hf5      1.0000 0.25753  0.24475  0.85416  Biso   1.000  Hf
  Hf6      1.0000 0.79581  0.24149  0.59426  Biso   1.000  Hf
  Hf7      1.0000 0.73556  0.02457  0.87028  Biso   1.000  Hf
  O9       1.0000 0.03199  0.14325  0.46591  Biso   1.000  O
  O10      1.0000 0.01589  0.11125  0.72680  Biso   1.000  O
  O11      1.0000 0.94892  0.36215  0.75056  Biso   1.000  O
  O12      1.0000 0.00045  0.39867  0.50001  Biso   1.000  O
  O13      1.0000 0.52185  0.15051  0.73739  Biso   1.000  O
  O14      1.0000 0.52848  0.09523  0.49457  Biso   1.000  O
  O15      1.0000 0.51877  0.33990  0.48469  Biso   1.000  O
  O16      1.0000 0.44341  0.39963  0.74046  Biso   1.000  O
  Hf8      1.0000 0.24312  0.49632  0.12856  Biso   1.000  Hf
  Hf9      1.0000 0.24835  0.72857  0.37217  Biso   1.000  Hf
  Hf10     1.0000 0.73814  0.74677  0.13184  Biso   1.000  Hf
  Hf11     1.0000 0.71732  0.50219  0.39333  Biso   1.000  Hf
  O17      1.0000 0.06074  0.68469  0.03891  Biso   1.000  O
  O18      1.0000 0.01395  0.57353  0.27127  Biso   1.000  O
  O19      1.0000 0.94091  0.82680  0.29122  Biso   1.000  O
  O20      1.0000 0.09045  0.93020  0.05824  Biso   1.000  O
  O21      1.0000 0.50369  0.63379  0.25604  Biso   1.000  O
  O22      1.0000 0.51786  0.61022  0.00450  Biso   1.000  O
  O23      1.0000 0.58953  0.86081  0.98409  Biso   1.000  O
  O24      1.0000 0.46704  0.87705  0.24444  Biso   1.000  O
  Hf12     1.0000 0.18543  0.51466  0.63973  Biso   1.000  Hf
  Hf13     1.0000 0.28009  0.76024  0.88786  Biso   1.000  Hf
  Hf14     1.0000 0.75537  0.76744  0.64856  Biso   1.000  Hf
  Hf15     1.0000 0.69544  0.49854  0.86381  Biso   1.000  Hf
  O25      1.0000 0.95616  0.65285  0.51506  Biso   1.000  O
  O26      1.0000 0.97242  0.62064  0.76933  Biso   1.000  O
  O27      1.0000 0.98560  0.86634  0.79525  Biso   1.000  O
  O28      1.0000 0.95932  0.90591  0.53456  Biso   1.000  O
  O29      1.0000 0.47035  0.65099  0.75317  Biso   1.000  O
  O30      1.0000 0.44532  0.59085  0.50192  Biso   1.000  O
  O31      1.0000 0.47900  0.84788  0.49772  Biso   1.000  O
  O32      1.0000 0.49199  0.90106  0.74375  Biso   1.000  O
