data_image0
_cell_length_a       10.1012
_cell_length_b       10.2642
_cell_length_c       10.0978
_cell_angle_alpha    89.7321
_cell_angle_beta     90.3072
_cell_angle_gamma    90.305

_symmetry_space_group_name_H-M    "P 1"
_symmetry_int_tables_number       1

loop_
  _symmetry_equiv_pos_as_xyz
  'x, y, z'

loop_
  _atom_site_label
  _atom_site_occupancy
  _atom_site_fract_x
  _atom_site_fract_y
  _atom_site_fract_z
  _atom_site_thermal_displace_type
  _atom_site_B_iso_or_equiv
  _atom_site_type_symbol
  Zr1      1.0000 0.13698  0.99812  0.12949  Biso   1.000  Zr
  Zr2      1.0000 0.12880  0.24542  0.37262  Biso   1.000  Zr
  Zr3      1.0000 0.37632  0.25093  0.12067  Biso   1.000  Zr
  Zr4      1.0000 0.38050  0.99966  0.37564  Biso   1.000  Zr
  O1       1.0000 0.95190  0.18585  0.95707  Biso   1.000  O
  O2       1.0000 0.01102  0.09551  0.26404  Biso   1.000  O
  O3       1.0000 0.99549  0.35625  0.26826  Biso   1.000  O
  O4       1.0000 0.98053  0.42234  0.02170  Biso   1.000  O
  O5       1.0000 0.25514  0.14514  0.24765  Biso   1.000  O
  O6       1.0000 0.26100  0.10140  0.99453  Biso   1.000  O
  O7       1.0000 0.24433  0.35666  0.00035  Biso   1.000  O
  O8       1.0000 0.24871  0.39460  0.25051  Biso   1.000  O
  Zr5      1.0000 0.12778  0.99804  0.62163  Biso   1.000  Zr
  Zr6      1.0000 0.14111  0.24664  0.86425  Biso   1.000  Zr
  Zr7      1.0000 0.38166  0.25062  0.62108  Biso   1.000  Zr
  Zr8      1.0000 0.38191  0.99714  0.87398  Biso   1.000  Zr
  O9       1.0000 0.00433  0.14797  0.50375  Biso   1.000  O
  O10      1.0000 0.00820  0.10122  0.74607  Biso   1.000  O
  O11      1.0000 0.00431  0.35622  0.76029  Biso   1.000  O
  O12      1.0000 0.99875  0.39822  0.51291  Biso   1.000  O
  O13      1.0000 0.25880  0.14337  0.74431  Biso   1.000  O
  O14      1.0000 0.25381  0.10047  0.49666  Biso   1.000  O
  O15      1.0000 0.25245  0.35084  0.50022  Biso   1.000  O
  O16      1.0000 0.25358  0.39302  0.75078  Biso   1.000  O
  Zr9      1.0000 0.12565  0.50400  0.13032  Biso   1.000  Zr
  Zr10     1.0000 0.12543  0.74979  0.37599  Biso   1.000  Zr
  Zr11     1.0000 0.37714  0.74836  0.12962  Biso   1.000  Zr
  Zr12     1.0000 0.37332  0.49737  0.37751  Biso   1.000  Zr
  O17      1.0000 0.99993  0.66604  0.00057  Biso   1.000  O
  O18      1.0000 0.99907  0.60477  0.25352  Biso   1.000  O
  O19      1.0000 0.00901  0.85125  0.24343  Biso   1.000  O
  O20      1.0000 0.01011  0.92558  0.99190  Biso   1.000  O
  O21      1.0000 0.25033  0.64486  0.25344  Biso   1.000  O
  O22      1.0000 0.24949  0.60487  0.00323  Biso   1.000  O
  O23      1.0000 0.25435  0.85307  0.00491  Biso   1.000  O
  O24      1.0000 0.25880  0.89203  0.25554  Biso   1.000  O
  Zr13     1.0000 0.12487  0.50145  0.63096  Biso   1.000  Zr
  Zr14     1.0000 0.12684  0.75734  0.87542  Biso   1.000  Zr
  Zr15     1.0000 0.37559  0.74697  0.62662  Biso   1.000  Zr
  Zr16     1.0000 0.37247  0.50274  0.87907  Biso   1.000  Zr
  O25      1.0000 0.00096  0.64598  0.50186  Biso   1.000  O
  O26      1.0000 0.00020  0.60521  0.75186  Biso   1.000  O
  O27      1.0000 0.99771  0.85333  0.74830  Biso   1.000  O
  O28      1.0000 0.00208  0.89468  0.49726  Biso   1.000  O
  O29      1.0000 0.24977  0.64648  0.75380  Biso   1.000  O
  O30      1.0000 0.25103  0.60024  0.50356  Biso   1.000  O
  O31      1.0000 0.25059  0.85033  0.50394  Biso   1.000  O
  O32      1.0000 0.24976  0.89647  0.75311  Biso   1.000  O
  Zr17     1.0000 0.62772  0.00104  0.12623  Biso   1.000  Zr
  Zr18     1.0000 0.62810  0.25083  0.37502  Biso   1.000  Zr
  Zr19     1.0000 0.86667  0.26874  0.13251  Biso   1.000  Zr
  Zr20     1.0000 0.87590  0.00102  0.37676  Biso   1.000  Zr
  O33      1.0000 0.50259  0.14807  0.00011  Biso   1.000  O
  O34      1.0000 0.50385  0.10223  0.25022  Biso   1.000  O
  O35      1.0000 0.49959  0.35140  0.25150  Biso   1.000  O
  O36      1.0000 0.49148  0.39815  0.00373  Biso   1.000  O
  O37      1.0000 0.75341  0.14770  0.25325  Biso   1.000  O
  O38      1.0000 0.74514  0.09998  0.99839  Biso   1.000  O
  O39      1.0000 0.73641  0.35895  0.00382  Biso   1.000  O
  O40      1.0000 0.74798  0.40042  0.25363  Biso   1.000  O
  Zr21     1.0000 0.62665  0.99928  0.62226  Biso   1.000  Zr
  Zr22     1.0000 0.62920  0.24644  0.87406  Biso   1.000  Zr
  Zr23     1.0000 0.88271  0.25174  0.62803  Biso   1.000  Zr
  Zr24     1.0000 0.87034  0.99832  0.86698  Biso   1.000  Zr
  O41      1.0000 0.50416  0.14533  0.49972  Biso   1.000  O
  O42      1.0000 0.50686  0.10066  0.74986  Biso   1.000  O
  O43      1.0000 0.50388  0.35090  0.75010  Biso   1.000  O
  O44      1.0000 0.50221  0.39575  0.50080  Biso   1.000  O
  O45      1.0000 0.75584  0.14553  0.75105  Biso   1.000  O
  O46      1.0000 0.75389  0.10239  0.50215  Biso   1.000  O
  O47      1.0000 0.75210  0.35125  0.50262  Biso   1.000  O
  O48      1.0000 0.75410  0.39559  0.75222  Biso   1.000  O
  Zr25     1.0000 0.62123  0.50107  0.12470  Biso   1.000  Zr
  Zr26     1.0000 0.62524  0.74684  0.37769  Biso   1.000  Zr
  Zr27     1.0000 0.87257  0.75086  0.13032  Biso   1.000  Zr
  Zr28     1.0000 0.87839  0.49963  0.38151  Biso   1.000  Zr
  O49      1.0000 0.49967  0.64662  0.00188  Biso   1.000  O
  O50      1.0000 0.49812  0.60186  0.25244  Biso   1.000  O
  O51      1.0000 0.50604  0.85181  0.25053  Biso   1.000  O
  O52      1.0000 0.50621  0.89530  0.00037  Biso   1.000  O
  O53      1.0000 0.74929  0.64697  0.25299  Biso   1.000  O
  O54      1.0000 0.74802  0.60633  0.00312  Biso   1.000  O
  O55      1.0000 0.75821  0.85328  0.99490  Biso   1.000  O
  O56      1.0000 0.75648  0.89721  0.24726  Biso   1.000  O
  Zr29     1.0000 0.62592  0.49782  0.62924  Biso   1.000  Zr
  Zr30     1.0000 0.62640  0.74970  0.87746  Biso   1.000  Zr
  Zr31     1.0000 0.87460  0.74805  0.62473  Biso   1.000  Zr
  Zr32     1.0000 0.87298  0.50576  0.87683  Biso   1.000  Zr
  O57      1.0000 0.50044  0.64497  0.50236  Biso   1.000  O
  O58      1.0000 0.50016  0.60035  0.75232  Biso   1.000  O
  O59      1.0000 0.49923  0.85021  0.75149  Biso   1.000  O
  O60      1.0000 0.50156  0.89433  0.50108  Biso   1.000  O
  O61      1.0000 0.74991  0.64599  0.75228  Biso   1.000  O
  O62      1.0000 0.75042  0.60194  0.50415  Biso   1.000  O
  O63      1.0000 0.75178  0.85211  0.49782  Biso   1.000  O
  O64      1.0000 0.74753  0.89293  0.74557  Biso   1.000  O
  N1       1.0000 0.04081  0.18495  0.05736  Biso   1.000  N
