data_image0
_cell_length_a       10.1187
_cell_length_b       10.2745
_cell_length_c       10.5306
_cell_angle_alpha    89.8456
_cell_angle_beta     90.0491
_cell_angle_gamma    89.8922

_symmetry_space_group_name_H-M    "P 1"
_symmetry_int_tables_number       1

loop_
  _symmetry_equiv_pos_as_xyz
  'x, y, z'

loop_
  _atom_site_label
  _atom_site_occupancy
  _atom_site_fract_x
  _atom_site_fract_y
  _atom_site_fract_z
  _atom_site_thermal_displace_type
  _atom_site_B_iso_or_equiv
  _atom_site_type_symbol
  N1       1.0000 0.04171  0.05727  0.17867  Biso   1.000  N
  Zr1      1.0000 0.13994  0.01918  0.67030  Biso   1.000  Zr
  Zr2      1.0000 0.13962  0.52041  0.17220  Biso   1.000  Zr
  Zr3      1.0000 0.13985  0.52235  0.67287  Biso   1.000  Zr
  Zr4      1.0000 0.14835  0.23189  0.42218  Biso   1.000  Zr
  Zr5      1.0000 0.14830  0.22560  0.91990  Biso   1.000  Zr
  Zr6      1.0000 0.14209  0.73042  0.41899  Biso   1.000  Zr
  Zr7      1.0000 0.14439  0.73171  0.92323  Biso   1.000  Zr
  Zr8      1.0000 0.35471  0.26238  0.17197  Biso   1.000  Zr
  Zr9      1.0000 0.36387  0.27066  0.67189  Biso   1.000  Zr
  Zr10     1.0000 0.35639  0.77760  0.17258  Biso   1.000  Zr
  Zr11     1.0000 0.36208  0.77137  0.67104  Biso   1.000  Zr
  Zr12     1.0000 0.36324  0.47971  0.41992  Biso   1.000  Zr
  Zr13     1.0000 0.36072  0.47660  0.92448  Biso   1.000  Zr
  Zr14     1.0000 0.35776  0.97951  0.41726  Biso   1.000  Zr
  Zr15     1.0000 0.36066  0.97823  0.92469  Biso   1.000  Zr
  Zr16     1.0000 0.63904  0.02127  0.07744  Biso   1.000  Zr
  Zr17     1.0000 0.63527  0.01933  0.58047  Biso   1.000  Zr
  Zr18     1.0000 0.63195  0.52155  0.08115  Biso   1.000  Zr
  Zr19     1.0000 0.64068  0.51982  0.58013  Biso   1.000  Zr
  Zr20     1.0000 0.63445  0.22943  0.32959  Biso   1.000  Zr
  Zr21     1.0000 0.63982  0.22789  0.82853  Biso   1.000  Zr
  Zr22     1.0000 0.63650  0.72711  0.32728  Biso   1.000  Zr
  Zr23     1.0000 0.63747  0.72852  0.82808  Biso   1.000  Zr
  Zr24     1.0000 0.85138  0.27615  0.08049  Biso   1.000  Zr
  Zr25     1.0000 0.86444  0.26858  0.57658  Biso   1.000  Zr
  Zr26     1.0000 0.86012  0.76380  0.07158  Biso   1.000  Zr
  Zr27     1.0000 0.86221  0.76877  0.58017  Biso   1.000  Zr
  Zr28     1.0000 0.86294  0.47900  0.32952  Biso   1.000  Zr
  Zr29     1.0000 0.86676  0.47392  0.82960  Biso   1.000  Zr
  Zr30     1.0000 0.84981  0.97756  0.33740  Biso   1.000  Zr
  Zr31     1.0000 0.86292  0.97893  0.82780  Biso   1.000  Zr
  O1       1.0000 0.02957  0.14782  0.09181  Biso   1.000  O
  O2       1.0000 0.02757  0.14703  0.56184  Biso   1.000  O
  O3       1.0000 0.03318  0.67095  0.08760  Biso   1.000  O
  O4       1.0000 0.03145  0.66172  0.58240  Biso   1.000  O
  O5       1.0000 0.02436  0.10068  0.29775  Biso   1.000  O
  O6       1.0000 0.03183  0.09008  0.82865  Biso   1.000  O
  O7       1.0000 0.03127  0.58785  0.33202  Biso   1.000  O
  O8       1.0000 0.03332  0.58329  0.83425  Biso   1.000  O
  O9       1.0000 0.46539  0.41117  0.08376  Biso   1.000  O
  O10      1.0000 0.46975  0.41368  0.58228  Biso   1.000  O
  O11      1.0000 0.47493  0.91236  0.08110  Biso   1.000  O
  O12      1.0000 0.46732  0.91242  0.58052  Biso   1.000  O
  O13      1.0000 0.46890  0.33833  0.33221  Biso   1.000  O
  O14      1.0000 0.47021  0.33597  0.83212  Biso   1.000  O
  O15      1.0000 0.47656  0.84468  0.32680  Biso   1.000  O
  O16      1.0000 0.47002  0.83670  0.82943  Biso   1.000  O
  O17      1.0000 0.28189  0.13297  0.30860  Biso   1.000  O
  O18      1.0000 0.27574  0.12176  0.79146  Biso   1.000  O
  O19      1.0000 0.27679  0.62185  0.29470  Biso   1.000  O
  O20      1.0000 0.27649  0.62256  0.79557  Biso   1.000  O
  O21      1.0000 0.28786  0.13666  0.03220  Biso   1.000  O
  O22      1.0000 0.27615  0.12609  0.54921  Biso   1.000  O
  O23      1.0000 0.27357  0.62021  0.04700  Biso   1.000  O
  O24      1.0000 0.27592  0.62568  0.54521  Biso   1.000  O
  O25      1.0000 0.22399  0.37662  0.29519  Biso   1.000  O
  O26      1.0000 0.22626  0.37117  0.79657  Biso   1.000  O
  O27      1.0000 0.23113  0.86645  0.30283  Biso   1.000  O
  O28      1.0000 0.22505  0.87309  0.79248  Biso   1.000  O
  O29      1.0000 0.21924  0.37447  0.04677  Biso   1.000  O
  O30      1.0000 0.22626  0.37477  0.54457  Biso   1.000  O
  O31      1.0000 0.23909  0.86506  0.03536  Biso   1.000  O
  O32      1.0000 0.22374  0.87599  0.54625  Biso   1.000  O
  O33      1.0000 0.53302  0.16351  0.16797  Biso   1.000  O
  O34      1.0000 0.53310  0.16346  0.66871  Biso   1.000  O
  O35      1.0000 0.52980  0.66408  0.16917  Biso   1.000  O
  O36      1.0000 0.53387  0.66260  0.66783  Biso   1.000  O
  O37      1.0000 0.53354  0.08588  0.41903  Biso   1.000  O
  O38      1.0000 0.53727  0.08416  0.91670  Biso   1.000  O
  O39      1.0000 0.53345  0.58679  0.41911  Biso   1.000  O
  O40      1.0000 0.53136  0.58535  0.91882  Biso   1.000  O
  O41      1.0000 0.96754  0.41065  0.16941  Biso   1.000  O
  O42      1.0000 0.97493  0.40378  0.67323  Biso   1.000  O
  O43      1.0000 0.97098  0.95172  0.16222  Biso   1.000  O
  O44      1.0000 0.96879  0.90995  0.66999  Biso   1.000  O
  O45      1.0000 0.97121  0.33655  0.41888  Biso   1.000  O
  O46      1.0000 0.97019  0.33019  0.92794  Biso   1.000  O
  O47      1.0000 0.96872  0.84257  0.41548  Biso   1.000  O
  O48      1.0000 0.97012  0.83690  0.92015  Biso   1.000  O
  O49      1.0000 0.77877  0.12531  0.95622  Biso   1.000  O
  O50      1.0000 0.77490  0.12174  0.45564  Biso   1.000  O
  O51      1.0000 0.77631  0.62417  0.95732  Biso   1.000  O
  O52      1.0000 0.77658  0.62345  0.45579  Biso   1.000  O
  O53      1.0000 0.77570  0.12668  0.20685  Biso   1.000  O
  O54      1.0000 0.77613  0.12409  0.70431  Biso   1.000  O
  O55      1.0000 0.77423  0.62401  0.20452  Biso   1.000  O
  O56      1.0000 0.77805  0.62327  0.70703  Biso   1.000  O
  O57      1.0000 0.72451  0.37538  0.95537  Biso   1.000  O
  O58      1.0000 0.72739  0.37217  0.45593  Biso   1.000  O
  O59      1.0000 0.72624  0.87384  0.95370  Biso   1.000  O
  O60      1.0000 0.72226  0.87187  0.45648  Biso   1.000  O
  O61      1.0000 0.72211  0.37699  0.20533  Biso   1.000  O
  O62      1.0000 0.72905  0.37424  0.70481  Biso   1.000  O
  O63      1.0000 0.73982  0.87407  0.20477  Biso   1.000  O
  O64      1.0000 0.72582  0.87395  0.70481  Biso   1.000  O
