data_image0
_cell_length_a       5.08791
_cell_length_b       10.4158
_cell_length_c       10.4586
_cell_angle_alpha    90.2659
_cell_angle_beta     80.7008
_cell_angle_gamma    90.6112

_symmetry_space_group_name_H-M    "P 1"
_symmetry_int_tables_number       1

loop_
  _symmetry_equiv_pos_as_xyz
  'x, y, z'

loop_
  _atom_site_label
  _atom_site_occupancy
  _atom_site_fract_x
  _atom_site_fract_y
  _atom_site_fract_z
  _atom_site_thermal_displace_type
  _atom_site_B_iso_or_equiv
  _atom_site_type_symbol
  Zr1      1.0000 0.27540  0.01888  0.14667  Biso   1.000  Zr
  Zr2      1.0000 0.32624  0.22614  0.39291  Biso   1.000  Zr
  Zr3      1.0000 0.72942  0.26979  0.11106  Biso   1.000  Zr
  Zr4      1.0000 0.69894  0.48553  0.34726  Biso   1.000  Zr
  O1       1.0000 0.07551  0.17028  0.08339  Biso   1.000  O
  O2       1.0000 0.08611  0.07374  0.33816  Biso   1.000  O
  O3       1.0000 0.89799  0.44174  0.15307  Biso   1.000  O
  O4       1.0000 0.94187  0.31953  0.41200  Biso   1.000  O
  O5       1.0000 0.55058  0.11903  0.23867  Biso   1.000  O
  O6       1.0000 0.56844  0.11681  0.49683  Biso   1.000  O
  O7       1.0000 0.44710  0.37842  0.00913  Biso   1.000  O
  O8       1.0000 0.40344  0.37312  0.25338  Biso   1.000  O
  Zr5      1.0000 0.27398  0.02046  0.64611  Biso   1.000  Zr
  Zr6      1.0000 0.27743  0.22851  0.89890  Biso   1.000  Zr
  Zr7      1.0000 0.72465  0.26745  0.61497  Biso   1.000  Zr
  Zr8      1.0000 0.72191  0.47725  0.85934  Biso   1.000  Zr
  O9       1.0000 0.08710  0.17625  0.58247  Biso   1.000  O
  O10      1.0000 0.07440  0.07665  0.83294  Biso   1.000  O
  O11      1.0000 0.92900  0.42032  0.66809  Biso   1.000  O
  O12      1.0000 0.92519  0.32535  0.91879  Biso   1.000  O
  O13      1.0000 0.55284  0.12905  0.74484  Biso   1.000  O
  O14      1.0000 0.55260  0.12039  0.99302  Biso   1.000  O
  O15      1.0000 0.46294  0.37856  0.51295  Biso   1.000  O
  O16      1.0000 0.44961  0.36998  0.76160  Biso   1.000  O
  Zr9      1.0000 0.26753  0.52012  0.14181  Biso   1.000  Zr
  Zr10     1.0000 0.26873  0.72831  0.39720  Biso   1.000  Zr
  Zr11     1.0000 0.71785  0.77081  0.10547  Biso   1.000  Zr
  Zr12     1.0000 0.73013  0.97623  0.35620  Biso   1.000  Zr
  O17      1.0000 0.07315  0.67858  0.08462  Biso   1.000  O
  O18      1.0000 0.06182  0.57373  0.33457  Biso   1.000  O
  O19      1.0000 0.92251  0.92123  0.16977  Biso   1.000  O
  O20      1.0000 0.91885  0.82338  0.41865  Biso   1.000  O
  O21      1.0000 0.53749  0.62996  0.24260  Biso   1.000  O
  O22      1.0000 0.54043  0.62086  0.49243  Biso   1.000  O
  O23      1.0000 0.44777  0.87893  0.00991  Biso   1.000  O
  O24      1.0000 0.44614  0.86753  0.26040  Biso   1.000  O
  Zr13     1.0000 0.27882  0.52095  0.64740  Biso   1.000  Zr
  Zr14     1.0000 0.27387  0.72976  0.89668  Biso   1.000  Zr
  Zr15     1.0000 0.71786  0.76996  0.60691  Biso   1.000  Zr
  Zr16     1.0000 0.72069  0.97890  0.85717  Biso   1.000  Zr
  O25      1.0000 0.06834  0.67108  0.58603  Biso   1.000  O
  O26      1.0000 0.07474  0.57614  0.83524  Biso   1.000  O
  O27      1.0000 0.92125  0.92327  0.66703  Biso   1.000  O
  O28      1.0000 0.92267  0.82764  0.91750  Biso   1.000  O
  O29      1.0000 0.55225  0.62852  0.74282  Biso   1.000  O
  O30      1.0000 0.54710  0.62050  0.99177  Biso   1.000  O
  O31      1.0000 0.44426  0.87837  0.51033  Biso   1.000  O
  O32      1.0000 0.44488  0.87071  0.76025  Biso   1.000  O
  N1       1.0000 0.79083  0.28137  0.32570  Biso   1.000  N
