data_image0
_cell_length_a       5.09067
_cell_length_b       10.3775
_cell_length_c       10.0836
_cell_angle_alpha    89.8519
_cell_angle_beta     89.686
_cell_angle_gamma    85.7587

_symmetry_space_group_name_H-M    "P 1"
_symmetry_int_tables_number       1

loop_
  _symmetry_equiv_pos_as_xyz
  'x, y, z'

loop_
  _atom_site_label
  _atom_site_occupancy
  _atom_site_fract_x
  _atom_site_fract_y
  _atom_site_fract_z
  _atom_site_thermal_displace_type
  _atom_site_B_iso_or_equiv
  _atom_site_type_symbol
  Hf1      1.0000 0.21629  0.97584  0.09682  Biso   1.000  Hf
  Hf2      1.0000 0.27371  0.23479  0.40666  Biso   1.000  Hf
  Hf3      1.0000 0.83147  0.27085  0.14309  Biso   1.000  Hf
  Hf4      1.0000 0.78262  0.02035  0.35212  Biso   1.000  Hf
  O1       1.0000 0.95699  0.12508  0.01067  Biso   1.000  O
  O2       1.0000 0.08546  0.11608  0.24981  Biso   1.000  O
  O3       1.0000 0.08728  0.36679  0.26213  Biso   1.000  O
  O4       1.0000 0.07100  0.38439  0.01234  Biso   1.000  O
  O5       1.0000 0.59170  0.18722  0.27268  Biso   1.000  O
  O6       1.0000 0.44103  0.08132  0.97018  Biso   1.000  O
  O7       1.0000 0.59327  0.31964  0.97928  Biso   1.000  O
  O8       1.0000 0.58712  0.43294  0.21383  Biso   1.000  O
  Hf5      1.0000 0.22781  0.98151  0.60847  Biso   1.000  Hf
  Hf6      1.0000 0.30514  0.25346  0.84865  Biso   1.000  Hf
  Hf7      1.0000 0.80894  0.26661  0.63315  Biso   1.000  Hf
  Hf8      1.0000 0.77333  0.01894  0.85929  Biso   1.000  Hf
  O9       1.0000 0.97853  0.13382  0.50012  Biso   1.000  O
  O10      1.0000 0.06511  0.11655  0.75390  Biso   1.000  O
  O11      1.0000 0.01183  0.37434  0.76157  Biso   1.000  O
  O12      1.0000 0.04017  0.39031  0.50806  Biso   1.000  O
  O13      1.0000 0.57763  0.15777  0.73902  Biso   1.000  O
  O14      1.0000 0.47207  0.06985  0.48233  Biso   1.000  O
  O15      1.0000 0.56695  0.33458  0.48447  Biso   1.000  O
  O16      1.0000 0.51195  0.40668  0.74478  Biso   1.000  O
  Hf9      1.0000 0.23529  0.52339  0.14546  Biso   1.000  Hf
  Hf10     1.0000 0.18377  0.73594  0.39435  Biso   1.000  Hf
  Hf11     1.0000 0.72343  0.76725  0.14385  Biso   1.000  Hf
  Hf12     1.0000 0.75070  0.49007  0.39106  Biso   1.000  Hf
  O17      1.0000 0.93886  0.63253  0.01736  Biso   1.000  O
  O18      1.0000 0.94558  0.61861  0.26713  Biso   1.000  O
  O19      1.0000 0.01213  0.86508  0.24840  Biso   1.000  O
  O20      1.0000 0.93592  0.87788  0.99520  Biso   1.000  O
  O21      1.0000 0.42305  0.67768  0.23252  Biso   1.000  O
  O22      1.0000 0.42377  0.57381  0.97281  Biso   1.000  O
  O23      1.0000 0.43358  0.82199  0.00621  Biso   1.000  O
  O24      1.0000 0.53318  0.93428  0.22511  Biso   1.000  O
  Hf13     1.0000 0.22177  0.51617  0.64135  Biso   1.000  Hf
  Hf14     1.0000 0.18787  0.72972  0.88811  Biso   1.000  Hf
  Hf15     1.0000 0.72012  0.76623  0.64635  Biso   1.000  Hf
  Hf16     1.0000 0.76047  0.48103  0.90180  Biso   1.000  Hf
  O25      1.0000 0.93138  0.63707  0.51595  Biso   1.000  O
  O26      1.0000 0.93572  0.61424  0.76675  Biso   1.000  O
  O27      1.0000 0.00776  0.86397  0.74868  Biso   1.000  O
  O28      1.0000 0.94277  0.88778  0.49873  Biso   1.000  O
  O29      1.0000 0.41718  0.66615  0.72532  Biso   1.000  O
  O30      1.0000 0.41563  0.57377  0.47094  Biso   1.000  O
  O31      1.0000 0.43677  0.82357  0.50957  Biso   1.000  O
  O32      1.0000 0.51691  0.91791  0.74148  Biso   1.000  O
  Na1      1.0000 0.33306  0.23381  0.11823  Biso   1.000  Na
