data_image0
_cell_length_a       10.1933
_cell_length_b       5.14388
_cell_length_c       10.5227
_cell_angle_alpha    89.9626
_cell_angle_beta     89.6305
_cell_angle_gamma    90.0861

_symmetry_space_group_name_H-M    "P 1"
_symmetry_int_tables_number       1

loop_
  _symmetry_equiv_pos_as_xyz
  'x, y, z'

loop_
  _atom_site_label
  _atom_site_occupancy
  _atom_site_fract_x
  _atom_site_fract_y
  _atom_site_fract_z
  _atom_site_thermal_displace_type
  _atom_site_B_iso_or_equiv
  _atom_site_type_symbol
  Na1      1.0000 0.14081  0.02893  0.17197  Biso   1.000  Na
  Zr1      1.0000 0.14089  0.04000  0.67344  Biso   1.000  Zr
  Zr2      1.0000 0.14506  0.45905  0.42054  Biso   1.000  Zr
  Zr3      1.0000 0.14258  0.45769  0.92808  Biso   1.000  Zr
  Zr4      1.0000 0.35549  0.53554  0.17182  Biso   1.000  Zr
  Zr5      1.0000 0.36014  0.54246  0.67309  Biso   1.000  Zr
  Zr6      1.0000 0.35833  0.95860  0.41927  Biso   1.000  Zr
  Zr7      1.0000 0.35772  0.95758  0.92581  Biso   1.000  Zr
  Zr8      1.0000 0.63757  0.04000  0.07772  Biso   1.000  Zr
  Zr9      1.0000 0.63762  0.04144  0.57620  Biso   1.000  Zr
  Zr10     1.0000 0.63845  0.45948  0.32615  Biso   1.000  Zr
  Zr11     1.0000 0.63739  0.45745  0.82725  Biso   1.000  Zr
  Zr12     1.0000 0.86005  0.54112  0.07586  Biso   1.000  Zr
  Zr13     1.0000 0.85923  0.54097  0.57608  Biso   1.000  Zr
  Zr14     1.0000 0.86193  0.95964  0.32550  Biso   1.000  Zr
  Zr15     1.0000 0.85875  0.95878  0.82667  Biso   1.000  Zr
  O1       1.0000 0.02632  0.33462  0.07657  Biso   1.000  O
  O2       1.0000 0.02932  0.32306  0.58373  Biso   1.000  O
  O3       1.0000 0.01975  0.19662  0.34658  Biso   1.000  O
  O4       1.0000 0.02715  0.18300  0.82869  Biso   1.000  O
  O5       1.0000 0.47167  0.81942  0.08144  Biso   1.000  O
  O6       1.0000 0.46931  0.82273  0.58079  Biso   1.000  O
  O7       1.0000 0.47380  0.68282  0.33010  Biso   1.000  O
  O8       1.0000 0.46955  0.67486  0.83051  Biso   1.000  O
  O9       1.0000 0.28291  0.25446  0.30587  Biso   1.000  O
  O10      1.0000 0.27269  0.24771  0.79604  Biso   1.000  O
  O11      1.0000 0.28599  0.25872  0.03996  Biso   1.000  O
  O12      1.0000 0.27422  0.25079  0.54945  Biso   1.000  O
  O13      1.0000 0.23279  0.73588  0.30190  Biso   1.000  O
  O14      1.0000 0.22548  0.75028  0.79497  Biso   1.000  O
  O15      1.0000 0.23493  0.73503  0.04023  Biso   1.000  O
  O16      1.0000 0.22561  0.75183  0.54827  Biso   1.000  O
  O17      1.0000 0.53135  0.32304  0.16778  Biso   1.000  O
  O18      1.0000 0.53023  0.32419  0.66716  Biso   1.000  O
  O19      1.0000 0.53128  0.17457  0.41705  Biso   1.000  O
  O20      1.0000 0.53171  0.17223  0.91665  Biso   1.000  O
  O21      1.0000 0.96072  0.80529  0.17520  Biso   1.000  O
  O22      1.0000 0.96976  0.82176  0.66788  Biso   1.000  O
  O23      1.0000 0.97281  0.68615  0.42173  Biso   1.000  O
  O24      1.0000 0.97100  0.68739  0.91734  Biso   1.000  O
  O25      1.0000 0.77310  0.24568  0.95168  Biso   1.000  O
  O26      1.0000 0.77140  0.25432  0.45440  Biso   1.000  O
  O27      1.0000 0.77384  0.25171  0.20320  Biso   1.000  O
  O28      1.0000 0.77303  0.25068  0.70257  Biso   1.000  O
  O29      1.0000 0.72449  0.74671  0.95080  Biso   1.000  O
  O30      1.0000 0.72730  0.75134  0.45217  Biso   1.000  O
  O31      1.0000 0.71892  0.75385  0.20236  Biso   1.000  O
  O32      1.0000 0.72557  0.75051  0.70147  Biso   1.000  O
