data_image0
_cell_length_a       10.1175
_cell_length_b       5.1283
_cell_length_c       10.1379
_cell_angle_alpha    89.9998
_cell_angle_beta     89.9997
_cell_angle_gamma    90.0001

_symmetry_space_group_name_H-M    "P 1"
_symmetry_int_tables_number       1

loop_
  _symmetry_equiv_pos_as_xyz
  'x, y, z'

loop_
  _atom_site_label
  _atom_site_occupancy
  _atom_site_fract_x
  _atom_site_fract_y
  _atom_site_fract_z
  _atom_site_thermal_displace_type
  _atom_site_B_iso_or_equiv
  _atom_site_type_symbol
  Zr1      1.0000 0.12513  0.99996  0.10664  Biso   1.000  Zr
  Zr2      1.0000 0.12513  0.49996  0.37326  Biso   1.000  Zr
  Zr3      1.0000 0.39721  0.49995  0.10664  Biso   1.000  Zr
  Zr4      1.0000 0.37265  0.99992  0.35585  Biso   1.000  Zr
  O1       1.0000 0.99867  0.27149  0.23463  Biso   1.000  O
  O2       1.0000 0.00572  0.22085  0.48571  Biso   1.000  O
  O3       1.0000 0.50106  0.78269  0.22633  Biso   1.000  O
  O4       1.0000 0.49149  0.71395  0.47087  Biso   1.000  O
  O5       1.0000 0.24623  0.24029  0.22759  Biso   1.000  O
  O6       1.0000 0.25906  0.27630  0.47959  Biso   1.000  O
  O7       1.0000 0.24452  0.77909  0.48570  Biso   1.000  O
  O8       1.0000 0.25158  0.72842  0.23462  Biso   1.000  O
  Zr5      1.0000 0.12512  0.99995  0.60664  Biso   1.000  Zr
  Zr6      1.0000 0.12512  0.49994  0.84001  Biso   1.000  Zr
  Zr7      1.0000 0.38025  0.49995  0.60664  Biso   1.000  Zr
  Zr8      1.0000 0.37264  0.99997  0.85744  Biso   1.000  Zr
  O9       1.0000 0.99118  0.27628  0.73369  Biso   1.000  O
  O10      1.0000 0.00402  0.24029  0.98568  Biso   1.000  O
  O11      1.0000 0.50385  0.78443  0.72348  Biso   1.000  O
  O12      1.0000 0.49590  0.73056  0.96772  Biso   1.000  O
  O13      1.0000 0.24452  0.22081  0.72757  Biso   1.000  O
  O14      1.0000 0.25158  0.27150  0.97865  Biso   1.000  O
  O15      1.0000 0.24623  0.75963  0.98568  Biso   1.000  O
  O16      1.0000 0.25906  0.72360  0.73368  Biso   1.000  O
  Zr9      1.0000 0.62512  0.99995  0.10664  Biso   1.000  Zr
  Zr10     1.0000 0.62513  0.49995  0.35508  Biso   1.000  Zr
  Zr11     1.0000 0.85304  0.49995  0.10664  Biso   1.000  Zr
  Zr12     1.0000 0.87761  0.99998  0.35584  Biso   1.000  Zr
  O17      1.0000 0.49590  0.26933  0.24556  Biso   1.000  O
  O18      1.0000 0.50386  0.21546  0.48980  Biso   1.000  O
  O19      1.0000 0.00401  0.75963  0.22759  Biso   1.000  O
  O20      1.0000 0.99119  0.72362  0.47958  Biso   1.000  O
  O21      1.0000 0.74920  0.21721  0.22632  Biso   1.000  O
  O22      1.0000 0.75875  0.28593  0.47087  Biso   1.000  O
  O23      1.0000 0.74639  0.78440  0.48980  Biso   1.000  O
  O24      1.0000 0.75435  0.73057  0.24556  Biso   1.000  O
  Zr13     1.0000 0.62513  0.99995  0.60664  Biso   1.000  Zr
  Zr14     1.0000 0.62512  0.49995  0.85819  Biso   1.000  Zr
  Zr15     1.0000 0.86999  0.49995  0.60663  Biso   1.000  Zr
  Zr16     1.0000 0.87761  0.99992  0.85744  Biso   1.000  Zr
  O25      1.0000 0.49149  0.28595  0.74240  Biso   1.000  O
  O26      1.0000 0.50105  0.21720  0.98695  Biso   1.000  O
  O27      1.0000 0.00572  0.77905  0.72756  Biso   1.000  O
  O28      1.0000 0.99866  0.72842  0.97864  Biso   1.000  O
  O29      1.0000 0.74639  0.21551  0.72347  Biso   1.000  O
  O30      1.0000 0.75435  0.26933  0.96772  Biso   1.000  O
  O31      1.0000 0.74919  0.78269  0.98695  Biso   1.000  O
  O32      1.0000 0.75875  0.71399  0.74240  Biso   1.000  O
  Nb1      1.0000 0.12512  0.49996  0.10664  Biso   1.000  Nb
