data_image0
_cell_length_a       10.0957
_cell_length_b       10.4548
_cell_length_c       10.1365
_cell_angle_alpha    89.9656
_cell_angle_beta     89.9997
_cell_angle_gamma    89.7093

_symmetry_space_group_name_H-M    "P 1"
_symmetry_int_tables_number       1

loop_
  _symmetry_equiv_pos_as_xyz
  'x, y, z'

loop_
  _atom_site_label
  _atom_site_occupancy
  _atom_site_fract_x
  _atom_site_fract_y
  _atom_site_fract_z
  _atom_site_thermal_displace_type
  _atom_site_B_iso_or_equiv
  _atom_site_type_symbol
  Zr1      1.0000 0.12807  0.00970  0.12265  Biso   1.000  Zr
  Zr2      1.0000 0.13163  0.23033  0.38173  Biso   1.000  Zr
  Zr3      1.0000 0.38248  0.26859  0.11674  Biso   1.000  Zr
  Zr4      1.0000 0.36801  0.48477  0.37123  Biso   1.000  Zr
  O1       1.0000 0.99990  0.15856  0.23070  Biso   1.000  O
  O2       1.0000 0.03524  0.06289  0.45571  Biso   1.000  O
  O3       1.0000 0.47014  0.43528  0.19526  Biso   1.000  O
  O4       1.0000 0.46906  0.31957  0.44606  Biso   1.000  O
  O5       1.0000 0.25873  0.11654  0.24545  Biso   1.000  O
  O6       1.0000 0.27205  0.13182  0.49772  Biso   1.000  O
  O7       1.0000 0.23390  0.38514  0.49438  Biso   1.000  O
  O8       1.0000 0.23608  0.36686  0.24221  Biso   1.000  O
  Zr5      1.0000 0.13412  0.00940  0.62458  Biso   1.000  Zr
  Zr6      1.0000 0.13515  0.23766  0.85022  Biso   1.000  Zr
  Zr7      1.0000 0.37231  0.26581  0.61854  Biso   1.000  Zr
  Zr8      1.0000 0.37001  0.48880  0.86909  Biso   1.000  Zr
  O9       1.0000 0.02874  0.17274  0.69134  Biso   1.000  O
  O10      1.0000 0.02678  0.07205  0.95124  Biso   1.000  O
  O11      1.0000 0.47125  0.43237  0.69386  Biso   1.000  O
  O12      1.0000 0.47023  0.32264  0.94040  Biso   1.000  O
  O13      1.0000 0.26876  0.11416  0.74449  Biso   1.000  O
  O14      1.0000 0.25493  0.14868  0.99864  Biso   1.000  O
  O15      1.0000 0.23527  0.39433  0.99044  Biso   1.000  O
  O16      1.0000 0.23979  0.36812  0.73930  Biso   1.000  O
  Zr9      1.0000 0.13796  0.53042  0.12028  Biso   1.000  Zr
  Zr10     1.0000 0.13452  0.73514  0.37529  Biso   1.000  Zr
  Zr11     1.0000 0.36821  0.76774  0.12334  Biso   1.000  Zr
  Zr12     1.0000 0.36444  0.98685  0.37297  Biso   1.000  Zr
  O17      1.0000 0.02927  0.67993  0.20349  Biso   1.000  O
  O18      1.0000 0.03371  0.56825  0.44734  Biso   1.000  O
  O19      1.0000 0.46290  0.93347  0.19671  Biso   1.000  O
  O20      1.0000 0.46925  0.82017  0.44684  Biso   1.000  O
  O21      1.0000 0.27410  0.62143  0.24672  Biso   1.000  O
  O22      1.0000 0.26949  0.63385  0.49618  Biso   1.000  O
  O23      1.0000 0.23434  0.88277  0.49653  Biso   1.000  O
  O24      1.0000 0.23106  0.86541  0.24724  Biso   1.000  O
  Zr13     1.0000 0.13451  0.51445  0.62168  Biso   1.000  Zr
  Zr14     1.0000 0.13150  0.73740  0.86962  Biso   1.000  Zr
  Zr15     1.0000 0.36924  0.76453  0.62182  Biso   1.000  Zr
  Zr16     1.0000 0.36658  0.98578  0.87324  Biso   1.000  Zr
  O25      1.0000 0.03386  0.67925  0.69479  Biso   1.000  O
  O26      1.0000 0.03145  0.57272  0.94740  Biso   1.000  O
  O27      1.0000 0.46887  0.93152  0.69921  Biso   1.000  O
  O28      1.0000 0.47006  0.82250  0.94733  Biso   1.000  O
  O29      1.0000 0.26866  0.61579  0.74389  Biso   1.000  O
  O30      1.0000 0.26920  0.64281  0.99275  Biso   1.000  O
  O31      1.0000 0.23288  0.88837  0.99508  Biso   1.000  O
  O32      1.0000 0.23556  0.86376  0.74611  Biso   1.000  O
  Zr17     1.0000 0.62955  0.01036  0.12352  Biso   1.000  Zr
  Zr18     1.0000 0.63350  0.23166  0.37669  Biso   1.000  Zr
  Zr19     1.0000 0.84774  0.25849  0.12613  Biso   1.000  Zr
  Zr20     1.0000 0.87014  0.48079  0.37296  Biso   1.000  Zr
  O33      1.0000 0.53194  0.17790  0.20345  Biso   1.000  O
  O34      1.0000 0.53190  0.06809  0.44943  Biso   1.000  O
  O35      1.0000 0.97697  0.41599  0.19962  Biso   1.000  O
  O36      1.0000 0.96940  0.32150  0.45629  Biso   1.000  O
  O37      1.0000 0.75592  0.10897  0.24869  Biso   1.000  O
  O38      1.0000 0.77031  0.13441  0.49676  Biso   1.000  O
  O39      1.0000 0.73394  0.38432  0.49831  Biso   1.000  O
  O40      1.0000 0.72845  0.36750  0.25069  Biso   1.000  O
  Zr21     1.0000 0.63483  0.01241  0.62226  Biso   1.000  Zr
  Zr22     1.0000 0.63388  0.23340  0.87044  Biso   1.000  Zr
  Zr23     1.0000 0.86472  0.26510  0.62459  Biso   1.000  Zr
  Zr24     1.0000 0.86737  0.48298  0.87643  Biso   1.000  Zr
  O41      1.0000 0.53544  0.18092  0.69571  Biso   1.000  O
  O42      1.0000 0.52403  0.07551  0.95210  Biso   1.000  O
  O43      1.0000 0.97551  0.42447  0.70766  Biso   1.000  O
  O44      1.0000 0.96998  0.31810  0.95625  Biso   1.000  O
  O45      1.0000 0.76849  0.11355  0.74633  Biso   1.000  O
  O46      1.0000 0.76202  0.12974  0.99602  Biso   1.000  O
  O47      1.0000 0.72791  0.38280  0.99741  Biso   1.000  O
  O48      1.0000 0.73398  0.36621  0.74813  Biso   1.000  O
  Zr25     1.0000 0.63491  0.51811  0.12410  Biso   1.000  Zr
  Zr26     1.0000 0.63482  0.73497  0.37414  Biso   1.000  Zr
  Zr27     1.0000 0.86437  0.76280  0.12490  Biso   1.000  Zr
  Zr28     1.0000 0.87206  0.98755  0.36999  Biso   1.000  Zr
  O49      1.0000 0.53626  0.68499  0.19523  Biso   1.000  O
  O50      1.0000 0.53357  0.56881  0.44548  Biso   1.000  O
  O51      1.0000 0.96408  0.92285  0.19727  Biso   1.000  O
  O52      1.0000 0.96921  0.81934  0.44885  Biso   1.000  O
  O53      1.0000 0.77101  0.61356  0.24684  Biso   1.000  O
  O54      1.0000 0.76944  0.63391  0.49632  Biso   1.000  O
  O55      1.0000 0.73547  0.88573  0.49492  Biso   1.000  O
  O56      1.0000 0.72986  0.86323  0.24602  Biso   1.000  O
  Zr29     1.0000 0.63619  0.51615  0.62251  Biso   1.000  Zr
  Zr30     1.0000 0.63449  0.73482  0.87300  Biso   1.000  Zr
  Zr31     1.0000 0.86751  0.76466  0.62219  Biso   1.000  Zr
  Zr32     1.0000 0.86760  0.98302  0.87472  Biso   1.000  Zr
  O57      1.0000 0.53508  0.68180  0.69645  Biso   1.000  O
  O58      1.0000 0.53329  0.57153  0.94665  Biso   1.000  O
  O59      1.0000 0.97125  0.92517  0.70339  Biso   1.000  O
  O60      1.0000 0.96868  0.81888  0.95096  Biso   1.000  O
  O61      1.0000 0.77121  0.61392  0.74685  Biso   1.000  O
  O62      1.0000 0.76869  0.63285  0.99591  Biso   1.000  O
  O63      1.0000 0.73113  0.88263  0.99582  Biso   1.000  O
  O64      1.0000 0.73288  0.86396  0.74528  Biso   1.000  O
  Nb1      1.0000 0.11099  0.27676  0.10693  Biso   1.000  Nb
