data_image0
_cell_length_a       10.1614
_cell_length_b       5.16702
_cell_length_c       10.4918
_cell_angle_alpha    90.0033
_cell_angle_beta     80.157
_cell_angle_gamma    89.8542

_symmetry_space_group_name_H-M    "P 1"
_symmetry_int_tables_number       1

loop_
  _symmetry_equiv_pos_as_xyz
  'x, y, z'

loop_
  _atom_site_label
  _atom_site_occupancy
  _atom_site_fract_x
  _atom_site_fract_y
  _atom_site_fract_z
  _atom_site_thermal_displace_type
  _atom_site_B_iso_or_equiv
  _atom_site_type_symbol
  Nb1      1.0000 0.13861  0.04604  0.14662  Biso   1.000  Nb
  Zr1      1.0000 0.13878  0.04274  0.64514  Biso   1.000  Zr
  Zr2      1.0000 0.63918  0.04567  0.14521  Biso   1.000  Zr
  Zr3      1.0000 0.63859  0.04245  0.64580  Biso   1.000  Zr
  Zr4      1.0000 0.13986  0.45845  0.39447  Biso   1.000  Zr
  Zr5      1.0000 0.13895  0.45656  0.89526  Biso   1.000  Zr
  Zr6      1.0000 0.64024  0.45746  0.39501  Biso   1.000  Zr
  Zr7      1.0000 0.63763  0.45787  0.89619  Biso   1.000  Zr
  Zr8      1.0000 0.35898  0.54862  0.10555  Biso   1.000  Zr
  Zr9      1.0000 0.36155  0.54339  0.60467  Biso   1.000  Zr
  Zr10     1.0000 0.86252  0.54454  0.10401  Biso   1.000  Zr
  Zr11     1.0000 0.86064  0.54189  0.60455  Biso   1.000  Zr
  Zr12     1.0000 0.36148  0.95836  0.35428  Biso   1.000  Zr
  Zr13     1.0000 0.35939  0.95846  0.85575  Biso   1.000  Zr
  Zr14     1.0000 0.86181  0.95700  0.35359  Biso   1.000  Zr
  Zr15     1.0000 0.86042  0.95664  0.85498  Biso   1.000  Zr
  O1       1.0000 0.03692  0.32829  0.08261  Biso   1.000  O
  O2       1.0000 0.03493  0.33528  0.57780  Biso   1.000  O
  O3       1.0000 0.53436  0.34217  0.08156  Biso   1.000  O
  O4       1.0000 0.53700  0.34120  0.58089  Biso   1.000  O
  O5       1.0000 0.04080  0.15277  0.32603  Biso   1.000  O
  O6       1.0000 0.03460  0.16227  0.82944  Biso   1.000  O
  O7       1.0000 0.53672  0.16190  0.33087  Biso   1.000  O
  O8       1.0000 0.53446  0.15993  0.83187  Biso   1.000  O
  O9       1.0000 0.46525  0.84019  0.16991  Biso   1.000  O
  O10      1.0000 0.46366  0.84076  0.66990  Biso   1.000  O
  O11      1.0000 0.97255  0.83620  0.16727  Biso   1.000  O
  O12      1.0000 0.96467  0.83632  0.66955  Biso   1.000  O
  O13      1.0000 0.46521  0.66162  0.41937  Biso   1.000  O
  O14      1.0000 0.46005  0.65850  0.91990  Biso   1.000  O
  O15      1.0000 0.96415  0.65758  0.41780  Biso   1.000  O
  O16      1.0000 0.96395  0.65860  0.92032  Biso   1.000  O
  O17      1.0000 0.27553  0.25746  0.23956  Biso   1.000  O
  O18      1.0000 0.27609  0.25770  0.74102  Biso   1.000  O
  O19      1.0000 0.77837  0.25729  0.24054  Biso   1.000  O
  O20      1.0000 0.77533  0.25753  0.74083  Biso   1.000  O
  O21      1.0000 0.27728  0.24357  0.49076  Biso   1.000  O
  O22      1.0000 0.27290  0.24101  0.99370  Biso   1.000  O
  O23      1.0000 0.77781  0.24065  0.49019  Biso   1.000  O
  O24      1.0000 0.77550  0.24354  0.99035  Biso   1.000  O
  O25      1.0000 0.21631  0.76329  0.01200  Biso   1.000  O
  O26      1.0000 0.22387  0.75708  0.50914  Biso   1.000  O
  O27      1.0000 0.72218  0.75878  0.00901  Biso   1.000  O
  O28      1.0000 0.72446  0.75809  0.50918  Biso   1.000  O
  O29      1.0000 0.22290  0.74671  0.25944  Biso   1.000  O
  O30      1.0000 0.22323  0.74214  0.75973  Biso   1.000  O
  O31      1.0000 0.72728  0.74311  0.25881  Biso   1.000  O
  O32      1.0000 0.72305  0.74234  0.75956  Biso   1.000  O
