data_image0
_cell_length_a       10.0806
_cell_length_b       10.2951
_cell_length_c       10.5082
_cell_angle_alpha    90.0225
_cell_angle_beta     89.9713
_cell_angle_gamma    89.9495

_symmetry_space_group_name_H-M    "P 1"
_symmetry_int_tables_number       1

loop_
  _symmetry_equiv_pos_as_xyz
  'x, y, z'

loop_
  _atom_site_label
  _atom_site_occupancy
  _atom_site_fract_x
  _atom_site_fract_y
  _atom_site_fract_z
  _atom_site_thermal_displace_type
  _atom_site_B_iso_or_equiv
  _atom_site_type_symbol
  Nb1      1.0000 0.13893  0.02357  0.17281  Biso   1.000  Nb
  Zr1      1.0000 0.13877  0.02107  0.67109  Biso   1.000  Zr
  Zr2      1.0000 0.13884  0.52125  0.17116  Biso   1.000  Zr
  Zr3      1.0000 0.13881  0.52129  0.67132  Biso   1.000  Zr
  Zr4      1.0000 0.13960  0.22978  0.42062  Biso   1.000  Zr
  Zr5      1.0000 0.13927  0.22845  0.92083  Biso   1.000  Zr
  Zr6      1.0000 0.13859  0.72888  0.42122  Biso   1.000  Zr
  Zr7      1.0000 0.13886  0.72924  0.92167  Biso   1.000  Zr
  Zr8      1.0000 0.36127  0.27113  0.17149  Biso   1.000  Zr
  Zr9      1.0000 0.36141  0.27133  0.67107  Biso   1.000  Zr
  Zr10     1.0000 0.35895  0.77414  0.17158  Biso   1.000  Zr
  Zr11     1.0000 0.36138  0.77124  0.67145  Biso   1.000  Zr
  Zr12     1.0000 0.36146  0.47963  0.42118  Biso   1.000  Zr
  Zr13     1.0000 0.36112  0.47930  0.92137  Biso   1.000  Zr
  Zr14     1.0000 0.36021  0.97884  0.42109  Biso   1.000  Zr
  Zr15     1.0000 0.36067  0.97867  0.92211  Biso   1.000  Zr
  Zr16     1.0000 0.63897  0.02134  0.07810  Biso   1.000  Zr
  Zr17     1.0000 0.63861  0.02087  0.57832  Biso   1.000  Zr
  Zr18     1.0000 0.63843  0.52203  0.07919  Biso   1.000  Zr
  Zr19     1.0000 0.63905  0.52118  0.57914  Biso   1.000  Zr
  Zr20     1.0000 0.63894  0.22856  0.32895  Biso   1.000  Zr
  Zr21     1.0000 0.63873  0.22918  0.82881  Biso   1.000  Zr
  Zr22     1.0000 0.63831  0.72894  0.32816  Biso   1.000  Zr
  Zr23     1.0000 0.63901  0.72895  0.82917  Biso   1.000  Zr
  Zr24     1.0000 0.86123  0.27077  0.07913  Biso   1.000  Zr
  Zr25     1.0000 0.86128  0.27058  0.57867  Biso   1.000  Zr
  Zr26     1.0000 0.86232  0.77224  0.07850  Biso   1.000  Zr
  Zr27     1.0000 0.86090  0.77105  0.57867  Biso   1.000  Zr
  Zr28     1.0000 0.86087  0.47884  0.32865  Biso   1.000  Zr
  Zr29     1.0000 0.86144  0.47870  0.82928  Biso   1.000  Zr
  Zr30     1.0000 0.86156  0.97831  0.32784  Biso   1.000  Zr
  Zr31     1.0000 0.86103  0.97883  0.82852  Biso   1.000  Zr
  O1       1.0000 0.03372  0.16003  0.08497  Biso   1.000  O
  O2       1.0000 0.03243  0.16392  0.58114  Biso   1.000  O
  O3       1.0000 0.03267  0.66447  0.08358  Biso   1.000  O
  O4       1.0000 0.03230  0.66498  0.58342  Biso   1.000  O
  O5       1.0000 0.03827  0.08051  0.33043  Biso   1.000  O
  O6       1.0000 0.03216  0.08547  0.83245  Biso   1.000  O
  O7       1.0000 0.03251  0.58398  0.33367  Biso   1.000  O
  O8       1.0000 0.03269  0.58469  0.83372  Biso   1.000  O
  O9       1.0000 0.46679  0.41601  0.08439  Biso   1.000  O
  O10      1.0000 0.46707  0.41608  0.58394  Biso   1.000  O
  O11      1.0000 0.46681  0.91590  0.08294  Biso   1.000  O
  O12      1.0000 0.46716  0.91556  0.58359  Biso   1.000  O
  O13      1.0000 0.46695  0.33386  0.33430  Biso   1.000  O
  O14      1.0000 0.46688  0.33467  0.83402  Biso   1.000  O
  O15      1.0000 0.46656  0.83538  0.33294  Biso   1.000  O
  O16      1.0000 0.46720  0.83471  0.83391  Biso   1.000  O
  O17      1.0000 0.27601  0.12262  0.29495  Biso   1.000  O
  O18      1.0000 0.27596  0.12430  0.79559  Biso   1.000  O
  O19      1.0000 0.27552  0.62513  0.29489  Biso   1.000  O
  O20      1.0000 0.27586  0.62418  0.79504  Biso   1.000  O
  O21      1.0000 0.27285  0.12415  0.04758  Biso   1.000  O
  O22      1.0000 0.27629  0.12624  0.54516  Biso   1.000  O
  O23      1.0000 0.27583  0.62732  0.04518  Biso   1.000  O
  O24      1.0000 0.27595  0.62587  0.54524  Biso   1.000  O
  O25      1.0000 0.22514  0.37460  0.29506  Biso   1.000  O
  O26      1.0000 0.22385  0.37401  0.79500  Biso   1.000  O
  O27      1.0000 0.21986  0.87592  0.29530  Biso   1.000  O
  O28      1.0000 0.22418  0.87435  0.79570  Biso   1.000  O
  O29      1.0000 0.22431  0.37523  0.04492  Biso   1.000  O
  O30      1.0000 0.22404  0.37579  0.54454  Biso   1.000  O
  O31      1.0000 0.21784  0.87988  0.04734  Biso   1.000  O
  O32      1.0000 0.22411  0.87563  0.54560  Biso   1.000  O
  O33      1.0000 0.53295  0.16568  0.16645  Biso   1.000  O
  O34      1.0000 0.53291  0.16582  0.66617  Biso   1.000  O
  O35      1.0000 0.53201  0.66720  0.16563  Biso   1.000  O
  O36      1.0000 0.53309  0.66581  0.66625  Biso   1.000  O
  O37      1.0000 0.53288  0.08428  0.41610  Biso   1.000  O
  O38      1.0000 0.53170  0.08536  0.91662  Biso   1.000  O
  O39      1.0000 0.53300  0.58459  0.41607  Biso   1.000  O
  O40      1.0000 0.53304  0.58413  0.91612  Biso   1.000  O
  O41      1.0000 0.96811  0.41385  0.16666  Biso   1.000  O
  O42      1.0000 0.96774  0.41436  0.66669  Biso   1.000  O
  O43      1.0000 0.97364  0.91577  0.16601  Biso   1.000  O
  O44      1.0000 0.96758  0.91500  0.66650  Biso   1.000  O
  O45      1.0000 0.96662  0.33252  0.41473  Biso   1.000  O
  O46      1.0000 0.96778  0.33339  0.91756  Biso   1.000  O
  O47      1.0000 0.96732  0.83513  0.41661  Biso   1.000  O
  O48      1.0000 0.96683  0.83443  0.91625  Biso   1.000  O
  O49      1.0000 0.77538  0.12434  0.95429  Biso   1.000  O
  O50      1.0000 0.77700  0.12330  0.45428  Biso   1.000  O
  O51      1.0000 0.77630  0.62444  0.95552  Biso   1.000  O
  O52      1.0000 0.77575  0.62408  0.45511  Biso   1.000  O
  O53      1.0000 0.77677  0.12565  0.20498  Biso   1.000  O
  O54      1.0000 0.77572  0.12570  0.70444  Biso   1.000  O
  O55      1.0000 0.77556  0.62575  0.20504  Biso   1.000  O
  O56      1.0000 0.77615  0.62547  0.70543  Biso   1.000  O
  O57      1.0000 0.72453  0.37425  0.95542  Biso   1.000  O
  O58      1.0000 0.72428  0.37384  0.45536  Biso   1.000  O
  O59      1.0000 0.72344  0.87442  0.95423  Biso   1.000  O
  O60      1.0000 0.72419  0.87410  0.45436  Biso   1.000  O
  O61      1.0000 0.72419  0.37562  0.20496  Biso   1.000  O
  O62      1.0000 0.72432  0.37590  0.70533  Biso   1.000  O
  O63      1.0000 0.72642  0.87646  0.20457  Biso   1.000  O
  O64      1.0000 0.72418  0.87570  0.70462  Biso   1.000  O
