data_image0
_cell_length_a       10.0716
_cell_length_b       10.1874
_cell_length_c       5.21219
_cell_angle_alpha    90.0544
_cell_angle_beta     80.9735
_cell_angle_gamma    89.3052

_symmetry_space_group_name_H-M    "P 1"
_symmetry_int_tables_number       1

loop_
  _symmetry_equiv_pos_as_xyz
  'x, y, z'

loop_
  _atom_site_label
  _atom_site_occupancy
  _atom_site_fract_x
  _atom_site_fract_y
  _atom_site_fract_z
  _atom_site_thermal_displace_type
  _atom_site_B_iso_or_equiv
  _atom_site_type_symbol
  Ni1      1.0000 0.12194  0.00866  0.33545  Biso   1.000  Ni
  Hf1      1.0000 0.14118  0.52229  0.29439  Biso   1.000  Hf
  Hf2      1.0000 0.63784  0.02205  0.29219  Biso   1.000  Hf
  Hf3      1.0000 0.63722  0.51991  0.29261  Biso   1.000  Hf
  Hf4      1.0000 0.14323  0.22353  0.78040  Biso   1.000  Hf
  Hf5      1.0000 0.13655  0.73240  0.79639  Biso   1.000  Hf
  Hf6      1.0000 0.64034  0.23043  0.79448  Biso   1.000  Hf
  Hf7      1.0000 0.63543  0.72838  0.79463  Biso   1.000  Hf
  Hf8      1.0000 0.35793  0.26883  0.19883  Biso   1.000  Hf
  Hf9      1.0000 0.35587  0.77884  0.20688  Biso   1.000  Hf
  Hf10     1.0000 0.87012  0.26442  0.21631  Biso   1.000  Hf
  Hf11     1.0000 0.85995  0.76964  0.21162  Biso   1.000  Hf
  Hf12     1.0000 0.36148  0.48044  0.70813  Biso   1.000  Hf
  Hf13     1.0000 0.35874  0.98467  0.70199  Biso   1.000  Hf
  Hf14     1.0000 0.86371  0.47654  0.71525  Biso   1.000  Hf
  Hf15     1.0000 0.85719  0.97700  0.71170  Biso   1.000  Hf
  O1       1.0000 0.04698  0.14708  0.15245  Biso   1.000  O
  O2       1.0000 0.03503  0.66766  0.16180  Biso   1.000  O
  O3       1.0000 0.53592  0.16933  0.15830  Biso   1.000  O
  O4       1.0000 0.53332  0.66985  0.15785  Biso   1.000  O
  O5       1.0000 0.03436  0.07962  0.63833  Biso   1.000  O
  O6       1.0000 0.03767  0.58105  0.66566  Biso   1.000  O
  O7       1.0000 0.53807  0.08163  0.65777  Biso   1.000  O
  O8       1.0000 0.53539  0.58261  0.65668  Biso   1.000  O
  O9       1.0000 0.46365  0.41792  0.34211  Biso   1.000  O
  O10      1.0000 0.46376  0.91917  0.34192  Biso   1.000  O
  O11      1.0000 0.97115  0.41205  0.35277  Biso   1.000  O
  O12      1.0000 0.96481  0.91820  0.34489  Biso   1.000  O
  O13      1.0000 0.47136  0.34064  0.84746  Biso   1.000  O
  O14      1.0000 0.45712  0.83170  0.83745  Biso   1.000  O
  O15      1.0000 0.96856  0.32684  0.85543  Biso   1.000  O
  O16      1.0000 0.96058  0.83062  0.84695  Biso   1.000  O
  O17      1.0000 0.26164  0.11635  0.43926  Biso   1.000  O
  O18      1.0000 0.27574  0.63492  0.48370  Biso   1.000  O
  O19      1.0000 0.77709  0.12748  0.48282  Biso   1.000  O
  O20      1.0000 0.77728  0.62708  0.48522  Biso   1.000  O
  O21      1.0000 0.29974  0.14306  0.92015  Biso   1.000  O
  O22      1.0000 0.27609  0.62619  0.98326  Biso   1.000  O
  O23      1.0000 0.77919  0.11986  0.98368  Biso   1.000  O
  O24      1.0000 0.77622  0.62040  0.98474  Biso   1.000  O
  O25      1.0000 0.22236  0.38343  0.01510  Biso   1.000  O
  O26      1.0000 0.21840  0.89892  0.03023  Biso   1.000  O
  O27      1.0000 0.72936  0.37645  0.02637  Biso   1.000  O
  O28      1.0000 0.71962  0.87835  0.02101  Biso   1.000  O
  O29      1.0000 0.22751  0.36743  0.51772  Biso   1.000  O
  O30      1.0000 0.21008  0.87602  0.51463  Biso   1.000  O
  O31      1.0000 0.72832  0.36990  0.52288  Biso   1.000  O
  O32      1.0000 0.72493  0.87016  0.52019  Biso   1.000  O
