data_image0
_cell_length_a       10.1082
_cell_length_b       10.3596
_cell_length_c       5.26907
_cell_angle_alpha    89.6512
_cell_angle_beta     90.1467
_cell_angle_gamma    90.1281

_symmetry_space_group_name_H-M    "P 1"
_symmetry_int_tables_number       1

loop_
  _symmetry_equiv_pos_as_xyz
  'x, y, z'

loop_
  _atom_site_label
  _atom_site_occupancy
  _atom_site_fract_x
  _atom_site_fract_y
  _atom_site_fract_z
  _atom_site_thermal_displace_type
  _atom_site_B_iso_or_equiv
  _atom_site_type_symbol
  Zr1      1.0000 0.14022  0.02010  0.34384  Biso   1.000  Zr
  Zr2      1.0000 0.13726  0.22718  0.84636  Biso   1.000  Zr
  Zr3      1.0000 0.35437  0.27104  0.35142  Biso   1.000  Zr
  Zr4      1.0000 0.36175  0.47977  0.84146  Biso   1.000  Zr
  Zr5      1.0000 0.64324  0.02207  0.15058  Biso   1.000  Zr
  Zr6      1.0000 0.64033  0.22420  0.66209  Biso   1.000  Zr
  Zr7      1.0000 0.86040  0.26832  0.16452  Biso   1.000  Zr
  Zr8      1.0000 0.86435  0.47913  0.66378  Biso   1.000  Zr
  O1       1.0000 0.03362  0.16370  0.16969  Biso   1.000  O
  O2       1.0000 0.03474  0.08356  0.66658  Biso   1.000  O
  O3       1.0000 0.46286  0.42515  0.18461  Biso   1.000  O
  O4       1.0000 0.46684  0.33274  0.66948  Biso   1.000  O
  O5       1.0000 0.27537  0.12428  0.59348  Biso   1.000  O
  O6       1.0000 0.27569  0.12473  0.09073  Biso   1.000  O
  O7       1.0000 0.22248  0.37428  0.59438  Biso   1.000  O
  O8       1.0000 0.22426  0.37521  0.09071  Biso   1.000  O
  O9       1.0000 0.52534  0.15770  0.33677  Biso   1.000  O
  O10      1.0000 0.53720  0.07260  0.81656  Biso   1.000  O
  O11      1.0000 0.96797  0.41425  0.33867  Biso   1.000  O
  O12      1.0000 0.96638  0.33496  0.84001  Biso   1.000  O
  O13      1.0000 0.78653  0.11854  0.90353  Biso   1.000  O
  O14      1.0000 0.77747  0.12276  0.41358  Biso   1.000  O
  O15      1.0000 0.71953  0.37073  0.92508  Biso   1.000  O
  O16      1.0000 0.72737  0.37986  0.42571  Biso   1.000  O
  Zr9      1.0000 0.13888  0.52042  0.34201  Biso   1.000  Zr
  Zr10     1.0000 0.14059  0.72817  0.84313  Biso   1.000  Zr
  Zr11     1.0000 0.36232  0.77199  0.34362  Biso   1.000  Zr
  Zr12     1.0000 0.36230  0.97705  0.84476  Biso   1.000  Zr
  Zr13     1.0000 0.64147  0.53003  0.16534  Biso   1.000  Zr
  Zr14     1.0000 0.64030  0.73081  0.66030  Biso   1.000  Zr
  Zr15     1.0000 0.86431  0.77176  0.16002  Biso   1.000  Zr
  Zr16     1.0000 0.86338  0.97671  0.65789  Biso   1.000  Zr
  O17      1.0000 0.03402  0.66358  0.16575  Biso   1.000  O
  O18      1.0000 0.03403  0.58530  0.66505  Biso   1.000  O
  O19      1.0000 0.46824  0.91579  0.16872  Biso   1.000  O
  O20      1.0000 0.46638  0.83039  0.67190  Biso   1.000  O
  O21      1.0000 0.27682  0.62289  0.58979  Biso   1.000  O
  O22      1.0000 0.27719  0.62514  0.08941  Biso   1.000  O
  O23      1.0000 0.22616  0.87377  0.59154  Biso   1.000  O
  O24      1.0000 0.22499  0.87422  0.09181  Biso   1.000  O
  O25      1.0000 0.53512  0.67004  0.33414  Biso   1.000  O
  O26      1.0000 0.53546  0.58309  0.83417  Biso   1.000  O
  O27      1.0000 0.97057  0.91357  0.33343  Biso   1.000  O
  O28      1.0000 0.96992  0.83331  0.83490  Biso   1.000  O
  O29      1.0000 0.77813  0.62395  0.91311  Biso   1.000  O
  O30      1.0000 0.77824  0.62809  0.41465  Biso   1.000  O
  O31      1.0000 0.72645  0.87197  0.91257  Biso   1.000  O
  O32      1.0000 0.72678  0.87549  0.41084  Biso   1.000  O
  Ni1      1.0000 0.59108  0.28580  0.12804  Biso   1.000  Ni
