data_image0
_cell_length_a       10.0514
_cell_length_b       10.2156
_cell_length_c       10.0515
_cell_angle_alpha    90.0005
_cell_angle_beta     89.1216
_cell_angle_gamma    89.9981

_symmetry_space_group_name_H-M    "P 1"
_symmetry_int_tables_number       1

loop_
  _symmetry_equiv_pos_as_xyz
  'x, y, z'

loop_
  _atom_site_label
  _atom_site_occupancy
  _atom_site_fract_x
  _atom_site_fract_y
  _atom_site_fract_z
  _atom_site_thermal_displace_type
  _atom_site_B_iso_or_equiv
  _atom_site_type_symbol
  Ni1      1.0000 0.12499  0.96166  0.12505  Biso   1.000  Ni
  Zr1      1.0000 0.12497  0.99413  0.62503  Biso   1.000  Zr
  Zr2      1.0000 0.12496  0.50498  0.12501  Biso   1.000  Zr
  Zr3      1.0000 0.12497  0.49985  0.62501  Biso   1.000  Zr
  Zr4      1.0000 0.62497  0.99414  0.12502  Biso   1.000  Zr
  Zr5      1.0000 0.62498  0.00373  0.62504  Biso   1.000  Zr
  Zr6      1.0000 0.62496  0.49984  0.12502  Biso   1.000  Zr
  Zr7      1.0000 0.62496  0.49680  0.62502  Biso   1.000  Zr
  Zr8      1.0000 0.12999  0.25170  0.37236  Biso   1.000  Zr
  Zr9      1.0000 0.11992  0.25172  0.87767  Biso   1.000  Zr
  Zr10     1.0000 0.12881  0.75091  0.37854  Biso   1.000  Zr
  Zr11     1.0000 0.12115  0.75091  0.87153  Biso   1.000  Zr
  Zr12     1.0000 0.62903  0.24860  0.37309  Biso   1.000  Zr
  Zr13     1.0000 0.62090  0.24861  0.87697  Biso   1.000  Zr
  Zr14     1.0000 0.62711  0.75026  0.37814  Biso   1.000  Zr
  Zr15     1.0000 0.62285  0.75026  0.87194  Biso   1.000  Zr
  Zr16     1.0000 0.37229  0.25170  0.13005  Biso   1.000  Zr
  Zr17     1.0000 0.37302  0.24861  0.62909  Biso   1.000  Zr
  Zr18     1.0000 0.37849  0.75091  0.12887  Biso   1.000  Zr
  Zr19     1.0000 0.37809  0.75026  0.62717  Biso   1.000  Zr
  Zr20     1.0000 0.87761  0.25172  0.11999  Biso   1.000  Zr
  Zr21     1.0000 0.87690  0.24861  0.62097  Biso   1.000  Zr
  Zr22     1.0000 0.87147  0.75091  0.12121  Biso   1.000  Zr
  Zr23     1.0000 0.87188  0.75026  0.62290  Biso   1.000  Zr
  Zr24     1.0000 0.37877  0.00546  0.37883  Biso   1.000  Zr
  Zr25     1.0000 0.36502  0.00339  0.88499  Biso   1.000  Zr
  Zr26     1.0000 0.37685  0.49869  0.37690  Biso   1.000  Zr
  Zr27     1.0000 0.37505  0.49796  0.87494  Biso   1.000  Zr
  Zr28     1.0000 0.88493  0.00339  0.36508  Biso   1.000  Zr
  Zr29     1.0000 0.87121  0.00546  0.87126  Biso   1.000  Zr
  Zr30     1.0000 0.87489  0.49796  0.37510  Biso   1.000  Zr
  Zr31     1.0000 0.87307  0.49872  0.87312  Biso   1.000  Zr
  O1       1.0000 0.97012  0.16054  0.97018  Biso   1.000  O
  O2       1.0000 0.99646  0.14586  0.48242  Biso   1.000  O
  O3       1.0000 0.00012  0.65103  0.00017  Biso   1.000  O
  O4       1.0000 0.00040  0.64590  0.50033  Biso   1.000  O
  O5       1.0000 0.48236  0.14586  0.99653  Biso   1.000  O
  O6       1.0000 0.50107  0.14753  0.50113  Biso   1.000  O
  O7       1.0000 0.50027  0.64590  0.00045  Biso   1.000  O
  O8       1.0000 0.50006  0.64443  0.50011  Biso   1.000  O
  O9       1.0000 0.02393  0.08822  0.22614  Biso   1.000  O
  O10      1.0000 0.99729  0.10386  0.73331  Biso   1.000  O
  O11      1.0000 0.99883  0.60406  0.25113  Biso   1.000  O
  O12      1.0000 0.00049  0.60503  0.75100  Biso   1.000  O
  O13      1.0000 0.51675  0.10383  0.25276  Biso   1.000  O
  O14      1.0000 0.49782  0.10272  0.75222  Biso   1.000  O
  O15      1.0000 0.49897  0.60502  0.24950  Biso   1.000  O
  O16      1.0000 0.50026  0.60413  0.74973  Biso   1.000  O
  O17      1.0000 0.99967  0.34890  0.25031  Biso   1.000  O
  O18      1.0000 0.99873  0.35435  0.74935  Biso   1.000  O
  O19      1.0000 0.01565  0.85049  0.23436  Biso   1.000  O
  O20      1.0000 0.99314  0.85378  0.75063  Biso   1.000  O
  O21      1.0000 0.50063  0.35433  0.25125  Biso   1.000  O
  O22      1.0000 0.49896  0.35385  0.75104  Biso   1.000  O
  O23      1.0000 0.49937  0.85376  0.25688  Biso   1.000  O
  O24      1.0000 0.49197  0.85421  0.75804  Biso   1.000  O
  O25      1.0000 0.00123  0.40287  0.00129  Biso   1.000  O
  O26      1.0000 0.00051  0.39639  0.50058  Biso   1.000  O
  O27      1.0000 0.99895  0.91238  0.99901  Biso   1.000  O
  O28      1.0000 0.00647  0.89500  0.49355  Biso   1.000  O
  O29      1.0000 0.50052  0.39639  0.00057  Biso   1.000  O
  O30      1.0000 0.50074  0.39512  0.50080  Biso   1.000  O
  O31      1.0000 0.49350  0.89500  0.00653  Biso   1.000  O
  O32      1.0000 0.50515  0.89486  0.50520  Biso   1.000  O
  O33      1.0000 0.27987  0.16055  0.27992  Biso   1.000  O
  O34      1.0000 0.25352  0.14589  0.76770  Biso   1.000  O
  O35      1.0000 0.24980  0.65102  0.24985  Biso   1.000  O
  O36      1.0000 0.24954  0.64592  0.74969  Biso   1.000  O
  O37      1.0000 0.76764  0.14589  0.25358  Biso   1.000  O
  O38      1.0000 0.74890  0.14753  0.74896  Biso   1.000  O
  O39      1.0000 0.74964  0.64591  0.24959  Biso   1.000  O
  O40      1.0000 0.74988  0.64443  0.74993  Biso   1.000  O
  O41      1.0000 0.22609  0.08823  0.02399  Biso   1.000  O
  O42      1.0000 0.25269  0.10383  0.51680  Biso   1.000  O
  O43      1.0000 0.25107  0.60406  0.99889  Biso   1.000  O
  O44      1.0000 0.24944  0.60502  0.49903  Biso   1.000  O
  O45      1.0000 0.73325  0.10386  0.99735  Biso   1.000  O
  O46      1.0000 0.75215  0.10272  0.49789  Biso   1.000  O
  O47      1.0000 0.75094  0.60503  0.00055  Biso   1.000  O
  O48      1.0000 0.74967  0.60413  0.50032  Biso   1.000  O
  O49      1.0000 0.25025  0.34890  0.99974  Biso   1.000  O
  O50      1.0000 0.25119  0.35433  0.50069  Biso   1.000  O
  O51      1.0000 0.23431  0.85050  0.01571  Biso   1.000  O
  O52      1.0000 0.25683  0.85376  0.49942  Biso   1.000  O
  O53      1.0000 0.74929  0.35435  0.99879  Biso   1.000  O
  O54      1.0000 0.75098  0.35385  0.49902  Biso   1.000  O
  O55      1.0000 0.75058  0.85377  0.99319  Biso   1.000  O
  O56      1.0000 0.75799  0.85421  0.49202  Biso   1.000  O
  O57      1.0000 0.24868  0.40286  0.24875  Biso   1.000  O
  O58      1.0000 0.24942  0.39640  0.74946  Biso   1.000  O
  O59      1.0000 0.25101  0.91237  0.25107  Biso   1.000  O
  O60      1.0000 0.24348  0.89502  0.75652  Biso   1.000  O
  O61      1.0000 0.74940  0.39640  0.24948  Biso   1.000  O
  O62      1.0000 0.74918  0.39513  0.74924  Biso   1.000  O
  O63      1.0000 0.75646  0.89502  0.24354  Biso   1.000  O
  O64      1.0000 0.74482  0.89486  0.74487  Biso   1.000  O
