data_image0
_cell_length_a       10.1625
_cell_length_b       5.20121
_cell_length_c       10.4451
_cell_angle_alpha    90.8635
_cell_angle_beta     79.3517
_cell_angle_gamma    90.3594

_symmetry_space_group_name_H-M    "P 1"
_symmetry_int_tables_number       1

loop_
  _symmetry_equiv_pos_as_xyz
  'x, y, z'

loop_
  _atom_site_label
  _atom_site_occupancy
  _atom_site_fract_x
  _atom_site_fract_y
  _atom_site_fract_z
  _atom_site_thermal_displace_type
  _atom_site_B_iso_or_equiv
  _atom_site_type_symbol
  Hf1      1.0000 0.13031  0.05169  0.14061  Biso   1.000  Hf
  Hf2      1.0000 0.14137  0.46257  0.39002  Biso   1.000  Hf
  Hf3      1.0000 0.34822  0.56069  0.09909  Biso   1.000  Hf
  Hf4      1.0000 0.35949  0.90467  0.34545  Biso   1.000  Hf
  O1       1.0000 0.03071  0.35167  0.07771  Biso   1.000  O
  O2       1.0000 0.03129  0.17140  0.32735  Biso   1.000  O
  O3       1.0000 0.45608  0.87942  0.15143  Biso   1.000  O
  O4       1.0000 0.47921  0.66447  0.43408  Biso   1.000  O
  O5       1.0000 0.27051  0.24564  0.22918  Biso   1.000  O
  O6       1.0000 0.29047  0.25595  0.47715  Biso   1.000  O
  O7       1.0000 0.21672  0.77394  0.00180  Biso   1.000  O
  O8       1.0000 0.20128  0.75536  0.24972  Biso   1.000  O
  Hf5      1.0000 0.13618  0.04325  0.64515  Biso   1.000  Hf
  Hf6      1.0000 0.13337  0.46353  0.89341  Biso   1.000  Hf
  Hf7      1.0000 0.36238  0.54475  0.61059  Biso   1.000  Hf
  Hf8      1.0000 0.35935  0.96397  0.85510  Biso   1.000  Hf
  O9       1.0000 0.04134  0.33862  0.57851  Biso   1.000  O
  O10      1.0000 0.03331  0.16021  0.83099  Biso   1.000  O
  O11      1.0000 0.46501  0.84287  0.67334  Biso   1.000  O
  O12      1.0000 0.46104  0.65917  0.91694  Biso   1.000  O
  O13      1.0000 0.27430  0.25539  0.73747  Biso   1.000  O
  O14      1.0000 0.27115  0.25642  0.98513  Biso   1.000  O
  O15      1.0000 0.22433  0.76009  0.51186  Biso   1.000  O
  O16      1.0000 0.22281  0.74275  0.75787  Biso   1.000  O
  Hf9      1.0000 0.63563  0.04158  0.15276  Biso   1.000  Hf
  Hf10     1.0000 0.65141  0.44963  0.40347  Biso   1.000  Hf
  Hf11     1.0000 0.85576  0.54449  0.10595  Biso   1.000  Hf
  Hf12     1.0000 0.86241  0.95433  0.35547  Biso   1.000  Hf
  O17      1.0000 0.52984  0.37816  0.11200  Biso   1.000  O
  O18      1.0000 0.55297  0.09584  0.34958  Biso   1.000  O
  O19      1.0000 0.95764  0.84778  0.16551  Biso   1.000  O
  O20      1.0000 0.96527  0.66728  0.42226  Biso   1.000  O
  O21      1.0000 0.77869  0.25953  0.24297  Biso   1.000  O
  O22      1.0000 0.78226  0.23463  0.49734  Biso   1.000  O
  O23      1.0000 0.72051  0.76399  0.01353  Biso   1.000  O
  O24      1.0000 0.72503  0.73668  0.26248  Biso   1.000  O
  Hf13     1.0000 0.63976  0.04478  0.65062  Biso   1.000  Hf
  Hf14     1.0000 0.63591  0.46882  0.90134  Biso   1.000  Hf
  Hf15     1.0000 0.86448  0.54211  0.60679  Biso   1.000  Hf
  Hf16     1.0000 0.85728  0.96112  0.85825  Biso   1.000  Hf
  O25      1.0000 0.53805  0.33924  0.58967  Biso   1.000  O
  O26      1.0000 0.53586  0.16080  0.84111  Biso   1.000  O
  O27      1.0000 0.96355  0.84157  0.67221  Biso   1.000  O
  O28      1.0000 0.95792  0.66081  0.91690  Biso   1.000  O
  O29      1.0000 0.77585  0.26217  0.74564  Biso   1.000  O
  O30      1.0000 0.76566  0.24594  0.99574  Biso   1.000  O
  O31      1.0000 0.72722  0.75361  0.51603  Biso   1.000  O
  O32      1.0000 0.72273  0.74096  0.76455  Biso   1.000  O
  Os1      1.0000 0.41934  0.39561  0.31286  Biso   1.000  Os
