data_image0
_cell_length_a       10.1061
_cell_length_b       10.6566
_cell_length_c       5.06388
_cell_angle_alpha    89.8474
_cell_angle_beta     90.1052
_cell_angle_gamma    90.4809

_symmetry_space_group_name_H-M    "P 1"
_symmetry_int_tables_number       1

loop_
  _symmetry_equiv_pos_as_xyz
  'x, y, z'

loop_
  _atom_site_label
  _atom_site_occupancy
  _atom_site_fract_x
  _atom_site_fract_y
  _atom_site_fract_z
  _atom_site_thermal_displace_type
  _atom_site_B_iso_or_equiv
  _atom_site_type_symbol
  Zr1      1.0000 0.13673  0.01145  0.24022  Biso   1.000  Zr
  Zr2      1.0000 0.14006  0.21016  0.75244  Biso   1.000  Zr
  Zr3      1.0000 0.36962  0.25978  0.23413  Biso   1.000  Zr
  Zr4      1.0000 0.36935  0.48572  0.74100  Biso   1.000  Zr
  O1       1.0000 0.01079  0.17176  0.42973  Biso   1.000  O
  O2       1.0000 0.03234  0.05863  0.90362  Biso   1.000  O
  O3       1.0000 0.47113  0.42912  0.39922  Biso   1.000  O
  O4       1.0000 0.46906  0.31773  0.89100  Biso   1.000  O
  O5       1.0000 0.26590  0.10013  0.49094  Biso   1.000  O
  O6       1.0000 0.29135  0.11739  0.97664  Biso   1.000  O
  O7       1.0000 0.24651  0.41121  0.03377  Biso   1.000  O
  O8       1.0000 0.24627  0.34508  0.53111  Biso   1.000  O
  Zr5      1.0000 0.12511  0.54576  0.22810  Biso   1.000  Zr
  Zr6      1.0000 0.13151  0.74440  0.74161  Biso   1.000  Zr
  Zr7      1.0000 0.37017  0.76294  0.24339  Biso   1.000  Zr
  Zr8      1.0000 0.37170  0.97758  0.74199  Biso   1.000  Zr
  O9       1.0000 0.02764  0.69494  0.39535  Biso   1.000  O
  O10      1.0000 0.02871  0.57677  0.87919  Biso   1.000  O
  O11      1.0000 0.46990  0.92659  0.38264  Biso   1.000  O
  O12      1.0000 0.47031  0.81517  0.89008  Biso   1.000  O
  O13      1.0000 0.26828  0.61434  0.48943  Biso   1.000  O
  O14      1.0000 0.26607  0.64861  0.98031  Biso   1.000  O
  O15      1.0000 0.23209  0.88431  0.99014  Biso   1.000  O
  O16      1.0000 0.23648  0.86006  0.48701  Biso   1.000  O
  Zr9      1.0000 0.63202  0.01304  0.24330  Biso   1.000  Zr
  Zr10     1.0000 0.62843  0.22975  0.74447  Biso   1.000  Zr
  Zr11     1.0000 0.85091  0.26340  0.25034  Biso   1.000  Zr
  Zr12     1.0000 0.86371  0.48554  0.74972  Biso   1.000  Zr
  O17      1.0000 0.53084  0.17414  0.39723  Biso   1.000  O
  O18      1.0000 0.54011  0.06270  0.88620  Biso   1.000  O
  O19      1.0000 0.96051  0.44198  0.40195  Biso   1.000  O
  O20      1.0000 0.97958  0.31643  0.92009  Biso   1.000  O
  O21      1.0000 0.76217  0.11170  0.49307  Biso   1.000  O
  O22      1.0000 0.76896  0.13523  0.99001  Biso   1.000  O
  O23      1.0000 0.73196  0.38426  0.99886  Biso   1.000  O
  O24      1.0000 0.72919  0.36365  0.50369  Biso   1.000  O
  Zr13     1.0000 0.63241  0.51413  0.25116  Biso   1.000  Zr
  Zr14     1.0000 0.63451  0.73219  0.74822  Biso   1.000  Zr
  Zr15     1.0000 0.86213  0.76968  0.24532  Biso   1.000  Zr
  Zr16     1.0000 0.86503  0.98401  0.74254  Biso   1.000  Zr
  O25      1.0000 0.53364  0.67855  0.39654  Biso   1.000  O
  O26      1.0000 0.53152  0.56786  0.89979  Biso   1.000  O
  O27      1.0000 0.96842  0.93191  0.40021  Biso   1.000  O
  O28      1.0000 0.96480  0.81992  0.89702  Biso   1.000  O
  O29      1.0000 0.76625  0.61358  0.50131  Biso   1.000  O
  O30      1.0000 0.76669  0.63516  0.99916  Biso   1.000  O
  O31      1.0000 0.73252  0.88487  0.99380  Biso   1.000  O
  O32      1.0000 0.73131  0.86373  0.49560  Biso   1.000  O
  Os1      1.0000 0.11069  0.30936  0.23443  Biso   1.000  Os
