data_image0
_cell_length_a       10.1094
_cell_length_b       5.22583
_cell_length_c       10.5963
_cell_angle_alpha    89.7147
_cell_angle_beta     90.5703
_cell_angle_gamma    90.176

_symmetry_space_group_name_H-M    "P 1"
_symmetry_int_tables_number       1

loop_
  _symmetry_equiv_pos_as_xyz
  'x, y, z'

loop_
  _atom_site_label
  _atom_site_occupancy
  _atom_site_fract_x
  _atom_site_fract_y
  _atom_site_fract_z
  _atom_site_thermal_displace_type
  _atom_site_B_iso_or_equiv
  _atom_site_type_symbol
  Zr1      1.0000 0.14042  0.03339  0.16953  Biso   1.000  Zr
  Zr2      1.0000 0.13505  0.45666  0.41889  Biso   1.000  Zr
  Zr3      1.0000 0.35908  0.53386  0.17374  Biso   1.000  Zr
  Zr4      1.0000 0.35981  0.95981  0.42362  Biso   1.000  Zr
  Zr5      1.0000 0.63981  0.07663  0.06982  Biso   1.000  Zr
  Zr6      1.0000 0.63190  0.46636  0.34716  Biso   1.000  Zr
  Zr7      1.0000 0.88362  0.54130  0.06720  Biso   1.000  Zr
  Zr8      1.0000 0.86129  0.95671  0.33790  Biso   1.000  Zr
  O1       1.0000 0.04325  0.31701  0.07324  Biso   1.000  O
  O2       1.0000 0.02716  0.18298  0.32316  Biso   1.000  O
  O3       1.0000 0.47119  0.82252  0.07601  Biso   1.000  O
  O4       1.0000 0.45843  0.66615  0.34126  Biso   1.000  O
  O5       1.0000 0.26964  0.24513  0.29409  Biso   1.000  O
  O6       1.0000 0.28353  0.23814  0.04161  Biso   1.000  O
  O7       1.0000 0.22071  0.74574  0.29183  Biso   1.000  O
  O8       1.0000 0.22605  0.74162  0.04182  Biso   1.000  O
  O9       1.0000 0.51816  0.28415  0.19611  Biso   1.000  O
  O10      1.0000 0.52855  0.17319  0.43193  Biso   1.000  O
  O11      1.0000 0.96242  0.83207  0.16850  Biso   1.000  O
  O12      1.0000 0.96407  0.67025  0.41871  Biso   1.000  O
  O13      1.0000 0.77538  0.24328  0.45723  Biso   1.000  O
  O14      1.0000 0.76169  0.33612  0.19555  Biso   1.000  O
  O15      1.0000 0.72436  0.74210  0.47186  Biso   1.000  O
  O16      1.0000 0.70494  0.84621  0.23349  Biso   1.000  O
  Zr9      1.0000 0.13937  0.03737  0.66633  Biso   1.000  Zr
  Zr10     1.0000 0.15025  0.44746  0.91449  Biso   1.000  Zr
  Zr11     1.0000 0.36403  0.53548  0.66765  Biso   1.000  Zr
  Zr12     1.0000 0.36168  0.94717  0.91289  Biso   1.000  Zr
  Zr13     1.0000 0.63888  0.03891  0.58664  Biso   1.000  Zr
  Zr14     1.0000 0.63660  0.44914  0.83543  Biso   1.000  Zr
  Zr15     1.0000 0.86091  0.53599  0.58588  Biso   1.000  Zr
  Zr16     1.0000 0.86660  0.95704  0.82786  Biso   1.000  Zr
  O17      1.0000 0.03171  0.32356  0.57822  Biso   1.000  O
  O18      1.0000 0.03837  0.16858  0.82647  Biso   1.000  O
  O19      1.0000 0.46517  0.83335  0.58943  Biso   1.000  O
  O20      1.0000 0.46150  0.64454  0.83614  Biso   1.000  O
  O21      1.0000 0.27938  0.23886  0.78971  Biso   1.000  O
  O22      1.0000 0.27258  0.25038  0.54225  Biso   1.000  O
  O23      1.0000 0.22588  0.74181  0.78888  Biso   1.000  O
  O24      1.0000 0.22397  0.74918  0.54096  Biso   1.000  O
  O25      1.0000 0.53576  0.33665  0.66652  Biso   1.000  O
  O26      1.0000 0.54046  0.11967  0.89478  Biso   1.000  O
  O27      1.0000 0.96815  0.82948  0.66287  Biso   1.000  O
  O28      1.0000 0.97936  0.66784  0.90798  Biso   1.000  O
  O29      1.0000 0.79314  0.23879  0.94736  Biso   1.000  O
  O30      1.0000 0.77766  0.24340  0.70531  Biso   1.000  O
  O31      1.0000 0.73072  0.75261  0.96794  Biso   1.000  O
  O32      1.0000 0.72769  0.74335  0.71673  Biso   1.000  O
  Os1      1.0000 0.61839  0.55838  0.10232  Biso   1.000  Os
