data_image0
_cell_length_a       10.1882
_cell_length_b       5.13636
_cell_length_c       10.5429
_cell_angle_alpha    89.8501
_cell_angle_beta     80.7097
_cell_angle_gamma    89.452

_symmetry_space_group_name_H-M    "P 1"
_symmetry_int_tables_number       1

loop_
  _symmetry_equiv_pos_as_xyz
  'x, y, z'

loop_
  _atom_site_label
  _atom_site_occupancy
  _atom_site_fract_x
  _atom_site_fract_y
  _atom_site_fract_z
  _atom_site_thermal_displace_type
  _atom_site_B_iso_or_equiv
  _atom_site_type_symbol
  P1       1.0000 0.08796  0.05848  0.16882  Biso   1.000  P
  Zr1      1.0000 0.13995  0.04294  0.64379  Biso   1.000  Zr
  Zr2      1.0000 0.63379  0.04423  0.14474  Biso   1.000  Zr
  Zr3      1.0000 0.63777  0.04101  0.64977  Biso   1.000  Zr
  Zr4      1.0000 0.14460  0.46487  0.39196  Biso   1.000  Zr
  Zr5      1.0000 0.14984  0.45916  0.89265  Biso   1.000  Zr
  Zr6      1.0000 0.63468  0.45404  0.39567  Biso   1.000  Zr
  Zr7      1.0000 0.63715  0.45989  0.89695  Biso   1.000  Zr
  Zr8      1.0000 0.35140  0.54890  0.10332  Biso   1.000  Zr
  Zr9      1.0000 0.36321  0.54584  0.60319  Biso   1.000  Zr
  Zr10     1.0000 0.85911  0.53492  0.10353  Biso   1.000  Zr
  Zr11     1.0000 0.86255  0.53775  0.60605  Biso   1.000  Zr
  Zr12     1.0000 0.35656  0.96110  0.34811  Biso   1.000  Zr
  Zr13     1.0000 0.35964  0.96202  0.85815  Biso   1.000  Zr
  Zr14     1.0000 0.85075  0.95169  0.36189  Biso   1.000  Zr
  Zr15     1.0000 0.86738  0.95409  0.85568  Biso   1.000  Zr
  O1       1.0000 0.03996  0.29224  0.08478  Biso   1.000  O
  O2       1.0000 0.03040  0.31302  0.56670  Biso   1.000  O
  O3       1.0000 0.53471  0.33583  0.07755  Biso   1.000  O
  O4       1.0000 0.53489  0.33025  0.57640  Biso   1.000  O
  O5       1.0000 0.03217  0.16697  0.31283  Biso   1.000  O
  O6       1.0000 0.03571  0.17118  0.82530  Biso   1.000  O
  O7       1.0000 0.53465  0.16452  0.32713  Biso   1.000  O
  O8       1.0000 0.53612  0.17394  0.82654  Biso   1.000  O
  O9       1.0000 0.46665  0.82818  0.17365  Biso   1.000  O
  O10      1.0000 0.46801  0.82933  0.67480  Biso   1.000  O
  O11      1.0000 0.97168  0.84720  0.17196  Biso   1.000  O
  O12      1.0000 0.97095  0.81555  0.67675  Biso   1.000  O
  O13      1.0000 0.46630  0.67170  0.42250  Biso   1.000  O
  O14      1.0000 0.47307  0.68706  0.92634  Biso   1.000  O
  O15      1.0000 0.96532  0.67064  0.42114  Biso   1.000  O
  O16      1.0000 0.97009  0.66052  0.93259  Biso   1.000  O
  O17      1.0000 0.27296  0.26763  0.24196  Biso   1.000  O
  O18      1.0000 0.27607  0.25548  0.73426  Biso   1.000  O
  O19      1.0000 0.77618  0.25181  0.24035  Biso   1.000  O
  O20      1.0000 0.77887  0.25401  0.74096  Biso   1.000  O
  O21      1.0000 0.27615  0.24425  0.48878  Biso   1.000  O
  O22      1.0000 0.29088  0.26980  0.97552  Biso   1.000  O
  O23      1.0000 0.77511  0.23861  0.49117  Biso   1.000  O
  O24      1.0000 0.77961  0.24543  0.99214  Biso   1.000  O
  O25      1.0000 0.22454  0.75941  0.00332  Biso   1.000  O
  O26      1.0000 0.22335  0.75659  0.50704  Biso   1.000  O
  O27      1.0000 0.72906  0.75787  0.01268  Biso   1.000  O
  O28      1.0000 0.72285  0.75167  0.51249  Biso   1.000  O
  O29      1.0000 0.22082  0.74700  0.25979  Biso   1.000  O
  O30      1.0000 0.22689  0.74145  0.75649  Biso   1.000  O
  O31      1.0000 0.73109  0.73706  0.25965  Biso   1.000  O
  O32      1.0000 0.72855  0.74290  0.76216  Biso   1.000  O
