data_image0
_cell_length_a       10.1103
_cell_length_b       10.1131
_cell_length_c       5.04117
_cell_angle_alpha    90.0031
_cell_angle_beta     89.9955
_cell_angle_gamma    90.0023

_symmetry_space_group_name_H-M    "P 1"
_symmetry_int_tables_number       1

loop_
  _symmetry_equiv_pos_as_xyz
  'x, y, z'

loop_
  _atom_site_label
  _atom_site_occupancy
  _atom_site_fract_x
  _atom_site_fract_y
  _atom_site_fract_z
  _atom_site_thermal_displace_type
  _atom_site_B_iso_or_equiv
  _atom_site_type_symbol
  P1       1.0000 0.12553  0.00100  0.25137  Biso   1.000  P
  Zr1      1.0000 0.12551  0.50101  0.25134  Biso   1.000  Zr
  Zr2      1.0000 0.62552  0.00103  0.25133  Biso   1.000  Zr
  Zr3      1.0000 0.62551  0.50103  0.25136  Biso   1.000  Zr
  Zr4      1.0000 0.12551  0.25755  0.75130  Biso   1.000  Zr
  Zr5      1.0000 0.12551  0.74448  0.75136  Biso   1.000  Zr
  Zr6      1.0000 0.62550  0.25494  0.75135  Biso   1.000  Zr
  Zr7      1.0000 0.62551  0.74712  0.75134  Biso   1.000  Zr
  Zr8      1.0000 0.37384  0.24970  0.27454  Biso   1.000  Zr
  Zr9      1.0000 0.37384  0.75236  0.22816  Biso   1.000  Zr
  Zr10     1.0000 0.87717  0.24970  0.22810  Biso   1.000  Zr
  Zr11     1.0000 0.87718  0.75237  0.27453  Biso   1.000  Zr
  Zr12     1.0000 0.38196  0.00103  0.75137  Biso   1.000  Zr
  Zr13     1.0000 0.37988  0.50103  0.75135  Biso   1.000  Zr
  Zr14     1.0000 0.86906  0.00103  0.75128  Biso   1.000  Zr
  Zr15     1.0000 0.87113  0.50104  0.75135  Biso   1.000  Zr
  O1       1.0000 0.97089  0.15575  0.91755  Biso   1.000  O
  O2       1.0000 0.99552  0.65234  0.01075  Biso   1.000  O
  O3       1.0000 0.47455  0.13231  0.00933  Biso   1.000  O
  O4       1.0000 0.49353  0.63421  0.00559  Biso   1.000  O
  O5       1.0000 0.03569  0.09057  0.42756  Biso   1.000  O
  O6       1.0000 0.00780  0.60248  0.51117  Biso   1.000  O
  O7       1.0000 0.52352  0.11763  0.51099  Biso   1.000  O
  O8       1.0000 0.50907  0.61643  0.50901  Biso   1.000  O
  O9       1.0000 0.99553  0.34967  0.49189  Biso   1.000  O
  O10      1.0000 0.97087  0.84626  0.58518  Biso   1.000  O
  O11      1.0000 0.49353  0.36784  0.49712  Biso   1.000  O
  O12      1.0000 0.47454  0.86975  0.49337  Biso   1.000  O
  O13      1.0000 0.00780  0.39956  0.99147  Biso   1.000  O
  O14      1.0000 0.03570  0.91141  0.07521  Biso   1.000  O
  O15      1.0000 0.50907  0.38564  0.99370  Biso   1.000  O
  O16      1.0000 0.52352  0.88444  0.99169  Biso   1.000  O
  O17      1.0000 0.28016  0.15576  0.58516  Biso   1.000  O
  O18      1.0000 0.25550  0.65235  0.49195  Biso   1.000  O
  O19      1.0000 0.77649  0.13229  0.49330  Biso   1.000  O
  O20      1.0000 0.75750  0.63421  0.49711  Biso   1.000  O
  O21      1.0000 0.21536  0.09056  0.07517  Biso   1.000  O
  O22      1.0000 0.24321  0.60249  0.99153  Biso   1.000  O
  O23      1.0000 0.72750  0.11763  0.99166  Biso   1.000  O
  O24      1.0000 0.74194  0.61643  0.99368  Biso   1.000  O
  O25      1.0000 0.25548  0.34967  0.01076  Biso   1.000  O
  O26      1.0000 0.28016  0.84626  0.91753  Biso   1.000  O
  O27      1.0000 0.75749  0.36785  0.00558  Biso   1.000  O
  O28      1.0000 0.77650  0.86977  0.00934  Biso   1.000  O
  O29      1.0000 0.24322  0.39955  0.51116  Biso   1.000  O
  O30      1.0000 0.21536  0.91144  0.42755  Biso   1.000  O
  O31      1.0000 0.74193  0.38564  0.50901  Biso   1.000  O
  O32      1.0000 0.72750  0.88443  0.51098  Biso   1.000  O
