data_image0
_cell_length_a       5.06366
_cell_length_b       10.3117
_cell_length_c       10.4653
_cell_angle_alpha    90.0049
_cell_angle_beta     80.6316
_cell_angle_gamma    89.9941

_symmetry_space_group_name_H-M    "P 1"
_symmetry_int_tables_number       1

loop_
  _symmetry_equiv_pos_as_xyz
  'x, y, z'

loop_
  _atom_site_label
  _atom_site_occupancy
  _atom_site_fract_x
  _atom_site_fract_y
  _atom_site_fract_z
  _atom_site_thermal_displace_type
  _atom_site_B_iso_or_equiv
  _atom_site_type_symbol
  Pb1      1.0000 0.27213  0.01770  0.14615  Biso   1.000  Pb
  Hf1      1.0000 0.27831  0.02190  0.64590  Biso   1.000  Hf
  Hf2      1.0000 0.27669  0.52027  0.14529  Biso   1.000  Hf
  Hf3      1.0000 0.27809  0.52122  0.64572  Biso   1.000  Hf
  Hf4      1.0000 0.27648  0.23004  0.39724  Biso   1.000  Hf
  Hf5      1.0000 0.27973  0.22986  0.89384  Biso   1.000  Hf
  Hf6      1.0000 0.27437  0.72645  0.39679  Biso   1.000  Hf
  Hf7      1.0000 0.27902  0.72844  0.89409  Biso   1.000  Hf
  Hf8      1.0000 0.72015  0.27202  0.10393  Biso   1.000  Hf
  Hf9      1.0000 0.72335  0.27190  0.60428  Biso   1.000  Hf
  Hf10     1.0000 0.72355  0.76708  0.10325  Biso   1.000  Hf
  Hf11     1.0000 0.72252  0.77134  0.60436  Biso   1.000  Hf
  Hf12     1.0000 0.72112  0.47851  0.35387  Biso   1.000  Hf
  Hf13     1.0000 0.72398  0.47867  0.85367  Biso   1.000  Hf
  Hf14     1.0000 0.71566  0.97813  0.35850  Biso   1.000  Hf
  Hf15     1.0000 0.72722  0.97921  0.85272  Biso   1.000  Hf
  O1       1.0000 0.07597  0.17826  0.07817  Biso   1.000  O
  O2       1.0000 0.07353  0.17185  0.58250  Biso   1.000  O
  O3       1.0000 0.07646  0.67063  0.08010  Biso   1.000  O
  O4       1.0000 0.07161  0.66945  0.58131  Biso   1.000  O
  O5       1.0000 0.06495  0.08010  0.33884  Biso   1.000  O
  O6       1.0000 0.07668  0.07965  0.83025  Biso   1.000  O
  O7       1.0000 0.07102  0.57946  0.33015  Biso   1.000  O
  O8       1.0000 0.07351  0.57988  0.83026  Biso   1.000  O
  O9       1.0000 0.92442  0.42148  0.16897  Biso   1.000  O
  O10      1.0000 0.92820  0.42045  0.66930  Biso   1.000  O
  O11      1.0000 0.90527  0.91968  0.17177  Biso   1.000  O
  O12      1.0000 0.92888  0.92021  0.66860  Biso   1.000  O
  O13      1.0000 0.92647  0.33070  0.41992  Biso   1.000  O
  O14      1.0000 0.92813  0.33068  0.91863  Biso   1.000  O
  O15      1.0000 0.92630  0.82915  0.42018  Biso   1.000  O
  O16      1.0000 0.93054  0.82982  0.91905  Biso   1.000  O
  O17      1.0000 0.55755  0.13137  0.24377  Biso   1.000  O
  O18      1.0000 0.55519  0.12964  0.73920  Biso   1.000  O
  O19      1.0000 0.55185  0.62678  0.24011  Biso   1.000  O
  O20      1.0000 0.55335  0.62934  0.73992  Biso   1.000  O
  O21      1.0000 0.55140  0.12126  0.49190  Biso   1.000  O
  O22      1.0000 0.56174  0.12377  0.98507  Biso   1.000  O
  O23      1.0000 0.55227  0.62051  0.49047  Biso   1.000  O
  O24      1.0000 0.55345  0.62017  0.98941  Biso   1.000  O
  O25      1.0000 0.44831  0.38048  0.00855  Biso   1.000  O
  O26      1.0000 0.44660  0.37959  0.50940  Biso   1.000  O
  O27      1.0000 0.45646  0.87624  0.00537  Biso   1.000  O
  O28      1.0000 0.44536  0.87888  0.51066  Biso   1.000  O
  O29      1.0000 0.44484  0.37065  0.25944  Biso   1.000  O
  O30      1.0000 0.44861  0.37159  0.75861  Biso   1.000  O
  O31      1.0000 0.44954  0.86467  0.26174  Biso   1.000  O
  O32      1.0000 0.44919  0.87084  0.75881  Biso   1.000  O
