data_image0
_cell_length_a       10.1154
_cell_length_b       10.2959
_cell_length_c       10.4505
_cell_angle_alpha    89.9995
_cell_angle_beta     80.5141
_cell_angle_gamma    89.995

_symmetry_space_group_name_H-M    "P 1"
_symmetry_int_tables_number       1

loop_
  _symmetry_equiv_pos_as_xyz
  'x, y, z'

loop_
  _atom_site_label
  _atom_site_occupancy
  _atom_site_fract_x
  _atom_site_fract_y
  _atom_site_fract_z
  _atom_site_thermal_displace_type
  _atom_site_B_iso_or_equiv
  _atom_site_type_symbol
  Pb1      1.0000 0.13576  0.01779  0.14614  Biso   1.000  Pb
  Hf1      1.0000 0.13892  0.02132  0.64542  Biso   1.000  Hf
  Hf2      1.0000 0.13864  0.52143  0.14519  Biso   1.000  Hf
  Hf3      1.0000 0.13903  0.52135  0.64580  Biso   1.000  Hf
  Hf4      1.0000 0.63917  0.02117  0.14591  Biso   1.000  Hf
  Hf5      1.0000 0.63914  0.02192  0.64633  Biso   1.000  Hf
  Hf6      1.0000 0.63864  0.52024  0.14593  Biso   1.000  Hf
  Hf7      1.0000 0.63892  0.52123  0.64575  Biso   1.000  Hf
  Hf8      1.0000 0.13878  0.22948  0.39684  Biso   1.000  Hf
  Hf9      1.0000 0.13951  0.22967  0.89360  Biso   1.000  Hf
  Hf10     1.0000 0.13804  0.72762  0.39655  Biso   1.000  Hf
  Hf11     1.0000 0.13884  0.72830  0.89510  Biso   1.000  Hf
  Hf12     1.0000 0.63840  0.22921  0.39616  Biso   1.000  Hf
  Hf13     1.0000 0.63928  0.22875  0.89616  Biso   1.000  Hf
  Hf14     1.0000 0.63807  0.72745  0.39606  Biso   1.000  Hf
  Hf15     1.0000 0.63951  0.72871  0.89479  Biso   1.000  Hf
  Hf16     1.0000 0.36111  0.27145  0.10361  Biso   1.000  Hf
  Hf17     1.0000 0.36148  0.27150  0.60376  Biso   1.000  Hf
  Hf18     1.0000 0.36390  0.76981  0.10414  Biso   1.000  Hf
  Hf19     1.0000 0.36103  0.77127  0.60417  Biso   1.000  Hf
  Hf20     1.0000 0.86013  0.27185  0.10454  Biso   1.000  Hf
  Hf21     1.0000 0.86135  0.27177  0.60468  Biso   1.000  Hf
  Hf22     1.0000 0.85901  0.76875  0.10329  Biso   1.000  Hf
  Hf23     1.0000 0.86136  0.77144  0.60436  Biso   1.000  Hf
  Hf24     1.0000 0.36051  0.47849  0.35372  Biso   1.000  Hf
  Hf25     1.0000 0.36177  0.47889  0.85402  Biso   1.000  Hf
  Hf26     1.0000 0.36233  0.97850  0.35499  Biso   1.000  Hf
  Hf27     1.0000 0.36289  0.97909  0.85232  Biso   1.000  Hf
  Hf28     1.0000 0.86122  0.47866  0.35429  Biso   1.000  Hf
  Hf29     1.0000 0.86135  0.47833  0.85385  Biso   1.000  Hf
  Hf30     1.0000 0.85650  0.97827  0.35767  Biso   1.000  Hf
  Hf31     1.0000 0.86185  0.97881  0.85457  Biso   1.000  Hf
  O1       1.0000 0.03767  0.17827  0.07852  Biso   1.000  O
  O2       1.0000 0.03694  0.17174  0.58244  Biso   1.000  O
  O3       1.0000 0.03672  0.67145  0.08090  Biso   1.000  O
  O4       1.0000 0.03619  0.67021  0.58141  Biso   1.000  O
  O5       1.0000 0.53677  0.17004  0.08066  Biso   1.000  O
  O6       1.0000 0.53613  0.17014  0.58078  Biso   1.000  O
  O7       1.0000 0.53785  0.66947  0.08014  Biso   1.000  O
  O8       1.0000 0.53593  0.66938  0.58077  Biso   1.000  O
  O9       1.0000 0.03167  0.08064  0.33794  Biso   1.000  O
  O10      1.0000 0.03730  0.07922  0.83105  Biso   1.000  O
  O11      1.0000 0.03632  0.57965  0.33064  Biso   1.000  O
  O12      1.0000 0.03644  0.57960  0.83073  Biso   1.000  O
  O13      1.0000 0.53706  0.07940  0.33140  Biso   1.000  O
  O14      1.0000 0.53740  0.08023  0.83010  Biso   1.000  O
  O15      1.0000 0.53556  0.57964  0.33038  Biso   1.000  O
  O16      1.0000 0.53666  0.58009  0.83042  Biso   1.000  O
  O17      1.0000 0.46365  0.41964  0.16928  Biso   1.000  O
  O18      1.0000 0.46414  0.41981  0.66932  Biso   1.000  O
  O19      1.0000 0.46437  0.91991  0.16950  Biso   1.000  O
  O20      1.0000 0.46450  0.91999  0.66843  Biso   1.000  O
  O21      1.0000 0.96227  0.42203  0.16880  Biso   1.000  O
  O22      1.0000 0.96369  0.42073  0.66914  Biso   1.000  O
  O23      1.0000 0.95164  0.92043  0.17106  Biso   1.000  O
  O24      1.0000 0.96362  0.92039  0.66926  Biso   1.000  O
  O25      1.0000 0.46344  0.32987  0.41900  Biso   1.000  O
  O26      1.0000 0.46479  0.33067  0.91929  Biso   1.000  O
  O27      1.0000 0.46364  0.82919  0.41976  Biso   1.000  O
  O28      1.0000 0.46482  0.82974  0.91860  Biso   1.000  O
  O29      1.0000 0.96351  0.33067  0.42004  Biso   1.000  O
  O30      1.0000 0.96302  0.32980  0.91851  Biso   1.000  O
  O31      1.0000 0.96315  0.82977  0.41939  Biso   1.000  O
  O32      1.0000 0.96396  0.82979  0.91951  Biso   1.000  O
  O33      1.0000 0.27956  0.13063  0.24296  Biso   1.000  O
  O34      1.0000 0.27699  0.12931  0.73878  Biso   1.000  O
  O35      1.0000 0.27697  0.62755  0.24009  Biso   1.000  O
  O36      1.0000 0.27665  0.62915  0.74033  Biso   1.000  O
  O37      1.0000 0.77592  0.13003  0.24156  Biso   1.000  O
  O38      1.0000 0.77737  0.12952  0.74107  Biso   1.000  O
  O39      1.0000 0.77573  0.62849  0.24067  Biso   1.000  O
  O40      1.0000 0.77678  0.62938  0.74022  Biso   1.000  O
  O41      1.0000 0.27678  0.12079  0.49052  Biso   1.000  O
  O42      1.0000 0.28086  0.12397  0.98473  Biso   1.000  O
  O43      1.0000 0.27634  0.62055  0.49058  Biso   1.000  O
  O44      1.0000 0.27682  0.62108  0.99011  Biso   1.000  O
  O45      1.0000 0.77570  0.12122  0.49205  Biso   1.000  O
  O46      1.0000 0.77690  0.12062  0.99099  Biso   1.000  O
  O47      1.0000 0.77657  0.62073  0.49054  Biso   1.000  O
  O48      1.0000 0.77660  0.61988  0.98992  Biso   1.000  O
  O49      1.0000 0.22427  0.38055  0.00847  Biso   1.000  O
  O50      1.0000 0.22334  0.37952  0.50917  Biso   1.000  O
  O51      1.0000 0.22831  0.87672  0.00580  Biso   1.000  O
  O52      1.0000 0.22350  0.87915  0.50968  Biso   1.000  O
  O53      1.0000 0.72317  0.37913  0.00947  Biso   1.000  O
  O54      1.0000 0.72323  0.37925  0.50957  Biso   1.000  O
  O55      1.0000 0.72302  0.87884  0.00907  Biso   1.000  O
  O56      1.0000 0.72235  0.87887  0.51044  Biso   1.000  O
  O57      1.0000 0.22280  0.37047  0.25896  Biso   1.000  O
  O58      1.0000 0.22399  0.37151  0.75855  Biso   1.000  O
  O59      1.0000 0.22701  0.86580  0.26075  Biso   1.000  O
  O60      1.0000 0.22385  0.87060  0.75883  Biso   1.000  O
  O61      1.0000 0.72291  0.37102  0.25984  Biso   1.000  O
  O62      1.0000 0.72361  0.37083  0.75944  Biso   1.000  O
  O63      1.0000 0.72085  0.86974  0.26056  Biso   1.000  O
  O64      1.0000 0.72400  0.87102  0.75941  Biso   1.000  O
