data_image0
_cell_length_a       5.09718
_cell_length_b       10.3877
_cell_length_c       10.5113
_cell_angle_alpha    89.9996
_cell_angle_beta     80.7075
_cell_angle_gamma    89.9752

_symmetry_space_group_name_H-M    "P 1"
_symmetry_int_tables_number       1

loop_
  _symmetry_equiv_pos_as_xyz
  'x, y, z'

loop_
  _atom_site_label
  _atom_site_occupancy
  _atom_site_fract_x
  _atom_site_fract_y
  _atom_site_fract_z
  _atom_site_thermal_displace_type
  _atom_site_B_iso_or_equiv
  _atom_site_type_symbol
  Pb1      1.0000 0.27261  0.01765  0.14608  Biso   1.000  Pb
  Zr1      1.0000 0.27802  0.02177  0.64531  Biso   1.000  Zr
  Zr2      1.0000 0.27695  0.52030  0.14479  Biso   1.000  Zr
  Zr3      1.0000 0.27811  0.52115  0.64531  Biso   1.000  Zr
  Zr4      1.0000 0.27633  0.23019  0.39655  Biso   1.000  Zr
  Zr5      1.0000 0.27990  0.22974  0.89350  Biso   1.000  Zr
  Zr6      1.0000 0.27442  0.72674  0.39619  Biso   1.000  Zr
  Zr7      1.0000 0.27864  0.72870  0.89377  Biso   1.000  Zr
  Zr8      1.0000 0.72107  0.27172  0.10441  Biso   1.000  Zr
  Zr9      1.0000 0.72338  0.27187  0.60481  Biso   1.000  Zr
  Zr10     1.0000 0.72382  0.76747  0.10383  Biso   1.000  Zr
  Zr11     1.0000 0.72249  0.77119  0.60494  Biso   1.000  Zr
  Zr12     1.0000 0.72130  0.47874  0.35436  Biso   1.000  Zr
  Zr13     1.0000 0.72409  0.47878  0.85436  Biso   1.000  Zr
  Zr14     1.0000 0.71587  0.97830  0.35886  Biso   1.000  Zr
  Zr15     1.0000 0.72695  0.97948  0.85325  Biso   1.000  Zr
  O1       1.0000 0.07612  0.17773  0.07896  Biso   1.000  O
  O2       1.0000 0.07328  0.17213  0.58259  Biso   1.000  O
  O3       1.0000 0.07584  0.67090  0.08055  Biso   1.000  O
  O4       1.0000 0.07149  0.66981  0.58168  Biso   1.000  O
  O5       1.0000 0.06547  0.07946  0.33852  Biso   1.000  O
  O6       1.0000 0.07618  0.07934  0.83042  Biso   1.000  O
  O7       1.0000 0.07114  0.57905  0.33064  Biso   1.000  O
  O8       1.0000 0.07338  0.57954  0.83080  Biso   1.000  O
  O9       1.0000 0.92519  0.42180  0.16859  Biso   1.000  O
  O10      1.0000 0.92857  0.42072  0.66904  Biso   1.000  O
  O11      1.0000 0.90744  0.92015  0.17086  Biso   1.000  O
  O12      1.0000 0.92895  0.92062  0.66809  Biso   1.000  O
  O13      1.0000 0.92667  0.33030  0.41947  Biso   1.000  O
  O14      1.0000 0.92844  0.33009  0.91839  Biso   1.000  O
  O15      1.0000 0.92625  0.82872  0.41975  Biso   1.000  O
  O16      1.0000 0.92931  0.82909  0.91844  Biso   1.000  O
  O17      1.0000 0.55490  0.13061  0.24318  Biso   1.000  O
  O18      1.0000 0.55378  0.12949  0.73922  Biso   1.000  O
  O19      1.0000 0.55072  0.62692  0.24028  Biso   1.000  O
  O20      1.0000 0.55207  0.62916  0.74014  Biso   1.000  O
  O21      1.0000 0.55055  0.12147  0.49162  Biso   1.000  O
  O22      1.0000 0.55994  0.12357  0.98547  Biso   1.000  O
  O23      1.0000 0.55102  0.62072  0.49061  Biso   1.000  O
  O24      1.0000 0.55200  0.62057  0.98961  Biso   1.000  O
  O25      1.0000 0.44985  0.38025  0.00861  Biso   1.000  O
  O26      1.0000 0.44791  0.37943  0.50935  Biso   1.000  O
  O27      1.0000 0.45555  0.87689  0.00599  Biso   1.000  O
  O28      1.0000 0.44657  0.87872  0.51054  Biso   1.000  O
  O29      1.0000 0.44699  0.37070  0.25936  Biso   1.000  O
  O30      1.0000 0.45000  0.37171  0.75869  Biso   1.000  O
  O31      1.0000 0.45019  0.86549  0.26139  Biso   1.000  O
  O32      1.0000 0.45028  0.87103  0.75883  Biso   1.000  O
