data_image0
_cell_length_a       9.94722
_cell_length_b       10.3727
_cell_length_c       10.0003
_cell_angle_alpha    90.1935
_cell_angle_beta     89.5898
_cell_angle_gamma    90.1575

_symmetry_space_group_name_H-M    "P 1"
_symmetry_int_tables_number       1

loop_
  _symmetry_equiv_pos_as_xyz
  'x, y, z'

loop_
  _atom_site_label
  _atom_site_occupancy
  _atom_site_fract_x
  _atom_site_fract_y
  _atom_site_fract_z
  _atom_site_thermal_displace_type
  _atom_site_B_iso_or_equiv
  _atom_site_type_symbol
  Pd1      1.0000 0.12647  0.03854  0.10283  Biso   1.000  Pd
  Hf1      1.0000 0.13467  0.01696  0.62913  Biso   1.000  Hf
  Hf2      1.0000 0.13357  0.51488  0.12652  Biso   1.000  Hf
  Hf3      1.0000 0.13405  0.51706  0.62599  Biso   1.000  Hf
  Hf4      1.0000 0.63494  0.01631  0.12708  Biso   1.000  Hf
  Hf5      1.0000 0.63191  0.01484  0.62214  Biso   1.000  Hf
  Hf6      1.0000 0.63539  0.51808  0.12847  Biso   1.000  Hf
  Hf7      1.0000 0.63361  0.51688  0.62569  Biso   1.000  Hf
  Hf8      1.0000 0.13551  0.23005  0.37569  Biso   1.000  Hf
  Hf9      1.0000 0.13197  0.23930  0.87324  Biso   1.000  Hf
  Hf10     1.0000 0.13619  0.73232  0.37720  Biso   1.000  Hf
  Hf11     1.0000 0.13225  0.73490  0.87856  Biso   1.000  Hf
  Hf12     1.0000 0.63405  0.23244  0.37717  Biso   1.000  Hf
  Hf13     1.0000 0.63236  0.23313  0.87454  Biso   1.000  Hf
  Hf14     1.0000 0.63626  0.73510  0.37618  Biso   1.000  Hf
  Hf15     1.0000 0.63223  0.73298  0.87700  Biso   1.000  Hf
  Hf16     1.0000 0.36747  0.26630  0.12732  Biso   1.000  Hf
  Hf17     1.0000 0.36626  0.26625  0.62589  Biso   1.000  Hf
  Hf18     1.0000 0.36623  0.76459  0.12876  Biso   1.000  Hf
  Hf19     1.0000 0.36596  0.76710  0.62879  Biso   1.000  Hf
  Hf20     1.0000 0.86168  0.26754  0.12438  Biso   1.000  Hf
  Hf21     1.0000 0.86523  0.26592  0.62443  Biso   1.000  Hf
  Hf22     1.0000 0.87241  0.76859  0.12412  Biso   1.000  Hf
  Hf23     1.0000 0.86733  0.76664  0.62405  Biso   1.000  Hf
  Hf24     1.0000 0.36677  0.48276  0.37676  Biso   1.000  Hf
  Hf25     1.0000 0.36567  0.48560  0.87625  Biso   1.000  Hf
  Hf26     1.0000 0.36348  0.97925  0.37496  Biso   1.000  Hf
  Hf27     1.0000 0.36458  0.98345  0.87910  Biso   1.000  Hf
  Hf28     1.0000 0.86633  0.48334  0.37630  Biso   1.000  Hf
  Hf29     1.0000 0.86449  0.48484  0.87521  Biso   1.000  Hf
  Hf30     1.0000 0.87191  0.98546  0.37300  Biso   1.000  Hf
  Hf31     1.0000 0.85923  0.98145  0.87244  Biso   1.000  Hf
  O1       1.0000 0.03727  0.18750  0.18753  Biso   1.000  O
  O2       1.0000 0.03554  0.18560  0.69515  Biso   1.000  O
  O3       1.0000 0.03799  0.68379  0.19454  Biso   1.000  O
  O4       1.0000 0.03627  0.68491  0.69548  Biso   1.000  O
  O5       1.0000 0.53450  0.18323  0.19680  Biso   1.000  O
  O6       1.0000 0.53622  0.18432  0.69332  Biso   1.000  O
  O7       1.0000 0.53721  0.68410  0.19755  Biso   1.000  O
  O8       1.0000 0.53475  0.68277  0.69703  Biso   1.000  O
  O9       1.0000 0.03722  0.06611  0.44859  Biso   1.000  O
  O10      1.0000 0.03531  0.06322  0.93052  Biso   1.000  O
  O11      1.0000 0.03616  0.56348  0.44596  Biso   1.000  O
  O12      1.0000 0.03450  0.56608  0.94533  Biso   1.000  O
  O13      1.0000 0.53625  0.06509  0.44334  Biso   1.000  O
  O14      1.0000 0.53338  0.06742  0.94788  Biso   1.000  O
  O15      1.0000 0.53769  0.56581  0.44416  Biso   1.000  O
  O16      1.0000 0.53516  0.56596  0.94743  Biso   1.000  O
  O17      1.0000 0.46479  0.43290  0.19419  Biso   1.000  O
  O18      1.0000 0.46351  0.43409  0.69540  Biso   1.000  O
  O19      1.0000 0.46996  0.93134  0.19709  Biso   1.000  O
  O20      1.0000 0.46305  0.93472  0.69779  Biso   1.000  O
  O21      1.0000 0.96375  0.43146  0.19515  Biso   1.000  O
  O22      1.0000 0.96346  0.43397  0.69404  Biso   1.000  O
  O23      1.0000 0.97270  0.94067  0.18898  Biso   1.000  O
  O24      1.0000 0.96248  0.93449  0.69253  Biso   1.000  O
  O25      1.0000 0.46427  0.31577  0.44518  Biso   1.000  O
  O26      1.0000 0.46032  0.31414  0.94351  Biso   1.000  O
  O27      1.0000 0.46857  0.81684  0.45190  Biso   1.000  O
  O28      1.0000 0.45911  0.81592  0.94310  Biso   1.000  O
  O29      1.0000 0.96335  0.31343  0.44154  Biso   1.000  O
  O30      1.0000 0.96155  0.31652  0.94337  Biso   1.000  O
  O31      1.0000 0.96497  0.81581  0.44240  Biso   1.000  O
  O32      1.0000 0.96037  0.81639  0.94095  Biso   1.000  O
  O33      1.0000 0.26326  0.10829  0.24852  Biso   1.000  O
  O34      1.0000 0.27144  0.11974  0.75184  Biso   1.000  O
  O35      1.0000 0.26993  0.60903  0.24940  Biso   1.000  O
  O36      1.0000 0.26931  0.61824  0.75142  Biso   1.000  O
  O37      1.0000 0.77091  0.11912  0.24891  Biso   1.000  O
  O38      1.0000 0.76798  0.11647  0.74758  Biso   1.000  O
  O39      1.0000 0.77329  0.61780  0.25021  Biso   1.000  O
  O40      1.0000 0.76952  0.61764  0.75009  Biso   1.000  O
  O41      1.0000 0.27228  0.13157  0.49951  Biso   1.000  O
  O42      1.0000 0.26498  0.13503  0.00036  Biso   1.000  O
  O43      1.0000 0.27248  0.63180  0.50089  Biso   1.000  O
  O44      1.0000 0.26833  0.63499  0.00046  Biso   1.000  O
  O45      1.0000 0.77117  0.13228  0.49832  Biso   1.000  O
  O46      1.0000 0.77020  0.13218  0.99742  Biso   1.000  O
  O47      1.0000 0.77032  0.63283  0.50007  Biso   1.000  O
  O48      1.0000 0.77041  0.63347  0.00067  Biso   1.000  O
  O49      1.0000 0.22880  0.38084  0.50000  Biso   1.000  O
  O50      1.0000 0.22923  0.38408  0.99958  Biso   1.000  O
  O51      1.0000 0.22895  0.88169  0.50624  Biso   1.000  O
  O52      1.0000 0.22591  0.89033  0.01092  Biso   1.000  O
  O53      1.0000 0.73005  0.38215  0.50037  Biso   1.000  O
  O54      1.0000 0.72749  0.38219  0.99992  Biso   1.000  O
  O55      1.0000 0.73298  0.88362  0.49761  Biso   1.000  O
  O56      1.0000 0.72560  0.88184  0.99853  Biso   1.000  O
  O57      1.0000 0.23111  0.36322  0.25020  Biso   1.000  O
  O58      1.0000 0.22884  0.36935  0.74933  Biso   1.000  O
  O59      1.0000 0.24698  0.85069  0.26323  Biso   1.000  O
  O60      1.0000 0.22855  0.86869  0.75561  Biso   1.000  O
  O61      1.0000 0.72771  0.36839  0.25023  Biso   1.000  O
  O62      1.0000 0.72885  0.36738  0.74970  Biso   1.000  O
  O63      1.0000 0.73783  0.86820  0.24791  Biso   1.000  O
  O64      1.0000 0.72763  0.86607  0.74786  Biso   1.000  O
