data_image0
_cell_length_a       10.1155
_cell_length_b       10.2162
_cell_length_c       5.2288
_cell_angle_alpha    90.0171
_cell_angle_beta     80.7882
_cell_angle_gamma    89.3261

_symmetry_space_group_name_H-M    "P 1"
_symmetry_int_tables_number       1

loop_
  _symmetry_equiv_pos_as_xyz
  'x, y, z'

loop_
  _atom_site_label
  _atom_site_occupancy
  _atom_site_fract_x
  _atom_site_fract_y
  _atom_site_fract_z
  _atom_site_thermal_displace_type
  _atom_site_B_iso_or_equiv
  _atom_site_type_symbol
  Pd1      1.0000 0.12395  0.00860  0.33223  Biso   1.000  Pd
  Hf1      1.0000 0.14048  0.52236  0.29426  Biso   1.000  Hf
  Hf2      1.0000 0.63796  0.02201  0.29204  Biso   1.000  Hf
  Hf3      1.0000 0.63744  0.51904  0.29192  Biso   1.000  Hf
  Hf4      1.0000 0.14384  0.22645  0.78459  Biso   1.000  Hf
  Hf5      1.0000 0.13644  0.73025  0.79714  Biso   1.000  Hf
  Hf6      1.0000 0.64024  0.23032  0.79402  Biso   1.000  Hf
  Hf7      1.0000 0.63576  0.72738  0.79173  Biso   1.000  Hf
  Hf8      1.0000 0.35932  0.26982  0.19920  Biso   1.000  Hf
  Hf9      1.0000 0.35923  0.77642  0.20689  Biso   1.000  Hf
  Hf10     1.0000 0.86819  0.26626  0.21473  Biso   1.000  Hf
  Hf11     1.0000 0.85759  0.76767  0.20821  Biso   1.000  Hf
  Hf12     1.0000 0.36174  0.48022  0.70710  Biso   1.000  Hf
  Hf13     1.0000 0.36139  0.98447  0.70520  Biso   1.000  Hf
  Hf14     1.0000 0.86379  0.47623  0.71304  Biso   1.000  Hf
  Hf15     1.0000 0.85489  0.97648  0.71326  Biso   1.000  Hf
  O1       1.0000 0.04360  0.15401  0.14950  Biso   1.000  O
  O2       1.0000 0.03405  0.66745  0.16050  Biso   1.000  O
  O3       1.0000 0.53613  0.16891  0.15722  Biso   1.000  O
  O4       1.0000 0.53417  0.66822  0.15631  Biso   1.000  O
  O5       1.0000 0.02958  0.08551  0.64932  Biso   1.000  O
  O6       1.0000 0.03644  0.58217  0.66261  Biso   1.000  O
  O7       1.0000 0.53854  0.08199  0.65758  Biso   1.000  O
  O8       1.0000 0.53477  0.58284  0.65469  Biso   1.000  O
  O9       1.0000 0.46478  0.41714  0.34278  Biso   1.000  O
  O10      1.0000 0.46447  0.91868  0.34276  Biso   1.000  O
  O11      1.0000 0.97026  0.41278  0.35230  Biso   1.000  O
  O12      1.0000 0.95663  0.91627  0.34384  Biso   1.000  O
  O13      1.0000 0.47117  0.34009  0.84632  Biso   1.000  O
  O14      1.0000 0.46001  0.83165  0.83940  Biso   1.000  O
  O15      1.0000 0.96892  0.33068  0.85650  Biso   1.000  O
  O16      1.0000 0.96202  0.83223  0.84556  Biso   1.000  O
  O17      1.0000 0.26906  0.12026  0.44991  Biso   1.000  O
  O18      1.0000 0.27577  0.63257  0.48254  Biso   1.000  O
  O19      1.0000 0.77649  0.12767  0.48213  Biso   1.000  O
  O20      1.0000 0.77625  0.62650  0.48223  Biso   1.000  O
  O21      1.0000 0.29736  0.14109  0.92897  Biso   1.000  O
  O22      1.0000 0.27598  0.62547  0.98296  Biso   1.000  O
  O23      1.0000 0.77803  0.11993  0.98337  Biso   1.000  O
  O24      1.0000 0.77569  0.61972  0.98125  Biso   1.000  O
  O25      1.0000 0.22329  0.38359  0.01557  Biso   1.000  O
  O26      1.0000 0.22249  0.89411  0.02470  Biso   1.000  O
  O27      1.0000 0.72844  0.37643  0.02464  Biso   1.000  O
  O28      1.0000 0.71945  0.87789  0.01945  Biso   1.000  O
  O29      1.0000 0.22742  0.36901  0.51721  Biso   1.000  O
  O30      1.0000 0.21593  0.87163  0.52002  Biso   1.000  O
  O31      1.0000 0.72792  0.37012  0.52229  Biso   1.000  O
  O32      1.0000 0.72264  0.86936  0.52002  Biso   1.000  O
