data_image0
_cell_length_a       10.0967
_cell_length_b       5.13246
_cell_length_c       10.489
_cell_angle_alpha    90.0526
_cell_angle_beta     90.5152
_cell_angle_gamma    89.3668

_symmetry_space_group_name_H-M    "P 1"
_symmetry_int_tables_number       1

loop_
  _symmetry_equiv_pos_as_xyz
  'x, y, z'

loop_
  _atom_site_label
  _atom_site_occupancy
  _atom_site_fract_x
  _atom_site_fract_y
  _atom_site_fract_z
  _atom_site_thermal_displace_type
  _atom_site_B_iso_or_equiv
  _atom_site_type_symbol
  Pd1      1.0000 0.12495  0.02235  0.19085  Biso   1.000  Pd
  Zr1      1.0000 0.13843  0.04001  0.66984  Biso   1.000  Zr
  Zr2      1.0000 0.13796  0.45968  0.41941  Biso   1.000  Zr
  Zr3      1.0000 0.14307  0.45667  0.92195  Biso   1.000  Zr
  Zr4      1.0000 0.35682  0.55151  0.16537  Biso   1.000  Zr
  Zr5      1.0000 0.36189  0.54448  0.67158  Biso   1.000  Zr
  Zr6      1.0000 0.36014  0.96108  0.41967  Biso   1.000  Zr
  Zr7      1.0000 0.36112  0.96723  0.92251  Biso   1.000  Zr
  Zr8      1.0000 0.63973  0.04149  0.07762  Biso   1.000  Zr
  Zr9      1.0000 0.63736  0.04071  0.58113  Biso   1.000  Zr
  Zr10     1.0000 0.63445  0.45525  0.32775  Biso   1.000  Zr
  Zr11     1.0000 0.64013  0.46013  0.83040  Biso   1.000  Zr
  Zr12     1.0000 0.86725  0.52791  0.08193  Biso   1.000  Zr
  Zr13     1.0000 0.85978  0.53856  0.58073  Biso   1.000  Zr
  Zr14     1.0000 0.85365  0.95283  0.33169  Biso   1.000  Zr
  Zr15     1.0000 0.86511  0.95407  0.83226  Biso   1.000  Zr
  O1       1.0000 0.04430  0.31485  0.08878  Biso   1.000  O
  O2       1.0000 0.03027  0.31925  0.57719  Biso   1.000  O
  O3       1.0000 0.02941  0.16869  0.33362  Biso   1.000  O
  O4       1.0000 0.03426  0.17232  0.83202  Biso   1.000  O
  O5       1.0000 0.46874  0.83657  0.08381  Biso   1.000  O
  O6       1.0000 0.46475  0.83933  0.58517  Biso   1.000  O
  O7       1.0000 0.45859  0.65663  0.33707  Biso   1.000  O
  O8       1.0000 0.46879  0.67121  0.83321  Biso   1.000  O
  O9       1.0000 0.27064  0.24102  0.28371  Biso   1.000  O
  O10      1.0000 0.27523  0.24516  0.78705  Biso   1.000  O
  O11      1.0000 0.29955  0.30460  0.02471  Biso   1.000  O
  O12      1.0000 0.27516  0.25431  0.53968  Biso   1.000  O
  O13      1.0000 0.21587  0.75009  0.29403  Biso   1.000  O
  O14      1.0000 0.22598  0.74759  0.79710  Biso   1.000  O
  O15      1.0000 0.21879  0.79493  0.04970  Biso   1.000  O
  O16      1.0000 0.22359  0.75083  0.54372  Biso   1.000  O
  O17      1.0000 0.53442  0.33947  0.16290  Biso   1.000  O
  O18      1.0000 0.53496  0.33899  0.66302  Biso   1.000  O
  O19      1.0000 0.53274  0.15928  0.41238  Biso   1.000  O
  O20      1.0000 0.53882  0.16216  0.91157  Biso   1.000  O
  O21      1.0000 0.96189  0.83300  0.16708  Biso   1.000  O
  O22      1.0000 0.96984  0.81827  0.67108  Biso   1.000  O
  O23      1.0000 0.96537  0.67075  0.41876  Biso   1.000  O
  O24      1.0000 0.96982  0.66365  0.92348  Biso   1.000  O
  O25      1.0000 0.77964  0.24573  0.95716  Biso   1.000  O
  O26      1.0000 0.77358  0.24488  0.45604  Biso   1.000  O
  O27      1.0000 0.77507  0.24695  0.20669  Biso   1.000  O
  O28      1.0000 0.77714  0.24940  0.70656  Biso   1.000  O
  O29      1.0000 0.72803  0.74391  0.95739  Biso   1.000  O
  O30      1.0000 0.72095  0.74358  0.45681  Biso   1.000  O
  O31      1.0000 0.72600  0.74609  0.20693  Biso   1.000  O
  O32      1.0000 0.72600  0.75258  0.70687  Biso   1.000  O
