data_image0
_cell_length_a       9.96446
_cell_length_b       10.3218
_cell_length_c       4.99625
_cell_angle_alpha    89.6236
_cell_angle_beta     89.5516
_cell_angle_gamma    89.5135

_symmetry_space_group_name_H-M    "P 1"
_symmetry_int_tables_number       1

loop_
  _symmetry_equiv_pos_as_xyz
  'x, y, z'

loop_
  _atom_site_label
  _atom_site_occupancy
  _atom_site_fract_x
  _atom_site_fract_y
  _atom_site_fract_z
  _atom_site_thermal_displace_type
  _atom_site_B_iso_or_equiv
  _atom_site_type_symbol
  Pt1      1.0000 0.12192  0.00927  0.22183  Biso   1.000  Pt
  Hf1      1.0000 0.14198  0.23182  0.75727  Biso   1.000  Hf
  Hf2      1.0000 0.36715  0.26903  0.26397  Biso   1.000  Hf
  Hf3      1.0000 0.36559  0.48473  0.75556  Biso   1.000  Hf
  O1       1.0000 0.04106  0.16946  0.40099  Biso   1.000  O
  O2       1.0000 0.03265  0.07052  0.89749  Biso   1.000  O
  O3       1.0000 0.46358  0.43623  0.39297  Biso   1.000  O
  O4       1.0000 0.46367  0.31560  0.89014  Biso   1.000  O
  O5       1.0000 0.29835  0.14313  0.54895  Biso   1.000  O
  O6       1.0000 0.26505  0.11899  0.03809  Biso   1.000  O
  O7       1.0000 0.23085  0.37879  0.00432  Biso   1.000  O
  O8       1.0000 0.22583  0.37648  0.50411  Biso   1.000  O
  Hf4      1.0000 0.13507  0.51821  0.25245  Biso   1.000  Hf
  Hf5      1.0000 0.13156  0.73383  0.74801  Biso   1.000  Hf
  Hf6      1.0000 0.36420  0.77037  0.25601  Biso   1.000  Hf
  Hf7      1.0000 0.36409  0.98632  0.75597  Biso   1.000  Hf
  O9       1.0000 0.03501  0.68272  0.38698  Biso   1.000  O
  O10      1.0000 0.03669  0.56554  0.88553  Biso   1.000  O
  O11      1.0000 0.46279  0.93588  0.38770  Biso   1.000  O
  O12      1.0000 0.45796  0.81402  0.88541  Biso   1.000  O
  O13      1.0000 0.27174  0.62456  0.50037  Biso   1.000  O
  O14      1.0000 0.27024  0.63214  0.00060  Biso   1.000  O
  O15      1.0000 0.22081  0.87747  0.00649  Biso   1.000  O
  O16      1.0000 0.22322  0.88286  0.50219  Biso   1.000  O
  Hf8      1.0000 0.63338  0.01769  0.24865  Biso   1.000  Hf
  Hf9      1.0000 0.63412  0.23391  0.74924  Biso   1.000  Hf
  Hf10     1.0000 0.86993  0.26237  0.24823  Biso   1.000  Hf
  Hf11     1.0000 0.86747  0.48104  0.74836  Biso   1.000  Hf
  O17      1.0000 0.54497  0.18923  0.37489  Biso   1.000  O
  O18      1.0000 0.53718  0.06516  0.88242  Biso   1.000  O
  O19      1.0000 0.96609  0.42841  0.38334  Biso   1.000  O
  O20      1.0000 0.96634  0.31515  0.88580  Biso   1.000  O
  O21      1.0000 0.77165  0.11661  0.49508  Biso   1.000  O
  O22      1.0000 0.77182  0.13079  0.99454  Biso   1.000  O
  O23      1.0000 0.73118  0.38007  0.99842  Biso   1.000  O
  O24      1.0000 0.73268  0.36673  0.49714  Biso   1.000  O
  Hf12     1.0000 0.63483  0.51518  0.24981  Biso   1.000  Hf
  Hf13     1.0000 0.63185  0.73293  0.74768  Biso   1.000  Hf
  Hf14     1.0000 0.86398  0.76379  0.24440  Biso   1.000  Hf
  Hf15     1.0000 0.86416  0.98252  0.74626  Biso   1.000  Hf
  O25      1.0000 0.53683  0.68567  0.38330  Biso   1.000  O
  O26      1.0000 0.53691  0.56478  0.88610  Biso   1.000  O
  O27      1.0000 0.96020  0.92922  0.37724  Biso   1.000  O
  O28      1.0000 0.96077  0.81535  0.88155  Biso   1.000  O
  O29      1.0000 0.76999  0.61609  0.49468  Biso   1.000  O
  O30      1.0000 0.76995  0.63039  0.99294  Biso   1.000  O
  O31      1.0000 0.72591  0.88082  0.99256  Biso   1.000  O
  O32      1.0000 0.73078  0.86762  0.49478  Biso   1.000  O
