data_image0
_cell_length_a       5.0173
_cell_length_b       10.4255
_cell_length_c       10.1767
_cell_angle_alpha    89.2859
_cell_angle_beta     91.7339
_cell_angle_gamma    90.1752

_symmetry_space_group_name_H-M    "P 1"
_symmetry_int_tables_number       1

loop_
  _symmetry_equiv_pos_as_xyz
  'x, y, z'

loop_
  _atom_site_label
  _atom_site_occupancy
  _atom_site_fract_x
  _atom_site_fract_y
  _atom_site_fract_z
  _atom_site_thermal_displace_type
  _atom_site_B_iso_or_equiv
  _atom_site_type_symbol
  Hf1      1.0000 0.25878  0.01101  0.11976  Biso   1.000  Hf
  Hf2      1.0000 0.25632  0.23082  0.39456  Biso   1.000  Hf
  Hf3      1.0000 0.65355  0.26213  0.15040  Biso   1.000  Hf
  Hf4      1.0000 0.73147  0.48506  0.38518  Biso   1.000  Hf
  O1       1.0000 0.02647  0.18144  0.22372  Biso   1.000  O
  O2       1.0000 0.07306  0.05939  0.44941  Biso   1.000  O
  O3       1.0000 0.90334  0.44120  0.21019  Biso   1.000  O
  O4       1.0000 0.92069  0.31482  0.44961  Biso   1.000  O
  O5       1.0000 0.49534  0.11194  0.25745  Biso   1.000  O
  O6       1.0000 0.55382  0.12955  0.50212  Biso   1.000  O
  O7       1.0000 0.45776  0.37949  0.50839  Biso   1.000  O
  O8       1.0000 0.43211  0.37309  0.26988  Biso   1.000  O
  Hf5      1.0000 0.27874  0.00729  0.62386  Biso   1.000  Hf
  Hf6      1.0000 0.30960  0.21825  0.85242  Biso   1.000  Hf
  Hf7      1.0000 0.74931  0.26894  0.62775  Biso   1.000  Hf
  Hf8      1.0000 0.74469  0.48889  0.87120  Biso   1.000  Hf
  O9       1.0000 0.10454  0.17984  0.67547  Biso   1.000  O
  O10      1.0000 0.09584  0.05587  0.92995  Biso   1.000  O
  O11      1.0000 0.91809  0.44579  0.67124  Biso   1.000  O
  O12      1.0000 0.98855  0.33142  0.87584  Biso   1.000  O
  O13      1.0000 0.57226  0.10969  0.74534  Biso   1.000  O
  O14      1.0000 0.57325  0.12502  0.00155  Biso   1.000  O
  O15      1.0000 0.51991  0.38879  0.00533  Biso   1.000  O
  O16      1.0000 0.47729  0.36792  0.75034  Biso   1.000  O
  Hf9      1.0000 0.25647  0.52091  0.13226  Biso   1.000  Hf
  Hf10     1.0000 0.26901  0.73419  0.37717  Biso   1.000  Hf
  Hf11     1.0000 0.72527  0.76429  0.13064  Biso   1.000  Hf
  Hf12     1.0000 0.73270  0.98270  0.37644  Biso   1.000  Hf
  O17      1.0000 0.06911  0.68472  0.19947  Biso   1.000  O
  O18      1.0000 0.07828  0.56937  0.44599  Biso   1.000  O
  O19      1.0000 0.92447  0.93634  0.19453  Biso   1.000  O
  O20      1.0000 0.93200  0.81585  0.44721  Biso   1.000  O
  O21      1.0000 0.53797  0.62032  0.25641  Biso   1.000  O
  O22      1.0000 0.54211  0.63356  0.50425  Biso   1.000  O
  O23      1.0000 0.46852  0.88126  0.49918  Biso   1.000  O
  O24      1.0000 0.45899  0.86684  0.24914  Biso   1.000  O
  Hf13     1.0000 0.27446  0.51703  0.62531  Biso   1.000  Hf
  Hf14     1.0000 0.27093  0.73450  0.87849  Biso   1.000  Hf
  Hf15     1.0000 0.74183  0.76518  0.62831  Biso   1.000  Hf
  Hf16     1.0000 0.74448  0.97633  0.87936  Biso   1.000  Hf
  O25      1.0000 0.07556  0.68145  0.70127  Biso   1.000  O
  O26      1.0000 0.07367  0.57009  0.95211  Biso   1.000  O
  O27      1.0000 0.94588  0.92800  0.69893  Biso   1.000  O
  O28      1.0000 0.93625  0.81329  0.95361  Biso   1.000  O
  O29      1.0000 0.54355  0.61938  0.75298  Biso   1.000  O
  O30      1.0000 0.53837  0.63558  0.00420  Biso   1.000  O
  O31      1.0000 0.46252  0.88126  0.00213  Biso   1.000  O
  O32      1.0000 0.47608  0.86345  0.75158  Biso   1.000  O
  Pt1      1.0000 0.09961  0.28855  0.06124  Biso   1.000  Pt
