data_image0
_cell_length_a       10.1442
_cell_length_b       5.05839
_cell_length_c       10.1442
_cell_angle_alpha    89.5324
_cell_angle_beta     82.9822
_cell_angle_gamma    89.532

_symmetry_space_group_name_H-M    "P 1"
_symmetry_int_tables_number       1

loop_
  _symmetry_equiv_pos_as_xyz
  'x, y, z'

loop_
  _atom_site_label
  _atom_site_occupancy
  _atom_site_fract_x
  _atom_site_fract_y
  _atom_site_fract_z
  _atom_site_thermal_displace_type
  _atom_site_B_iso_or_equiv
  _atom_site_type_symbol
  Pt1      1.0000 0.12581  0.99512  0.12578  Biso   1.000  Pt
  Hf1      1.0000 0.11313  0.52217  0.36001  Biso   1.000  Hf
  Hf2      1.0000 0.36003  0.52217  0.11311  Biso   1.000  Hf
  Hf3      1.0000 0.36672  0.99912  0.36670  Biso   1.000  Hf
  O1       1.0000 0.02326  0.26702  0.02323  Biso   1.000  O
  O2       1.0000 0.03496  0.19889  0.27460  Biso   1.000  O
  O3       1.0000 0.99563  0.72069  0.22509  Biso   1.000  O
  O4       1.0000 0.97038  0.74542  0.97036  Biso   1.000  O
  O5       1.0000 0.28542  0.33096  0.28540  Biso   1.000  O
  O6       1.0000 0.27463  0.19888  0.03495  Biso   1.000  O
  O7       1.0000 0.22512  0.72068  0.99560  Biso   1.000  O
  O8       1.0000 0.24046  0.81069  0.24044  Biso   1.000  O
  Hf4      1.0000 0.10904  0.98168  0.60758  Biso   1.000  Hf
  Hf5      1.0000 0.10425  0.50530  0.86147  Biso   1.000  Hf
  Hf6      1.0000 0.36122  0.51654  0.61395  Biso   1.000  Hf
  Hf7      1.0000 0.35507  0.98758  0.86207  Biso   1.000  Hf
  O9       1.0000 0.02759  0.31438  0.52080  Biso   1.000  O
  O10      1.0000 0.02345  0.18083  0.77149  Biso   1.000  O
  O11      1.0000 0.99172  0.69173  0.72521  Biso   1.000  O
  O12      1.0000 0.98964  0.80326  0.47955  Biso   1.000  O
  O13      1.0000 0.27859  0.32283  0.78414  Biso   1.000  O
  O14      1.0000 0.27930  0.18336  0.53483  Biso   1.000  O
  O15      1.0000 0.24014  0.70012  0.48765  Biso   1.000  O
  O16      1.0000 0.23533  0.80289  0.73967  Biso   1.000  O
  Hf8      1.0000 0.60760  0.98168  0.10903  Biso   1.000  Hf
  Hf9      1.0000 0.61397  0.51653  0.36121  Biso   1.000  Hf
  Hf10     1.0000 0.86149  0.50529  0.10424  Biso   1.000  Hf
  Hf11     1.0000 0.86209  0.98758  0.35506  Biso   1.000  Hf
  O17      1.0000 0.52083  0.31439  0.02759  Biso   1.000  O
  O18      1.0000 0.53484  0.18336  0.27929  Biso   1.000  O
  O19      1.0000 0.48767  0.70012  0.24013  Biso   1.000  O
  O20      1.0000 0.47957  0.80326  0.98963  Biso   1.000  O
  O21      1.0000 0.78416  0.32284  0.27858  Biso   1.000  O
  O22      1.0000 0.77152  0.18080  0.02344  Biso   1.000  O
  O23      1.0000 0.72523  0.69172  0.99171  Biso   1.000  O
  O24      1.0000 0.73969  0.80290  0.23533  Biso   1.000  O
  Hf12     1.0000 0.61265  0.98961  0.61264  Biso   1.000  Hf
  Hf13     1.0000 0.60852  0.50950  0.86097  Biso   1.000  Hf
  Hf14     1.0000 0.86099  0.50949  0.60850  Biso   1.000  Hf
  Hf15     1.0000 0.86044  0.97899  0.86042  Biso   1.000  Hf
  O25      1.0000 0.52802  0.32066  0.52802  Biso   1.000  O
  O26      1.0000 0.52498  0.17935  0.77886  Biso   1.000  O
  O27      1.0000 0.48584  0.69862  0.73993  Biso   1.000  O
  O28      1.0000 0.49040  0.80610  0.49039  Biso   1.000  O
  O29      1.0000 0.77361  0.31714  0.77360  Biso   1.000  O
  O30      1.0000 0.77887  0.17935  0.52497  Biso   1.000  O
  O31      1.0000 0.73994  0.69862  0.48583  Biso   1.000  O
  O32      1.0000 0.73802  0.80167  0.73801  Biso   1.000  O
