data_image0
_cell_length_a       5.1244
_cell_length_b       10.4142
_cell_length_c       10.5742
_cell_angle_alpha    90.7029
_cell_angle_beta     80.104
_cell_angle_gamma    90.2871

_symmetry_space_group_name_H-M    "P 1"
_symmetry_int_tables_number       1

loop_
  _symmetry_equiv_pos_as_xyz
  'x, y, z'

loop_
  _atom_site_label
  _atom_site_occupancy
  _atom_site_fract_x
  _atom_site_fract_y
  _atom_site_fract_z
  _atom_site_thermal_displace_type
  _atom_site_B_iso_or_equiv
  _atom_site_type_symbol
  Zr1      1.0000 0.27302  0.02188  0.14688  Biso   1.000  Zr
  Zr2      1.0000 0.30668  0.23198  0.40448  Biso   1.000  Zr
  Zr3      1.0000 0.71489  0.27949  0.09689  Biso   1.000  Zr
  Zr4      1.0000 0.71565  0.48020  0.34587  Biso   1.000  Zr
  O1       1.0000 0.06398  0.16773  0.07684  Biso   1.000  O
  O2       1.0000 0.10596  0.06040  0.34070  Biso   1.000  O
  O3       1.0000 0.91022  0.43829  0.15287  Biso   1.000  O
  O4       1.0000 0.97232  0.35636  0.43512  Biso   1.000  O
  O5       1.0000 0.56615  0.12973  0.23931  Biso   1.000  O
  O6       1.0000 0.54061  0.10643  0.50321  Biso   1.000  O
  O7       1.0000 0.44042  0.38282  0.00471  Biso   1.000  O
  O8       1.0000 0.41807  0.37874  0.25282  Biso   1.000  O
  Zr5      1.0000 0.26893  0.01760  0.64904  Biso   1.000  Zr
  Zr6      1.0000 0.27280  0.22893  0.89530  Biso   1.000  Zr
  Zr7      1.0000 0.72564  0.27114  0.61081  Biso   1.000  Zr
  Zr8      1.0000 0.71798  0.48060  0.85548  Biso   1.000  Zr
  O9       1.0000 0.06997  0.16884  0.58084  Biso   1.000  O
  O10      1.0000 0.06262  0.08221  0.82900  Biso   1.000  O
  O11      1.0000 0.93107  0.41648  0.67661  Biso   1.000  O
  O12      1.0000 0.92555  0.33206  0.91695  Biso   1.000  O
  O13      1.0000 0.54684  0.12941  0.74445  Biso   1.000  O
  O14      1.0000 0.54388  0.12395  0.99140  Biso   1.000  O
  O15      1.0000 0.46156  0.37707  0.51481  Biso   1.000  O
  O16      1.0000 0.44791  0.37137  0.76019  Biso   1.000  O
  Zr9      1.0000 0.27004  0.52503  0.14250  Biso   1.000  Zr
  Zr10     1.0000 0.27467  0.72455  0.39630  Biso   1.000  Zr
  Zr11     1.0000 0.71813  0.77276  0.10481  Biso   1.000  Zr
  Zr12     1.0000 0.72220  0.96661  0.36160  Biso   1.000  Zr
  O17      1.0000 0.06902  0.67815  0.07922  Biso   1.000  O
  O18      1.0000 0.05903  0.58644  0.32346  Biso   1.000  O
  O19      1.0000 0.92762  0.92100  0.17351  Biso   1.000  O
  O20      1.0000 0.92358  0.82439  0.42375  Biso   1.000  O
  O21      1.0000 0.54532  0.63096  0.24072  Biso   1.000  O
  O22      1.0000 0.54155  0.61688  0.49015  Biso   1.000  O
  O23      1.0000 0.44540  0.88240  0.01234  Biso   1.000  O
  O24      1.0000 0.45159  0.86897  0.26161  Biso   1.000  O
  Zr13     1.0000 0.27497  0.52082  0.64673  Biso   1.000  Zr
  Zr14     1.0000 0.26946  0.73112  0.89711  Biso   1.000  Zr
  Zr15     1.0000 0.71748  0.76712  0.60691  Biso   1.000  Zr
  Zr16     1.0000 0.71562  0.98002  0.85639  Biso   1.000  Zr
  O25      1.0000 0.06238  0.66295  0.57930  Biso   1.000  O
  O26      1.0000 0.06560  0.58429  0.83031  Biso   1.000  O
  O27      1.0000 0.92134  0.91606  0.67143  Biso   1.000  O
  O28      1.0000 0.92421  0.83506  0.92152  Biso   1.000  O
  O29      1.0000 0.54659  0.62795  0.74119  Biso   1.000  O
  O30      1.0000 0.54585  0.62503  0.99040  Biso   1.000  O
  O31      1.0000 0.44347  0.87051  0.51303  Biso   1.000  O
  O32      1.0000 0.44272  0.87136  0.76220  Biso   1.000  O
  Pt1      1.0000 0.84206  0.22594  0.32393  Biso   1.000  Pt
