data_image0
_cell_length_a       5.04792
_cell_length_b       10.2534
_cell_length_c       10.0792
_cell_angle_alpha    89.9996
_cell_angle_beta     88.8078
_cell_angle_gamma    90

_symmetry_space_group_name_H-M    "P 1"
_symmetry_int_tables_number       1

loop_
  _symmetry_equiv_pos_as_xyz
  'x, y, z'

loop_
  _atom_site_label
  _atom_site_occupancy
  _atom_site_fract_x
  _atom_site_fract_y
  _atom_site_fract_z
  _atom_site_thermal_displace_type
  _atom_site_B_iso_or_equiv
  _atom_site_type_symbol
  Pt1      1.0000 0.25067  0.96486  0.12541  Biso   1.000  Pt
  Zr1      1.0000 0.26249  0.24990  0.36799  Biso   1.000  Zr
  Zr2      1.0000 0.75068  0.25815  0.12541  Biso   1.000  Zr
  Zr3      1.0000 0.77892  0.00743  0.37373  Biso   1.000  Zr
  O1       1.0000 0.92184  0.16537  0.97204  Biso   1.000  O
  O2       1.0000 0.06337  0.09623  0.24001  Biso   1.000  O
  O3       1.0000 0.00814  0.35401  0.24981  Biso   1.000  O
  O4       1.0000 0.00071  0.40653  0.00226  Biso   1.000  O
  O5       1.0000 0.57950  0.16537  0.27878  Biso   1.000  O
  O6       1.0000 0.43797  0.09623  0.01081  Biso   1.000  O
  O7       1.0000 0.49321  0.35401  0.00101  Biso   1.000  O
  O8       1.0000 0.50065  0.40653  0.24856  Biso   1.000  O
  Zr4      1.0000 0.25068  0.00031  0.62541  Biso   1.000  Zr
  Zr5      1.0000 0.23887  0.24990  0.88283  Biso   1.000  Zr
  Zr6      1.0000 0.75068  0.24420  0.62541  Biso   1.000  Zr
  Zr7      1.0000 0.72242  0.00743  0.87709  Biso   1.000  Zr
  O9       1.0000 0.01587  0.14523  0.49300  Biso   1.000  O
  O10      1.0000 0.97774  0.09773  0.73760  Biso   1.000  O
  O11      1.0000 0.00257  0.34995  0.74956  Biso   1.000  O
  O12      1.0000 0.99728  0.39200  0.50131  Biso   1.000  O
  O13      1.0000 0.48548  0.14523  0.75782  Biso   1.000  O
  O14      1.0000 0.52360  0.09773  0.51321  Biso   1.000  O
  O15      1.0000 0.49880  0.34995  0.50126  Biso   1.000  O
  O16      1.0000 0.50409  0.39200  0.74951  Biso   1.000  O
  Zr8      1.0000 0.25067  0.51014  0.12541  Biso   1.000  Zr
  Zr9      1.0000 0.25141  0.74369  0.38778  Biso   1.000  Zr
  Zr10     1.0000 0.75067  0.75422  0.12541  Biso   1.000  Zr
  Zr11     1.0000 0.75371  0.49461  0.37859  Biso   1.000  Zr
  O17      1.0000 0.01929  0.65835  0.00554  Biso   1.000  O
  O18      1.0000 0.98218  0.60460  0.25175  Biso   1.000  O
  O19      1.0000 0.03938  0.84828  0.24789  Biso   1.000  O
  O20      1.0000 0.94436  0.91983  0.01388  Biso   1.000  O
  O21      1.0000 0.48203  0.65835  0.24527  Biso   1.000  O
  O22      1.0000 0.51916  0.60460  0.99906  Biso   1.000  O
  O23      1.0000 0.46195  0.84828  0.00294  Biso   1.000  O
  O24      1.0000 0.55696  0.91983  0.23695  Biso   1.000  O
  Zr12     1.0000 0.25068  0.49059  0.62541  Biso   1.000  Zr
  Zr13     1.0000 0.24996  0.74368  0.86304  Biso   1.000  Zr
  Zr14     1.0000 0.75069  0.75221  0.62541  Biso   1.000  Zr
  Zr15     1.0000 0.74766  0.49461  0.87223  Biso   1.000  Zr
  O25      1.0000 0.99596  0.63946  0.50455  Biso   1.000  O
  O26      1.0000 0.00811  0.60021  0.75342  Biso   1.000  O
  O27      1.0000 0.98256  0.85032  0.75828  Biso   1.000  O
  O28      1.0000 0.01409  0.89076  0.50295  Biso   1.000  O
  O29      1.0000 0.50540  0.63945  0.74627  Biso   1.000  O
  O30      1.0000 0.49325  0.60021  0.49739  Biso   1.000  O
  O31      1.0000 0.51880  0.85033  0.49255  Biso   1.000  O
  O32      1.0000 0.48726  0.89076  0.74787  Biso   1.000  O
