data_image0
_cell_length_a       10.1156
_cell_length_b       5.16444
_cell_length_c       10.5676
_cell_angle_alpha    89.4912
_cell_angle_beta     90.4529
_cell_angle_gamma    90.2542

_symmetry_space_group_name_H-M    "P 1"
_symmetry_int_tables_number       1

loop_
  _symmetry_equiv_pos_as_xyz
  'x, y, z'

loop_
  _atom_site_label
  _atom_site_occupancy
  _atom_site_fract_x
  _atom_site_fract_y
  _atom_site_fract_z
  _atom_site_thermal_displace_type
  _atom_site_B_iso_or_equiv
  _atom_site_type_symbol
  Rb1      1.0000 0.09442  0.97084  0.14850  Biso   1.000  Rb
  Hf1      1.0000 0.14208  0.04603  0.67073  Biso   1.000  Hf
  Hf2      1.0000 0.14470  0.45717  0.42196  Biso   1.000  Hf
  Hf3      1.0000 0.14986  0.45714  0.91801  Biso   1.000  Hf
  Hf4      1.0000 0.36055  0.52269  0.16957  Biso   1.000  Hf
  Hf5      1.0000 0.36029  0.54513  0.66865  Biso   1.000  Hf
  Hf6      1.0000 0.35987  0.95615  0.41547  Biso   1.000  Hf
  Hf7      1.0000 0.36503  0.95729  0.91993  Biso   1.000  Hf
  Hf8      1.0000 0.63493  0.04819  0.07426  Biso   1.000  Hf
  Hf9      1.0000 0.63475  0.04148  0.58270  Biso   1.000  Hf
  Hf10     1.0000 0.63601  0.45389  0.33293  Biso   1.000  Hf
  Hf11     1.0000 0.63791  0.46353  0.82430  Biso   1.000  Hf
  Hf12     1.0000 0.86699  0.49794  0.05733  Biso   1.000  Hf
  Hf13     1.0000 0.86609  0.54687  0.58271  Biso   1.000  Hf
  Hf14     1.0000 0.86030  0.98945  0.35519  Biso   1.000  Hf
  Hf15     1.0000 0.86425  0.95451  0.82464  Biso   1.000  Hf
  O1       1.0000 0.04818  0.42745  0.08992  Biso   1.000  O
  O2       1.0000 0.03994  0.35681  0.59803  Biso   1.000  O
  O3       1.0000 0.02458  0.17327  0.36625  Biso   1.000  O
  O4       1.0000 0.03850  0.15271  0.84211  Biso   1.000  O
  O5       1.0000 0.47936  0.81724  0.07800  Biso   1.000  O
  O6       1.0000 0.46944  0.82138  0.57730  Biso   1.000  O
  O7       1.0000 0.48109  0.68975  0.32431  Biso   1.000  O
  O8       1.0000 0.47322  0.68187  0.82302  Biso   1.000  O
  O9       1.0000 0.28401  0.24863  0.30321  Biso   1.000  O
  O10      1.0000 0.27877  0.24864  0.79062  Biso   1.000  O
  O11      1.0000 0.29011  0.24527  0.03437  Biso   1.000  O
  O12      1.0000 0.27768  0.25217  0.54540  Biso   1.000  O
  O13      1.0000 0.24018  0.71777  0.30098  Biso   1.000  O
  O14      1.0000 0.22637  0.74830  0.78912  Biso   1.000  O
  O15      1.0000 0.25445  0.71360  0.02704  Biso   1.000  O
  O16      1.0000 0.22486  0.75956  0.54421  Biso   1.000  O
  O17      1.0000 0.53673  0.32188  0.17095  Biso   1.000  O
  O18      1.0000 0.53098  0.32634  0.66749  Biso   1.000  O
  O19      1.0000 0.53427  0.17278  0.41990  Biso   1.000  O
  O20      1.0000 0.53657  0.17948  0.91685  Biso   1.000  O
  O21      1.0000 0.84963  0.80723  0.17826  Biso   1.000  O
  O22      1.0000 0.96508  0.85468  0.65889  Biso   1.000  O
  O23      1.0000 0.96849  0.67365  0.41548  Biso   1.000  O
  O24      1.0000 0.96865  0.65699  0.90200  Biso   1.000  O
  O25      1.0000 0.77984  0.22512  0.95205  Biso   1.000  O
  O26      1.0000 0.77090  0.26128  0.46587  Biso   1.000  O
  O27      1.0000 0.78052  0.27406  0.21110  Biso   1.000  O
  O28      1.0000 0.77614  0.25597  0.70778  Biso   1.000  O
  O29      1.0000 0.72654  0.73598  0.95316  Biso   1.000  O
  O30      1.0000 0.72728  0.75458  0.46208  Biso   1.000  O
  O31      1.0000 0.71063  0.78526  0.21527  Biso   1.000  O
  O32      1.0000 0.72723  0.75208  0.70466  Biso   1.000  O
