data_image0
_cell_length_a       5.04593
_cell_length_b       10.4306
_cell_length_c       10.1635
_cell_angle_alpha    89.521
_cell_angle_beta     92.5562
_cell_angle_gamma    92.1704

_symmetry_space_group_name_H-M    "P 1"
_symmetry_int_tables_number       1

loop_
  _symmetry_equiv_pos_as_xyz
  'x, y, z'

loop_
  _atom_site_label
  _atom_site_occupancy
  _atom_site_fract_x
  _atom_site_fract_y
  _atom_site_fract_z
  _atom_site_thermal_displace_type
  _atom_site_B_iso_or_equiv
  _atom_site_type_symbol
  Hf1      1.0000 0.28033  0.97830  0.10008  Biso   1.000  Hf
  Hf2      1.0000 0.24384  0.22849  0.40869  Biso   1.000  Hf
  Hf3      1.0000 0.61586  0.26286  0.16793  Biso   1.000  Hf
  Hf4      1.0000 0.73515  0.48509  0.37949  Biso   1.000  Hf
  O1       1.0000 0.88470  0.18216  0.29182  Biso   1.000  O
  O2       1.0000 0.08430  0.05230  0.46250  Biso   1.000  O
  O3       1.0000 0.87093  0.43038  0.19929  Biso   1.000  O
  O4       1.0000 0.97589  0.34481  0.47941  Biso   1.000  O
  O5       1.0000 0.39617  0.10985  0.25053  Biso   1.000  O
  O6       1.0000 0.56743  0.13655  0.50621  Biso   1.000  O
  O7       1.0000 0.49007  0.38381  0.50443  Biso   1.000  O
  O8       1.0000 0.36466  0.37434  0.26030  Biso   1.000  O
  Hf5      1.0000 0.30496  0.00702  0.62464  Biso   1.000  Hf
  Hf6      1.0000 0.30777  0.22788  0.85006  Biso   1.000  Hf
  Hf7      1.0000 0.77535  0.27823  0.64110  Biso   1.000  Hf
  Hf8      1.0000 0.73325  0.48154  0.86978  Biso   1.000  Hf
  O9       1.0000 0.12461  0.18062  0.66891  Biso   1.000  O
  O10      1.0000 0.10672  0.06243  0.92881  Biso   1.000  O
  O11      1.0000 0.91756  0.46301  0.68551  Biso   1.000  O
  O12      1.0000 0.92320  0.30367  0.85314  Biso   1.000  O
  O13      1.0000 0.57270  0.11328  0.75492  Biso   1.000  O
  O14      1.0000 0.55960  0.12452  0.01392  Biso   1.000  O
  O15      1.0000 0.47101  0.37675  0.99894  Biso   1.000  O
  O16      1.0000 0.45759  0.37302  0.74242  Biso   1.000  O
  Hf9      1.0000 0.26573  0.52739  0.12935  Biso   1.000  Hf
  Hf10     1.0000 0.27849  0.74215  0.37781  Biso   1.000  Hf
  Hf11     1.0000 0.74742  0.76324  0.13062  Biso   1.000  Hf
  Hf12     1.0000 0.74616  0.00250  0.36544  Biso   1.000  Hf
  O17      1.0000 0.08183  0.68383  0.19710  Biso   1.000  O
  O18      1.0000 0.07186  0.57931  0.43990  Biso   1.000  O
  O19      1.0000 0.93555  0.94341  0.19023  Biso   1.000  O
  O20      1.0000 0.94010  0.82109  0.43947  Biso   1.000  O
  O21      1.0000 0.54780  0.62337  0.25435  Biso   1.000  O
  O22      1.0000 0.53996  0.63668  0.50011  Biso   1.000  O
  O23      1.0000 0.48614  0.88786  0.49400  Biso   1.000  O
  O24      1.0000 0.48042  0.86397  0.24200  Biso   1.000  O
  Hf13     1.0000 0.26760  0.51408  0.61316  Biso   1.000  Hf
  Hf14     1.0000 0.28726  0.72651  0.86847  Biso   1.000  Hf
  Hf15     1.0000 0.75855  0.76775  0.61711  Biso   1.000  Hf
  Hf16     1.0000 0.76520  0.97642  0.87032  Biso   1.000  Hf
  O25      1.0000 0.09115  0.68892  0.69086  Biso   1.000  O
  O26      1.0000 0.07248  0.56401  0.94812  Biso   1.000  O
  O27      1.0000 0.96535  0.92941  0.70426  Biso   1.000  O
  O28      1.0000 0.99618  0.82263  0.96656  Biso   1.000  O
  O29      1.0000 0.54502  0.61555  0.75151  Biso   1.000  O
  O30      1.0000 0.54820  0.62881  0.00373  Biso   1.000  O
  O31      1.0000 0.51035  0.86956  0.98886  Biso   1.000  O
  O32      1.0000 0.49743  0.86044  0.74494  Biso   1.000  O
  Rb1      1.0000 0.07077  0.24648  0.08088  Biso   1.000  Rb
