data_image0
_cell_length_a       10.2073
_cell_length_b       10.4057
_cell_length_c       5.26465
_cell_angle_alpha    89.4186
_cell_angle_beta     80.5497
_cell_angle_gamma    90.4119

_symmetry_space_group_name_H-M    "P 1"
_symmetry_int_tables_number       1

loop_
  _symmetry_equiv_pos_as_xyz
  'x, y, z'

loop_
  _atom_site_label
  _atom_site_occupancy
  _atom_site_fract_x
  _atom_site_fract_y
  _atom_site_fract_z
  _atom_site_thermal_displace_type
  _atom_site_B_iso_or_equiv
  _atom_site_type_symbol
  Rb1      1.0000 0.08858  0.98970  0.26977  Biso   1.000  Rb
  Hf1      1.0000 0.14644  0.52086  0.28638  Biso   1.000  Hf
  Hf2      1.0000 0.63780  0.02971  0.29699  Biso   1.000  Hf
  Hf3      1.0000 0.63329  0.51403  0.28871  Biso   1.000  Hf
  Hf4      1.0000 0.13926  0.23094  0.79606  Biso   1.000  Hf
  Hf5      1.0000 0.15546  0.72804  0.77692  Biso   1.000  Hf
  Hf6      1.0000 0.63684  0.23332  0.79487  Biso   1.000  Hf
  Hf7      1.0000 0.63221  0.72054  0.78711  Biso   1.000  Hf
  Hf8      1.0000 0.35448  0.26394  0.20763  Biso   1.000  Hf
  Hf9      1.0000 0.36851  0.77492  0.20117  Biso   1.000  Hf
  Hf10     1.0000 0.86288  0.27822  0.20831  Biso   1.000  Hf
  Hf11     1.0000 0.87002  0.74072  0.15352  Biso   1.000  Hf
  Hf12     1.0000 0.35992  0.47400  0.70367  Biso   1.000  Hf
  Hf13     1.0000 0.36159  0.98065  0.69626  Biso   1.000  Hf
  Hf14     1.0000 0.86632  0.47842  0.69307  Biso   1.000  Hf
  Hf15     1.0000 0.86067  0.99089  0.76299  Biso   1.000  Hf
  O1       1.0000 0.04440  0.21419  0.17946  Biso   1.000  O
  O2       1.0000 0.05114  0.67974  0.16460  Biso   1.000  O
  O3       1.0000 0.53310  0.16888  0.15451  Biso   1.000  O
  O4       1.0000 0.53805  0.66215  0.14532  Biso   1.000  O
  O5       1.0000 0.02794  0.07955  0.75205  Biso   1.000  O
  O6       1.0000 0.03830  0.58300  0.65838  Biso   1.000  O
  O7       1.0000 0.54020  0.08732  0.65142  Biso   1.000  O
  O8       1.0000 0.53186  0.58086  0.64806  Biso   1.000  O
  O9       1.0000 0.46381  0.41127  0.34292  Biso   1.000  O
  O10      1.0000 0.47596  0.91641  0.33982  Biso   1.000  O
  O11      1.0000 0.95907  0.43878  0.31962  Biso   1.000  O
  O12      1.0000 0.85531  0.87993  0.43451  Biso   1.000  O
  O13      1.0000 0.46803  0.33562  0.84302  Biso   1.000  O
  O14      1.0000 0.48479  0.84226  0.83745  Biso   1.000  O
  O15      1.0000 0.96033  0.33203  0.82265  Biso   1.000  O
  O16      1.0000 0.97806  0.83498  0.84277  Biso   1.000  O
  O17      1.0000 0.28375  0.13395  0.49627  Biso   1.000  O
  O18      1.0000 0.28206  0.62351  0.46898  Biso   1.000  O
  O19      1.0000 0.78645  0.13044  0.49266  Biso   1.000  O
  O20      1.0000 0.76863  0.63254  0.46682  Biso   1.000  O
  O21      1.0000 0.28756  0.12919  0.95929  Biso   1.000  O
  O22      1.0000 0.28200  0.61606  0.97216  Biso   1.000  O
  O23      1.0000 0.77135  0.12937  0.00239  Biso   1.000  O
  O24      1.0000 0.77557  0.61493  0.96071  Biso   1.000  O
  O25      1.0000 0.22684  0.38180  0.01390  Biso   1.000  O
  O26      1.0000 0.24956  0.86410  0.98162  Biso   1.000  O
  O27      1.0000 0.72334  0.38170  0.01456  Biso   1.000  O
  O28      1.0000 0.73445  0.87883  0.03821  Biso   1.000  O
  O29      1.0000 0.22031  0.37245  0.51456  Biso   1.000  O
  O30      1.0000 0.24400  0.85809  0.51134  Biso   1.000  O
  O31      1.0000 0.72486  0.37217  0.51465  Biso   1.000  O
  O32      1.0000 0.71519  0.88488  0.54715  Biso   1.000  O
