data_image0
_cell_length_a       10.1905
_cell_length_b       5.20153
_cell_length_c       10.6965
_cell_angle_alpha    89.185
_cell_angle_beta     91.2771
_cell_angle_gamma    90.0466

_symmetry_space_group_name_H-M    "P 1"
_symmetry_int_tables_number       1

loop_
  _symmetry_equiv_pos_as_xyz
  'x, y, z'

loop_
  _atom_site_label
  _atom_site_occupancy
  _atom_site_fract_x
  _atom_site_fract_y
  _atom_site_fract_z
  _atom_site_thermal_displace_type
  _atom_site_B_iso_or_equiv
  _atom_site_type_symbol
  Zr1      1.0000 0.13993  0.04282  0.17385  Biso   1.000  Zr
  Zr2      1.0000 0.13529  0.45088  0.42489  Biso   1.000  Zr
  Zr3      1.0000 0.34966  0.54792  0.18812  Biso   1.000  Zr
  Zr4      1.0000 0.36106  0.95246  0.42833  Biso   1.000  Zr
  Zr5      1.0000 0.63827  0.04682  0.09010  Biso   1.000  Zr
  Zr6      1.0000 0.63629  0.45331  0.33464  Biso   1.000  Zr
  Zr7      1.0000 0.87573  0.55075  0.07629  Biso   1.000  Zr
  Zr8      1.0000 0.86129  0.95838  0.32836  Biso   1.000  Zr
  O1       1.0000 0.03473  0.31481  0.07618  Biso   1.000  O
  O2       1.0000 0.02711  0.18371  0.32727  Biso   1.000  O
  O3       1.0000 0.44835  0.86702  0.10572  Biso   1.000  O
  O4       1.0000 0.46588  0.67191  0.34054  Biso   1.000  O
  O5       1.0000 0.26800  0.24809  0.30147  Biso   1.000  O
  O6       1.0000 0.27788  0.25884  0.04675  Biso   1.000  O
  O7       1.0000 0.22034  0.75013  0.30416  Biso   1.000  O
  O8       1.0000 0.21934  0.75274  0.05088  Biso   1.000  O
  O9       1.0000 0.51793  0.30881  0.19451  Biso   1.000  O
  O10      1.0000 0.52879  0.17046  0.42678  Biso   1.000  O
  O11      1.0000 0.97206  0.82174  0.17683  Biso   1.000  O
  O12      1.0000 0.96941  0.68033  0.42344  Biso   1.000  O
  O13      1.0000 0.77511  0.24211  0.44957  Biso   1.000  O
  O14      1.0000 0.77229  0.26185  0.19954  Biso   1.000  O
  O15      1.0000 0.72707  0.74126  0.45870  Biso   1.000  O
  O16      1.0000 0.72107  0.75186  0.21195  Biso   1.000  O
  Zr9      1.0000 0.14070  0.03690  0.67388  Biso   1.000  Zr
  Zr10     1.0000 0.14423  0.45918  0.92157  Biso   1.000  Zr
  Zr11     1.0000 0.35909  0.53889  0.67379  Biso   1.000  Zr
  Zr12     1.0000 0.35916  0.96202  0.92710  Biso   1.000  Zr
  Zr13     1.0000 0.64171  0.02382  0.57264  Biso   1.000  Zr
  Zr14     1.0000 0.64387  0.42636  0.79599  Biso   1.000  Zr
  Zr15     1.0000 0.86808  0.54377  0.57919  Biso   1.000  Zr
  Zr16     1.0000 0.87003  0.96928  0.83203  Biso   1.000  Zr
  O17      1.0000 0.03141  0.31586  0.57873  Biso   1.000  O
  O18      1.0000 0.03669  0.18285  0.82734  Biso   1.000  O
  O19      1.0000 0.47303  0.80421  0.57969  Biso   1.000  O
  O20      1.0000 0.47009  0.66130  0.82318  Biso   1.000  O
  O21      1.0000 0.27811  0.24483  0.79716  Biso   1.000  O
  O22      1.0000 0.27276  0.24342  0.54804  Biso   1.000  O
  O23      1.0000 0.22791  0.74669  0.79906  Biso   1.000  O
  O24      1.0000 0.22532  0.74609  0.55047  Biso   1.000  O
  O25      1.0000 0.52588  0.29632  0.66313  Biso   1.000  O
  O26      1.0000 0.53768  0.13035  0.91918  Biso   1.000  O
  O27      1.0000 0.97414  0.81641  0.67327  Biso   1.000  O
  O28      1.0000 0.98100  0.68145  0.92011  Biso   1.000  O
  O29      1.0000 0.78089  0.29525  0.93650  Biso   1.000  O
  O30      1.0000 0.78135  0.23380  0.68877  Biso   1.000  O
  O31      1.0000 0.76268  0.82395  0.97606  Biso   1.000  O
  O32      1.0000 0.73106  0.74012  0.71057  Biso   1.000  O
  Rb1      1.0000 0.57895  0.54823  0.01897  Biso   1.000  Rb
