data_image0
_cell_length_a       10.14
_cell_length_b       10.5238
_cell_length_c       5.09532
_cell_angle_alpha    89.9945
_cell_angle_beta     89.7173
_cell_angle_gamma    90.0569

_symmetry_space_group_name_H-M    "P 1"
_symmetry_int_tables_number       1

loop_
  _symmetry_equiv_pos_as_xyz
  'x, y, z'

loop_
  _atom_site_label
  _atom_site_occupancy
  _atom_site_fract_x
  _atom_site_fract_y
  _atom_site_fract_z
  _atom_site_thermal_displace_type
  _atom_site_B_iso_or_equiv
  _atom_site_type_symbol
  Rb1      1.0000 0.08884  0.99303  0.27711  Biso   1.000  Rb
  Zr1      1.0000 0.14125  0.51663  0.25885  Biso   1.000  Zr
  Zr2      1.0000 0.62922  0.02128  0.23462  Biso   1.000  Zr
  Zr3      1.0000 0.63002  0.51308  0.24742  Biso   1.000  Zr
  Zr4      1.0000 0.13554  0.23549  0.74823  Biso   1.000  Zr
  Zr5      1.0000 0.15026  0.73737  0.75984  Biso   1.000  Zr
  Zr6      1.0000 0.63206  0.23545  0.73960  Biso   1.000  Zr
  Zr7      1.0000 0.62849  0.72972  0.74394  Biso   1.000  Zr
  Zr8      1.0000 0.36346  0.26364  0.25163  Biso   1.000  Zr
  Zr9      1.0000 0.37081  0.76660  0.24852  Biso   1.000  Zr
  Zr10     1.0000 0.86537  0.27370  0.24195  Biso   1.000  Zr
  Zr11     1.0000 0.89184  0.72556  0.16914  Biso   1.000  Zr
  Zr12     1.0000 0.36744  0.48024  0.75318  Biso   1.000  Zr
  Zr13     1.0000 0.36554  0.98272  0.75246  Biso   1.000  Zr
  Zr14     1.0000 0.86417  0.48288  0.74029  Biso   1.000  Zr
  Zr15     1.0000 0.85651  0.99189  0.77173  Biso   1.000  Zr
  O1       1.0000 0.03333  0.22055  0.39228  Biso   1.000  O
  O2       1.0000 0.04817  0.69196  0.40337  Biso   1.000  O
  O3       1.0000 0.54052  0.18617  0.37672  Biso   1.000  O
  O4       1.0000 0.53522  0.67848  0.39730  Biso   1.000  O
  O5       1.0000 0.02616  0.07693  0.79980  Biso   1.000  O
  O6       1.0000 0.01555  0.58889  0.93384  Biso   1.000  O
  O7       1.0000 0.54193  0.06682  0.87569  Biso   1.000  O
  O8       1.0000 0.52917  0.56970  0.89813  Biso   1.000  O
  O9       1.0000 0.46746  0.42958  0.39661  Biso   1.000  O
  O10      1.0000 0.47698  0.93104  0.40022  Biso   1.000  O
  O11      1.0000 0.96365  0.44845  0.38857  Biso   1.000  O
  O12      1.0000 0.85885  0.87076  0.44608  Biso   1.000  O
  O13      1.0000 0.46882  0.31737  0.89068  Biso   1.000  O
  O14      1.0000 0.48025  0.82240  0.90665  Biso   1.000  O
  O15      1.0000 0.96924  0.33038  0.89333  Biso   1.000  O
  O16      1.0000 0.98463  0.83428  0.89590  Biso   1.000  O
  O17      1.0000 0.28623  0.13005  0.51677  Biso   1.000  O
  O18      1.0000 0.27295  0.61191  0.50536  Biso   1.000  O
  O19      1.0000 0.77485  0.11642  0.48562  Biso   1.000  O
  O20      1.0000 0.76968  0.61607  0.47375  Biso   1.000  O
  O21      1.0000 0.27794  0.13544  0.98989  Biso   1.000  O
  O22      1.0000 0.27044  0.62682  0.00497  Biso   1.000  O
  O23      1.0000 0.76998  0.13864  0.99360  Biso   1.000  O
  O24      1.0000 0.76026  0.62199  0.96773  Biso   1.000  O
  O25      1.0000 0.23197  0.38428  0.00169  Biso   1.000  O
  O26      1.0000 0.24811  0.87123  0.99483  Biso   1.000  O
  O27      1.0000 0.72848  0.38388  0.98863  Biso   1.000  O
  O28      1.0000 0.74004  0.87187  0.00082  Biso   1.000  O
  O29      1.0000 0.23117  0.37132  0.50029  Biso   1.000  O
  O30      1.0000 0.25568  0.85453  0.51852  Biso   1.000  O
  O31      1.0000 0.73241  0.36848  0.49270  Biso   1.000  O
  O32      1.0000 0.71834  0.87919  0.49009  Biso   1.000  O
