data_image0
_cell_length_a       5.05636
_cell_length_b       10.4908
_cell_length_c       10.1887
_cell_angle_alpha    89.9
_cell_angle_beta     89.8327
_cell_angle_gamma    89.7262

_symmetry_space_group_name_H-M    "P 1"
_symmetry_int_tables_number       1

loop_
  _symmetry_equiv_pos_as_xyz
  'x, y, z'

loop_
  _atom_site_label
  _atom_site_occupancy
  _atom_site_fract_x
  _atom_site_fract_y
  _atom_site_fract_z
  _atom_site_thermal_displace_type
  _atom_site_B_iso_or_equiv
  _atom_site_type_symbol
  Rb1      1.0000 0.22542  0.98981  0.12814  Biso   1.000  Rb
  Zr1      1.0000 0.25856  0.02102  0.63311  Biso   1.000  Zr
  Zr2      1.0000 0.26441  0.51079  0.13078  Biso   1.000  Zr
  Zr3      1.0000 0.26836  0.51643  0.62718  Biso   1.000  Zr
  Zr4      1.0000 0.26576  0.23587  0.37658  Biso   1.000  Zr
  Zr5      1.0000 0.27990  0.23176  0.87699  Biso   1.000  Zr
  Zr6      1.0000 0.26303  0.72956  0.38108  Biso   1.000  Zr
  Zr7      1.0000 0.27855  0.73409  0.86989  Biso   1.000  Zr
  Zr8      1.0000 0.72252  0.26223  0.13119  Biso   1.000  Zr
  Zr9      1.0000 0.73315  0.27022  0.62589  Biso   1.000  Zr
  Zr10     1.0000 0.76795  0.73150  0.08612  Biso   1.000  Zr
  Zr11     1.0000 0.73271  0.76720  0.62171  Biso   1.000  Zr
  Zr12     1.0000 0.72795  0.48524  0.37725  Biso   1.000  Zr
  Zr13     1.0000 0.72993  0.47567  0.87812  Biso   1.000  Zr
  Zr14     1.0000 0.72347  0.99541  0.39437  Biso   1.000  Zr
  Zr15     1.0000 0.72577  0.98587  0.87026  Biso   1.000  Zr
  O1       1.0000 0.06197  0.20632  0.20681  Biso   1.000  O
  O2       1.0000 0.08228  0.19529  0.68274  Biso   1.000  O
  O3       1.0000 0.09152  0.69845  0.20113  Biso   1.000  O
  O4       1.0000 0.06831  0.68490  0.69451  Biso   1.000  O
  O5       1.0000 0.06840  0.06890  0.44624  Biso   1.000  O
  O6       1.0000 0.08451  0.06678  0.88884  Biso   1.000  O
  O7       1.0000 0.06941  0.57162  0.44831  Biso   1.000  O
  O8       1.0000 0.01308  0.59034  0.96994  Biso   1.000  O
  O9       1.0000 0.91875  0.44336  0.19819  Biso   1.000  O
  O10      1.0000 0.93525  0.43693  0.70193  Biso   1.000  O
  O11      1.0000 0.78279  0.91423  0.20014  Biso   1.000  O
  O12      1.0000 0.90892  0.93715  0.67912  Biso   1.000  O
  O13      1.0000 0.93069  0.32411  0.45066  Biso   1.000  O
  O14      1.0000 0.94423  0.32320  0.94933  Biso   1.000  O
  O15      1.0000 0.93142  0.81975  0.44500  Biso   1.000  O
  O16      1.0000 0.97296  0.83227  0.94329  Biso   1.000  O
  O17      1.0000 0.56666  0.12889  0.26708  Biso   1.000  O
  O18      1.0000 0.54774  0.12257  0.74711  Biso   1.000  O
  O19      1.0000 0.53271  0.60939  0.24729  Biso   1.000  O
  O20      1.0000 0.54122  0.61694  0.74694  Biso   1.000  O
  O21      1.0000 0.52988  0.13514  0.50876  Biso   1.000  O
  O22      1.0000 0.57116  0.13436  0.99272  Biso   1.000  O
  O23      1.0000 0.54068  0.63351  0.49852  Biso   1.000  O
  O24      1.0000 0.50650  0.61390  0.99231  Biso   1.000  O
  O25      1.0000 0.46099  0.38627  0.50209  Biso   1.000  O
  O26      1.0000 0.45725  0.37937  0.00384  Biso   1.000  O
  O27      1.0000 0.44500  0.88506  0.49633  Biso   1.000  O
  O28      1.0000 0.50884  0.85292  0.98325  Biso   1.000  O
  O29      1.0000 0.45725  0.37018  0.25405  Biso   1.000  O
  O30      1.0000 0.46325  0.36968  0.75206  Biso   1.000  O
  O31      1.0000 0.56844  0.84314  0.24649  Biso   1.000  O
  O32      1.0000 0.45540  0.87040  0.74309  Biso   1.000  O
