data_image0
_cell_length_a       10.0801
_cell_length_b       10.2828
_cell_length_c       10.5094
_cell_angle_alpha    89.9606
_cell_angle_beta     89.9216
_cell_angle_gamma    89.9665

_symmetry_space_group_name_H-M    "P 1"
_symmetry_int_tables_number       1

loop_
  _symmetry_equiv_pos_as_xyz
  'x, y, z'

loop_
  _atom_site_label
  _atom_site_occupancy
  _atom_site_fract_x
  _atom_site_fract_y
  _atom_site_fract_z
  _atom_site_thermal_displace_type
  _atom_site_B_iso_or_equiv
  _atom_site_type_symbol
  Re1      1.0000 0.14084  0.02209  0.17605  Biso   1.000  Re
  Zr1      1.0000 0.13964  0.22994  0.42019  Biso   1.000  Zr
  Zr2      1.0000 0.36009  0.27022  0.17201  Biso   1.000  Zr
  Zr3      1.0000 0.36123  0.47973  0.42127  Biso   1.000  Zr
  Zr4      1.0000 0.63853  0.02187  0.07770  Biso   1.000  Zr
  Zr5      1.0000 0.63860  0.22904  0.32861  Biso   1.000  Zr
  Zr6      1.0000 0.86392  0.26919  0.07998  Biso   1.000  Zr
  Zr7      1.0000 0.86072  0.47917  0.32832  Biso   1.000  Zr
  O1       1.0000 0.03369  0.15994  0.08476  Biso   1.000  O
  O2       1.0000 0.03893  0.08292  0.32529  Biso   1.000  O
  O3       1.0000 0.46719  0.41465  0.08423  Biso   1.000  O
  O4       1.0000 0.46655  0.33420  0.33405  Biso   1.000  O
  O5       1.0000 0.27690  0.12123  0.29535  Biso   1.000  O
  O6       1.0000 0.27121  0.12022  0.05208  Biso   1.000  O
  O7       1.0000 0.22469  0.37469  0.29501  Biso   1.000  O
  O8       1.0000 0.22496  0.37422  0.04524  Biso   1.000  O
  O9       1.0000 0.53248  0.16482  0.16734  Biso   1.000  O
  O10      1.0000 0.53250  0.08536  0.41742  Biso   1.000  O
  O11      1.0000 0.96817  0.41470  0.16721  Biso   1.000  O
  O12      1.0000 0.96724  0.33423  0.41564  Biso   1.000  O
  O13      1.0000 0.77735  0.12327  0.45344  Biso   1.000  O
  O14      1.0000 0.77590  0.12554  0.20479  Biso   1.000  O
  O15      1.0000 0.72415  0.37374  0.45551  Biso   1.000  O
  O16      1.0000 0.72465  0.37554  0.20525  Biso   1.000  O
  Zr8      1.0000 0.13857  0.02107  0.67106  Biso   1.000  Zr
  Zr9      1.0000 0.13779  0.22600  0.92318  Biso   1.000  Zr
  Zr10     1.0000 0.36113  0.27151  0.67189  Biso   1.000  Zr
  Zr11     1.0000 0.36103  0.47871  0.92180  Biso   1.000  Zr
  Zr12     1.0000 0.63858  0.02121  0.57843  Biso   1.000  Zr
  Zr13     1.0000 0.63894  0.22967  0.82904  Biso   1.000  Zr
  Zr14     1.0000 0.86139  0.27096  0.57833  Biso   1.000  Zr
  Zr15     1.0000 0.86145  0.47859  0.82980  Biso   1.000  Zr
  O17      1.0000 0.03114  0.16140  0.57784  Biso   1.000  O
  O18      1.0000 0.03059  0.08678  0.82968  Biso   1.000  O
  O19      1.0000 0.46704  0.41563  0.58364  Biso   1.000  O
  O20      1.0000 0.46755  0.33558  0.83353  Biso   1.000  O
  O21      1.0000 0.27564  0.12398  0.79740  Biso   1.000  O
  O22      1.0000 0.27615  0.12638  0.54575  Biso   1.000  O
  O23      1.0000 0.22405  0.37379  0.79549  Biso   1.000  O
  O24      1.0000 0.22392  0.37555  0.54458  Biso   1.000  O
  O25      1.0000 0.53236  0.16503  0.66733  Biso   1.000  O
  O26      1.0000 0.53028  0.08713  0.91806  Biso   1.000  O
  O27      1.0000 0.96834  0.41275  0.66793  Biso   1.000  O
  O28      1.0000 0.96870  0.33398  0.91849  Biso   1.000  O
  O29      1.0000 0.77461  0.12445  0.95414  Biso   1.000  O
  O30      1.0000 0.77551  0.12592  0.70408  Biso   1.000  O
  O31      1.0000 0.72511  0.37453  0.95556  Biso   1.000  O
  O32      1.0000 0.72441  0.37612  0.70532  Biso   1.000  O
  Zr16     1.0000 0.13905  0.52134  0.17116  Biso   1.000  Zr
  Zr17     1.0000 0.13800  0.72897  0.42116  Biso   1.000  Zr
  Zr18     1.0000 0.35783  0.77571  0.17106  Biso   1.000  Zr
  Zr19     1.0000 0.36063  0.97901  0.42172  Biso   1.000  Zr
  Zr20     1.0000 0.63845  0.52180  0.07941  Biso   1.000  Zr
  Zr21     1.0000 0.63771  0.72896  0.32770  Biso   1.000  Zr
  Zr22     1.0000 0.86406  0.77288  0.07824  Biso   1.000  Zr
  Zr23     1.0000 0.86145  0.97930  0.32728  Biso   1.000  Zr
  O33      1.0000 0.03237  0.66347  0.08232  Biso   1.000  O
  O34      1.0000 0.03202  0.58538  0.33251  Biso   1.000  O
  O35      1.0000 0.46826  0.91419  0.08150  Biso   1.000  O
  O36      1.0000 0.46621  0.83690  0.33199  Biso   1.000  O
  O37      1.0000 0.27541  0.62572  0.29522  Biso   1.000  O
  O38      1.0000 0.27585  0.62730  0.04513  Biso   1.000  O
  O39      1.0000 0.21828  0.87669  0.29348  Biso   1.000  O
  O40      1.0000 0.21822  0.87932  0.04581  Biso   1.000  O
  O41      1.0000 0.53108  0.66656  0.16655  Biso   1.000  O
  O42      1.0000 0.53245  0.58549  0.41677  Biso   1.000  O
  O43      1.0000 0.97760  0.91736  0.16454  Biso   1.000  O
  O44      1.0000 0.96759  0.83686  0.41663  Biso   1.000  O
  O45      1.0000 0.77518  0.62433  0.45489  Biso   1.000  O
  O46      1.0000 0.77522  0.62638  0.20511  Biso   1.000  O
  O47      1.0000 0.72384  0.87434  0.45392  Biso   1.000  O
  O48      1.0000 0.72930  0.87682  0.20465  Biso   1.000  O
  Zr24     1.0000 0.13880  0.52092  0.67189  Biso   1.000  Zr
  Zr25     1.0000 0.13915  0.72967  0.92149  Biso   1.000  Zr
  Zr26     1.0000 0.36140  0.77084  0.67134  Biso   1.000  Zr
  Zr27     1.0000 0.36042  0.97806  0.92213  Biso   1.000  Zr
  Zr28     1.0000 0.63891  0.52123  0.57937  Biso   1.000  Zr
  Zr29     1.0000 0.63903  0.72887  0.82960  Biso   1.000  Zr
  Zr30     1.0000 0.86056  0.77112  0.57826  Biso   1.000  Zr
  Zr31     1.0000 0.86077  0.97889  0.82805  Biso   1.000  Zr
  O49      1.0000 0.03135  0.66371  0.58208  Biso   1.000  O
  O50      1.0000 0.03224  0.58550  0.83298  Biso   1.000  O
  O51      1.0000 0.46768  0.91487  0.58358  Biso   1.000  O
  O52      1.0000 0.46712  0.83483  0.83371  Biso   1.000  O
  O53      1.0000 0.27587  0.62401  0.79525  Biso   1.000  O
  O54      1.0000 0.27554  0.62580  0.54542  Biso   1.000  O
  O55      1.0000 0.22434  0.87413  0.79471  Biso   1.000  O
  O56      1.0000 0.22445  0.87541  0.54485  Biso   1.000  O
  O57      1.0000 0.53299  0.66525  0.66699  Biso   1.000  O
  O58      1.0000 0.53300  0.58445  0.91680  Biso   1.000  O
  O59      1.0000 0.96798  0.91375  0.66671  Biso   1.000  O
  O60      1.0000 0.96727  0.83519  0.91618  Biso   1.000  O
  O61      1.0000 0.77657  0.62519  0.95595  Biso   1.000  O
  O62      1.0000 0.77608  0.62550  0.70559  Biso   1.000  O
  O63      1.0000 0.72390  0.87471  0.95463  Biso   1.000  O
  O64      1.0000 0.72411  0.87579  0.70463  Biso   1.000  O
