data_image0
_cell_length_a       10.1875
_cell_length_b       10.4544
_cell_length_c       5.10945
_cell_angle_alpha    92.2192
_cell_angle_beta     85.9831
_cell_angle_gamma    90.4576

_symmetry_space_group_name_H-M    "P 1"
_symmetry_int_tables_number       1

loop_
  _symmetry_equiv_pos_as_xyz
  'x, y, z'

loop_
  _atom_site_label
  _atom_site_occupancy
  _atom_site_fract_x
  _atom_site_fract_y
  _atom_site_fract_z
  _atom_site_thermal_displace_type
  _atom_site_B_iso_or_equiv
  _atom_site_type_symbol
  Zr1      1.0000 0.12887  0.99888  0.21829  Biso   1.000  Zr
  Zr2      1.0000 0.13459  0.20955  0.71836  Biso   1.000  Zr
  Zr3      1.0000 0.40045  0.23313  0.26780  Biso   1.000  Zr
  Zr4      1.0000 0.36757  0.50650  0.71808  Biso   1.000  Zr
  O1       1.0000 0.01879  0.16950  0.40653  Biso   1.000  O
  O2       1.0000 0.99676  0.08806  0.93131  Biso   1.000  O
  O3       1.0000 0.51411  0.39284  0.51844  Biso   1.000  O
  O4       1.0000 0.53042  0.33205  0.03002  Biso   1.000  O
  O5       1.0000 0.26217  0.08131  0.48063  Biso   1.000  O
  O6       1.0000 0.25856  0.16377  0.01213  Biso   1.000  O
  O7       1.0000 0.27111  0.42173  0.02599  Biso   1.000  O
  O8       1.0000 0.26791  0.33969  0.53168  Biso   1.000  O
  Zr5      1.0000 0.12354  0.54778  0.19389  Biso   1.000  Zr
  Zr6      1.0000 0.12913  0.75584  0.70856  Biso   1.000  Zr
  Zr7      1.0000 0.38359  0.73978  0.23407  Biso   1.000  Zr
  Zr8      1.0000 0.38955  0.99418  0.74441  Biso   1.000  Zr
  O9       1.0000 0.99412  0.67114  0.44451  Biso   1.000  O
  O10      1.0000 0.00025  0.60818  0.92777  Biso   1.000  O
  O11      1.0000 0.47583  0.89651  0.42066  Biso   1.000  O
  O12      1.0000 0.46633  0.82943  0.90951  Biso   1.000  O
  O13      1.0000 0.25129  0.60382  0.47311  Biso   1.000  O
  O14      1.0000 0.25491  0.66569  0.95058  Biso   1.000  O
  O15      1.0000 0.21292  0.92042  0.87761  Biso   1.000  O
  O16      1.0000 0.21251  0.83637  0.36923  Biso   1.000  O
  Zr9      1.0000 0.63077  0.00327  0.25944  Biso   1.000  Zr
  Zr10     1.0000 0.64664  0.25972  0.71433  Biso   1.000  Zr
  Zr11     1.0000 0.87683  0.24465  0.17831  Biso   1.000  Zr
  Zr12     1.0000 0.87800  0.51040  0.68493  Biso   1.000  Zr
  O17      1.0000 0.51083  0.14020  0.53278  Biso   1.000  O
  O18      1.0000 0.49352  0.07831  0.03440  Biso   1.000  O
  O19      1.0000 0.00878  0.41951  0.43053  Biso   1.000  O
  O20      1.0000 0.01484  0.34298  0.93616  Biso   1.000  O
  O21      1.0000 0.76202  0.11087  0.46895  Biso   1.000  O
  O22      1.0000 0.74552  0.13812  0.96737  Biso   1.000  O
  O23      1.0000 0.76722  0.39388  0.94160  Biso   1.000  O
  O24      1.0000 0.75861  0.35780  0.44006  Biso   1.000  O
  Zr13     1.0000 0.62703  0.49227  0.21986  Biso   1.000  Zr
  Zr14     1.0000 0.62526  0.73199  0.73873  Biso   1.000  Zr
  Zr15     1.0000 0.86768  0.75790  0.20933  Biso   1.000  Zr
  Zr16     1.0000 0.85619  0.98580  0.73030  Biso   1.000  Zr
  O25      1.0000 0.50236  0.63776  0.47230  Biso   1.000  O
  O26      1.0000 0.50159  0.58691  0.97766  Biso   1.000  O
  O27      1.0000 0.96415  0.92205  0.39479  Biso   1.000  O
  O28      1.0000 0.96414  0.84207  0.89327  Biso   1.000  O
  O29      1.0000 0.75032  0.60321  0.46632  Biso   1.000  O
  O30      1.0000 0.74643  0.63942  0.97296  Biso   1.000  O
  O31      1.0000 0.72222  0.88633  0.97249  Biso   1.000  O
  O32      1.0000 0.72808  0.85319  0.47417  Biso   1.000  O
  Re1      1.0000 0.14291  0.30703  0.22706  Biso   1.000  Re
