data_image0
_cell_length_a       10.1225
_cell_length_b       10.3116
_cell_length_c       10.565
_cell_angle_alpha    89.9559
_cell_angle_beta     90.3035
_cell_angle_gamma    90.1224

_symmetry_space_group_name_H-M    "P 1"
_symmetry_int_tables_number       1

loop_
  _symmetry_equiv_pos_as_xyz
  'x, y, z'

loop_
  _atom_site_label
  _atom_site_occupancy
  _atom_site_fract_x
  _atom_site_fract_y
  _atom_site_fract_z
  _atom_site_thermal_displace_type
  _atom_site_B_iso_or_equiv
  _atom_site_type_symbol
  Zr1      1.0000 0.13717  0.02082  0.17242  Biso   1.000  Zr
  Zr2      1.0000 0.13792  0.22809  0.42443  Biso   1.000  Zr
  Zr3      1.0000 0.35220  0.26949  0.17793  Biso   1.000  Zr
  Zr4      1.0000 0.36276  0.47836  0.42143  Biso   1.000  Zr
  Zr5      1.0000 0.64453  0.01757  0.07618  Biso   1.000  Zr
  Zr6      1.0000 0.63877  0.22659  0.32910  Biso   1.000  Zr
  Zr7      1.0000 0.85999  0.26862  0.07830  Biso   1.000  Zr
  Zr8      1.0000 0.86341  0.47907  0.32951  Biso   1.000  Zr
  O1       1.0000 0.03088  0.16235  0.08206  Biso   1.000  O
  O2       1.0000 0.03089  0.08654  0.33274  Biso   1.000  O
  O3       1.0000 0.45439  0.43582  0.09638  Biso   1.000  O
  O4       1.0000 0.46846  0.33521  0.33127  Biso   1.000  O
  O5       1.0000 0.27094  0.12520  0.29888  Biso   1.000  O
  O6       1.0000 0.27245  0.12424  0.04676  Biso   1.000  O
  O7       1.0000 0.22208  0.37545  0.29843  Biso   1.000  O
  O8       1.0000 0.22209  0.37502  0.04528  Biso   1.000  O
  O9       1.0000 0.51500  0.14016  0.18488  Biso   1.000  O
  O10      1.0000 0.53072  0.08943  0.42466  Biso   1.000  O
  O11      1.0000 0.96839  0.41265  0.16871  Biso   1.000  O
  O12      1.0000 0.96933  0.33701  0.41980  Biso   1.000  O
  O13      1.0000 0.77543  0.12385  0.45410  Biso   1.000  O
  O14      1.0000 0.77625  0.12360  0.20727  Biso   1.000  O
  O15      1.0000 0.72548  0.37349  0.45537  Biso   1.000  O
  O16      1.0000 0.72734  0.38007  0.20802  Biso   1.000  O
  Zr9      1.0000 0.14097  0.02085  0.67241  Biso   1.000  Zr
  Zr10     1.0000 0.13818  0.22805  0.92216  Biso   1.000  Zr
  Zr11     1.0000 0.36230  0.27188  0.67329  Biso   1.000  Zr
  Zr12     1.0000 0.36066  0.48036  0.92210  Biso   1.000  Zr
  Zr13     1.0000 0.64026  0.01968  0.57817  Biso   1.000  Zr
  Zr14     1.0000 0.64344  0.22695  0.82025  Biso   1.000  Zr
  Zr15     1.0000 0.86281  0.27119  0.57786  Biso   1.000  Zr
  Zr16     1.0000 0.86370  0.47949  0.82854  Biso   1.000  Zr
  O17      1.0000 0.03236  0.16275  0.58283  Biso   1.000  O
  O18      1.0000 0.03464  0.08495  0.83104  Biso   1.000  O
  O19      1.0000 0.47102  0.41046  0.57870  Biso   1.000  O
  O20      1.0000 0.47214  0.34278  0.82660  Biso   1.000  O
  O21      1.0000 0.27704  0.12482  0.79678  Biso   1.000  O
  O22      1.0000 0.27577  0.12505  0.54702  Biso   1.000  O
  O23      1.0000 0.22519  0.37360  0.79644  Biso   1.000  O
  O24      1.0000 0.22628  0.37549  0.54702  Biso   1.000  O
  O25      1.0000 0.53037  0.15832  0.67116  Biso   1.000  O
  O26      1.0000 0.53043  0.09271  0.92396  Biso   1.000  O
  O27      1.0000 0.96962  0.41360  0.66877  Biso   1.000  O
  O28      1.0000 0.96637  0.33558  0.91803  Biso   1.000  O
  O29      1.0000 0.78557  0.11862  0.94733  Biso   1.000  O
  O30      1.0000 0.77793  0.12346  0.70055  Biso   1.000  O
  O31      1.0000 0.72078  0.37509  0.95485  Biso   1.000  O
  O32      1.0000 0.72784  0.37499  0.70353  Biso   1.000  O
  Zr17     1.0000 0.13876  0.52104  0.17123  Biso   1.000  Zr
  Zr18     1.0000 0.14040  0.72832  0.42150  Biso   1.000  Zr
  Zr19     1.0000 0.36175  0.77307  0.17217  Biso   1.000  Zr
  Zr20     1.0000 0.36206  0.97886  0.42323  Biso   1.000  Zr
  Zr21     1.0000 0.63836  0.52943  0.08186  Biso   1.000  Zr
  Zr22     1.0000 0.63978  0.73094  0.32998  Biso   1.000  Zr
  Zr23     1.0000 0.86333  0.77055  0.07942  Biso   1.000  Zr
  Zr24     1.0000 0.86228  0.97815  0.32993  Biso   1.000  Zr
  O33      1.0000 0.03241  0.66277  0.08156  Biso   1.000  O
  O34      1.0000 0.03322  0.58708  0.33113  Biso   1.000  O
  O35      1.0000 0.47086  0.90927  0.07725  Biso   1.000  O
  O36      1.0000 0.46993  0.83998  0.33137  Biso   1.000  O
  O37      1.0000 0.27652  0.62471  0.29498  Biso   1.000  O
  O38      1.0000 0.27459  0.62739  0.04460  Biso   1.000  O
  O39      1.0000 0.22577  0.87480  0.29616  Biso   1.000  O
  O40      1.0000 0.22486  0.87623  0.04615  Biso   1.000  O
  O41      1.0000 0.53448  0.67046  0.16977  Biso   1.000  O
  O42      1.0000 0.53226  0.58752  0.41830  Biso   1.000  O
  O43      1.0000 0.96904  0.91273  0.16906  Biso   1.000  O
  O44      1.0000 0.96954  0.83486  0.41837  Biso   1.000  O
  O45      1.0000 0.77614  0.62399  0.45515  Biso   1.000  O
  O46      1.0000 0.77670  0.62762  0.20600  Biso   1.000  O
  O47      1.0000 0.72649  0.87433  0.45596  Biso   1.000  O
  O48      1.0000 0.72794  0.87463  0.20634  Biso   1.000  O
  Zr25     1.0000 0.14022  0.52053  0.67135  Biso   1.000  Zr
  Zr26     1.0000 0.13975  0.72883  0.92180  Biso   1.000  Zr
  Zr27     1.0000 0.36308  0.77105  0.67202  Biso   1.000  Zr
  Zr28     1.0000 0.36152  0.97830  0.92338  Biso   1.000  Zr
  Zr29     1.0000 0.63963  0.52067  0.57750  Biso   1.000  Zr
  Zr30     1.0000 0.63973  0.72813  0.82768  Biso   1.000  Zr
  Zr31     1.0000 0.86387  0.77007  0.57873  Biso   1.000  Zr
  Zr32     1.0000 0.86454  0.97623  0.82762  Biso   1.000  Zr
  O49      1.0000 0.03363  0.66222  0.58153  Biso   1.000  O
  O50      1.0000 0.03299  0.58636  0.83144  Biso   1.000  O
  O51      1.0000 0.47074  0.90985  0.58003  Biso   1.000  O
  O52      1.0000 0.47174  0.84019  0.82909  Biso   1.000  O
  O53      1.0000 0.27640  0.62378  0.79583  Biso   1.000  O
  O54      1.0000 0.27680  0.62483  0.54528  Biso   1.000  O
  O55      1.0000 0.22672  0.87350  0.79619  Biso   1.000  O
  O56      1.0000 0.22653  0.87517  0.54604  Biso   1.000  O
  O57      1.0000 0.53176  0.66078  0.66953  Biso   1.000  O
  O58      1.0000 0.53200  0.58829  0.92015  Biso   1.000  O
  O59      1.0000 0.97165  0.91181  0.66713  Biso   1.000  O
  O60      1.0000 0.97003  0.83576  0.91917  Biso   1.000  O
  O61      1.0000 0.77698  0.62435  0.95463  Biso   1.000  O
  O62      1.0000 0.77625  0.62484  0.70461  Biso   1.000  O
  O63      1.0000 0.72643  0.87215  0.95511  Biso   1.000  O
  O64      1.0000 0.72719  0.87386  0.70468  Biso   1.000  O
  Rh1      1.0000 0.57877  0.26981  0.05791  Biso   1.000  Rh
