data_image0
_cell_length_a       10.075
_cell_length_b       10.4693
_cell_length_c       10.0987
_cell_angle_alpha    89.7013
_cell_angle_beta     90.0716
_cell_angle_gamma    90.0535

_symmetry_space_group_name_H-M    "P 1"
_symmetry_int_tables_number       1

loop_
  _symmetry_equiv_pos_as_xyz
  'x, y, z'

loop_
  _atom_site_label
  _atom_site_occupancy
  _atom_site_fract_x
  _atom_site_fract_y
  _atom_site_fract_z
  _atom_site_thermal_displace_type
  _atom_site_B_iso_or_equiv
  _atom_site_type_symbol
  Zr1      1.0000 0.13480  0.01842  0.12117  Biso   1.000  Zr
  Zr2      1.0000 0.13462  0.23101  0.38254  Biso   1.000  Zr
  Zr3      1.0000 0.36832  0.26401  0.12158  Biso   1.000  Zr
  Zr4      1.0000 0.36795  0.48527  0.37561  Biso   1.000  Zr
  O1       1.0000 0.00777  0.16567  0.22238  Biso   1.000  O
  O2       1.0000 0.03556  0.06438  0.45282  Biso   1.000  O
  O3       1.0000 0.46404  0.43342  0.19446  Biso   1.000  O
  O4       1.0000 0.46514  0.31750  0.44595  Biso   1.000  O
  O5       1.0000 0.26567  0.11652  0.24964  Biso   1.000  O
  O6       1.0000 0.27137  0.13233  0.49937  Biso   1.000  O
  O7       1.0000 0.23276  0.38369  0.50021  Biso   1.000  O
  O8       1.0000 0.23329  0.36785  0.25300  Biso   1.000  O
  Zr5      1.0000 0.13484  0.01205  0.62640  Biso   1.000  Zr
  Zr6      1.0000 0.14118  0.22527  0.86701  Biso   1.000  Zr
  Zr7      1.0000 0.36894  0.26588  0.62490  Biso   1.000  Zr
  Zr8      1.0000 0.36951  0.48559  0.87299  Biso   1.000  Zr
  O9       1.0000 0.03637  0.17991  0.69273  Biso   1.000  O
  O10      1.0000 0.03891  0.06072  0.94061  Biso   1.000  O
  O11      1.0000 0.46759  0.43300  0.69493  Biso   1.000  O
  O12      1.0000 0.46669  0.31558  0.94177  Biso   1.000  O
  O13      1.0000 0.27237  0.11308  0.74506  Biso   1.000  O
  O14      1.0000 0.28638  0.12384  0.99064  Biso   1.000  O
  O15      1.0000 0.23559  0.38947  0.99815  Biso   1.000  O
  O16      1.0000 0.23426  0.36489  0.74799  Biso   1.000  O
  Zr9      1.0000 0.13351  0.53233  0.12525  Biso   1.000  Zr
  Zr10     1.0000 0.13513  0.73679  0.37806  Biso   1.000  Zr
  Zr11     1.0000 0.36585  0.76756  0.12654  Biso   1.000  Zr
  Zr12     1.0000 0.36566  0.98472  0.37513  Biso   1.000  Zr
  O17      1.0000 0.03414  0.68790  0.19949  Biso   1.000  O
  O18      1.0000 0.03568  0.56843  0.44589  Biso   1.000  O
  O19      1.0000 0.46344  0.93380  0.19543  Biso   1.000  O
  O20      1.0000 0.46553  0.81636  0.44384  Biso   1.000  O
  O21      1.0000 0.27186  0.62160  0.25052  Biso   1.000  O
  O22      1.0000 0.27037  0.63302  0.49920  Biso   1.000  O
  O23      1.0000 0.23266  0.88287  0.49920  Biso   1.000  O
  O24      1.0000 0.23026  0.86861  0.24919  Biso   1.000  O
  Zr13     1.0000 0.13433  0.51448  0.62537  Biso   1.000  Zr
  Zr14     1.0000 0.13332  0.73635  0.87293  Biso   1.000  Zr
  Zr15     1.0000 0.36956  0.76382  0.62413  Biso   1.000  Zr
  Zr16     1.0000 0.37058  0.97963  0.87400  Biso   1.000  Zr
  O25      1.0000 0.03667  0.68293  0.69314  Biso   1.000  O
  O26      1.0000 0.03499  0.56872  0.94585  Biso   1.000  O
  O27      1.0000 0.46906  0.93075  0.69277  Biso   1.000  O
  O28      1.0000 0.46874  0.81609  0.94778  Biso   1.000  O
  O29      1.0000 0.26940  0.61492  0.74844  Biso   1.000  O
  O30      1.0000 0.26950  0.63779  0.99779  Biso   1.000  O
  O31      1.0000 0.23081  0.88207  0.99862  Biso   1.000  O
  O32      1.0000 0.23548  0.86386  0.74798  Biso   1.000  O
  Zr17     1.0000 0.63084  0.01237  0.12332  Biso   1.000  Zr
  Zr18     1.0000 0.63113  0.23223  0.37799  Biso   1.000  Zr
  Zr19     1.0000 0.84622  0.26359  0.12784  Biso   1.000  Zr
  Zr20     1.0000 0.86751  0.48531  0.37646  Biso   1.000  Zr
  O33      1.0000 0.53256  0.18089  0.19539  Biso   1.000  O
  O34      1.0000 0.53416  0.06599  0.44651  Biso   1.000  O
  O35      1.0000 0.95479  0.44252  0.19520  Biso   1.000  O
  O36      1.0000 0.96853  0.31954  0.44912  Biso   1.000  O
  O37      1.0000 0.75860  0.11382  0.24964  Biso   1.000  O
  O38      1.0000 0.77106  0.13452  0.49769  Biso   1.000  O
  O39      1.0000 0.73203  0.38288  0.50027  Biso   1.000  O
  O40      1.0000 0.72406  0.36777  0.25264  Biso   1.000  O
  Zr21     1.0000 0.63679  0.01454  0.62431  Biso   1.000  Zr
  Zr22     1.0000 0.63363  0.23244  0.87268  Biso   1.000  Zr
  Zr23     1.0000 0.86753  0.26593  0.62616  Biso   1.000  Zr
  Zr24     1.0000 0.86686  0.48261  0.87714  Biso   1.000  Zr
  O41      1.0000 0.53806  0.18290  0.69243  Biso   1.000  O
  O42      1.0000 0.54100  0.06341  0.94013  Biso   1.000  O
  O43      1.0000 0.96688  0.43258  0.69785  Biso   1.000  O
  O44      1.0000 0.96232  0.31138  0.94030  Biso   1.000  O
  O45      1.0000 0.77184  0.11534  0.74810  Biso   1.000  O
  O46      1.0000 0.76912  0.13089  0.99887  Biso   1.000  O
  O47      1.0000 0.72674  0.38204  0.00018  Biso   1.000  O
  O48      1.0000 0.73247  0.36632  0.74965  Biso   1.000  O
  Zr25     1.0000 0.63218  0.51753  0.12760  Biso   1.000  Zr
  Zr26     1.0000 0.63487  0.73531  0.37551  Biso   1.000  Zr
  Zr27     1.0000 0.86444  0.76578  0.12572  Biso   1.000  Zr
  Zr28     1.0000 0.86993  0.98691  0.37108  Biso   1.000  Zr
  O49      1.0000 0.53494  0.68395  0.19571  Biso   1.000  O
  O50      1.0000 0.53608  0.56690  0.44587  Biso   1.000  O
  O51      1.0000 0.96497  0.93100  0.19199  Biso   1.000  O
  O52      1.0000 0.96638  0.81869  0.44548  Biso   1.000  O
  O53      1.0000 0.76754  0.61838  0.25084  Biso   1.000  O
  O54      1.0000 0.76946  0.63435  0.49974  Biso   1.000  O
  O55      1.0000 0.73393  0.88538  0.49685  Biso   1.000  O
  O56      1.0000 0.73051  0.86658  0.24778  Biso   1.000  O
  Zr29     1.0000 0.63661  0.51510  0.62545  Biso   1.000  Zr
  Zr30     1.0000 0.63586  0.73302  0.87534  Biso   1.000  Zr
  Zr31     1.0000 0.86794  0.76553  0.62453  Biso   1.000  Zr
  Zr32     1.0000 0.86725  0.98193  0.87506  Biso   1.000  Zr
  O57      1.0000 0.53634  0.68144  0.69658  Biso   1.000  O
  O58      1.0000 0.53527  0.56699  0.94611  Biso   1.000  O
  O59      1.0000 0.96822  0.92957  0.69875  Biso   1.000  O
  O60      1.0000 0.96435  0.81395  0.94511  Biso   1.000  O
  O61      1.0000 0.77119  0.61552  0.74958  Biso   1.000  O
  O62      1.0000 0.76915  0.63161  0.99968  Biso   1.000  O
  O63      1.0000 0.73174  0.88142  0.99831  Biso   1.000  O
  O64      1.0000 0.73295  0.86525  0.74795  Biso   1.000  O
  Rh1      1.0000 0.09535  0.29433  0.10597  Biso   1.000  Rh
