data_image0
_cell_length_a       4.96968
_cell_length_b       10.327
_cell_length_c       9.96975
_cell_angle_alpha    89.7948
_cell_angle_beta     89.8923
_cell_angle_gamma    90.0576

_symmetry_space_group_name_H-M    "P 1"
_symmetry_int_tables_number       1

loop_
  _symmetry_equiv_pos_as_xyz
  'x, y, z'

loop_
  _atom_site_label
  _atom_site_occupancy
  _atom_site_fract_x
  _atom_site_fract_y
  _atom_site_fract_z
  _atom_site_thermal_displace_type
  _atom_site_B_iso_or_equiv
  _atom_site_type_symbol
  Ru1      1.0000 0.27427  0.02093  0.11930  Biso   1.000  Ru
  Hf1      1.0000 0.26487  0.23202  0.37516  Biso   1.000  Hf
  Hf2      1.0000 0.73421  0.26483  0.12603  Biso   1.000  Hf
  Hf3      1.0000 0.73235  0.48438  0.37626  Biso   1.000  Hf
  O1       1.0000 0.06615  0.17674  0.19823  Biso   1.000  O
  O2       1.0000 0.06831  0.06758  0.45013  Biso   1.000  O
  O3       1.0000 0.93147  0.43121  0.19488  Biso   1.000  O
  O4       1.0000 0.92831  0.31670  0.44529  Biso   1.000  O
  O5       1.0000 0.52742  0.11605  0.24469  Biso   1.000  O
  O6       1.0000 0.54293  0.13346  0.49706  Biso   1.000  O
  O7       1.0000 0.45871  0.38278  0.50008  Biso   1.000  O
  O8       1.0000 0.46179  0.36754  0.25017  Biso   1.000  O
  Hf4      1.0000 0.26901  0.01619  0.62590  Biso   1.000  Hf
  Hf5      1.0000 0.26904  0.23318  0.87784  Biso   1.000  Hf
  Hf6      1.0000 0.73207  0.26609  0.62627  Biso   1.000  Hf
  Hf7      1.0000 0.73082  0.48376  0.87582  Biso   1.000  Hf
  O9       1.0000 0.06970  0.18244  0.70012  Biso   1.000  O
  O10      1.0000 0.07113  0.06548  0.95730  Biso   1.000  O
  O11      1.0000 0.92604  0.43431  0.69369  Biso   1.000  O
  O12      1.0000 0.92346  0.31308  0.94370  Biso   1.000  O
  O13      1.0000 0.54093  0.11762  0.75054  Biso   1.000  O
  O14      1.0000 0.54159  0.12754  0.00109  Biso   1.000  O
  O15      1.0000 0.45748  0.38035  0.00043  Biso   1.000  O
  O16      1.0000 0.45741  0.36710  0.75042  Biso   1.000  O
  Hf8      1.0000 0.27123  0.51700  0.12698  Biso   1.000  Hf
  Hf9      1.0000 0.26875  0.73671  0.37335  Biso   1.000  Hf
  Hf10     1.0000 0.73547  0.77029  0.12525  Biso   1.000  Hf
  Hf11     1.0000 0.73794  0.98569  0.37072  Biso   1.000  Hf
  O17      1.0000 0.07479  0.68328  0.19255  Biso   1.000  O
  O18      1.0000 0.07352  0.56758  0.44299  Biso   1.000  O
  O19      1.0000 0.94310  0.93326  0.19211  Biso   1.000  O
  O20      1.0000 0.92760  0.81720  0.44295  Biso   1.000  O
  O21      1.0000 0.54521  0.62045  0.24971  Biso   1.000  O
  O22      1.0000 0.54067  0.63376  0.49907  Biso   1.000  O
  O23      1.0000 0.46162  0.88406  0.49781  Biso   1.000  O
  O24      1.0000 0.45893  0.87433  0.24576  Biso   1.000  O
  Hf12     1.0000 0.26776  0.51699  0.62506  Biso   1.000  Hf
  Hf13     1.0000 0.26606  0.73291  0.87648  Biso   1.000  Hf
  Hf14     1.0000 0.73228  0.76728  0.62535  Biso   1.000  Hf
  Hf15     1.0000 0.73016  0.98237  0.87792  Biso   1.000  Hf
  O25      1.0000 0.07237  0.68460  0.69390  Biso   1.000  O
  O26      1.0000 0.07431  0.56353  0.94387  Biso   1.000  O
  O27      1.0000 0.92977  0.93415  0.69664  Biso   1.000  O
  O28      1.0000 0.91936  0.81384  0.94114  Biso   1.000  O
  O29      1.0000 0.54047  0.61775  0.74946  Biso   1.000  O
  O30      1.0000 0.54306  0.63198  0.99963  Biso   1.000  O
  O31      1.0000 0.44876  0.88310  0.00124  Biso   1.000  O
  O32      1.0000 0.45997  0.86757  0.75043  Biso   1.000  O
