data_image0
_cell_length_a       5.04654
_cell_length_b       10.2456
_cell_length_c       10.4133
_cell_angle_alpha    89.8089
_cell_angle_beta     80.0826
_cell_angle_gamma    90.0028

_symmetry_space_group_name_H-M    "P 1"
_symmetry_int_tables_number       1

loop_
  _symmetry_equiv_pos_as_xyz
  'x, y, z'

loop_
  _atom_site_label
  _atom_site_occupancy
  _atom_site_fract_x
  _atom_site_fract_y
  _atom_site_fract_z
  _atom_site_thermal_displace_type
  _atom_site_B_iso_or_equiv
  _atom_site_type_symbol
  Ru1      1.0000 0.28146  0.02192  0.15137  Biso   1.000  Ru
  Hf1      1.0000 0.27951  0.22994  0.39475  Biso   1.000  Hf
  Hf2      1.0000 0.72575  0.26897  0.10603  Biso   1.000  Hf
  Hf3      1.0000 0.72347  0.47975  0.35373  Biso   1.000  Hf
  O1       1.0000 0.07044  0.16524  0.08083  Biso   1.000  O
  O2       1.0000 0.07655  0.08460  0.31930  Biso   1.000  O
  O3       1.0000 0.92914  0.42016  0.16934  Biso   1.000  O
  O4       1.0000 0.92818  0.33091  0.41952  Biso   1.000  O
  O5       1.0000 0.55290  0.12693  0.24116  Biso   1.000  O
  O6       1.0000 0.55687  0.12104  0.48987  Biso   1.000  O
  O7       1.0000 0.44672  0.37848  0.01036  Biso   1.000  O
  O8       1.0000 0.44879  0.37137  0.25965  Biso   1.000  O
  Hf4      1.0000 0.27656  0.02074  0.64597  Biso   1.000  Hf
  Hf5      1.0000 0.27299  0.22543  0.89955  Biso   1.000  Hf
  Hf6      1.0000 0.72099  0.27141  0.60482  Biso   1.000  Hf
  Hf7      1.0000 0.71974  0.47785  0.85529  Biso   1.000  Hf
  O9       1.0000 0.06942  0.16635  0.57637  Biso   1.000  O
  O10      1.0000 0.06656  0.08093  0.82868  Biso   1.000  O
  O11      1.0000 0.92879  0.41805  0.67041  Biso   1.000  O
  O12      1.0000 0.92458  0.32698  0.92040  Biso   1.000  O
  O13      1.0000 0.55233  0.12855  0.74342  Biso   1.000  O
  O14      1.0000 0.54179  0.11553  0.00032  Biso   1.000  O
  O15      1.0000 0.44616  0.37867  0.50969  Biso   1.000  O
  O16      1.0000 0.44495  0.37011  0.76039  Biso   1.000  O
  Hf8      1.0000 0.27945  0.52231  0.14560  Biso   1.000  Hf
  Hf9      1.0000 0.27888  0.72973  0.39513  Biso   1.000  Hf
  Hf10     1.0000 0.72383  0.77613  0.10325  Biso   1.000  Hf
  Hf11     1.0000 0.72318  0.97979  0.35086  Biso   1.000  Hf
  O17      1.0000 0.06979  0.66910  0.08046  Biso   1.000  O
  O18      1.0000 0.07366  0.58080  0.33087  Biso   1.000  O
  O19      1.0000 0.94566  0.92117  0.16698  Biso   1.000  O
  O20      1.0000 0.93132  0.83283  0.41829  Biso   1.000  O
  O21      1.0000 0.55467  0.63221  0.24078  Biso   1.000  O
  O22      1.0000 0.55428  0.62125  0.49072  Biso   1.000  O
  O23      1.0000 0.43967  0.88182  0.00971  Biso   1.000  O
  O24      1.0000 0.45039  0.87525  0.25584  Biso   1.000  O
  Hf12     1.0000 0.27789  0.52113  0.64682  Biso   1.000  Hf
  Hf13     1.0000 0.27623  0.72890  0.89702  Biso   1.000  Hf
  Hf14     1.0000 0.72224  0.77145  0.60354  Biso   1.000  Hf
  Hf15     1.0000 0.71721  0.97811  0.85522  Biso   1.000  Hf
  O25      1.0000 0.07202  0.66928  0.57975  Biso   1.000  O
  O26      1.0000 0.07127  0.57946  0.83149  Biso   1.000  O
  O27      1.0000 0.92785  0.91856  0.66958  Biso   1.000  O
  O28      1.0000 0.92476  0.82984  0.91828  Biso   1.000  O
  O29      1.0000 0.55385  0.62875  0.74123  Biso   1.000  O
  O30      1.0000 0.55468  0.62241  0.99123  Biso   1.000  O
  O31      1.0000 0.44728  0.87930  0.50760  Biso   1.000  O
  O32      1.0000 0.44529  0.87050  0.75855  Biso   1.000  O
