data_image0
_cell_length_a       9.93765
_cell_length_b       10.3259
_cell_length_c       4.98483
_cell_angle_alpha    89.7931
_cell_angle_beta     89.8523
_cell_angle_gamma    90.0936

_symmetry_space_group_name_H-M    "P 1"
_symmetry_int_tables_number       1

loop_
  _symmetry_equiv_pos_as_xyz
  'x, y, z'

loop_
  _atom_site_label
  _atom_site_occupancy
  _atom_site_fract_x
  _atom_site_fract_y
  _atom_site_fract_z
  _atom_site_thermal_displace_type
  _atom_site_B_iso_or_equiv
  _atom_site_type_symbol
  Ru1      1.0000 0.13784  0.02113  0.24536  Biso   1.000  Ru
  Hf1      1.0000 0.13378  0.23156  0.75593  Biso   1.000  Hf
  Hf2      1.0000 0.36593  0.26722  0.25191  Biso   1.000  Hf
  Hf3      1.0000 0.36592  0.48468  0.75215  Biso   1.000  Hf
  O1       1.0000 0.03254  0.17474  0.41076  Biso   1.000  O
  O2       1.0000 0.03448  0.06738  0.92840  Biso   1.000  O
  O3       1.0000 0.46283  0.43545  0.38583  Biso   1.000  O
  O4       1.0000 0.46108  0.31454  0.88551  Biso   1.000  O
  O5       1.0000 0.26671  0.11645  0.49417  Biso   1.000  O
  O6       1.0000 0.27149  0.12801  0.00201  Biso   1.000  O
  O7       1.0000 0.22869  0.38139  0.00123  Biso   1.000  O
  O8       1.0000 0.22927  0.36713  0.50274  Biso   1.000  O
  Hf4      1.0000 0.13443  0.51638  0.25285  Biso   1.000  Hf
  Hf5      1.0000 0.13287  0.73488  0.75118  Biso   1.000  Hf
  Hf6      1.0000 0.36421  0.76862  0.25274  Biso   1.000  Hf
  Hf7      1.0000 0.36377  0.98240  0.75213  Biso   1.000  Hf
  O9       1.0000 0.03662  0.68223  0.38785  Biso   1.000  O
  O10      1.0000 0.03620  0.56560  0.88906  Biso   1.000  O
  O11      1.0000 0.46438  0.93378  0.38955  Biso   1.000  O
  O12      1.0000 0.46086  0.81496  0.88492  Biso   1.000  O
  O13      1.0000 0.27122  0.62003  0.49989  Biso   1.000  O
  O14      1.0000 0.27072  0.63260  0.99907  Biso   1.000  O
  O15      1.0000 0.22508  0.88324  0.00702  Biso   1.000  O
  O16      1.0000 0.22607  0.87296  0.49883  Biso   1.000  O
  Hf8      1.0000 0.63382  0.01594  0.24769  Biso   1.000  Hf
  Hf9      1.0000 0.63320  0.23335  0.75083  Biso   1.000  Hf
  Hf10     1.0000 0.86687  0.26353  0.25284  Biso   1.000  Hf
  Hf11     1.0000 0.86561  0.48342  0.75160  Biso   1.000  Hf
  O17      1.0000 0.53515  0.18443  0.38687  Biso   1.000  O
  O18      1.0000 0.53514  0.06537  0.88635  Biso   1.000  O
  O19      1.0000 0.96535  0.43038  0.39009  Biso   1.000  O
  O20      1.0000 0.96422  0.31481  0.89094  Biso   1.000  O
  O21      1.0000 0.76787  0.11726  0.49757  Biso   1.000  O
  O22      1.0000 0.77026  0.13303  0.99602  Biso   1.000  O
  O23      1.0000 0.72914  0.38180  0.99961  Biso   1.000  O
  O24      1.0000 0.72983  0.36738  0.49828  Biso   1.000  O
  Hf12     1.0000 0.63499  0.51761  0.25112  Biso   1.000  Hf
  Hf13     1.0000 0.63497  0.73482  0.74833  Biso   1.000  Hf
  Hf14     1.0000 0.86982  0.76884  0.24761  Biso   1.000  Hf
  Hf15     1.0000 0.87090  0.98610  0.74512  Biso   1.000  Hf
  O25      1.0000 0.53727  0.68597  0.38463  Biso   1.000  O
  O26      1.0000 0.53772  0.56551  0.88433  Biso   1.000  O
  O27      1.0000 0.97245  0.93350  0.38676  Biso   1.000  O
  O28      1.0000 0.96247  0.81611  0.88175  Biso   1.000  O
  O29      1.0000 0.77160  0.61813  0.49833  Biso   1.000  O
  O30      1.0000 0.77124  0.63318  0.99805  Biso   1.000  O
  O31      1.0000 0.73004  0.88414  0.99173  Biso   1.000  O
  O32      1.0000 0.73437  0.86911  0.49397  Biso   1.000  O
