data_image0
_cell_length_a       10.1596
_cell_length_b       5.15913
_cell_length_c       10.4597
_cell_angle_alpha    89.7705
_cell_angle_beta     80.1339
_cell_angle_gamma    90.004

_symmetry_space_group_name_H-M    "P 1"
_symmetry_int_tables_number       1

loop_
  _symmetry_equiv_pos_as_xyz
  'x, y, z'

loop_
  _atom_site_label
  _atom_site_occupancy
  _atom_site_fract_x
  _atom_site_fract_y
  _atom_site_fract_z
  _atom_site_thermal_displace_type
  _atom_site_B_iso_or_equiv
  _atom_site_type_symbol
  Ru1      1.0000 0.14125  0.04474  0.15178  Biso   1.000  Ru
  Zr1      1.0000 0.13881  0.04199  0.64577  Biso   1.000  Zr
  Zr2      1.0000 0.63929  0.04496  0.14459  Biso   1.000  Zr
  Zr3      1.0000 0.63817  0.04144  0.64599  Biso   1.000  Zr
  Zr4      1.0000 0.13975  0.46187  0.39378  Biso   1.000  Zr
  Zr5      1.0000 0.13722  0.45275  0.89894  Biso   1.000  Zr
  Zr6      1.0000 0.63960  0.45907  0.39481  Biso   1.000  Zr
  Zr7      1.0000 0.63738  0.45613  0.89697  Biso   1.000  Zr
  Zr8      1.0000 0.35724  0.54892  0.10589  Biso   1.000  Zr
  Zr9      1.0000 0.36135  0.54276  0.60546  Biso   1.000  Zr
  Zr10     1.0000 0.86812  0.54174  0.10457  Biso   1.000  Zr
  Zr11     1.0000 0.86034  0.54282  0.60387  Biso   1.000  Zr
  Zr12     1.0000 0.36115  0.95973  0.35383  Biso   1.000  Zr
  Zr13     1.0000 0.35794  0.95539  0.85677  Biso   1.000  Zr
  Zr14     1.0000 0.86258  0.96114  0.35144  Biso   1.000  Zr
  Zr15     1.0000 0.86005  0.95680  0.85512  Biso   1.000  Zr
  O1       1.0000 0.03543  0.32542  0.07973  Biso   1.000  O
  O2       1.0000 0.03267  0.32762  0.57315  Biso   1.000  O
  O3       1.0000 0.53455  0.34270  0.08270  Biso   1.000  O
  O4       1.0000 0.53737  0.34330  0.58230  Biso   1.000  O
  O5       1.0000 0.03954  0.16963  0.31764  Biso   1.000  O
  O6       1.0000 0.03309  0.16625  0.82644  Biso   1.000  O
  O7       1.0000 0.53684  0.15854  0.33238  Biso   1.000  O
  O8       1.0000 0.53490  0.15380  0.83414  Biso   1.000  O
  O9       1.0000 0.46511  0.83893  0.16959  Biso   1.000  O
  O10      1.0000 0.46295  0.84192  0.66900  Biso   1.000  O
  O11      1.0000 0.97502  0.84417  0.16606  Biso   1.000  O
  O12      1.0000 0.96569  0.83153  0.67061  Biso   1.000  O
  O13      1.0000 0.46408  0.65855  0.41823  Biso   1.000  O
  O14      1.0000 0.45794  0.64893  0.91772  Biso   1.000  O
  O15      1.0000 0.96600  0.66848  0.41902  Biso   1.000  O
  O16      1.0000 0.96551  0.66066  0.92040  Biso   1.000  O
  O17      1.0000 0.27704  0.25742  0.24134  Biso   1.000  O
  O18      1.0000 0.27648  0.25666  0.74434  Biso   1.000  O
  O19      1.0000 0.77594  0.26005  0.24031  Biso   1.000  O
  O20      1.0000 0.77496  0.25699  0.74078  Biso   1.000  O
  O21      1.0000 0.27675  0.24398  0.49162  Biso   1.000  O
  O22      1.0000 0.27016  0.23136  0.00185  Biso   1.000  O
  O23      1.0000 0.77764  0.24194  0.48904  Biso   1.000  O
  O24      1.0000 0.77596  0.24386  0.99056  Biso   1.000  O
  O25      1.0000 0.21929  0.76395  0.01116  Biso   1.000  O
  O26      1.0000 0.22394  0.75723  0.50830  Biso   1.000  O
  O27      1.0000 0.72388  0.75763  0.00951  Biso   1.000  O
  O28      1.0000 0.72413  0.75830  0.50874  Biso   1.000  O
  O29      1.0000 0.22029  0.75093  0.25670  Biso   1.000  O
  O30      1.0000 0.22301  0.74031  0.75937  Biso   1.000  O
  O31      1.0000 0.73059  0.74507  0.25806  Biso   1.000  O
  O32      1.0000 0.72301  0.74161  0.75959  Biso   1.000  O
