data_image0
_cell_length_a       10.1703
_cell_length_b       10.3375
_cell_length_c       10.476
_cell_angle_alpha    89.8894
_cell_angle_beta     80.2716
_cell_angle_gamma    89.9994

_symmetry_space_group_name_H-M    "P 1"
_symmetry_int_tables_number       1

loop_
  _symmetry_equiv_pos_as_xyz
  'x, y, z'

loop_
  _atom_site_label
  _atom_site_occupancy
  _atom_site_fract_x
  _atom_site_fract_y
  _atom_site_fract_z
  _atom_site_thermal_displace_type
  _atom_site_B_iso_or_equiv
  _atom_site_type_symbol
  Ru1      1.0000 0.14095  0.02169  0.15149  Biso   1.000  Ru
  Zr1      1.0000 0.13887  0.02108  0.64535  Biso   1.000  Zr
  Zr2      1.0000 0.13919  0.52175  0.14555  Biso   1.000  Zr
  Zr3      1.0000 0.13880  0.52113  0.64579  Biso   1.000  Zr
  Zr4      1.0000 0.63868  0.02192  0.14502  Biso   1.000  Zr
  Zr5      1.0000 0.63802  0.02081  0.64553  Biso   1.000  Zr
  Zr6      1.0000 0.63952  0.52201  0.14494  Biso   1.000  Zr
  Zr7      1.0000 0.63895  0.52125  0.64587  Biso   1.000  Zr
  Zr8      1.0000 0.14009  0.22978  0.39427  Biso   1.000  Zr
  Zr9      1.0000 0.13697  0.22534  0.89907  Biso   1.000  Zr
  Zr10     1.0000 0.13839  0.72963  0.39482  Biso   1.000  Zr
  Zr11     1.0000 0.13875  0.72954  0.89548  Biso   1.000  Zr
  Zr12     1.0000 0.63854  0.22890  0.39517  Biso   1.000  Zr
  Zr13     1.0000 0.63826  0.22871  0.89572  Biso   1.000  Zr
  Zr14     1.0000 0.63997  0.72935  0.39508  Biso   1.000  Zr
  Zr15     1.0000 0.63804  0.72806  0.89663  Biso   1.000  Zr
  Zr16     1.0000 0.36012  0.27114  0.10608  Biso   1.000  Zr
  Zr17     1.0000 0.36080  0.27150  0.60599  Biso   1.000  Zr
  Zr18     1.0000 0.35844  0.77478  0.10448  Biso   1.000  Zr
  Zr19     1.0000 0.36161  0.77113  0.60419  Biso   1.000  Zr
  Zr20     1.0000 0.86449  0.26889  0.10530  Biso   1.000  Zr
  Zr21     1.0000 0.86084  0.27114  0.60396  Biso   1.000  Zr
  Zr22     1.0000 0.86465  0.77356  0.10373  Biso   1.000  Zr
  Zr23     1.0000 0.86064  0.77157  0.60456  Biso   1.000  Zr
  Zr24     1.0000 0.36209  0.47978  0.35485  Biso   1.000  Zr
  Zr25     1.0000 0.35987  0.47829  0.85507  Biso   1.000  Zr
  Zr26     1.0000 0.36045  0.97876  0.35380  Biso   1.000  Zr
  Zr27     1.0000 0.35919  0.97805  0.85626  Biso   1.000  Zr
  Zr28     1.0000 0.86092  0.47901  0.35400  Biso   1.000  Zr
  Zr29     1.0000 0.86103  0.47824  0.85547  Biso   1.000  Zr
  Zr30     1.0000 0.86270  0.98017  0.35201  Biso   1.000  Zr
  Zr31     1.0000 0.86014  0.97888  0.85425  Biso   1.000  Zr
  O1       1.0000 0.03558  0.16422  0.08058  Biso   1.000  O
  O2       1.0000 0.03362  0.16495  0.57459  Biso   1.000  O
  O3       1.0000 0.03567  0.66846  0.07975  Biso   1.000  O
  O4       1.0000 0.03497  0.66882  0.57945  Biso   1.000  O
  O5       1.0000 0.53577  0.17092  0.08212  Biso   1.000  O
  O6       1.0000 0.53645  0.17084  0.58191  Biso   1.000  O
  O7       1.0000 0.53468  0.67036  0.08135  Biso   1.000  O
  O8       1.0000 0.53670  0.67056  0.58111  Biso   1.000  O
  O9       1.0000 0.03983  0.08353  0.31771  Biso   1.000  O
  O10      1.0000 0.03355  0.08228  0.82679  Biso   1.000  O
  O11      1.0000 0.03553  0.58126  0.33033  Biso   1.000  O
  O12      1.0000 0.03537  0.58066  0.83044  Biso   1.000  O
  O13      1.0000 0.53554  0.08000  0.33144  Biso   1.000  O
  O14      1.0000 0.53475  0.07888  0.83276  Biso   1.000  O
  O15      1.0000 0.53714  0.57964  0.33165  Biso   1.000  O
  O16      1.0000 0.53582  0.57851  0.83202  Biso   1.000  O
  O17      1.0000 0.46404  0.42054  0.16885  Biso   1.000  O
  O18      1.0000 0.46370  0.42062  0.66904  Biso   1.000  O
  O19      1.0000 0.46541  0.91888  0.17014  Biso   1.000  O
  O20      1.0000 0.46346  0.92002  0.66935  Biso   1.000  O
  O21      1.0000 0.96490  0.41996  0.16952  Biso   1.000  O
  O22      1.0000 0.96504  0.41729  0.67034  Biso   1.000  O
  O23      1.0000 0.97410  0.92186  0.16543  Biso   1.000  O
  O24      1.0000 0.96470  0.91846  0.66932  Biso   1.000  O
  O25      1.0000 0.46363  0.33000  0.41948  Biso   1.000  O
  O26      1.0000 0.46079  0.32639  0.91860  Biso   1.000  O
  O27      1.0000 0.46469  0.82951  0.41818  Biso   1.000  O
  O28      1.0000 0.46186  0.82886  0.91871  Biso   1.000  O
  O29      1.0000 0.96475  0.33065  0.41877  Biso   1.000  O
  O30      1.0000 0.96550  0.32975  0.92093  Biso   1.000  O
  O31      1.0000 0.96533  0.83348  0.41917  Biso   1.000  O
  O32      1.0000 0.96400  0.83057  0.91855  Biso   1.000  O
  O33      1.0000 0.27674  0.12648  0.24076  Biso   1.000  O
  O34      1.0000 0.27627  0.12846  0.74425  Biso   1.000  O
  O35      1.0000 0.27607  0.63142  0.24123  Biso   1.000  O
  O36      1.0000 0.27616  0.62877  0.74076  Biso   1.000  O
  O37      1.0000 0.77541  0.12878  0.24068  Biso   1.000  O
  O38      1.0000 0.77493  0.12879  0.74015  Biso   1.000  O
  O39      1.0000 0.77662  0.63034  0.24031  Biso   1.000  O
  O40      1.0000 0.77603  0.62867  0.74125  Biso   1.000  O
  O41      1.0000 0.27670  0.12167  0.49145  Biso   1.000  O
  O42      1.0000 0.27015  0.11477  0.00184  Biso   1.000  O
  O43      1.0000 0.27604  0.62129  0.49078  Biso   1.000  O
  O44      1.0000 0.27587  0.62179  0.99079  Biso   1.000  O
  O45      1.0000 0.77720  0.12062  0.48909  Biso   1.000  O
  O46      1.0000 0.77515  0.12117  0.99011  Biso   1.000  O
  O47      1.0000 0.77648  0.62131  0.49063  Biso   1.000  O
  O48      1.0000 0.77685  0.62188  0.99110  Biso   1.000  O
  O49      1.0000 0.22359  0.37836  0.01050  Biso   1.000  O
  O50      1.0000 0.22366  0.37861  0.50952  Biso   1.000  O
  O51      1.0000 0.21971  0.88213  0.00998  Biso   1.000  O
  O52      1.0000 0.22421  0.87883  0.50816  Biso   1.000  O
  O53      1.0000 0.72437  0.37886  0.00934  Biso   1.000  O
  O54      1.0000 0.72410  0.37883  0.50949  Biso   1.000  O
  O55      1.0000 0.72353  0.87905  0.00954  Biso   1.000  O
  O56      1.0000 0.72405  0.87925  0.50869  Biso   1.000  O
  O57      1.0000 0.22477  0.37165  0.25978  Biso   1.000  O
  O58      1.0000 0.22334  0.37025  0.76019  Biso   1.000  O
  O59      1.0000 0.22014  0.87492  0.25629  Biso   1.000  O
  O60      1.0000 0.22369  0.87089  0.75854  Biso   1.000  O
  O61      1.0000 0.72449  0.37090  0.25930  Biso   1.000  O
  O62      1.0000 0.72372  0.37102  0.75959  Biso   1.000  O
  O63      1.0000 0.72985  0.87286  0.25834  Biso   1.000  O
  O64      1.0000 0.72327  0.87084  0.75939  Biso   1.000  O
