data_image0
_cell_length_a       10.205
_cell_length_b       5.17595
_cell_length_c       10.5337
_cell_angle_alpha    90.0165
_cell_angle_beta     80.5203
_cell_angle_gamma    89.8451

_symmetry_space_group_name_H-M    "P 1"
_symmetry_int_tables_number       1

loop_
  _symmetry_equiv_pos_as_xyz
  'x, y, z'

loop_
  _atom_site_label
  _atom_site_occupancy
  _atom_site_fract_x
  _atom_site_fract_y
  _atom_site_fract_z
  _atom_site_thermal_displace_type
  _atom_site_B_iso_or_equiv
  _atom_site_type_symbol
  Sb1      1.0000 0.13036  0.03756  0.15059  Biso   1.000  Sb
  Zr1      1.0000 0.13931  0.04230  0.64490  Biso   1.000  Zr
  Zr2      1.0000 0.63759  0.04130  0.14506  Biso   1.000  Zr
  Zr3      1.0000 0.63873  0.04327  0.64658  Biso   1.000  Zr
  Zr4      1.0000 0.13887  0.45837  0.39644  Biso   1.000  Zr
  Zr5      1.0000 0.14107  0.45779  0.89327  Biso   1.000  Zr
  Zr6      1.0000 0.63752  0.45565  0.39581  Biso   1.000  Zr
  Zr7      1.0000 0.63929  0.45854  0.89520  Biso   1.000  Zr
  Zr8      1.0000 0.36110  0.54164  0.10314  Biso   1.000  Zr
  Zr9      1.0000 0.36172  0.54341  0.60434  Biso   1.000  Zr
  Zr10     1.0000 0.85923  0.53752  0.10407  Biso   1.000  Zr
  Zr11     1.0000 0.86150  0.54286  0.60540  Biso   1.000  Zr
  Zr12     1.0000 0.36152  0.95692  0.35407  Biso   1.000  Zr
  Zr13     1.0000 0.36225  0.95966  0.85417  Biso   1.000  Zr
  Zr14     1.0000 0.85594  0.95523  0.35776  Biso   1.000  Zr
  Zr15     1.0000 0.86312  0.95659  0.85498  Biso   1.000  Zr
  O1       1.0000 0.03588  0.33688  0.07780  Biso   1.000  O
  O2       1.0000 0.03459  0.33431  0.57847  Biso   1.000  O
  O3       1.0000 0.53615  0.33671  0.07894  Biso   1.000  O
  O4       1.0000 0.53499  0.33535  0.57910  Biso   1.000  O
  O5       1.0000 0.03253  0.16418  0.32930  Biso   1.000  O
  O6       1.0000 0.03601  0.16316  0.82836  Biso   1.000  O
  O7       1.0000 0.53509  0.16210  0.32952  Biso   1.000  O
  O8       1.0000 0.53589  0.16663  0.82843  Biso   1.000  O
  O9       1.0000 0.46465  0.83638  0.17122  Biso   1.000  O
  O10      1.0000 0.46606  0.83580  0.67088  Biso   1.000  O
  O11      1.0000 0.95838  0.83836  0.17211  Biso   1.000  O
  O12      1.0000 0.96609  0.83368  0.67154  Biso   1.000  O
  O13      1.0000 0.46540  0.66399  0.42134  Biso   1.000  O
  O14      1.0000 0.46887  0.67071  0.92134  Biso   1.000  O
  O15      1.0000 0.96448  0.66621  0.42158  Biso   1.000  O
  O16      1.0000 0.96591  0.66361  0.92281  Biso   1.000  O
  O17      1.0000 0.27571  0.26138  0.24167  Biso   1.000  O
  O18      1.0000 0.27600  0.25777  0.73799  Biso   1.000  O
  O19      1.0000 0.77447  0.25575  0.24076  Biso   1.000  O
  O20      1.0000 0.77674  0.25795  0.74038  Biso   1.000  O
  O21      1.0000 0.27589  0.24209  0.49007  Biso   1.000  O
  O22      1.0000 0.28076  0.25255  0.98441  Biso   1.000  O
  O23      1.0000 0.77531  0.24193  0.49105  Biso   1.000  O
  O24      1.0000 0.77626  0.24152  0.99036  Biso   1.000  O
  O25      1.0000 0.22712  0.75589  0.00601  Biso   1.000  O
  O26      1.0000 0.22438  0.75719  0.50900  Biso   1.000  O
  O27      1.0000 0.72508  0.75689  0.01024  Biso   1.000  O
  O28      1.0000 0.72319  0.75620  0.51089  Biso   1.000  O
  O29      1.0000 0.22409  0.73967  0.25968  Biso   1.000  O
  O30      1.0000 0.22546  0.74318  0.75818  Biso   1.000  O
  O31      1.0000 0.72369  0.73999  0.26062  Biso   1.000  O
  O32      1.0000 0.72576  0.74338  0.76015  Biso   1.000  O
