data_image0
_cell_length_a       10.2086
_cell_length_b       10.3481
_cell_length_c       5.26761
_cell_angle_alpha    90.0091
_cell_angle_beta     80.478
_cell_angle_gamma    89.8752

_symmetry_space_group_name_H-M    "P 1"
_symmetry_int_tables_number       1

loop_
  _symmetry_equiv_pos_as_xyz
  'x, y, z'

loop_
  _atom_site_label
  _atom_site_occupancy
  _atom_site_fract_x
  _atom_site_fract_y
  _atom_site_fract_z
  _atom_site_thermal_displace_type
  _atom_site_B_iso_or_equiv
  _atom_site_type_symbol
  Sb1      1.0000 0.13058  0.01837  0.30099  Biso   1.000  Sb
  Zr1      1.0000 0.13910  0.52171  0.29048  Biso   1.000  Zr
  Zr2      1.0000 0.63815  0.02175  0.29260  Biso   1.000  Zr
  Zr3      1.0000 0.63845  0.52043  0.29098  Biso   1.000  Zr
  Zr4      1.0000 0.14168  0.22960  0.78946  Biso   1.000  Zr
  Zr5      1.0000 0.13823  0.72859  0.79102  Biso   1.000  Zr
  Zr6      1.0000 0.63852  0.22917  0.79144  Biso   1.000  Zr
  Zr7      1.0000 0.63815  0.72769  0.79055  Biso   1.000  Zr
  Zr8      1.0000 0.36111  0.27124  0.20740  Biso   1.000  Zr
  Zr9      1.0000 0.36249  0.77173  0.20755  Biso   1.000  Zr
  Zr10     1.0000 0.86114  0.27132  0.21031  Biso   1.000  Zr
  Zr11     1.0000 0.85964  0.76889  0.20816  Biso   1.000  Zr
  Zr12     1.0000 0.36132  0.47911  0.70808  Biso   1.000  Zr
  Zr13     1.0000 0.36168  0.97970  0.70877  Biso   1.000  Zr
  Zr14     1.0000 0.86233  0.47766  0.70944  Biso   1.000  Zr
  Zr15     1.0000 0.85655  0.97815  0.71584  Biso   1.000  Zr
  O1       1.0000 0.03563  0.16706  0.15269  Biso   1.000  O
  O2       1.0000 0.03478  0.66866  0.15894  Biso   1.000  O
  O3       1.0000 0.53550  0.16867  0.15919  Biso   1.000  O
  O4       1.0000 0.53537  0.66725  0.15777  Biso   1.000  O
  O5       1.0000 0.03324  0.08227  0.65699  Biso   1.000  O
  O6       1.0000 0.03488  0.58197  0.65760  Biso   1.000  O
  O7       1.0000 0.53709  0.08128  0.65956  Biso   1.000  O
  O8       1.0000 0.53469  0.58206  0.65718  Biso   1.000  O
  O9       1.0000 0.46540  0.41776  0.34174  Biso   1.000  O
  O10      1.0000 0.46541  0.91807  0.34236  Biso   1.000  O
  O11      1.0000 0.96576  0.41718  0.34284  Biso   1.000  O
  O12      1.0000 0.95898  0.91847  0.34447  Biso   1.000  O
  O13      1.0000 0.46641  0.33359  0.84205  Biso   1.000  O
  O14      1.0000 0.46734  0.83281  0.84333  Biso   1.000  O
  O15      1.0000 0.96601  0.33258  0.84488  Biso   1.000  O
  O16      1.0000 0.96452  0.83295  0.84324  Biso   1.000  O
  O17      1.0000 0.27617  0.12986  0.48126  Biso   1.000  O
  O18      1.0000 0.27563  0.62900  0.47968  Biso   1.000  O
  O19      1.0000 0.77606  0.12896  0.48186  Biso   1.000  O
  O20      1.0000 0.77539  0.62786  0.48008  Biso   1.000  O
  O21      1.0000 0.28112  0.12585  0.96821  Biso   1.000  O
  O22      1.0000 0.27555  0.62125  0.98028  Biso   1.000  O
  O23      1.0000 0.77537  0.12116  0.98267  Biso   1.000  O
  O24      1.0000 0.77597  0.62064  0.98025  Biso   1.000  O
  O25      1.0000 0.22445  0.37976  0.01776  Biso   1.000  O
  O26      1.0000 0.22730  0.87750  0.01045  Biso   1.000  O
  O27      1.0000 0.72506  0.37833  0.02029  Biso   1.000  O
  O28      1.0000 0.72312  0.87815  0.02175  Biso   1.000  O
  O29      1.0000 0.22480  0.37213  0.51737  Biso   1.000  O
  O30      1.0000 0.22450  0.87022  0.51905  Biso   1.000  O
  O31      1.0000 0.72492  0.37114  0.52003  Biso   1.000  O
  O32      1.0000 0.72445  0.87043  0.52110  Biso   1.000  O
