data_image0
_cell_length_a       9.96648
_cell_length_b       10.3484
_cell_length_c       10.0045
_cell_angle_alpha    90.0218
_cell_angle_beta     90.0028
_cell_angle_gamma    90.023

_symmetry_space_group_name_H-M    "P 1"
_symmetry_int_tables_number       1

loop_
  _symmetry_equiv_pos_as_xyz
  'x, y, z'

loop_
  _atom_site_label
  _atom_site_occupancy
  _atom_site_fract_x
  _atom_site_fract_y
  _atom_site_fract_z
  _atom_site_thermal_displace_type
  _atom_site_B_iso_or_equiv
  _atom_site_type_symbol
  Sc1      1.0000 0.13419  0.01666  0.12417  Biso   1.000  Sc
  Hf1      1.0000 0.13419  0.23199  0.37445  Biso   1.000  Hf
  Hf2      1.0000 0.36410  0.26441  0.12650  Biso   1.000  Hf
  Hf3      1.0000 0.36564  0.48349  0.37585  Biso   1.000  Hf
  O1       1.0000 0.03400  0.18427  0.19700  Biso   1.000  O
  O2       1.0000 0.03546  0.06607  0.44643  Biso   1.000  O
  O3       1.0000 0.46399  0.43347  0.19478  Biso   1.000  O
  O4       1.0000 0.46383  0.31579  0.44453  Biso   1.000  O
  O5       1.0000 0.27268  0.12014  0.25085  Biso   1.000  O
  O6       1.0000 0.27014  0.13203  0.50047  Biso   1.000  O
  O7       1.0000 0.22963  0.38247  0.49969  Biso   1.000  O
  O8       1.0000 0.22860  0.36829  0.24965  Biso   1.000  O
  Hf4      1.0000 0.13429  0.01689  0.62684  Biso   1.000  Hf
  Hf5      1.0000 0.13447  0.23202  0.87726  Biso   1.000  Hf
  Hf6      1.0000 0.36527  0.26636  0.62603  Biso   1.000  Hf
  Hf7      1.0000 0.36570  0.48316  0.87620  Biso   1.000  Hf
  O9       1.0000 0.03657  0.18525  0.69371  Biso   1.000  O
  O10      1.0000 0.03548  0.06690  0.94019  Biso   1.000  O
  O11      1.0000 0.46385  0.43432  0.69438  Biso   1.000  O
  O12      1.0000 0.46409  0.31593  0.94395  Biso   1.000  O
  O13      1.0000 0.27110  0.11797  0.74979  Biso   1.000  O
  O14      1.0000 0.27210  0.13227  0.99880  Biso   1.000  O
  O15      1.0000 0.22945  0.38168  0.00006  Biso   1.000  O
  O16      1.0000 0.22926  0.36794  0.74993  Biso   1.000  O
  Hf8      1.0000 0.13467  0.51599  0.12599  Biso   1.000  Hf
  Hf9      1.0000 0.13513  0.73470  0.37569  Biso   1.000  Hf
  Hf10     1.0000 0.36434  0.76728  0.12618  Biso   1.000  Hf
  Hf11     1.0000 0.36350  0.98427  0.37421  Biso   1.000  Hf
  O17      1.0000 0.03618  0.68366  0.19446  Biso   1.000  O
  O18      1.0000 0.03618  0.56584  0.44464  Biso   1.000  O
  O19      1.0000 0.46459  0.93430  0.19416  Biso   1.000  O
  O20      1.0000 0.46443  0.81646  0.44549  Biso   1.000  O
  O21      1.0000 0.27034  0.61679  0.24970  Biso   1.000  O
  O22      1.0000 0.27085  0.63277  0.49972  Biso   1.000  O
  O23      1.0000 0.22904  0.88273  0.50062  Biso   1.000  O
  O24      1.0000 0.23253  0.86544  0.25190  Biso   1.000  O
  Hf12     1.0000 0.13435  0.51663  0.62608  Biso   1.000  Hf
  Hf13     1.0000 0.13516  0.73446  0.87718  Biso   1.000  Hf
  Hf14     1.0000 0.36617  0.76727  0.62623  Biso   1.000  Hf
  Hf15     1.0000 0.36386  0.98351  0.87825  Biso   1.000  Hf
  O25      1.0000 0.03641  0.68462  0.69441  Biso   1.000  O
  O26      1.0000 0.03631  0.56609  0.94451  Biso   1.000  O
  O27      1.0000 0.46387  0.93449  0.69516  Biso   1.000  O
  O28      1.0000 0.46503  0.81630  0.94495  Biso   1.000  O
  O29      1.0000 0.27088  0.61822  0.75001  Biso   1.000  O
  O30      1.0000 0.27119  0.63106  0.00002  Biso   1.000  O
  O31      1.0000 0.22985  0.88010  0.99984  Biso   1.000  O
  O32      1.0000 0.22924  0.86824  0.74995  Biso   1.000  O
  Hf16     1.0000 0.63401  0.01629  0.12524  Biso   1.000  Hf
  Hf17     1.0000 0.63382  0.23341  0.37537  Biso   1.000  Hf
  Hf18     1.0000 0.86656  0.26537  0.12606  Biso   1.000  Hf
  Hf19     1.0000 0.86592  0.48390  0.37598  Biso   1.000  Hf
  O33      1.0000 0.53680  0.18465  0.19324  Biso   1.000  O
  O34      1.0000 0.53548  0.06580  0.44364  Biso   1.000  O
  O35      1.0000 0.96378  0.43469  0.19434  Biso   1.000  O
  O36      1.0000 0.96400  0.31640  0.44436  Biso   1.000  O
  O37      1.0000 0.76974  0.11715  0.24920  Biso   1.000  O
  O38      1.0000 0.77013  0.13303  0.49887  Biso   1.000  O
  O39      1.0000 0.72920  0.38273  0.49939  Biso   1.000  O
  O40      1.0000 0.72988  0.36749  0.24953  Biso   1.000  O
  Hf20     1.0000 0.63366  0.01619  0.62494  Biso   1.000  Hf
  Hf21     1.0000 0.63396  0.23358  0.87558  Biso   1.000  Hf
  Hf22     1.0000 0.86602  0.26626  0.62522  Biso   1.000  Hf
  Hf23     1.0000 0.86577  0.48384  0.87623  Biso   1.000  Hf
  O41      1.0000 0.53632  0.18461  0.69355  Biso   1.000  O
  O42      1.0000 0.53632  0.06581  0.94377  Biso   1.000  O
  O43      1.0000 0.96375  0.43469  0.69434  Biso   1.000  O
  O44      1.0000 0.96434  0.31671  0.94507  Biso   1.000  O
  O45      1.0000 0.77048  0.11757  0.74882  Biso   1.000  O
  O46      1.0000 0.77072  0.13271  0.99905  Biso   1.000  O
  O47      1.0000 0.72912  0.38257  0.99928  Biso   1.000  O
  O48      1.0000 0.72965  0.36773  0.74938  Biso   1.000  O
  Hf24     1.0000 0.63399  0.51633  0.12595  Biso   1.000  Hf
  Hf25     1.0000 0.63375  0.73407  0.37571  Biso   1.000  Hf
  Hf26     1.0000 0.86665  0.76799  0.12605  Biso   1.000  Hf
  Hf27     1.0000 0.86745  0.98342  0.37398  Biso   1.000  Hf
  O49      1.0000 0.53539  0.68365  0.19488  Biso   1.000  O
  O50      1.0000 0.53589  0.56586  0.44465  Biso   1.000  O
  O51      1.0000 0.96378  0.93273  0.19574  Biso   1.000  O
  O52      1.0000 0.96422  0.81538  0.44467  Biso   1.000  O
  O53      1.0000 0.77063  0.61777  0.24952  Biso   1.000  O
  O54      1.0000 0.77025  0.63257  0.49955  Biso   1.000  O
  O55      1.0000 0.73020  0.88273  0.49883  Biso   1.000  O
  O56      1.0000 0.72811  0.86739  0.24910  Biso   1.000  O
  Hf28     1.0000 0.63416  0.51639  0.62596  Biso   1.000  Hf
  Hf29     1.0000 0.63456  0.73407  0.87598  Biso   1.000  Hf
  Hf30     1.0000 0.86599  0.76649  0.62577  Biso   1.000  Hf
  Hf31     1.0000 0.86665  0.98421  0.87558  Biso   1.000  Hf
  O57      1.0000 0.53622  0.68416  0.69447  Biso   1.000  O
  O58      1.0000 0.53619  0.56592  0.94422  Biso   1.000  O
  O59      1.0000 0.96353  0.93433  0.69369  Biso   1.000  O
  O60      1.0000 0.96325  0.81533  0.94330  Biso   1.000  O
  O61      1.0000 0.77077  0.61764  0.74948  Biso   1.000  O
  O62      1.0000 0.77053  0.63239  0.99956  Biso   1.000  O
  O63      1.0000 0.72977  0.88256  0.99932  Biso   1.000  O
  O64      1.0000 0.72906  0.86750  0.74887  Biso   1.000  O
