data_image0
_cell_length_a       10.0419
_cell_length_b       10.3263
_cell_length_c       5.26912
_cell_angle_alpha    89.3484
_cell_angle_beta     90.3125
_cell_angle_gamma    90.1156

_symmetry_space_group_name_H-M    "P 1"
_symmetry_int_tables_number       1

loop_
  _symmetry_equiv_pos_as_xyz
  'x, y, z'

loop_
  _atom_site_label
  _atom_site_occupancy
  _atom_site_fract_x
  _atom_site_fract_y
  _atom_site_fract_z
  _atom_site_thermal_displace_type
  _atom_site_B_iso_or_equiv
  _atom_site_type_symbol
  Hf1      1.0000 0.13931  0.01892  0.34579  Biso   1.000  Hf
  Hf2      1.0000 0.13121  0.22493  0.85396  Biso   1.000  Hf
  Hf3      1.0000 0.34045  0.26947  0.36404  Biso   1.000  Hf
  Hf4      1.0000 0.36175  0.48270  0.84131  Biso   1.000  Hf
  Hf5      1.0000 0.64835  0.02124  0.14135  Biso   1.000  Hf
  Hf6      1.0000 0.63390  0.22660  0.64297  Biso   1.000  Hf
  Hf7      1.0000 0.85353  0.26879  0.16714  Biso   1.000  Hf
  Hf8      1.0000 0.86511  0.47999  0.66845  Biso   1.000  Hf
  O1       1.0000 0.03306  0.16392  0.17697  Biso   1.000  O
  O2       1.0000 0.03582  0.08215  0.66946  Biso   1.000  O
  O3       1.0000 0.48688  0.39800  0.15689  Biso   1.000  O
  O4       1.0000 0.46297  0.34315  0.64709  Biso   1.000  O
  O5       1.0000 0.27333  0.12385  0.59707  Biso   1.000  O
  O6       1.0000 0.27419  0.12396  0.09066  Biso   1.000  O
  O7       1.0000 0.21574  0.37365  0.60492  Biso   1.000  O
  O8       1.0000 0.22994  0.37917  0.10010  Biso   1.000  O
  O9       1.0000 0.51169  0.16252  0.32773  Biso   1.000  O
  O10      1.0000 0.53931  0.06214  0.79435  Biso   1.000  O
  O11      1.0000 0.96607  0.41505  0.34513  Biso   1.000  O
  O12      1.0000 0.96458  0.33453  0.84656  Biso   1.000  O
  O13      1.0000 0.79131  0.11780  0.90029  Biso   1.000  O
  O14      1.0000 0.77962  0.11885  0.41531  Biso   1.000  O
  O15      1.0000 0.72190  0.38416  0.92074  Biso   1.000  O
  O16      1.0000 0.72393  0.39135  0.43224  Biso   1.000  O
  Hf9      1.0000 0.13527  0.52161  0.34788  Biso   1.000  Hf
  Hf10     1.0000 0.14166  0.72929  0.84693  Biso   1.000  Hf
  Hf11     1.0000 0.36323  0.77206  0.34589  Biso   1.000  Hf
  Hf12     1.0000 0.36455  0.97596  0.84606  Biso   1.000  Hf
  Hf13     1.0000 0.65081  0.53588  0.16727  Biso   1.000  Hf
  Hf14     1.0000 0.64019  0.73128  0.65990  Biso   1.000  Hf
  Hf15     1.0000 0.86681  0.77480  0.16069  Biso   1.000  Hf
  Hf16     1.0000 0.86213  0.97796  0.65814  Biso   1.000  Hf
  O17      1.0000 0.03532  0.66469  0.16750  Biso   1.000  O
  O18      1.0000 0.03569  0.58739  0.66931  Biso   1.000  O
  O19      1.0000 0.47088  0.91521  0.16890  Biso   1.000  O
  O20      1.0000 0.46481  0.82692  0.67224  Biso   1.000  O
  O21      1.0000 0.27827  0.62122  0.59130  Biso   1.000  O
  O22      1.0000 0.27980  0.62429  0.09366  Biso   1.000  O
  O23      1.0000 0.22669  0.87277  0.59319  Biso   1.000  O
  O24      1.0000 0.22547  0.87334  0.09606  Biso   1.000  O
  O25      1.0000 0.53326  0.66238  0.34373  Biso   1.000  O
  O26      1.0000 0.53397  0.58773  0.84894  Biso   1.000  O
  O27      1.0000 0.97092  0.91370  0.33688  Biso   1.000  O
  O28      1.0000 0.97183  0.83476  0.83802  Biso   1.000  O
  O29      1.0000 0.77930  0.62946  0.91370  Biso   1.000  O
  O30      1.0000 0.78265  0.63346  0.41608  Biso   1.000  O
  O31      1.0000 0.72686  0.87287  0.91262  Biso   1.000  O
  O32      1.0000 0.72517  0.87563  0.40819  Biso   1.000  O
  Si1      1.0000 0.58937  0.26876  0.09696  Biso   1.000  Si
