data_image0
_cell_length_a       10.0956
_cell_length_b       10.3069
_cell_length_c       10.5014
_cell_angle_alpha    89.9689
_cell_angle_beta     90.0888
_cell_angle_gamma    89.9485

_symmetry_space_group_name_H-M    "P 1"
_symmetry_int_tables_number       1

loop_
  _symmetry_equiv_pos_as_xyz
  'x, y, z'

loop_
  _atom_site_label
  _atom_site_occupancy
  _atom_site_fract_x
  _atom_site_fract_y
  _atom_site_fract_z
  _atom_site_thermal_displace_type
  _atom_site_B_iso_or_equiv
  _atom_site_type_symbol
  Sn1      1.0000 0.13602  0.01802  0.17327  Biso   1.000  Sn
  Zr1      1.0000 0.13875  0.02105  0.67037  Biso   1.000  Zr
  Zr2      1.0000 0.13884  0.52131  0.17079  Biso   1.000  Zr
  Zr3      1.0000 0.13899  0.52099  0.67105  Biso   1.000  Zr
  Zr4      1.0000 0.13849  0.22934  0.42064  Biso   1.000  Zr
  Zr5      1.0000 0.14004  0.22815  0.92067  Biso   1.000  Zr
  Zr6      1.0000 0.13780  0.72925  0.42084  Biso   1.000  Zr
  Zr7      1.0000 0.13866  0.72950  0.92070  Biso   1.000  Zr
  Zr8      1.0000 0.36060  0.27078  0.17039  Biso   1.000  Zr
  Zr9      1.0000 0.36153  0.27146  0.67077  Biso   1.000  Zr
  Zr10     1.0000 0.36168  0.77139  0.17025  Biso   1.000  Zr
  Zr11     1.0000 0.36138  0.77098  0.67071  Biso   1.000  Zr
  Zr12     1.0000 0.36098  0.47926  0.42088  Biso   1.000  Zr
  Zr13     1.0000 0.36161  0.47921  0.92090  Biso   1.000  Zr
  Zr14     1.0000 0.36164  0.97968  0.42087  Biso   1.000  Zr
  Zr15     1.0000 0.36157  0.97955  0.92040  Biso   1.000  Zr
  Zr16     1.0000 0.63885  0.02118  0.07891  Biso   1.000  Zr
  Zr17     1.0000 0.63853  0.02116  0.57978  Biso   1.000  Zr
  Zr18     1.0000 0.63918  0.52057  0.07893  Biso   1.000  Zr
  Zr19     1.0000 0.63890  0.52101  0.57918  Biso   1.000  Zr
  Zr20     1.0000 0.63832  0.22946  0.32888  Biso   1.000  Zr
  Zr21     1.0000 0.63924  0.22935  0.82933  Biso   1.000  Zr
  Zr22     1.0000 0.63847  0.72860  0.32910  Biso   1.000  Zr
  Zr23     1.0000 0.63907  0.72895  0.82915  Biso   1.000  Zr
  Zr24     1.0000 0.86294  0.26957  0.08002  Biso   1.000  Zr
  Zr25     1.0000 0.86133  0.27120  0.57931  Biso   1.000  Zr
  Zr26     1.0000 0.86140  0.77084  0.07894  Biso   1.000  Zr
  Zr27     1.0000 0.86105  0.77089  0.57939  Biso   1.000  Zr
  Zr28     1.0000 0.86124  0.47903  0.32901  Biso   1.000  Zr
  Zr29     1.0000 0.86199  0.47843  0.82972  Biso   1.000  Zr
  Zr30     1.0000 0.85886  0.97937  0.33042  Biso   1.000  Zr
  Zr31     1.0000 0.86178  0.97919  0.82927  Biso   1.000  Zr
  O1       1.0000 0.03526  0.16439  0.08388  Biso   1.000  O
  O2       1.0000 0.03313  0.16626  0.58375  Biso   1.000  O
  O3       1.0000 0.03325  0.66596  0.08376  Biso   1.000  O
  O4       1.0000 0.03297  0.66595  0.58389  Biso   1.000  O
  O5       1.0000 0.03187  0.08367  0.33504  Biso   1.000  O
  O6       1.0000 0.03352  0.08399  0.83301  Biso   1.000  O
  O7       1.0000 0.03298  0.58394  0.33391  Biso   1.000  O
  O8       1.0000 0.03345  0.58375  0.83436  Biso   1.000  O
  O9       1.0000 0.46722  0.41612  0.08422  Biso   1.000  O
  O10      1.0000 0.46694  0.41656  0.58415  Biso   1.000  O
  O11      1.0000 0.46737  0.91566  0.08348  Biso   1.000  O
  O12      1.0000 0.46668  0.91691  0.58502  Biso   1.000  O
  O13      1.0000 0.46614  0.33323  0.33444  Biso   1.000  O
  O14      1.0000 0.46740  0.33424  0.83406  Biso   1.000  O
  O15      1.0000 0.46542  0.83297  0.33476  Biso   1.000  O
  O16      1.0000 0.46690  0.83338  0.83436  Biso   1.000  O
  O17      1.0000 0.27513  0.12333  0.29368  Biso   1.000  O
  O18      1.0000 0.27636  0.12422  0.79394  Biso   1.000  O
  O19      1.0000 0.27531  0.62511  0.29454  Biso   1.000  O
  O20      1.0000 0.27578  0.62438  0.79441  Biso   1.000  O
  O21      1.0000 0.27651  0.12578  0.04404  Biso   1.000  O
  O22      1.0000 0.27599  0.12624  0.54405  Biso   1.000  O
  O23      1.0000 0.27619  0.62707  0.04416  Biso   1.000  O
  O24      1.0000 0.27549  0.62587  0.54448  Biso   1.000  O
  O25      1.0000 0.22423  0.37438  0.29458  Biso   1.000  O
  O26      1.0000 0.22493  0.37434  0.79451  Biso   1.000  O
  O27      1.0000 0.22309  0.87559  0.29244  Biso   1.000  O
  O28      1.0000 0.22454  0.87423  0.79425  Biso   1.000  O
  O29      1.0000 0.22468  0.37655  0.04429  Biso   1.000  O
  O30      1.0000 0.22427  0.37609  0.54458  Biso   1.000  O
  O31      1.0000 0.22250  0.87795  0.04487  Biso   1.000  O
  O32      1.0000 0.22447  0.87575  0.54369  Biso   1.000  O
  O33      1.0000 0.53319  0.16637  0.16561  Biso   1.000  O
  O34      1.0000 0.53342  0.16672  0.66578  Biso   1.000  O
  O35      1.0000 0.53326  0.66600  0.16585  Biso   1.000  O
  O36      1.0000 0.53343  0.66646  0.66553  Biso   1.000  O
  O37      1.0000 0.53339  0.08356  0.41574  Biso   1.000  O
  O38      1.0000 0.53316  0.08428  0.91570  Biso   1.000  O
  O39      1.0000 0.53302  0.58351  0.41561  Biso   1.000  O
  O40      1.0000 0.53349  0.58375  0.91579  Biso   1.000  O
  O41      1.0000 0.96732  0.41592  0.16618  Biso   1.000  O
  O42      1.0000 0.96737  0.41564  0.66670  Biso   1.000  O
  O43      1.0000 0.96403  0.91662  0.16514  Biso   1.000  O
  O44      1.0000 0.96705  0.91608  0.66557  Biso   1.000  O
  O45      1.0000 0.96671  0.33433  0.41640  Biso   1.000  O
  O46      1.0000 0.96770  0.33275  0.91718  Biso   1.000  O
  O47      1.0000 0.96598  0.83372  0.41581  Biso   1.000  O
  O48      1.0000 0.96671  0.83345  0.91539  Biso   1.000  O
  O49      1.0000 0.77584  0.12404  0.95559  Biso   1.000  O
  O50      1.0000 0.77549  0.12433  0.45582  Biso   1.000  O
  O51      1.0000 0.77603  0.62379  0.95530  Biso   1.000  O
  O52      1.0000 0.77557  0.62422  0.45538  Biso   1.000  O
  O53      1.0000 0.77520  0.12570  0.20574  Biso   1.000  O
  O54      1.0000 0.77591  0.12595  0.70561  Biso   1.000  O
  O55      1.0000 0.77559  0.62564  0.20538  Biso   1.000  O
  O56      1.0000 0.77607  0.62553  0.70557  Biso   1.000  O
  O57      1.0000 0.72528  0.37376  0.95592  Biso   1.000  O
  O58      1.0000 0.72414  0.37432  0.45554  Biso   1.000  O
  O59      1.0000 0.72426  0.87416  0.95552  Biso   1.000  O
  O60      1.0000 0.72317  0.87393  0.45611  Biso   1.000  O
  O61      1.0000 0.72489  0.37535  0.20549  Biso   1.000  O
  O62      1.0000 0.72465  0.37591  0.70570  Biso   1.000  O
  O63      1.0000 0.72439  0.87571  0.20612  Biso   1.000  O
  O64      1.0000 0.72459  0.87592  0.70578  Biso   1.000  O
