data_image0
_cell_length_a       5.12939
_cell_length_b       10.3426
_cell_length_c       10.2035
_cell_angle_alpha    88.939
_cell_angle_beta     89.4559
_cell_angle_gamma    96.119

_symmetry_space_group_name_H-M    "P 1"
_symmetry_int_tables_number       1

loop_
  _symmetry_equiv_pos_as_xyz
  'x, y, z'

loop_
  _atom_site_label
  _atom_site_occupancy
  _atom_site_fract_x
  _atom_site_fract_y
  _atom_site_fract_z
  _atom_site_thermal_displace_type
  _atom_site_B_iso_or_equiv
  _atom_site_type_symbol
  Hf1      1.0000 0.30921  0.96838  0.15460  Biso   1.000  Hf
  Hf2      1.0000 0.18221  0.25772  0.40074  Biso   1.000  Hf
  Hf3      1.0000 0.63139  0.27279  0.10430  Biso   1.000  Hf
  Hf4      1.0000 0.73829  0.01693  0.39183  Biso   1.000  Hf
  O1       1.0000 0.86803  0.21649  0.93519  Biso   1.000  O
  O2       1.0000 0.10279  0.07582  0.29764  Biso   1.000  O
  O3       1.0000 0.86299  0.31222  0.28274  Biso   1.000  O
  O4       1.0000 0.88709  0.44145  0.05089  Biso   1.000  O
  O5       1.0000 0.60627  0.10281  0.21870  Biso   1.000  O
  O6       1.0000 0.41128  0.11713  0.98992  Biso   1.000  O
  O7       1.0000 0.38305  0.37997  0.98386  Biso   1.000  O
  O8       1.0000 0.39789  0.37533  0.23920  Biso   1.000  O
  Hf5      1.0000 0.27406  0.98208  0.63574  Biso   1.000  Hf
  Hf6      1.0000 0.24568  0.23601  0.83520  Biso   1.000  Hf
  Hf7      1.0000 0.70903  0.27045  0.60701  Biso   1.000  Hf
  Hf8      1.0000 0.71771  0.02803  0.89178  Biso   1.000  Hf
  O9       1.0000 0.94290  0.14977  0.52253  Biso   1.000  O
  O10      1.0000 0.04596  0.06544  0.77157  Biso   1.000  O
  O11      1.0000 0.03747  0.33624  0.71254  Biso   1.000  O
  O12      1.0000 0.97670  0.41002  0.49275  Biso   1.000  O
  O13      1.0000 0.52678  0.13498  0.73595  Biso   1.000  O
  O14      1.0000 0.45759  0.12291  0.48738  Biso   1.000  O
  O15      1.0000 0.46677  0.37334  0.49654  Biso   1.000  O
  O16      1.0000 0.52845  0.38968  0.74275  Biso   1.000  O
  Hf9      1.0000 0.24955  0.53032  0.10857  Biso   1.000  Hf
  Hf10     1.0000 0.31158  0.72335  0.36977  Biso   1.000  Hf
  Hf11     1.0000 0.77721  0.77445  0.11117  Biso   1.000  Hf
  Hf12     1.0000 0.72158  0.47887  0.34790  Biso   1.000  Hf
  O17      1.0000 0.06385  0.68377  0.01704  Biso   1.000  O
  O18      1.0000 0.06684  0.57196  0.28081  Biso   1.000  O
  O19      1.0000 0.07887  0.81650  0.24282  Biso   1.000  O
  O20      1.0000 0.95970  0.95491  0.03869  Biso   1.000  O
  O21      1.0000 0.55300  0.62737  0.23274  Biso   1.000  O
  O22      1.0000 0.54434  0.63027  0.98659  Biso   1.000  O
  O23      1.0000 0.48888  0.86942  0.00297  Biso   1.000  O
  O24      1.0000 0.57650  0.86696  0.26431  Biso   1.000  O
  Hf13     1.0000 0.25578  0.50429  0.62394  Biso   1.000  Hf
  Hf14     1.0000 0.31065  0.74074  0.85508  Biso   1.000  Hf
  Hf15     1.0000 0.77748  0.76010  0.60307  Biso   1.000  Hf
  Hf16     1.0000 0.72995  0.50299  0.87914  Biso   1.000  Hf
  O25      1.0000 0.08463  0.65894  0.53522  Biso   1.000  O
  O26      1.0000 0.07387  0.56803  0.79175  Biso   1.000  O
  O27      1.0000 0.05771  0.82025  0.73845  Biso   1.000  O
  O28      1.0000 0.98881  0.91032  0.50527  Biso   1.000  O
  O29      1.0000 0.55009  0.63795  0.73809  Biso   1.000  O
  O30      1.0000 0.56431  0.61294  0.48404  Biso   1.000  O
  O31      1.0000 0.49429  0.86403  0.50587  Biso   1.000  O
  O32      1.0000 0.55201  0.89163  0.75251  Biso   1.000  O
  Sr1      1.0000 0.10522  0.21602  0.12130  Biso   1.000  Sr
