data_image0
_cell_length_a       10.0497
_cell_length_b       10.2686
_cell_length_c       10.5472
_cell_angle_alpha    90.0457
_cell_angle_beta     90.7247
_cell_angle_gamma    90.1542

_symmetry_space_group_name_H-M    "P 1"
_symmetry_int_tables_number       1

loop_
  _symmetry_equiv_pos_as_xyz
  'x, y, z'

loop_
  _atom_site_label
  _atom_site_occupancy
  _atom_site_fract_x
  _atom_site_fract_y
  _atom_site_fract_z
  _atom_site_thermal_displace_type
  _atom_site_B_iso_or_equiv
  _atom_site_type_symbol
  Hf1      1.0000 0.13987  0.02062  0.17296  Biso   1.000  Hf
  Hf2      1.0000 0.13798  0.22697  0.42696  Biso   1.000  Hf
  Hf3      1.0000 0.34727  0.27391  0.19157  Biso   1.000  Hf
  Hf4      1.0000 0.36157  0.47941  0.42497  Biso   1.000  Hf
  Hf5      1.0000 0.64034  0.00646  0.08108  Biso   1.000  Hf
  Hf6      1.0000 0.63665  0.22197  0.33017  Biso   1.000  Hf
  Hf7      1.0000 0.86868  0.27114  0.07568  Biso   1.000  Hf
  Hf8      1.0000 0.85905  0.47761  0.32575  Biso   1.000  Hf
  O1       1.0000 0.03710  0.16354  0.08257  Biso   1.000  O
  O2       1.0000 0.03123  0.08719  0.33182  Biso   1.000  O
  O3       1.0000 0.44989  0.43902  0.10122  Biso   1.000  O
  O4       1.0000 0.46563  0.33202  0.33990  Biso   1.000  O
  O5       1.0000 0.27100  0.12340  0.30256  Biso   1.000  O
  O6       1.0000 0.28406  0.12996  0.04708  Biso   1.000  O
  O7       1.0000 0.21566  0.37737  0.30567  Biso   1.000  O
  O8       1.0000 0.21978  0.37728  0.04931  Biso   1.000  O
  O9       1.0000 0.51992  0.13365  0.19272  Biso   1.000  O
  O10      1.0000 0.53043  0.08569  0.42728  Biso   1.000  O
  O11      1.0000 0.96673  0.41437  0.16990  Biso   1.000  O
  O12      1.0000 0.96832  0.33665  0.41785  Biso   1.000  O
  O13      1.0000 0.77642  0.12267  0.45191  Biso   1.000  O
  O14      1.0000 0.77600  0.12656  0.20157  Biso   1.000  O
  O15      1.0000 0.72409  0.37429  0.45156  Biso   1.000  O
  O16      1.0000 0.71535  0.37222  0.19736  Biso   1.000  O
  Hf9      1.0000 0.13988  0.02075  0.67435  Biso   1.000  Hf
  Hf10     1.0000 0.14357  0.22939  0.92306  Biso   1.000  Hf
  Hf11     1.0000 0.36284  0.27253  0.67436  Biso   1.000  Hf
  Hf12     1.0000 0.35923  0.48484  0.92537  Biso   1.000  Hf
  Hf13     1.0000 0.64105  0.01620  0.57626  Biso   1.000  Hf
  Hf14     1.0000 0.65318  0.22628  0.80109  Biso   1.000  Hf
  Hf15     1.0000 0.86506  0.27308  0.57300  Biso   1.000  Hf
  Hf16     1.0000 0.86507  0.48001  0.82853  Biso   1.000  Hf
  O17      1.0000 0.03240  0.16217  0.58246  Biso   1.000  O
  O18      1.0000 0.03487  0.08630  0.83350  Biso   1.000  O
  O19      1.0000 0.47025  0.41436  0.58334  Biso   1.000  O
  O20      1.0000 0.47291  0.33723  0.83192  Biso   1.000  O
  O21      1.0000 0.27827  0.12454  0.79684  Biso   1.000  O
  O22      1.0000 0.27647  0.12497  0.54941  Biso   1.000  O
  O23      1.0000 0.22632  0.37411  0.79903  Biso   1.000  O
  O24      1.0000 0.22540  0.37526  0.55048  Biso   1.000  O
  O25      1.0000 0.53222  0.16116  0.66251  Biso   1.000  O
  O26      1.0000 0.53726  0.07492  0.90978  Biso   1.000  O
  O27      1.0000 0.97097  0.41261  0.66915  Biso   1.000  O
  O28      1.0000 0.97283  0.33546  0.91817  Biso   1.000  O
  O29      1.0000 0.77260  0.12803  0.95183  Biso   1.000  O
  O30      1.0000 0.78626  0.12003  0.69540  Biso   1.000  O
  O31      1.0000 0.73359  0.38230  0.95018  Biso   1.000  O
  O32      1.0000 0.72950  0.37777  0.69810  Biso   1.000  O
  Hf17     1.0000 0.13921  0.52244  0.17376  Biso   1.000  Hf
  Hf18     1.0000 0.13761  0.72813  0.42296  Biso   1.000  Hf
  Hf19     1.0000 0.35959  0.77209  0.17488  Biso   1.000  Hf
  Hf20     1.0000 0.36136  0.97757  0.42612  Biso   1.000  Hf
  Hf21     1.0000 0.63957  0.53462  0.07811  Biso   1.000  Hf
  Hf22     1.0000 0.63904  0.72983  0.33042  Biso   1.000  Hf
  Hf23     1.0000 0.86506  0.77025  0.07868  Biso   1.000  Hf
  Hf24     1.0000 0.86331  0.97965  0.32812  Biso   1.000  Hf
  O33      1.0000 0.03360  0.66366  0.08262  Biso   1.000  O
  O34      1.0000 0.02972  0.58660  0.33289  Biso   1.000  O
  O35      1.0000 0.46808  0.90625  0.07845  Biso   1.000  O
  O36      1.0000 0.46874  0.83812  0.33403  Biso   1.000  O
  O37      1.0000 0.27397  0.62589  0.29727  Biso   1.000  O
  O38      1.0000 0.27471  0.63011  0.04536  Biso   1.000  O
  O39      1.0000 0.22380  0.87438  0.29769  Biso   1.000  O
  O40      1.0000 0.22298  0.87893  0.04761  Biso   1.000  O
  O41      1.0000 0.53403  0.67165  0.17009  Biso   1.000  O
  O42      1.0000 0.53193  0.58672  0.41739  Biso   1.000  O
  O43      1.0000 0.96894  0.91529  0.16828  Biso   1.000  O
  O44      1.0000 0.96835  0.83704  0.41970  Biso   1.000  O
  O45      1.0000 0.77700  0.62398  0.45401  Biso   1.000  O
  O46      1.0000 0.77799  0.62603  0.20554  Biso   1.000  O
  O47      1.0000 0.72558  0.87358  0.45598  Biso   1.000  O
  O48      1.0000 0.72869  0.87163  0.20710  Biso   1.000  O
  Hf25     1.0000 0.14037  0.52059  0.67332  Biso   1.000  Hf
  Hf26     1.0000 0.13956  0.73103  0.92223  Biso   1.000  Hf
  Hf27     1.0000 0.36233  0.76987  0.67292  Biso   1.000  Hf
  Hf28     1.0000 0.36418  0.97721  0.92138  Biso   1.000  Hf
  Hf29     1.0000 0.64034  0.52253  0.57581  Biso   1.000  Hf
  Hf30     1.0000 0.64080  0.72893  0.82609  Biso   1.000  Hf
  Hf31     1.0000 0.86425  0.77057  0.57975  Biso   1.000  Hf
  Hf32     1.0000 0.86354  0.97974  0.83031  Biso   1.000  Hf
  O49      1.0000 0.03387  0.66303  0.58301  Biso   1.000  O
  O50      1.0000 0.03562  0.58662  0.83332  Biso   1.000  O
  O51      1.0000 0.46999  0.90983  0.58332  Biso   1.000  O
  O52      1.0000 0.46831  0.83253  0.83177  Biso   1.000  O
  O53      1.0000 0.27716  0.62521  0.79602  Biso   1.000  O
  O54      1.0000 0.27621  0.62496  0.54621  Biso   1.000  O
  O55      1.0000 0.22536  0.87386  0.79667  Biso   1.000  O
  O56      1.0000 0.22446  0.87535  0.54767  Biso   1.000  O
  O57      1.0000 0.53369  0.66289  0.66709  Biso   1.000  O
  O58      1.0000 0.53271  0.58750  0.91857  Biso   1.000  O
  O59      1.0000 0.97025  0.91178  0.67122  Biso   1.000  O
  O60      1.0000 0.96956  0.83740  0.91982  Biso   1.000  O
  O61      1.0000 0.77928  0.62877  0.95173  Biso   1.000  O
  O62      1.0000 0.77851  0.62568  0.70336  Biso   1.000  O
  O63      1.0000 0.72712  0.87314  0.95568  Biso   1.000  O
  O64      1.0000 0.72669  0.87421  0.70651  Biso   1.000  O
  Sr1      1.0000 0.55681  0.26434  0.02690  Biso   1.000  Sr
