data_image0
_cell_length_a       10.0543
_cell_length_b       5.19176
_cell_length_c       10.1008
_cell_angle_alpha    90.1008
_cell_angle_beta     90.3545
_cell_angle_gamma    90.1059

_symmetry_space_group_name_H-M    "P 1"
_symmetry_int_tables_number       1

loop_
  _symmetry_equiv_pos_as_xyz
  'x, y, z'

loop_
  _atom_site_label
  _atom_site_occupancy
  _atom_site_fract_x
  _atom_site_fract_y
  _atom_site_fract_z
  _atom_site_thermal_displace_type
  _atom_site_B_iso_or_equiv
  _atom_site_type_symbol
  Sr1      1.0000 0.12366  0.01526  0.12276  Biso   1.000  Sr
  Hf1      1.0000 0.13406  0.03398  0.62588  Biso   1.000  Hf
  Hf2      1.0000 0.63526  0.02844  0.12422  Biso   1.000  Hf
  Hf3      1.0000 0.63225  0.03071  0.62623  Biso   1.000  Hf
  Hf4      1.0000 0.13696  0.46890  0.37774  Biso   1.000  Hf
  Hf5      1.0000 0.14017  0.46855  0.87268  Biso   1.000  Hf
  Hf6      1.0000 0.63033  0.46353  0.37887  Biso   1.000  Hf
  Hf7      1.0000 0.63658  0.46327  0.87429  Biso   1.000  Hf
  Hf8      1.0000 0.36558  0.52399  0.12559  Biso   1.000  Hf
  Hf9      1.0000 0.36613  0.53292  0.62548  Biso   1.000  Hf
  Hf10     1.0000 0.85942  0.52958  0.12805  Biso   1.000  Hf
  Hf11     1.0000 0.86694  0.53263  0.62403  Biso   1.000  Hf
  Hf12     1.0000 0.36338  0.96692  0.37445  Biso   1.000  Hf
  Hf13     1.0000 0.36746  0.96403  0.87617  Biso   1.000  Hf
  Hf14     1.0000 0.86182  0.96856  0.38248  Biso   1.000  Hf
  Hf15     1.0000 0.86445  0.96314  0.87247  Biso   1.000  Hf
  O1       1.0000 0.03035  0.41470  0.20458  Biso   1.000  O
  O2       1.0000 0.04058  0.37902  0.68381  Biso   1.000  O
  O3       1.0000 0.53914  0.36519  0.19470  Biso   1.000  O
  O4       1.0000 0.53539  0.36462  0.69530  Biso   1.000  O
  O5       1.0000 0.03506  0.12978  0.44156  Biso   1.000  O
  O6       1.0000 0.02958  0.15327  0.91530  Biso   1.000  O
  O7       1.0000 0.53485  0.12938  0.44682  Biso   1.000  O
  O8       1.0000 0.53834  0.13137  0.94437  Biso   1.000  O
  O9       1.0000 0.46661  0.86874  0.19513  Biso   1.000  O
  O10      1.0000 0.46635  0.86389  0.69663  Biso   1.000  O
  O11      1.0000 0.92450  0.87729  0.19812  Biso   1.000  O
  O12      1.0000 0.96242  0.87021  0.69086  Biso   1.000  O
  O13      1.0000 0.46556  0.63230  0.44937  Biso   1.000  O
  O14      1.0000 0.47555  0.63737  0.94688  Biso   1.000  O
  O15      1.0000 0.96379  0.63641  0.44613  Biso   1.000  O
  O16      1.0000 0.97214  0.64613  0.95067  Biso   1.000  O
  O17      1.0000 0.28273  0.24669  0.25639  Biso   1.000  O
  O18      1.0000 0.27231  0.23563  0.74752  Biso   1.000  O
  O19      1.0000 0.76640  0.23605  0.25226  Biso   1.000  O
  O20      1.0000 0.77100  0.23293  0.74740  Biso   1.000  O
  O21      1.0000 0.26967  0.26224  0.50216  Biso   1.000  O
  O22      1.0000 0.27959  0.26328  0.99150  Biso   1.000  O
  O23      1.0000 0.76809  0.26597  0.50064  Biso   1.000  O
  O24      1.0000 0.77189  0.26023  0.99817  Biso   1.000  O
  O25      1.0000 0.22945  0.76732  0.50086  Biso   1.000  O
  O26      1.0000 0.24443  0.73963  0.99092  Biso   1.000  O
  O27      1.0000 0.72825  0.76270  0.50133  Biso   1.000  O
  O28      1.0000 0.73054  0.75975  0.99851  Biso   1.000  O
  O29      1.0000 0.24432  0.71519  0.25815  Biso   1.000  O
  O30      1.0000 0.23057  0.73941  0.74591  Biso   1.000  O
  O31      1.0000 0.71481  0.73113  0.25073  Biso   1.000  O
  O32      1.0000 0.73103  0.73134  0.74877  Biso   1.000  O
