data_image0
_cell_length_a       10.142
_cell_length_b       5.20415
_cell_length_c       10.7083
_cell_angle_alpha    89.9174
_cell_angle_beta     91.5203
_cell_angle_gamma    90.3979

_symmetry_space_group_name_H-M    "P 1"
_symmetry_int_tables_number       1

loop_
  _symmetry_equiv_pos_as_xyz
  'x, y, z'

loop_
  _atom_site_label
  _atom_site_occupancy
  _atom_site_fract_x
  _atom_site_fract_y
  _atom_site_fract_z
  _atom_site_thermal_displace_type
  _atom_site_B_iso_or_equiv
  _atom_site_type_symbol
  Zr1      1.0000 0.13762  0.04467  0.17513  Biso   1.000  Zr
  Zr2      1.0000 0.13798  0.45004  0.42748  Biso   1.000  Zr
  Zr3      1.0000 0.34854  0.55107  0.19335  Biso   1.000  Zr
  Zr4      1.0000 0.36152  0.95436  0.43024  Biso   1.000  Zr
  Zr5      1.0000 0.64599  0.04802  0.08412  Biso   1.000  Zr
  Zr6      1.0000 0.63878  0.44963  0.33238  Biso   1.000  Zr
  Zr7      1.0000 0.86832  0.54109  0.07716  Biso   1.000  Zr
  Zr8      1.0000 0.86093  0.95383  0.32637  Biso   1.000  Zr
  O1       1.0000 0.03447  0.31837  0.08010  Biso   1.000  O
  O2       1.0000 0.02974  0.17388  0.33285  Biso   1.000  O
  O3       1.0000 0.45020  0.86496  0.10073  Biso   1.000  O
  O4       1.0000 0.46827  0.67127  0.34061  Biso   1.000  O
  O5       1.0000 0.27005  0.25000  0.30289  Biso   1.000  O
  O6       1.0000 0.28132  0.27091  0.04668  Biso   1.000  O
  O7       1.0000 0.21935  0.75335  0.30739  Biso   1.000  O
  O8       1.0000 0.21715  0.75986  0.05335  Biso   1.000  O
  O9       1.0000 0.52344  0.30289  0.19001  Biso   1.000  O
  O10      1.0000 0.52957  0.17323  0.42536  Biso   1.000  O
  O11      1.0000 0.96828  0.82591  0.17309  Biso   1.000  O
  O12      1.0000 0.97189  0.67564  0.42256  Biso   1.000  O
  O13      1.0000 0.77641  0.24592  0.45139  Biso   1.000  O
  O14      1.0000 0.78291  0.24957  0.20543  Biso   1.000  O
  O15      1.0000 0.72811  0.74728  0.45303  Biso   1.000  O
  O16      1.0000 0.72089  0.73514  0.20143  Biso   1.000  O
  Zr9      1.0000 0.14182  0.03982  0.67606  Biso   1.000  Zr
  Zr10     1.0000 0.14221  0.46448  0.92392  Biso   1.000  Zr
  Zr11     1.0000 0.36327  0.54207  0.67597  Biso   1.000  Zr
  Zr12     1.0000 0.35782  0.97067  0.92828  Biso   1.000  Zr
  Zr13     1.0000 0.64344  0.03269  0.57186  Biso   1.000  Zr
  Zr14     1.0000 0.65389  0.44925  0.79510  Biso   1.000  Zr
  Zr15     1.0000 0.86986  0.54378  0.57503  Biso   1.000  Zr
  Zr16     1.0000 0.86786  0.96188  0.83103  Biso   1.000  Zr
  O17      1.0000 0.03410  0.31900  0.58201  Biso   1.000  O
  O18      1.0000 0.03578  0.17790  0.83256  Biso   1.000  O
  O19      1.0000 0.47514  0.81150  0.58061  Biso   1.000  O
  O20      1.0000 0.47638  0.66830  0.82510  Biso   1.000  O
  O21      1.0000 0.27626  0.25398  0.79789  Biso   1.000  O
  O22      1.0000 0.27599  0.24455  0.54981  Biso   1.000  O
  O23      1.0000 0.22827  0.74957  0.80188  Biso   1.000  O
  O24      1.0000 0.22734  0.74698  0.55365  Biso   1.000  O
  O25      1.0000 0.53070  0.30628  0.66403  Biso   1.000  O
  O26      1.0000 0.53303  0.14783  0.91785  Biso   1.000  O
  O27      1.0000 0.97528  0.81767  0.67487  Biso   1.000  O
  O28      1.0000 0.97345  0.67592  0.92170  Biso   1.000  O
  O29      1.0000 0.76988  0.27133  0.94747  Biso   1.000  O
  O30      1.0000 0.78749  0.23610  0.69300  Biso   1.000  O
  O31      1.0000 0.73721  0.77196  0.95517  Biso   1.000  O
  O32      1.0000 0.73478  0.74860  0.69958  Biso   1.000  O
  Sr1      1.0000 0.55573  0.53737  0.01770  Biso   1.000  Sr
