data_image0
_cell_length_a       10.1285
_cell_length_b       10.3426
_cell_length_c       10.6066
_cell_angle_alpha    90.0449
_cell_angle_beta     90.7839
_cell_angle_gamma    90.1679

_symmetry_space_group_name_H-M    "P 1"
_symmetry_int_tables_number       1

loop_
  _symmetry_equiv_pos_as_xyz
  'x, y, z'

loop_
  _atom_site_label
  _atom_site_occupancy
  _atom_site_fract_x
  _atom_site_fract_y
  _atom_site_fract_z
  _atom_site_thermal_displace_type
  _atom_site_B_iso_or_equiv
  _atom_site_type_symbol
  Zr1      1.0000 0.13995  0.02058  0.17270  Biso   1.000  Zr
  Zr2      1.0000 0.13822  0.22685  0.42701  Biso   1.000  Zr
  Zr3      1.0000 0.34664  0.27413  0.19109  Biso   1.000  Zr
  Zr4      1.0000 0.36167  0.47922  0.42532  Biso   1.000  Zr
  Zr5      1.0000 0.64069  0.00621  0.08122  Biso   1.000  Zr
  Zr6      1.0000 0.63675  0.22214  0.33016  Biso   1.000  Zr
  Zr7      1.0000 0.86874  0.27089  0.07603  Biso   1.000  Zr
  Zr8      1.0000 0.85898  0.47761  0.32590  Biso   1.000  Zr
  O1       1.0000 0.03605  0.16240  0.08191  Biso   1.000  O
  O2       1.0000 0.03052  0.08807  0.33098  Biso   1.000  O
  O3       1.0000 0.45073  0.43748  0.09978  Biso   1.000  O
  O4       1.0000 0.46589  0.33290  0.33893  Biso   1.000  O
  O5       1.0000 0.27022  0.12382  0.30256  Biso   1.000  O
  O6       1.0000 0.28238  0.12938  0.04735  Biso   1.000  O
  O7       1.0000 0.21637  0.37764  0.30596  Biso   1.000  O
  O8       1.0000 0.21989  0.37704  0.04965  Biso   1.000  O
  O9       1.0000 0.51994  0.13539  0.19172  Biso   1.000  O
  O10      1.0000 0.52975  0.08634  0.42747  Biso   1.000  O
  O11      1.0000 0.96702  0.41367  0.17066  Biso   1.000  O
  O12      1.0000 0.96925  0.33763  0.41868  Biso   1.000  O
  O13      1.0000 0.77555  0.12305  0.45147  Biso   1.000  O
  O14      1.0000 0.77504  0.12587  0.20160  Biso   1.000  O
  O15      1.0000 0.72510  0.37465  0.45111  Biso   1.000  O
  O16      1.0000 0.71590  0.37173  0.19703  Biso   1.000  O
  Zr9      1.0000 0.13997  0.02081  0.67431  Biso   1.000  Zr
  Zr10     1.0000 0.14332  0.22941  0.92298  Biso   1.000  Zr
  Zr11     1.0000 0.36297  0.27240  0.67490  Biso   1.000  Zr
  Zr12     1.0000 0.35879  0.48489  0.92531  Biso   1.000  Zr
  Zr13     1.0000 0.64128  0.01604  0.57573  Biso   1.000  Zr
  Zr14     1.0000 0.65370  0.22632  0.80033  Biso   1.000  Zr
  Zr15     1.0000 0.86533  0.27319  0.57283  Biso   1.000  Zr
  Zr16     1.0000 0.86515  0.47989  0.82883  Biso   1.000  Zr
  O17      1.0000 0.03178  0.16123  0.58146  Biso   1.000  O
  O18      1.0000 0.03404  0.08726  0.83260  Biso   1.000  O
  O19      1.0000 0.47138  0.41332  0.58303  Biso   1.000  O
  O20      1.0000 0.47318  0.33675  0.83285  Biso   1.000  O
  O21      1.0000 0.27715  0.12494  0.79716  Biso   1.000  O
  O22      1.0000 0.27579  0.12453  0.54972  Biso   1.000  O
  O23      1.0000 0.22709  0.37458  0.79937  Biso   1.000  O
  O24      1.0000 0.22656  0.37477  0.55102  Biso   1.000  O
  O25      1.0000 0.53172  0.15991  0.66335  Biso   1.000  O
  O26      1.0000 0.53564  0.07595  0.91199  Biso   1.000  O
  O27      1.0000 0.97209  0.41159  0.67027  Biso   1.000  O
  O28      1.0000 0.97322  0.33607  0.91930  Biso   1.000  O
  O29      1.0000 0.77136  0.12860  0.95178  Biso   1.000  O
  O30      1.0000 0.78594  0.11936  0.69481  Biso   1.000  O
  O31      1.0000 0.73358  0.38231  0.94996  Biso   1.000  O
  O32      1.0000 0.73094  0.37753  0.69769  Biso   1.000  O
  Zr17     1.0000 0.13880  0.52268  0.17360  Biso   1.000  Zr
  Zr18     1.0000 0.13766  0.72796  0.42289  Biso   1.000  Zr
  Zr19     1.0000 0.35962  0.77209  0.17503  Biso   1.000  Zr
  Zr20     1.0000 0.36139  0.97739  0.42604  Biso   1.000  Zr
  Zr21     1.0000 0.63994  0.53519  0.07816  Biso   1.000  Zr
  Zr22     1.0000 0.63921  0.72980  0.33065  Biso   1.000  Zr
  Zr23     1.0000 0.86535  0.77040  0.07888  Biso   1.000  Zr
  Zr24     1.0000 0.86370  0.97965  0.32839  Biso   1.000  Zr
  O33      1.0000 0.03270  0.66279  0.08180  Biso   1.000  O
  O34      1.0000 0.02899  0.58737  0.33224  Biso   1.000  O
  O35      1.0000 0.46890  0.90550  0.07842  Biso   1.000  O
  O36      1.0000 0.46965  0.83889  0.33336  Biso   1.000  O
  O37      1.0000 0.27310  0.62603  0.29743  Biso   1.000  O
  O38      1.0000 0.27372  0.62956  0.04571  Biso   1.000  O
  O39      1.0000 0.22483  0.87472  0.29794  Biso   1.000  O
  O40      1.0000 0.22401  0.87826  0.04800  Biso   1.000  O
  O41      1.0000 0.53347  0.67074  0.17086  Biso   1.000  O
  O42      1.0000 0.53115  0.58758  0.41836  Biso   1.000  O
  O43      1.0000 0.96994  0.91441  0.16899  Biso   1.000  O
  O44      1.0000 0.96944  0.83777  0.42058  Biso   1.000  O
  O45      1.0000 0.77612  0.62438  0.45396  Biso   1.000  O
  O46      1.0000 0.77738  0.62574  0.20561  Biso   1.000  O
  O47      1.0000 0.72688  0.87393  0.45575  Biso   1.000  O
  O48      1.0000 0.72990  0.87109  0.20710  Biso   1.000  O
  Zr25     1.0000 0.14033  0.52057  0.67320  Biso   1.000  Zr
  Zr26     1.0000 0.13959  0.73102  0.92195  Biso   1.000  Zr
  Zr27     1.0000 0.36240  0.77007  0.67295  Biso   1.000  Zr
  Zr28     1.0000 0.36418  0.97734  0.92178  Biso   1.000  Zr
  Zr29     1.0000 0.64042  0.52266  0.57601  Biso   1.000  Zr
  Zr30     1.0000 0.64082  0.72894  0.82596  Biso   1.000  Zr
  Zr31     1.0000 0.86453  0.77061  0.58011  Biso   1.000  Zr
  Zr32     1.0000 0.86368  0.97975  0.83045  Biso   1.000  Zr
  O49      1.0000 0.03314  0.66214  0.58231  Biso   1.000  O
  O50      1.0000 0.03486  0.58740  0.83268  Biso   1.000  O
  O51      1.0000 0.47107  0.90869  0.58213  Biso   1.000  O
  O52      1.0000 0.46932  0.83356  0.83097  Biso   1.000  O
  O53      1.0000 0.27614  0.62584  0.79612  Biso   1.000  O
  O54      1.0000 0.27534  0.62454  0.54649  Biso   1.000  O
  O55      1.0000 0.22635  0.87440  0.79696  Biso   1.000  O
  O56      1.0000 0.22554  0.87492  0.54791  Biso   1.000  O
  O57      1.0000 0.53303  0.66214  0.66780  Biso   1.000  O
  O58      1.0000 0.53202  0.58816  0.91909  Biso   1.000  O
  O59      1.0000 0.97125  0.91082  0.67208  Biso   1.000  O
  O60      1.0000 0.97053  0.83828  0.92055  Biso   1.000  O
  O61      1.0000 0.77841  0.62917  0.95171  Biso   1.000  O
  O62      1.0000 0.77779  0.62546  0.70326  Biso   1.000  O
  O63      1.0000 0.72824  0.87356  0.95557  Biso   1.000  O
  O64      1.0000 0.72766  0.87390  0.70622  Biso   1.000  O
  Sr1      1.0000 0.55843  0.26484  0.02685  Biso   1.000  Sr
