data_image0
_cell_length_a       10.2307
_cell_length_b       10.3904
_cell_length_c       10.6092
_cell_angle_alpha    89.8459
_cell_angle_beta     79.5956
_cell_angle_gamma    90.1187

_symmetry_space_group_name_H-M    "P 1"
_symmetry_int_tables_number       1

loop_
  _symmetry_equiv_pos_as_xyz
  'x, y, z'

loop_
  _atom_site_label
  _atom_site_occupancy
  _atom_site_fract_x
  _atom_site_fract_y
  _atom_site_fract_z
  _atom_site_thermal_displace_type
  _atom_site_B_iso_or_equiv
  _atom_site_type_symbol
  Zr1      1.0000 0.13451  0.02016  0.14473  Biso   1.000  Zr
  Zr2      1.0000 0.13296  0.22695  0.39322  Biso   1.000  Zr
  Zr3      1.0000 0.34296  0.27271  0.07832  Biso   1.000  Zr
  Zr4      1.0000 0.35834  0.49257  0.35750  Biso   1.000  Zr
  O1       1.0000 0.03312  0.16721  0.07580  Biso   1.000  O
  O2       1.0000 0.02953  0.08273  0.32791  Biso   1.000  O
  O3       1.0000 0.46082  0.42624  0.16527  Biso   1.000  O
  O4       1.0000 0.47891  0.36348  0.44477  Biso   1.000  O
  O5       1.0000 0.26924  0.12293  0.23273  Biso   1.000  O
  O6       1.0000 0.28673  0.12761  0.47803  Biso   1.000  O
  O7       1.0000 0.21074  0.38638  0.00077  Biso   1.000  O
  O8       1.0000 0.22893  0.36689  0.25731  Biso   1.000  O
  Zr5      1.0000 0.14020  0.02223  0.64313  Biso   1.000  Zr
  Zr6      1.0000 0.13253  0.22819  0.88904  Biso   1.000  Zr
  Zr7      1.0000 0.36235  0.27881  0.60539  Biso   1.000  Zr
  Zr8      1.0000 0.35838  0.48334  0.85270  Biso   1.000  Zr
  O9       1.0000 0.04004  0.16919  0.57880  Biso   1.000  O
  O10      1.0000 0.03195  0.08264  0.82542  Biso   1.000  O
  O11      1.0000 0.46774  0.41637  0.68157  Biso   1.000  O
  O12      1.0000 0.46462  0.33632  0.91769  Biso   1.000  O
  O13      1.0000 0.27429  0.12864  0.73538  Biso   1.000  O
  O14      1.0000 0.26904  0.11989  0.98237  Biso   1.000  O
  O15      1.0000 0.22399  0.38123  0.50764  Biso   1.000  O
  O16      1.0000 0.22359  0.37266  0.75655  Biso   1.000  O
  Zr9      1.0000 0.13764  0.52189  0.14764  Biso   1.000  Zr
  Zr10     1.0000 0.13404  0.72915  0.39655  Biso   1.000  Zr
  Zr11     1.0000 0.35913  0.77243  0.10343  Biso   1.000  Zr
  Zr12     1.0000 0.36175  0.96660  0.35484  Biso   1.000  Zr
  O17      1.0000 0.03282  0.66486  0.07920  Biso   1.000  O
  O18      1.0000 0.03226  0.58215  0.32985  Biso   1.000  O
  O19      1.0000 0.46577  0.91476  0.17384  Biso   1.000  O
  O20      1.0000 0.46342  0.82560  0.42476  Biso   1.000  O
  O21      1.0000 0.27247  0.63005  0.24164  Biso   1.000  O
  O22      1.0000 0.27099  0.62685  0.49339  Biso   1.000  O
  O23      1.0000 0.22268  0.87859  0.00935  Biso   1.000  O
  O24      1.0000 0.22089  0.86844  0.25917  Biso   1.000  O
  Zr13     1.0000 0.13706  0.52251  0.64573  Biso   1.000  Zr
  Zr14     1.0000 0.13692  0.72829  0.89690  Biso   1.000  Zr
  Zr15     1.0000 0.36110  0.77120  0.60657  Biso   1.000  Zr
  Zr16     1.0000 0.35973  0.97745  0.85230  Biso   1.000  Zr
  O25      1.0000 0.03044  0.66617  0.57892  Biso   1.000  O
  O26      1.0000 0.03263  0.58402  0.82892  Biso   1.000  O
  O27      1.0000 0.46609  0.91597  0.67206  Biso   1.000  O
  O28      1.0000 0.46513  0.83565  0.92225  Biso   1.000  O
  O29      1.0000 0.27428  0.62839  0.74105  Biso   1.000  O
  O30      1.0000 0.27511  0.62448  0.99183  Biso   1.000  O
  O31      1.0000 0.22353  0.87985  0.51098  Biso   1.000  O
  O32      1.0000 0.22336  0.87080  0.75986  Biso   1.000  O
  Zr17     1.0000 0.64146  0.01613  0.14797  Biso   1.000  Zr
  Zr18     1.0000 0.65619  0.22683  0.41533  Biso   1.000  Zr
  Zr19     1.0000 0.85933  0.27105  0.10751  Biso   1.000  Zr
  Zr20     1.0000 0.85911  0.47829  0.35558  Biso   1.000  Zr
  O33      1.0000 0.52901  0.16333  0.07599  Biso   1.000  O
  O34      1.0000 0.55152  0.06073  0.34145  Biso   1.000  O
  O35      1.0000 0.96453  0.41518  0.17463  Biso   1.000  O
  O36      1.0000 0.96309  0.33156  0.42332  Biso   1.000  O
  O37      1.0000 0.77835  0.12812  0.24308  Biso   1.000  O
  O38      1.0000 0.78765  0.11608  0.50141  Biso   1.000  O
  O39      1.0000 0.72230  0.37767  0.01376  Biso   1.000  O
  O40      1.0000 0.71870  0.36828  0.26420  Biso   1.000  O
  Zr21     1.0000 0.63906  0.02089  0.64886  Biso   1.000  Zr
  Zr22     1.0000 0.63772  0.22662  0.89870  Biso   1.000  Zr
  Zr23     1.0000 0.86385  0.27195  0.61137  Biso   1.000  Zr
  Zr24     1.0000 0.85904  0.47884  0.85749  Biso   1.000  Zr
  O41      1.0000 0.53678  0.16918  0.58354  Biso   1.000  O
  O42      1.0000 0.53132  0.08435  0.82813  Biso   1.000  O
  O43      1.0000 0.96663  0.41700  0.67483  Biso   1.000  O
  O44      1.0000 0.96111  0.33173  0.92141  Biso   1.000  O
  O45      1.0000 0.77508  0.12888  0.74618  Biso   1.000  O
  O46      1.0000 0.77501  0.12064  0.99379  Biso   1.000  O
  O47      1.0000 0.72997  0.37972  0.51773  Biso   1.000  O
  O48      1.0000 0.72457  0.37179  0.76468  Biso   1.000  O
  Zr25     1.0000 0.63512  0.52287  0.14531  Biso   1.000  Zr
  Zr26     1.0000 0.63977  0.72674  0.39774  Biso   1.000  Zr
  Zr27     1.0000 0.86028  0.76929  0.10587  Biso   1.000  Zr
  Zr28     1.0000 0.85712  0.97638  0.35575  Biso   1.000  Zr
  O49      1.0000 0.53336  0.67024  0.07770  Biso   1.000  O
  O50      1.0000 0.53254  0.59027  0.32434  Biso   1.000  O
  O51      1.0000 0.96357  0.91348  0.17450  Biso   1.000  O
  O52      1.0000 0.96389  0.83354  0.42382  Biso   1.000  O
  O53      1.0000 0.77596  0.62575  0.24164  Biso   1.000  O
  O54      1.0000 0.77448  0.62061  0.49158  Biso   1.000  O
  O55      1.0000 0.72434  0.87674  0.01090  Biso   1.000  O
  O56      1.0000 0.72436  0.86675  0.25972  Biso   1.000  O
  Zr29     1.0000 0.63845  0.52269  0.64935  Biso   1.000  Zr
  Zr30     1.0000 0.63722  0.72928  0.89719  Biso   1.000  Zr
  Zr31     1.0000 0.86013  0.77281  0.60662  Biso   1.000  Zr
  Zr32     1.0000 0.86015  0.97771  0.85621  Biso   1.000  Zr
  O57      1.0000 0.53224  0.66396  0.57998  Biso   1.000  O
  O58      1.0000 0.53173  0.58723  0.82960  Biso   1.000  O
  O59      1.0000 0.96628  0.91658  0.67325  Biso   1.000  O
  O60      1.0000 0.96580  0.83382  0.92404  Biso   1.000  O
  O61      1.0000 0.77443  0.62940  0.74206  Biso   1.000  O
  O62      1.0000 0.77378  0.62108  0.99121  Biso   1.000  O
  O63      1.0000 0.72253  0.87595  0.51227  Biso   1.000  O
  O64      1.0000 0.72404  0.87263  0.76192  Biso   1.000  O
  Sr1      1.0000 0.44908  0.23658  0.28239  Biso   1.000  Sr
