data_image0
_cell_length_a       10.0631
_cell_length_b       10.0953
_cell_length_c       5.11338
_cell_angle_alpha    89.9996
_cell_angle_beta     89.9999
_cell_angle_gamma    90

_symmetry_space_group_name_H-M    "P 1"
_symmetry_int_tables_number       1

loop_
  _symmetry_equiv_pos_as_xyz
  'x, y, z'

loop_
  _atom_site_label
  _atom_site_occupancy
  _atom_site_fract_x
  _atom_site_fract_y
  _atom_site_fract_z
  _atom_site_thermal_displace_type
  _atom_site_B_iso_or_equiv
  _atom_site_type_symbol
  Hf1      1.0000 0.12492  0.98282  0.24984  Biso   1.000  Hf
  Hf2      1.0000 0.12492  0.25000  0.74984  Biso   1.000  Hf
  Hf3      1.0000 0.39870  0.25000  0.24984  Biso   1.000  Hf
  Hf4      1.0000 0.37212  0.00041  0.74972  Biso   1.000  Hf
  O1       1.0000 0.00324  0.13056  0.98582  Biso   1.000  O
  O2       1.0000 0.99815  0.11994  0.47479  Biso   1.000  O
  O3       1.0000 0.00324  0.36943  0.51386  Biso   1.000  O
  O4       1.0000 0.99814  0.38005  0.02489  Biso   1.000  O
  O5       1.0000 0.24660  0.13056  0.51386  Biso   1.000  O
  O6       1.0000 0.25169  0.11994  0.02489  Biso   1.000  O
  O7       1.0000 0.24660  0.36943  0.98582  Biso   1.000  O
  O8       1.0000 0.25169  0.38005  0.47479  Biso   1.000  O
  Hf5      1.0000 0.12492  0.51717  0.24984  Biso   1.000  Hf
  Hf6      1.0000 0.12492  0.75000  0.74984  Biso   1.000  Hf
  Hf7      1.0000 0.38064  0.74999  0.24984  Biso   1.000  Hf
  Hf8      1.0000 0.37212  0.49958  0.74996  Biso   1.000  Hf
  O9       1.0000 0.00560  0.63038  0.96826  Biso   1.000  O
  O10      1.0000 0.99016  0.62153  0.47027  Biso   1.000  O
  O11      1.0000 0.00560  0.86961  0.53142  Biso   1.000  O
  O12      1.0000 0.99016  0.87847  0.02941  Biso   1.000  O
  O13      1.0000 0.24423  0.63038  0.53142  Biso   1.000  O
  O14      1.0000 0.25968  0.62152  0.02941  Biso   1.000  O
  O15      1.0000 0.24423  0.86961  0.96826  Biso   1.000  O
  O16      1.0000 0.25968  0.87847  0.47027  Biso   1.000  O
  Hf9      1.0000 0.62492  0.00190  0.24984  Biso   1.000  Hf
  Hf10     1.0000 0.62492  0.25000  0.74984  Biso   1.000  Hf
  Hf11     1.0000 0.85113  0.25000  0.24984  Biso   1.000  Hf
  Hf12     1.0000 0.87772  0.00042  0.74996  Biso   1.000  Hf
  O17      1.0000 0.49966  0.13191  0.96372  Biso   1.000  O
  O18      1.0000 0.49500  0.10919  0.47771  Biso   1.000  O
  O19      1.0000 0.49966  0.36808  0.53596  Biso   1.000  O
  O20      1.0000 0.49500  0.39080  0.02197  Biso   1.000  O
  O21      1.0000 0.75017  0.13191  0.53596  Biso   1.000  O
  O22      1.0000 0.75484  0.10920  0.02197  Biso   1.000  O
  O23      1.0000 0.75017  0.36809  0.96372  Biso   1.000  O
  O24      1.0000 0.75484  0.39080  0.47771  Biso   1.000  O
  Hf13     1.0000 0.62492  0.49809  0.24984  Biso   1.000  Hf
  Hf14     1.0000 0.62492  0.75000  0.74984  Biso   1.000  Hf
  Hf15     1.0000 0.86920  0.75000  0.24984  Biso   1.000  Hf
  Hf16     1.0000 0.87773  0.49958  0.74972  Biso   1.000  Hf
  O25      1.0000 0.50305  0.63480  0.96258  Biso   1.000  O
  O26      1.0000 0.49070  0.61224  0.46067  Biso   1.000  O
  O27      1.0000 0.50305  0.86519  0.53711  Biso   1.000  O
  O28      1.0000 0.49069  0.88775  0.03902  Biso   1.000  O
  O29      1.0000 0.74678  0.63480  0.53710  Biso   1.000  O
  O30      1.0000 0.75914  0.61225  0.03901  Biso   1.000  O
  O31      1.0000 0.74678  0.86520  0.96258  Biso   1.000  O
  O32      1.0000 0.75914  0.88775  0.46067  Biso   1.000  O
  Ta1      1.0000 0.12492  0.25000  0.24984  Biso   1.000  Ta
