data_image0
_cell_length_a       10.0871
_cell_length_b       10.2588
_cell_length_c       5.22426
_cell_angle_alpha    89.9925
_cell_angle_beta     80.0551
_cell_angle_gamma    89.8674

_symmetry_space_group_name_H-M    "P 1"
_symmetry_int_tables_number       1

loop_
  _symmetry_equiv_pos_as_xyz
  'x, y, z'

loop_
  _atom_site_label
  _atom_site_occupancy
  _atom_site_fract_x
  _atom_site_fract_y
  _atom_site_fract_z
  _atom_site_thermal_displace_type
  _atom_site_B_iso_or_equiv
  _atom_site_type_symbol
  Ta1      1.0000 0.13984  0.02288  0.29221  Biso   1.000  Ta
  Hf1      1.0000 0.14002  0.22883  0.78974  Biso   1.000  Hf
  Hf2      1.0000 0.36149  0.27234  0.20816  Biso   1.000  Hf
  Hf3      1.0000 0.36107  0.47940  0.70866  Biso   1.000  Hf
  O1       1.0000 0.03624  0.16347  0.15884  Biso   1.000  O
  O2       1.0000 0.04025  0.07823  0.64880  Biso   1.000  O
  O3       1.0000 0.46387  0.42083  0.33815  Biso   1.000  O
  O4       1.0000 0.46311  0.32987  0.83836  Biso   1.000  O
  O5       1.0000 0.27675  0.12758  0.47960  Biso   1.000  O
  O6       1.0000 0.27523  0.12019  0.98641  Biso   1.000  O
  O7       1.0000 0.22220  0.37858  0.01897  Biso   1.000  O
  O8       1.0000 0.22406  0.37050  0.51941  Biso   1.000  O
  Hf4      1.0000 0.13908  0.52179  0.29193  Biso   1.000  Hf
  Hf5      1.0000 0.13876  0.72846  0.79173  Biso   1.000  Hf
  Hf6      1.0000 0.35945  0.77404  0.20965  Biso   1.000  Hf
  Hf7      1.0000 0.35993  0.97806  0.70826  Biso   1.000  Hf
  O9       1.0000 0.03544  0.66819  0.16002  Biso   1.000  O
  O10      1.0000 0.03561  0.57981  0.66123  Biso   1.000  O
  O11      1.0000 0.46437  0.91957  0.34309  Biso   1.000  O
  O12      1.0000 0.46286  0.83130  0.84211  Biso   1.000  O
  O13      1.0000 0.27632  0.63041  0.48145  Biso   1.000  O
  O14      1.0000 0.27731  0.62156  0.98206  Biso   1.000  O
  O15      1.0000 0.21681  0.88098  0.02218  Biso   1.000  O
  O16      1.0000 0.21831  0.87353  0.51751  Biso   1.000  O
  Hf8      1.0000 0.63915  0.02178  0.29272  Biso   1.000  Hf
  Hf9      1.0000 0.63925  0.22824  0.79134  Biso   1.000  Hf
  Hf10     1.0000 0.86050  0.27126  0.20803  Biso   1.000  Hf
  Hf11     1.0000 0.86085  0.47815  0.70795  Biso   1.000  Hf
  O17      1.0000 0.53634  0.17010  0.16130  Biso   1.000  O
  O18      1.0000 0.53560  0.08073  0.66229  Biso   1.000  O
  O19      1.0000 0.96546  0.41697  0.33994  Biso   1.000  O
  O20      1.0000 0.96399  0.32803  0.83901  Biso   1.000  O
  O21      1.0000 0.77831  0.12883  0.48095  Biso   1.000  O
  O22      1.0000 0.77801  0.12051  0.97957  Biso   1.000  O
  O23      1.0000 0.72313  0.37925  0.01899  Biso   1.000  O
  O24      1.0000 0.72300  0.37072  0.51834  Biso   1.000  O
  Hf12     1.0000 0.63899  0.52265  0.29206  Biso   1.000  Hf
  Hf13     1.0000 0.63893  0.72878  0.79364  Biso   1.000  Hf
  Hf14     1.0000 0.86147  0.77237  0.20758  Biso   1.000  Hf
  Hf15     1.0000 0.86083  0.97821  0.70732  Biso   1.000  Hf
  O25      1.0000 0.53551  0.67103  0.16294  Biso   1.000  O
  O26      1.0000 0.53601  0.58059  0.66248  Biso   1.000  O
  O27      1.0000 0.97043  0.91937  0.33552  Biso   1.000  O
  O28      1.0000 0.96375  0.83079  0.83870  Biso   1.000  O
  O29      1.0000 0.77732  0.62914  0.48161  Biso   1.000  O
  O30      1.0000 0.77729  0.62114  0.98184  Biso   1.000  O
  O31      1.0000 0.72205  0.87965  0.01860  Biso   1.000  O
  O32      1.0000 0.72542  0.87130  0.51876  Biso   1.000  O
