data_image0
_cell_length_a       10.0761
_cell_length_b       10.2964
_cell_length_c       10.508
_cell_angle_alpha    90.0145
_cell_angle_beta     90.0089
_cell_angle_gamma    89.9512

_symmetry_space_group_name_H-M    "P 1"
_symmetry_int_tables_number       1

loop_
  _symmetry_equiv_pos_as_xyz
  'x, y, z'

loop_
  _atom_site_label
  _atom_site_occupancy
  _atom_site_fract_x
  _atom_site_fract_y
  _atom_site_fract_z
  _atom_site_thermal_displace_type
  _atom_site_B_iso_or_equiv
  _atom_site_type_symbol
  Ta1      1.0000 0.13949  0.02275  0.17260  Biso   1.000  Ta
  Zr1      1.0000 0.13889  0.02096  0.67111  Biso   1.000  Zr
  Zr2      1.0000 0.13877  0.52119  0.17133  Biso   1.000  Zr
  Zr3      1.0000 0.13890  0.52133  0.67139  Biso   1.000  Zr
  Zr4      1.0000 0.13918  0.23008  0.42096  Biso   1.000  Zr
  Zr5      1.0000 0.13950  0.22856  0.92068  Biso   1.000  Zr
  Zr6      1.0000 0.13847  0.72879  0.42132  Biso   1.000  Zr
  Zr7      1.0000 0.13887  0.72917  0.92176  Biso   1.000  Zr
  Zr8      1.0000 0.36193  0.27178  0.17151  Biso   1.000  Zr
  Zr9      1.0000 0.36141  0.27142  0.67108  Biso   1.000  Zr
  Zr10     1.0000 0.35933  0.77366  0.17154  Biso   1.000  Zr
  Zr11     1.0000 0.36141  0.77110  0.67144  Biso   1.000  Zr
  Zr12     1.0000 0.36134  0.47977  0.42139  Biso   1.000  Zr
  Zr13     1.0000 0.36114  0.47946  0.92135  Biso   1.000  Zr
  Zr14     1.0000 0.36044  0.97877  0.42134  Biso   1.000  Zr
  Zr15     1.0000 0.36103  0.97851  0.92181  Biso   1.000  Zr
  Zr16     1.0000 0.63926  0.02127  0.07784  Biso   1.000  Zr
  Zr17     1.0000 0.63869  0.02089  0.57854  Biso   1.000  Zr
  Zr18     1.0000 0.63885  0.52215  0.07901  Biso   1.000  Zr
  Zr19     1.0000 0.63915  0.52124  0.57907  Biso   1.000  Zr
  Zr20     1.0000 0.63904  0.22854  0.32892  Biso   1.000  Zr
  Zr21     1.0000 0.63884  0.22927  0.82878  Biso   1.000  Zr
  Zr22     1.0000 0.63862  0.72888  0.32808  Biso   1.000  Zr
  Zr23     1.0000 0.63934  0.72884  0.82901  Biso   1.000  Zr
  Zr24     1.0000 0.86081  0.27066  0.07932  Biso   1.000  Zr
  Zr25     1.0000 0.86106  0.27064  0.57885  Biso   1.000  Zr
  Zr26     1.0000 0.86214  0.77216  0.07819  Biso   1.000  Zr
  Zr27     1.0000 0.86085  0.77110  0.57866  Biso   1.000  Zr
  Zr28     1.0000 0.86070  0.47885  0.32860  Biso   1.000  Zr
  Zr29     1.0000 0.86161  0.47857  0.82932  Biso   1.000  Zr
  Zr30     1.0000 0.86104  0.97852  0.32821  Biso   1.000  Zr
  Zr31     1.0000 0.86094  0.97875  0.82864  Biso   1.000  Zr
  O1       1.0000 0.03437  0.15900  0.08640  Biso   1.000  O
  O2       1.0000 0.03246  0.16401  0.58131  Biso   1.000  O
  O3       1.0000 0.03311  0.66527  0.08444  Biso   1.000  O
  O4       1.0000 0.03249  0.66527  0.58350  Biso   1.000  O
  O5       1.0000 0.03819  0.08049  0.32957  Biso   1.000  O
  O6       1.0000 0.03273  0.08502  0.83313  Biso   1.000  O
  O7       1.0000 0.03262  0.58352  0.33399  Biso   1.000  O
  O8       1.0000 0.03295  0.58448  0.83407  Biso   1.000  O
  O9       1.0000 0.46679  0.41676  0.08488  Biso   1.000  O
  O10      1.0000 0.46688  0.41652  0.58429  Biso   1.000  O
  O11      1.0000 0.46615  0.91652  0.08323  Biso   1.000  O
  O12      1.0000 0.46681  0.91612  0.58388  Biso   1.000  O
  O13      1.0000 0.46656  0.33323  0.33477  Biso   1.000  O
  O14      1.0000 0.46658  0.33430  0.83452  Biso   1.000  O
  O15      1.0000 0.46577  0.83444  0.33348  Biso   1.000  O
  O16      1.0000 0.46731  0.83441  0.83399  Biso   1.000  O
  O17      1.0000 0.27402  0.12197  0.29327  Biso   1.000  O
  O18      1.0000 0.27625  0.12444  0.79556  Biso   1.000  O
  O19      1.0000 0.27555  0.62535  0.29506  Biso   1.000  O
  O20      1.0000 0.27613  0.62414  0.79503  Biso   1.000  O
  O21      1.0000 0.27210  0.12309  0.04848  Biso   1.000  O
  O22      1.0000 0.27642  0.12638  0.54475  Biso   1.000  O
  O23      1.0000 0.27593  0.62740  0.04545  Biso   1.000  O
  O24      1.0000 0.27608  0.62586  0.54541  Biso   1.000  O
  O25      1.0000 0.22508  0.37446  0.29539  Biso   1.000  O
  O26      1.0000 0.22354  0.37391  0.79516  Biso   1.000  O
  O27      1.0000 0.21849  0.87727  0.29451  Biso   1.000  O
  O28      1.0000 0.22413  0.87432  0.79586  Biso   1.000  O
  O29      1.0000 0.22448  0.37479  0.04512  Biso   1.000  O
  O30      1.0000 0.22379  0.37586  0.54476  Biso   1.000  O
  O31      1.0000 0.21551  0.88155  0.04863  Biso   1.000  O
  O32      1.0000 0.22401  0.87565  0.54558  Biso   1.000  O
  O33      1.0000 0.53297  0.16598  0.16618  Biso   1.000  O
  O34      1.0000 0.53311  0.16631  0.66575  Biso   1.000  O
  O35      1.0000 0.53269  0.66803  0.16489  Biso   1.000  O
  O36      1.0000 0.53339  0.66627  0.66569  Biso   1.000  O
  O37      1.0000 0.53283  0.08388  0.41566  Biso   1.000  O
  O38      1.0000 0.53192  0.08495  0.91608  Biso   1.000  O
  O39      1.0000 0.53319  0.58414  0.41554  Biso   1.000  O
  O40      1.0000 0.53339  0.58376  0.91571  Biso   1.000  O
  O41      1.0000 0.96812  0.41367  0.16648  Biso   1.000  O
  O42      1.0000 0.96776  0.41438  0.66678  Biso   1.000  O
  O43      1.0000 0.97497  0.91710  0.16539  Biso   1.000  O
  O44      1.0000 0.96754  0.91532  0.66628  Biso   1.000  O
  O45      1.0000 0.96631  0.33228  0.41472  Biso   1.000  O
  O46      1.0000 0.96790  0.33275  0.91784  Biso   1.000  O
  O47      1.0000 0.96713  0.83497  0.41609  Biso   1.000  O
  O48      1.0000 0.96658  0.83402  0.91607  Biso   1.000  O
  O49      1.0000 0.77578  0.12439  0.95395  Biso   1.000  O
  O50      1.0000 0.77702  0.12322  0.45433  Biso   1.000  O
  O51      1.0000 0.77694  0.62441  0.95549  Biso   1.000  O
  O52      1.0000 0.77593  0.62414  0.45500  Biso   1.000  O
  O53      1.0000 0.77706  0.12562  0.20498  Biso   1.000  O
  O54      1.0000 0.77592  0.12577  0.70433  Biso   1.000  O
  O55      1.0000 0.77591  0.62560  0.20479  Biso   1.000  O
  O56      1.0000 0.77654  0.62543  0.70525  Biso   1.000  O
  O57      1.0000 0.72462  0.37426  0.95532  Biso   1.000  O
  O58      1.0000 0.72405  0.37379  0.45533  Biso   1.000  O
  O59      1.0000 0.72292  0.87429  0.95379  Biso   1.000  O
  O60      1.0000 0.72383  0.87416  0.45443  Biso   1.000  O
  O61      1.0000 0.72397  0.37546  0.20481  Biso   1.000  O
  O62      1.0000 0.72423  0.37598  0.70529  Biso   1.000  O
  O63      1.0000 0.72697  0.87650  0.20436  Biso   1.000  O
  O64      1.0000 0.72414  0.87576  0.70432  Biso   1.000  O
