data_image0
_cell_length_a       9.93886
_cell_length_b       10.3336
_cell_length_c       4.98494
_cell_angle_alpha    89.8122
_cell_angle_beta     89.9102
_cell_angle_gamma    90.0528

_symmetry_space_group_name_H-M    "P 1"
_symmetry_int_tables_number       1

loop_
  _symmetry_equiv_pos_as_xyz
  'x, y, z'

loop_
  _atom_site_label
  _atom_site_occupancy
  _atom_site_fract_x
  _atom_site_fract_y
  _atom_site_fract_z
  _atom_site_thermal_displace_type
  _atom_site_B_iso_or_equiv
  _atom_site_type_symbol
  Tc1      1.0000 0.13623  0.02141  0.25053  Biso   1.000  Tc
  Hf1      1.0000 0.13400  0.23202  0.75558  Biso   1.000  Hf
  Hf2      1.0000 0.36610  0.26712  0.25085  Biso   1.000  Hf
  Hf3      1.0000 0.36598  0.48449  0.75181  Biso   1.000  Hf
  O1       1.0000 0.03282  0.17682  0.40920  Biso   1.000  O
  O2       1.0000 0.03605  0.06614  0.92588  Biso   1.000  O
  O3       1.0000 0.46277  0.43531  0.38544  Biso   1.000  O
  O4       1.0000 0.46181  0.31491  0.88512  Biso   1.000  O
  O5       1.0000 0.26853  0.11696  0.49168  Biso   1.000  O
  O6       1.0000 0.27131  0.12881  0.99890  Biso   1.000  O
  O7       1.0000 0.22892  0.38162  0.00074  Biso   1.000  O
  O8       1.0000 0.22933  0.36707  0.50195  Biso   1.000  O
  Hf4      1.0000 0.13430  0.51635  0.25282  Biso   1.000  Hf
  Hf5      1.0000 0.13344  0.73470  0.75174  Biso   1.000  Hf
  Hf6      1.0000 0.36418  0.76855  0.25270  Biso   1.000  Hf
  Hf7      1.0000 0.36342  0.98244  0.75260  Biso   1.000  Hf
  O9       1.0000 0.03676  0.68293  0.38701  Biso   1.000  O
  O10      1.0000 0.03628  0.56559  0.88889  Biso   1.000  O
  O11      1.0000 0.46439  0.93386  0.39012  Biso   1.000  O
  O12      1.0000 0.46130  0.81541  0.88653  Biso   1.000  O
  O13      1.0000 0.27097  0.61954  0.49991  Biso   1.000  O
  O14      1.0000 0.27091  0.63246  0.99941  Biso   1.000  O
  O15      1.0000 0.22408  0.88319  0.00588  Biso   1.000  O
  O16      1.0000 0.22700  0.87177  0.49895  Biso   1.000  O
  Hf8      1.0000 0.63370  0.01588  0.24823  Biso   1.000  Hf
  Hf9      1.0000 0.63335  0.23299  0.75105  Biso   1.000  Hf
  Hf10     1.0000 0.86606  0.26432  0.25352  Biso   1.000  Hf
  Hf11     1.0000 0.86573  0.48338  0.75214  Biso   1.000  Hf
  O17      1.0000 0.53592  0.18467  0.38602  Biso   1.000  O
  O18      1.0000 0.53528  0.06536  0.88635  Biso   1.000  O
  O19      1.0000 0.96499  0.43117  0.39076  Biso   1.000  O
  O20      1.0000 0.96464  0.31494  0.89278  Biso   1.000  O
  O21      1.0000 0.76848  0.11702  0.49775  Biso   1.000  O
  O22      1.0000 0.77107  0.13255  0.99636  Biso   1.000  O
  O23      1.0000 0.72920  0.38173  0.00009  Biso   1.000  O
  O24      1.0000 0.72959  0.36751  0.49917  Biso   1.000  O
  Hf12     1.0000 0.63459  0.51748  0.25123  Biso   1.000  Hf
  Hf13     1.0000 0.63456  0.73480  0.74859  Biso   1.000  Hf
  Hf14     1.0000 0.86899  0.76798  0.24776  Biso   1.000  Hf
  Hf15     1.0000 0.87046  0.98527  0.74633  Biso   1.000  Hf
  O25      1.0000 0.53686  0.68569  0.38536  Biso   1.000  O
  O26      1.0000 0.53758  0.56564  0.88454  Biso   1.000  O
  O27      1.0000 0.97114  0.93388  0.38472  Biso   1.000  O
  O28      1.0000 0.96216  0.81561  0.88086  Biso   1.000  O
  O29      1.0000 0.77142  0.61799  0.49850  Biso   1.000  O
  O30      1.0000 0.77094  0.63301  0.99820  Biso   1.000  O
  O31      1.0000 0.72995  0.88397  0.99244  Biso   1.000  O
  O32      1.0000 0.73379  0.86873  0.49454  Biso   1.000  O
