data_image0
_cell_length_a       10.1081
_cell_length_b       10.497
_cell_length_c       5.06374
_cell_angle_alpha    88.0468
_cell_angle_beta     88.079
_cell_angle_gamma    92.2335

_symmetry_space_group_name_H-M    "P 1"
_symmetry_int_tables_number       1

loop_
  _symmetry_equiv_pos_as_xyz
  'x, y, z'

loop_
  _atom_site_label
  _atom_site_occupancy
  _atom_site_fract_x
  _atom_site_fract_y
  _atom_site_fract_z
  _atom_site_thermal_displace_type
  _atom_site_B_iso_or_equiv
  _atom_site_type_symbol
  Hf1      1.0000 0.11570  0.94460  0.22207  Biso   1.000  Hf
  Hf2      1.0000 0.14007  0.28054  0.75033  Biso   1.000  Hf
  Hf3      1.0000 0.38806  0.28297  0.28634  Biso   1.000  Hf
  Hf4      1.0000 0.35728  0.99406  0.75876  Biso   1.000  Hf
  O1       1.0000 0.99984  0.15192  0.92832  Biso   1.000  O
  O2       1.0000 0.97456  0.05987  0.41290  Biso   1.000  O
  O3       1.0000 0.02132  0.32178  0.44515  Biso   1.000  O
  O4       1.0000 0.00246  0.39894  0.97568  Biso   1.000  O
  O5       1.0000 0.27009  0.16337  0.55316  Biso   1.000  O
  O6       1.0000 0.25552  0.07526  0.04069  Biso   1.000  O
  O7       1.0000 0.27763  0.35818  0.99172  Biso   1.000  O
  O8       1.0000 0.26373  0.41795  0.49908  Biso   1.000  O
  Hf5      1.0000 0.12627  0.49666  0.25037  Biso   1.000  Hf
  Hf6      1.0000 0.12181  0.72697  0.72050  Biso   1.000  Hf
  Hf7      1.0000 0.38568  0.76755  0.25326  Biso   1.000  Hf
  Hf8      1.0000 0.38749  0.51318  0.77350  Biso   1.000  Hf
  O9       1.0000 0.98252  0.64359  0.01468  Biso   1.000  O
  O10      1.0000 0.01394  0.56562  0.54065  Biso   1.000  O
  O11      1.0000 0.99895  0.80799  0.44748  Biso   1.000  O
  O12      1.0000 0.98678  0.88748  0.93944  Biso   1.000  O
  O13      1.0000 0.24173  0.65434  0.42690  Biso   1.000  O
  O14      1.0000 0.22184  0.58443  0.92594  Biso   1.000  O
  O15      1.0000 0.24326  0.82943  0.98677  Biso   1.000  O
  O16      1.0000 0.24446  0.89159  0.50330  Biso   1.000  O
  Hf9      1.0000 0.60926  0.02134  0.28569  Biso   1.000  Hf
  Hf10     1.0000 0.63851  0.24884  0.76700  Biso   1.000  Hf
  Hf11     1.0000 0.88034  0.23862  0.21573  Biso   1.000  Hf
  Hf12     1.0000 0.86160  0.00375  0.73646  Biso   1.000  Hf
  O17      1.0000 0.52495  0.18398  0.09315  Biso   1.000  O
  O18      1.0000 0.51217  0.10715  0.59074  Biso   1.000  O
  O19      1.0000 0.51180  0.36753  0.56576  Biso   1.000  O
  O20      1.0000 0.49921  0.43760  0.06584  Biso   1.000  O
  O21      1.0000 0.75195  0.15041  0.50581  Biso   1.000  O
  O22      1.0000 0.75102  0.10667  0.00153  Biso   1.000  O
  O23      1.0000 0.74905  0.36282  0.03606  Biso   1.000  O
  O24      1.0000 0.76415  0.39371  0.53888  Biso   1.000  O
  Hf13     1.0000 0.64212  0.49504  0.30403  Biso   1.000  Hf
  Hf14     1.0000 0.62834  0.75131  0.71473  Biso   1.000  Hf
  Hf15     1.0000 0.85387  0.76018  0.20141  Biso   1.000  Hf
  Hf16     1.0000 0.86648  0.50860  0.79382  Biso   1.000  Hf
  O25      1.0000 0.47131  0.68086  0.94577  Biso   1.000  O
  O26      1.0000 0.50805  0.61859  0.47078  Biso   1.000  O
  O27      1.0000 0.49688  0.86626  0.52671  Biso   1.000  O
  O28      1.0000 0.48004  0.93192  0.04933  Biso   1.000  O
  O29      1.0000 0.76096  0.64340  0.50488  Biso   1.000  O
  O30      1.0000 0.72882  0.61530  0.00544  Biso   1.000  O
  O31      1.0000 0.73512  0.86141  0.95939  Biso   1.000  O
  O32      1.0000 0.74777  0.89702  0.46276  Biso   1.000  O
  Tc1      1.0000 0.13351  0.18166  0.25126  Biso   1.000  Tc
