data_image0
_cell_length_a       10.1134
_cell_length_b       10.2999
_cell_length_c       10.1134
_cell_angle_alpha    89.9998
_cell_angle_beta     89.3505
_cell_angle_gamma    89.9998

_symmetry_space_group_name_H-M    "P 1"
_symmetry_int_tables_number       1

loop_
  _symmetry_equiv_pos_as_xyz
  'x, y, z'

loop_
  _atom_site_label
  _atom_site_occupancy
  _atom_site_fract_x
  _atom_site_fract_y
  _atom_site_fract_z
  _atom_site_thermal_displace_type
  _atom_site_B_iso_or_equiv
  _atom_site_type_symbol
  Zr1      1.0000 0.12538  0.95479  0.12539  Biso   1.000  Zr
  Zr2      1.0000 0.13361  0.25779  0.38854  Biso   1.000  Zr
  Zr3      1.0000 0.38854  0.25779  0.13361  Biso   1.000  Zr
  Zr4      1.0000 0.37836  0.00403  0.37836  Biso   1.000  Zr
  O1       1.0000 0.98340  0.15642  0.98340  Biso   1.000  O
  O2       1.0000 0.01015  0.08259  0.24046  Biso   1.000  O
  O3       1.0000 0.01180  0.33063  0.23900  Biso   1.000  O
  O4       1.0000 0.99439  0.40514  0.99439  Biso   1.000  O
  O5       1.0000 0.26729  0.15635  0.26729  Biso   1.000  O
  O6       1.0000 0.24046  0.08259  0.01015  Biso   1.000  O
  O7       1.0000 0.23900  0.33063  0.01180  Biso   1.000  O
  O8       1.0000 0.25642  0.40510  0.25642  Biso   1.000  O
  Zr5      1.0000 0.12540  0.99835  0.62537  Biso   1.000  Zr
  Zr6      1.0000 0.11723  0.25776  0.86224  Biso   1.000  Zr
  Zr7      1.0000 0.37603  0.24972  0.63010  Biso   1.000  Zr
  Zr8      1.0000 0.37227  0.00025  0.87850  Biso   1.000  Zr
  O9       1.0000 0.99878  0.14746  0.49308  Biso   1.000  O
  O10      1.0000 0.99755  0.10747  0.74218  Biso   1.000  O
  O11      1.0000 0.99526  0.36112  0.74152  Biso   1.000  O
  O12      1.0000 0.00523  0.39973  0.49321  Biso   1.000  O
  O13      1.0000 0.25201  0.14745  0.75761  Biso   1.000  O
  O14      1.0000 0.25324  0.10748  0.50855  Biso   1.000  O
  O15      1.0000 0.25554  0.36113  0.50928  Biso   1.000  O
  O16      1.0000 0.24557  0.39974  0.75760  Biso   1.000  O
  Zr9      1.0000 0.12540  0.49856  0.12540  Biso   1.000  Zr
  Zr10     1.0000 0.12927  0.74639  0.38120  Biso   1.000  Zr
  Zr11     1.0000 0.38120  0.74639  0.12927  Biso   1.000  Zr
  Zr12     1.0000 0.37941  0.50342  0.37941  Biso   1.000  Zr
  O17      1.0000 0.00532  0.64884  0.00532  Biso   1.000  O
  O18      1.0000 0.99786  0.58854  0.25306  Biso   1.000  O
  O19      1.0000 0.99897  0.83437  0.25181  Biso   1.000  O
  O20      1.0000 0.99255  0.89171  0.99255  Biso   1.000  O
  O21      1.0000 0.24556  0.64880  0.24556  Biso   1.000  O
  O22      1.0000 0.25306  0.58854  0.99785  Biso   1.000  O
  O23      1.0000 0.25181  0.83437  0.99897  Biso   1.000  O
  O24      1.0000 0.25822  0.89167  0.25822  Biso   1.000  O
  Zr13     1.0000 0.12539  0.50399  0.62541  Biso   1.000  Zr
  Zr14     1.0000 0.12148  0.74643  0.86958  Biso   1.000  Zr
  Zr15     1.0000 0.37623  0.75519  0.62624  Biso   1.000  Zr
  Zr16     1.0000 0.38029  0.50332  0.87052  Biso   1.000  Zr
  O25      1.0000 0.99867  0.64712  0.50400  Biso   1.000  O
  O26      1.0000 0.00179  0.60800  0.75312  Biso   1.000  O
  O27      1.0000 0.99924  0.85672  0.74726  Biso   1.000  O
  O28      1.0000 0.00299  0.89800  0.49803  Biso   1.000  O
  O29      1.0000 0.25212  0.64712  0.74685  Biso   1.000  O
  O30      1.0000 0.24900  0.60799  0.49772  Biso   1.000  O
  O31      1.0000 0.25153  0.85671  0.50350  Biso   1.000  O
  O32      1.0000 0.24777  0.89800  0.75273  Biso   1.000  O
  Zr17     1.0000 0.62537  0.99835  0.12540  Biso   1.000  Zr
  Zr18     1.0000 0.63010  0.24972  0.37603  Biso   1.000  Zr
  Zr19     1.0000 0.86223  0.25776  0.11723  Biso   1.000  Zr
  Zr20     1.0000 0.87850  0.00025  0.37227  Biso   1.000  Zr
  O33      1.0000 0.49308  0.14746  0.99878  Biso   1.000  O
  O34      1.0000 0.50855  0.10748  0.25324  Biso   1.000  O
  O35      1.0000 0.50928  0.36113  0.25554  Biso   1.000  O
  O36      1.0000 0.49321  0.39973  0.00523  Biso   1.000  O
  O37      1.0000 0.75761  0.14745  0.25201  Biso   1.000  O
  O38      1.0000 0.74218  0.10747  0.99755  Biso   1.000  O
  O39      1.0000 0.74152  0.36112  0.99526  Biso   1.000  O
  O40      1.0000 0.75760  0.39974  0.24557  Biso   1.000  O
  Zr21     1.0000 0.62538  0.00438  0.62538  Biso   1.000  Zr
  Zr22     1.0000 0.62068  0.24970  0.87479  Biso   1.000  Zr
  Zr23     1.0000 0.87479  0.24970  0.62068  Biso   1.000  Zr
  Zr24     1.0000 0.87239  0.00408  0.87239  Biso   1.000  Zr
  O41      1.0000 0.50272  0.15078  0.50272  Biso   1.000  O
  O42      1.0000 0.49901  0.10489  0.75179  Biso   1.000  O
  O43      1.0000 0.49763  0.35634  0.75317  Biso   1.000  O
  O44      1.0000 0.50321  0.39990  0.50321  Biso   1.000  O
  O45      1.0000 0.74808  0.15078  0.74808  Biso   1.000  O
  O46      1.0000 0.75179  0.10489  0.49901  Biso   1.000  O
  O47      1.0000 0.75317  0.35634  0.49763  Biso   1.000  O
  O48      1.0000 0.74758  0.39989  0.74758  Biso   1.000  O
  Zr25     1.0000 0.62541  0.50399  0.12539  Biso   1.000  Zr
  Zr26     1.0000 0.62624  0.75519  0.37623  Biso   1.000  Zr
  Zr27     1.0000 0.86957  0.74644  0.12148  Biso   1.000  Zr
  Zr28     1.0000 0.87052  0.50332  0.38029  Biso   1.000  Zr
  O49      1.0000 0.50400  0.64712  0.99867  Biso   1.000  O
  O50      1.0000 0.49772  0.60799  0.24900  Biso   1.000  O
  O51      1.0000 0.50350  0.85671  0.25153  Biso   1.000  O
  O52      1.0000 0.49803  0.89800  0.00299  Biso   1.000  O
  O53      1.0000 0.74685  0.64712  0.25212  Biso   1.000  O
  O54      1.0000 0.75312  0.60800  0.00179  Biso   1.000  O
  O55      1.0000 0.74726  0.85672  0.99924  Biso   1.000  O
  O56      1.0000 0.75273  0.89800  0.24777  Biso   1.000  O
  Zr29     1.0000 0.62540  0.50232  0.62540  Biso   1.000  Zr
  Zr30     1.0000 0.62454  0.75520  0.87453  Biso   1.000  Zr
  Zr31     1.0000 0.87453  0.75520  0.62454  Biso   1.000  Zr
  Zr32     1.0000 0.87138  0.50338  0.87138  Biso   1.000  Zr
  O57      1.0000 0.49968  0.65138  0.49968  Biso   1.000  O
  O58      1.0000 0.50187  0.60802  0.74892  Biso   1.000  O
  O59      1.0000 0.49803  0.85693  0.75274  Biso   1.000  O
  O60      1.0000 0.50219  0.90104  0.50219  Biso   1.000  O
  O61      1.0000 0.75110  0.65138  0.75110  Biso   1.000  O
  O62      1.0000 0.74892  0.60802  0.50187  Biso   1.000  O
  O63      1.0000 0.75274  0.85693  0.49803  Biso   1.000  O
  O64      1.0000 0.74858  0.90104  0.74858  Biso   1.000  O
  Tc1      1.0000 0.12536  0.19651  0.12535  Biso   1.000  Tc
