data_image0
_cell_length_a       10.1492
_cell_length_b       5.20808
_cell_length_c       10.5801
_cell_angle_alpha    89.8333
_cell_angle_beta     90.7534
_cell_angle_gamma    89.9994

_symmetry_space_group_name_H-M    "P 1"
_symmetry_int_tables_number       1

loop_
  _symmetry_equiv_pos_as_xyz
  'x, y, z'

loop_
  _atom_site_label
  _atom_site_occupancy
  _atom_site_fract_x
  _atom_site_fract_y
  _atom_site_fract_z
  _atom_site_thermal_displace_type
  _atom_site_B_iso_or_equiv
  _atom_site_type_symbol
  Zr1      1.0000 0.14135  0.03943  0.17077  Biso   1.000  Zr
  Zr2      1.0000 0.13643  0.45886  0.42117  Biso   1.000  Zr
  Zr3      1.0000 0.35759  0.53790  0.17642  Biso   1.000  Zr
  Zr4      1.0000 0.35946  0.95922  0.42526  Biso   1.000  Zr
  Zr5      1.0000 0.64164  0.06475  0.06821  Biso   1.000  Zr
  Zr6      1.0000 0.63139  0.46058  0.34377  Biso   1.000  Zr
  Zr7      1.0000 0.87883  0.54645  0.07252  Biso   1.000  Zr
  Zr8      1.0000 0.86335  0.95835  0.33342  Biso   1.000  Zr
  O1       1.0000 0.03874  0.31931  0.07548  Biso   1.000  O
  O2       1.0000 0.02665  0.18582  0.32522  Biso   1.000  O
  O3       1.0000 0.46809  0.82176  0.07728  Biso   1.000  O
  O4       1.0000 0.45996  0.66661  0.34168  Biso   1.000  O
  O5       1.0000 0.26895  0.24912  0.29738  Biso   1.000  O
  O6       1.0000 0.27928  0.24322  0.04329  Biso   1.000  O
  O7       1.0000 0.22120  0.75063  0.29590  Biso   1.000  O
  O8       1.0000 0.22425  0.74627  0.04417  Biso   1.000  O
  O9       1.0000 0.51215  0.27449  0.18745  Biso   1.000  O
  O10      1.0000 0.52963  0.16896  0.42845  Biso   1.000  O
  O11      1.0000 0.96974  0.83083  0.16976  Biso   1.000  O
  O12      1.0000 0.96595  0.67740  0.41916  Biso   1.000  O
  O13      1.0000 0.77687  0.24163  0.45512  Biso   1.000  O
  O14      1.0000 0.75906  0.31160  0.19461  Biso   1.000  O
  O15      1.0000 0.72449  0.74396  0.46432  Biso   1.000  O
  O16      1.0000 0.72209  0.80297  0.21459  Biso   1.000  O
  Zr9      1.0000 0.13946  0.03971  0.66849  Biso   1.000  Zr
  Zr10     1.0000 0.14631  0.45081  0.91752  Biso   1.000  Zr
  Zr11     1.0000 0.36496  0.53794  0.67091  Biso   1.000  Zr
  Zr12     1.0000 0.35972  0.94965  0.91674  Biso   1.000  Zr
  Zr13     1.0000 0.63970  0.03857  0.58372  Biso   1.000  Zr
  Zr14     1.0000 0.64079  0.45174  0.83225  Biso   1.000  Zr
  Zr15     1.0000 0.86130  0.53843  0.58234  Biso   1.000  Zr
  Zr16     1.0000 0.86689  0.95667  0.82720  Biso   1.000  Zr
  O17      1.0000 0.03162  0.32429  0.57860  Biso   1.000  O
  O18      1.0000 0.03719  0.17040  0.82750  Biso   1.000  O
  O19      1.0000 0.46702  0.83100  0.58829  Biso   1.000  O
  O20      1.0000 0.46702  0.65783  0.83484  Biso   1.000  O
  O21      1.0000 0.27806  0.24279  0.79243  Biso   1.000  O
  O22      1.0000 0.27327  0.25091  0.54478  Biso   1.000  O
  O23      1.0000 0.22653  0.74357  0.79234  Biso   1.000  O
  O24      1.0000 0.22495  0.74956  0.54450  Biso   1.000  O
  O25      1.0000 0.53528  0.33143  0.66750  Biso   1.000  O
  O26      1.0000 0.53457  0.14304  0.90400  Biso   1.000  O
  O27      1.0000 0.96964  0.82667  0.66447  Biso   1.000  O
  O28      1.0000 0.97662  0.67090  0.91258  Biso   1.000  O
  O29      1.0000 0.79107  0.23917  0.94627  Biso   1.000  O
  O30      1.0000 0.77794  0.24632  0.70322  Biso   1.000  O
  O31      1.0000 0.72997  0.74781  0.96261  Biso   1.000  O
  O32      1.0000 0.72817  0.74635  0.71160  Biso   1.000  O
  Tc1      1.0000 0.61352  0.55470  0.10516  Biso   1.000  Tc
