data_image0
_cell_length_a       10.1548
_cell_length_b       5.1597
_cell_length_c       10.4724
_cell_angle_alpha    89.8678
_cell_angle_beta     80.1583
_cell_angle_gamma    89.9024

_symmetry_space_group_name_H-M    "P 1"
_symmetry_int_tables_number       1

loop_
  _symmetry_equiv_pos_as_xyz
  'x, y, z'

loop_
  _atom_site_label
  _atom_site_occupancy
  _atom_site_fract_x
  _atom_site_fract_y
  _atom_site_fract_z
  _atom_site_thermal_displace_type
  _atom_site_B_iso_or_equiv
  _atom_site_type_symbol
  Tc1      1.0000 0.13994  0.04477  0.14993  Biso   1.000  Tc
  Zr1      1.0000 0.13955  0.46059  0.39394  Biso   1.000  Zr
  Zr2      1.0000 0.35695  0.54974  0.10576  Biso   1.000  Zr
  Zr3      1.0000 0.36094  0.95937  0.35352  Biso   1.000  Zr
  O1       1.0000 0.03721  0.32587  0.08093  Biso   1.000  O
  O2       1.0000 0.03951  0.16442  0.31965  Biso   1.000  O
  O3       1.0000 0.46553  0.83841  0.17012  Biso   1.000  O
  O4       1.0000 0.46465  0.66096  0.41889  Biso   1.000  O
  O5       1.0000 0.27538  0.25739  0.24014  Biso   1.000  O
  O6       1.0000 0.27678  0.24393  0.49103  Biso   1.000  O
  O7       1.0000 0.21732  0.76284  0.01081  Biso   1.000  O
  O8       1.0000 0.22117  0.74965  0.25783  Biso   1.000  O
  Zr4      1.0000 0.13866  0.04238  0.64560  Biso   1.000  Zr
  Zr5      1.0000 0.13848  0.45397  0.89791  Biso   1.000  Zr
  Zr6      1.0000 0.36126  0.54343  0.60505  Biso   1.000  Zr
  Zr7      1.0000 0.35791  0.95687  0.85671  Biso   1.000  Zr
  O9       1.0000 0.03310  0.32951  0.57451  Biso   1.000  O
  O10      1.0000 0.03345  0.16508  0.82749  Biso   1.000  O
  O11      1.0000 0.46315  0.84118  0.66967  Biso   1.000  O
  O12      1.0000 0.45900  0.65458  0.91910  Biso   1.000  O
  O13      1.0000 0.27630  0.25719  0.74302  Biso   1.000  O
  O14      1.0000 0.27200  0.23495  0.99920  Biso   1.000  O
  O15      1.0000 0.22367  0.75729  0.50838  Biso   1.000  O
  O16      1.0000 0.22309  0.74102  0.75930  Biso   1.000  O
  Zr8      1.0000 0.63897  0.04550  0.14474  Biso   1.000  Zr
  Zr9      1.0000 0.63976  0.45869  0.39479  Biso   1.000  Zr
  Zr10     1.0000 0.86682  0.54217  0.10429  Biso   1.000  Zr
  Zr11     1.0000 0.86237  0.95965  0.35246  Biso   1.000  Zr
  O17      1.0000 0.53409  0.34232  0.08217  Biso   1.000  O
  O18      1.0000 0.53659  0.16071  0.33153  Biso   1.000  O
  O19      1.0000 0.97707  0.83661  0.16667  Biso   1.000  O
  O20      1.0000 0.96513  0.66520  0.41899  Biso   1.000  O
  O21      1.0000 0.77704  0.25830  0.24008  Biso   1.000  O
  O22      1.0000 0.77756  0.24140  0.48936  Biso   1.000  O
  O23      1.0000 0.72376  0.75835  0.00966  Biso   1.000  O
  O24      1.0000 0.73026  0.74422  0.25820  Biso   1.000  O
  Zr12     1.0000 0.63798  0.04200  0.64616  Biso   1.000  Zr
  Zr13     1.0000 0.63729  0.45693  0.89698  Biso   1.000  Zr
  Zr14     1.0000 0.86016  0.54249  0.60434  Biso   1.000  Zr
  Zr15     1.0000 0.86036  0.95664  0.85507  Biso   1.000  Zr
  O25      1.0000 0.53709  0.34240  0.58145  Biso   1.000  O
  O26      1.0000 0.53437  0.15737  0.83312  Biso   1.000  O
  O27      1.0000 0.96533  0.83264  0.67042  Biso   1.000  O
  O28      1.0000 0.96507  0.65968  0.92057  Biso   1.000  O
  O29      1.0000 0.77497  0.25715  0.74091  Biso   1.000  O
  O30      1.0000 0.77606  0.24402  0.99066  Biso   1.000  O
  O31      1.0000 0.72402  0.75828  0.50904  Biso   1.000  O
  O32      1.0000 0.72287  0.74193  0.75984  Biso   1.000  O
