data_image0
_cell_length_a       9.91672
_cell_length_b       5.16998
_cell_length_c       9.96655
_cell_angle_alpha    90.092
_cell_angle_beta     89.804
_cell_angle_gamma    90.0477

_symmetry_space_group_name_H-M    "P 1"
_symmetry_int_tables_number       1

loop_
  _symmetry_equiv_pos_as_xyz
  'x, y, z'

loop_
  _atom_site_label
  _atom_site_occupancy
  _atom_site_fract_x
  _atom_site_fract_y
  _atom_site_fract_z
  _atom_site_thermal_displace_type
  _atom_site_B_iso_or_equiv
  _atom_site_type_symbol
  Ti1      1.0000 0.13116  0.03786  0.12550  Biso   1.000  Ti
  Hf1      1.0000 0.13483  0.46414  0.37395  Biso   1.000  Hf
  Hf2      1.0000 0.36331  0.53234  0.12683  Biso   1.000  Hf
  Hf3      1.0000 0.36477  0.96514  0.37479  Biso   1.000  Hf
  O1       1.0000 0.03943  0.36049  0.18946  Biso   1.000  O
  O2       1.0000 0.03636  0.13176  0.44637  Biso   1.000  O
  O3       1.0000 0.46584  0.86570  0.19487  Biso   1.000  O
  O4       1.0000 0.46426  0.63216  0.44504  Biso   1.000  O
  O5       1.0000 0.26479  0.22206  0.24588  Biso   1.000  O
  O6       1.0000 0.27206  0.26461  0.49873  Biso   1.000  O
  O7       1.0000 0.22858  0.76273  0.50125  Biso   1.000  O
  O8       1.0000 0.23047  0.73194  0.25105  Biso   1.000  O
  Hf4      1.0000 0.13488  0.03431  0.62684  Biso   1.000  Hf
  Hf5      1.0000 0.13399  0.46737  0.87969  Biso   1.000  Hf
  Hf6      1.0000 0.36536  0.53538  0.62729  Biso   1.000  Hf
  Hf7      1.0000 0.36255  0.96974  0.87976  Biso   1.000  Hf
  O9       1.0000 0.03544  0.36717  0.69786  Biso   1.000  O
  O10      1.0000 0.03757  0.12710  0.95169  Biso   1.000  O
  O11      1.0000 0.46200  0.87122  0.69537  Biso   1.000  O
  O12      1.0000 0.45937  0.63116  0.94385  Biso   1.000  O
  O13      1.0000 0.27080  0.23854  0.75110  Biso   1.000  O
  O14      1.0000 0.26856  0.26446  0.00196  Biso   1.000  O
  O15      1.0000 0.22365  0.77378  0.00646  Biso   1.000  O
  O16      1.0000 0.22780  0.73777  0.75329  Biso   1.000  O
  Hf8      1.0000 0.63429  0.03365  0.12590  Biso   1.000  Hf
  Hf9      1.0000 0.63456  0.46788  0.37517  Biso   1.000  Hf
  Hf10     1.0000 0.86942  0.53138  0.12326  Biso   1.000  Hf
  Hf11     1.0000 0.86768  0.96871  0.37572  Biso   1.000  Hf
  O17      1.0000 0.53562  0.36909  0.19494  Biso   1.000  O
  O18      1.0000 0.53729  0.13112  0.44237  Biso   1.000  O
  O19      1.0000 0.97706  0.87161  0.18971  Biso   1.000  O
  O20      1.0000 0.96366  0.62943  0.44090  Biso   1.000  O
  O21      1.0000 0.77343  0.23417  0.24813  Biso   1.000  O
  O22      1.0000 0.77136  0.26437  0.49882  Biso   1.000  O
  O23      1.0000 0.73026  0.76552  0.49878  Biso   1.000  O
  O24      1.0000 0.73581  0.73518  0.24800  Biso   1.000  O
  Hf12     1.0000 0.63276  0.03267  0.62537  Biso   1.000  Hf
  Hf13     1.0000 0.63249  0.46920  0.87572  Biso   1.000  Hf
  Hf14     1.0000 0.86624  0.53230  0.62582  Biso   1.000  Hf
  Hf15     1.0000 0.86689  0.96978  0.87548  Biso   1.000  Hf
  O25      1.0000 0.53664  0.37091  0.69326  Biso   1.000  O
  O26      1.0000 0.53565  0.13234  0.94466  Biso   1.000  O
  O27      1.0000 0.96345  0.86936  0.69295  Biso   1.000  O
  O28      1.0000 0.96065  0.62841  0.94021  Biso   1.000  O
  O29      1.0000 0.76981  0.23586  0.74950  Biso   1.000  O
  O30      1.0000 0.77040  0.26740  0.99918  Biso   1.000  O
  O31      1.0000 0.72919  0.76670  0.99898  Biso   1.000  O
  O32      1.0000 0.72888  0.73613  0.74906  Biso   1.000  O
