data_image0
_cell_length_a       10.1551
_cell_length_b       10.3393
_cell_length_c       10.4743
_cell_angle_alpha    90.0383
_cell_angle_beta     80.4439
_cell_angle_gamma    89.944

_symmetry_space_group_name_H-M    "P 1"
_symmetry_int_tables_number       1

loop_
  _symmetry_equiv_pos_as_xyz
  'x, y, z'

loop_
  _atom_site_label
  _atom_site_occupancy
  _atom_site_fract_x
  _atom_site_fract_y
  _atom_site_fract_z
  _atom_site_thermal_displace_type
  _atom_site_B_iso_or_equiv
  _atom_site_type_symbol
  Ti1      1.0000 0.13172  0.02501  0.14600  Biso   1.000  Ti
  Zr1      1.0000 0.13931  0.22757  0.39265  Biso   1.000  Zr
  Zr2      1.0000 0.35950  0.26909  0.10472  Biso   1.000  Zr
  Zr3      1.0000 0.36157  0.47875  0.35455  Biso   1.000  Zr
  O1       1.0000 0.03847  0.16139  0.08401  Biso   1.000  O
  O2       1.0000 0.04008  0.07759  0.32342  Biso   1.000  O
  O3       1.0000 0.46358  0.41999  0.16851  Biso   1.000  O
  O4       1.0000 0.46435  0.32986  0.41895  Biso   1.000  O
  O5       1.0000 0.27152  0.12494  0.23609  Biso   1.000  O
  O6       1.0000 0.27640  0.12153  0.48894  Biso   1.000  O
  O7       1.0000 0.22326  0.37907  0.00963  Biso   1.000  O
  O8       1.0000 0.22455  0.36998  0.25915  Biso   1.000  O
  Zr4      1.0000 0.13881  0.02129  0.64485  Biso   1.000  Zr
  Zr5      1.0000 0.14056  0.22714  0.89572  Biso   1.000  Zr
  Zr6      1.0000 0.36112  0.27165  0.60426  Biso   1.000  Zr
  Zr7      1.0000 0.36068  0.47897  0.85508  Biso   1.000  Zr
  O9       1.0000 0.03500  0.16719  0.57712  Biso   1.000  O
  O10      1.0000 0.03505  0.08152  0.82951  Biso   1.000  O
  O11      1.0000 0.46351  0.42103  0.66870  Biso   1.000  O
  O12      1.0000 0.46277  0.32863  0.91835  Biso   1.000  O
  O13      1.0000 0.27619  0.12890  0.74035  Biso   1.000  O
  O14      1.0000 0.27403  0.12092  0.99244  Biso   1.000  O
  O15      1.0000 0.22353  0.37883  0.50885  Biso   1.000  O
  O16      1.0000 0.22385  0.37038  0.75963  Biso   1.000  O
  Zr8      1.0000 0.13954  0.52135  0.14566  Biso   1.000  Zr
  Zr9      1.0000 0.13943  0.72932  0.39466  Biso   1.000  Zr
  Zr10     1.0000 0.35708  0.77472  0.10590  Biso   1.000  Zr
  Zr11     1.0000 0.35888  0.97860  0.35238  Biso   1.000  Zr
  O17      1.0000 0.03592  0.66989  0.08167  Biso   1.000  O
  O18      1.0000 0.03621  0.57927  0.33122  Biso   1.000  O
  O19      1.0000 0.46524  0.91951  0.16907  Biso   1.000  O
  O20      1.0000 0.46416  0.83037  0.41825  Biso   1.000  O
  O21      1.0000 0.27616  0.62927  0.24094  Biso   1.000  O
  O22      1.0000 0.27666  0.62120  0.49077  Biso   1.000  O
  O23      1.0000 0.21868  0.88614  0.01464  Biso   1.000  O
  O24      1.0000 0.22167  0.87206  0.25901  Biso   1.000  O
  Zr12     1.0000 0.13938  0.52162  0.64531  Biso   1.000  Zr
  Zr13     1.0000 0.13917  0.73012  0.89618  Biso   1.000  Zr
  Zr14     1.0000 0.36159  0.77190  0.60476  Biso   1.000  Zr
  Zr15     1.0000 0.35917  0.97981  0.85713  Biso   1.000  Zr
  O25      1.0000 0.03585  0.66975  0.58111  Biso   1.000  O
  O26      1.0000 0.03652  0.58037  0.83182  Biso   1.000  O
  O27      1.0000 0.46316  0.92094  0.66942  Biso   1.000  O
  O28      1.0000 0.46042  0.82936  0.91942  Biso   1.000  O
  O29      1.0000 0.27635  0.62943  0.74094  Biso   1.000  O
  O30      1.0000 0.27571  0.62232  0.99115  Biso   1.000  O
  O31      1.0000 0.22370  0.87906  0.50931  Biso   1.000  O
  O32      1.0000 0.22342  0.87151  0.76043  Biso   1.000  O
  Zr16     1.0000 0.63888  0.02176  0.14537  Biso   1.000  Zr
  Zr17     1.0000 0.63911  0.22811  0.39509  Biso   1.000  Zr
  Zr18     1.0000 0.86136  0.27079  0.10556  Biso   1.000  Zr
  Zr19     1.0000 0.86107  0.47867  0.35455  Biso   1.000  Zr
  O33      1.0000 0.53633  0.17068  0.08128  Biso   1.000  O
  O34      1.0000 0.53531  0.08047  0.33020  Biso   1.000  O
  O35      1.0000 0.96567  0.41785  0.16955  Biso   1.000  O
  O36      1.0000 0.96377  0.32845  0.41791  Biso   1.000  O
  O37      1.0000 0.77735  0.12853  0.24048  Biso   1.000  O
  O38      1.0000 0.77711  0.12030  0.48989  Biso   1.000  O
  O39      1.0000 0.72479  0.37898  0.00981  Biso   1.000  O
  O40      1.0000 0.72433  0.37051  0.25888  Biso   1.000  O
  Zr20     1.0000 0.63820  0.02076  0.64549  Biso   1.000  Zr
  Zr21     1.0000 0.63857  0.22893  0.89533  Biso   1.000  Zr
  Zr22     1.0000 0.86121  0.27094  0.60431  Biso   1.000  Zr
  Zr23     1.0000 0.86202  0.47840  0.85564  Biso   1.000  Zr
  O41      1.0000 0.53662  0.17072  0.58121  Biso   1.000  O
  O42      1.0000 0.53586  0.07919  0.83222  Biso   1.000  O
  O43      1.0000 0.96505  0.41841  0.67030  Biso   1.000  O
  O44      1.0000 0.96557  0.32909  0.92230  Biso   1.000  O
  O45      1.0000 0.77575  0.12903  0.74048  Biso   1.000  O
  O46      1.0000 0.77677  0.12136  0.99083  Biso   1.000  O
  O47      1.0000 0.72415  0.37889  0.50947  Biso   1.000  O
  O48      1.0000 0.72417  0.37123  0.75980  Biso   1.000  O
  Zr24     1.0000 0.63767  0.52240  0.14523  Biso   1.000  Zr
  Zr25     1.0000 0.63943  0.72966  0.39522  Biso   1.000  Zr
  Zr26     1.0000 0.86319  0.77248  0.10442  Biso   1.000  Zr
  Zr27     1.0000 0.86410  0.97906  0.35366  Biso   1.000  Zr
  O49      1.0000 0.53453  0.67131  0.08175  Biso   1.000  O
  O50      1.0000 0.53677  0.57956  0.33167  Biso   1.000  O
  O51      1.0000 0.97400  0.92239  0.16628  Biso   1.000  O
  O52      1.0000 0.96384  0.82942  0.41877  Biso   1.000  O
  O53      1.0000 0.77670  0.62949  0.24054  Biso   1.000  O
  O54      1.0000 0.77635  0.62082  0.49095  Biso   1.000  O
  O55      1.0000 0.72390  0.87942  0.00955  Biso   1.000  O
  O56      1.0000 0.72902  0.87210  0.25823  Biso   1.000  O
  Zr28     1.0000 0.63900  0.52136  0.64572  Biso   1.000  Zr
  Zr29     1.0000 0.63737  0.72900  0.89677  Biso   1.000  Zr
  Zr30     1.0000 0.86066  0.77078  0.60514  Biso   1.000  Zr
  Zr31     1.0000 0.86076  0.97896  0.85436  Biso   1.000  Zr
  O57      1.0000 0.53685  0.67113  0.58118  Biso   1.000  O
  O58      1.0000 0.53592  0.57943  0.83175  Biso   1.000  O
  O59      1.0000 0.96398  0.91959  0.66913  Biso   1.000  O
  O60      1.0000 0.96372  0.83008  0.91908  Biso   1.000  O
  O61      1.0000 0.77620  0.62872  0.74170  Biso   1.000  O
  O62      1.0000 0.77637  0.62188  0.99138  Biso   1.000  O
  O63      1.0000 0.72405  0.87898  0.50915  Biso   1.000  O
  O64      1.0000 0.72309  0.87084  0.75978  Biso   1.000  O
