data_image0
_cell_length_a       10.0585
_cell_length_b       10.159
_cell_length_c       5.02688
_cell_angle_alpha    89.9998
_cell_angle_beta     90.0002
_cell_angle_gamma    89.9999

_symmetry_space_group_name_H-M    "P 1"
_symmetry_int_tables_number       1

loop_
  _symmetry_equiv_pos_as_xyz
  'x, y, z'

loop_
  _atom_site_label
  _atom_site_occupancy
  _atom_site_fract_x
  _atom_site_fract_y
  _atom_site_fract_z
  _atom_site_thermal_displace_type
  _atom_site_B_iso_or_equiv
  _atom_site_type_symbol
  Ti1      1.0000 0.12540  0.00007  0.25080  Biso   1.000  Ti
  Zr1      1.0000 0.12540  0.25090  0.75079  Biso   1.000  Zr
  Zr2      1.0000 0.37463  0.24941  0.25753  Biso   1.000  Zr
  Zr3      1.0000 0.37389  0.00008  0.75079  Biso   1.000  Zr
  O1       1.0000 0.98297  0.14875  0.95798  Biso   1.000  O
  O2       1.0000 0.01548  0.10053  0.46559  Biso   1.000  O
  O3       1.0000 0.99480  0.35336  0.50767  Biso   1.000  O
  O4       1.0000 0.00450  0.39544  0.00438  Biso   1.000  O
  O5       1.0000 0.26783  0.14875  0.54361  Biso   1.000  O
  O6       1.0000 0.23531  0.10052  0.03600  Biso   1.000  O
  O7       1.0000 0.25599  0.35336  0.99392  Biso   1.000  O
  O8       1.0000 0.24629  0.39544  0.49720  Biso   1.000  O
  Zr4      1.0000 0.12540  0.50008  0.25080  Biso   1.000  Zr
  Zr5      1.0000 0.12540  0.74925  0.75079  Biso   1.000  Zr
  Zr6      1.0000 0.37463  0.75075  0.24404  Biso   1.000  Zr
  Zr7      1.0000 0.37692  0.50008  0.75079  Biso   1.000  Zr
  O9       1.0000 0.99480  0.64679  0.99392  Biso   1.000  O
  O10      1.0000 0.00450  0.60471  0.49720  Biso   1.000  O
  O11      1.0000 0.98296  0.85140  0.54361  Biso   1.000  O
  O12      1.0000 0.01549  0.89963  0.03600  Biso   1.000  O
  O13      1.0000 0.25600  0.64679  0.50767  Biso   1.000  O
  O14      1.0000 0.24629  0.60471  0.00438  Biso   1.000  O
  O15      1.0000 0.26783  0.85140  0.95797  Biso   1.000  O
  O16      1.0000 0.23531  0.89962  0.46559  Biso   1.000  O
  Zr8      1.0000 0.62540  0.00008  0.25080  Biso   1.000  Zr
  Zr9      1.0000 0.62540  0.24905  0.75079  Biso   1.000  Zr
  Zr10     1.0000 0.87616  0.24941  0.24404  Biso   1.000  Zr
  Zr11     1.0000 0.87690  0.00008  0.75079  Biso   1.000  Zr
  O17      1.0000 0.48558  0.14244  0.98481  Biso   1.000  O
  O18      1.0000 0.51096  0.10900  0.49429  Biso   1.000  O
  O19      1.0000 0.49485  0.35779  0.50925  Biso   1.000  O
  O20      1.0000 0.50517  0.39179  0.00470  Biso   1.000  O
  O21      1.0000 0.76521  0.14245  0.51678  Biso   1.000  O
  O22      1.0000 0.73983  0.10900  0.00730  Biso   1.000  O
  O23      1.0000 0.75593  0.35779  0.99233  Biso   1.000  O
  O24      1.0000 0.74563  0.39179  0.49689  Biso   1.000  O
  Zr12     1.0000 0.62540  0.50007  0.25080  Biso   1.000  Zr
  Zr13     1.0000 0.62540  0.75110  0.75079  Biso   1.000  Zr
  Zr14     1.0000 0.87616  0.75074  0.25753  Biso   1.000  Zr
  Zr15     1.0000 0.87388  0.50008  0.75079  Biso   1.000  Zr
  O25      1.0000 0.49486  0.64236  0.99234  Biso   1.000  O
  O26      1.0000 0.50517  0.60837  0.49689  Biso   1.000  O
  O27      1.0000 0.48558  0.85770  0.51678  Biso   1.000  O
  O28      1.0000 0.51096  0.89115  0.00730  Biso   1.000  O
  O29      1.0000 0.75594  0.64236  0.50925  Biso   1.000  O
  O30      1.0000 0.74562  0.60836  0.00470  Biso   1.000  O
  O31      1.0000 0.76521  0.85771  0.98480  Biso   1.000  O
  O32      1.0000 0.73983  0.89115  0.49429  Biso   1.000  O
