data_image0
_cell_length_a       10.1642
_cell_length_b       5.205
_cell_length_c       10.6991
_cell_angle_alpha    89.6734
_cell_angle_beta     92.0694
_cell_angle_gamma    90.1952

_symmetry_space_group_name_H-M    "P 1"
_symmetry_int_tables_number       1

loop_
  _symmetry_equiv_pos_as_xyz
  'x, y, z'

loop_
  _atom_site_label
  _atom_site_occupancy
  _atom_site_fract_x
  _atom_site_fract_y
  _atom_site_fract_z
  _atom_site_thermal_displace_type
  _atom_site_B_iso_or_equiv
  _atom_site_type_symbol
  Zr1      1.0000 0.13374  0.03725  0.17295  Biso   1.000  Zr
  Zr2      1.0000 0.13221  0.45309  0.42789  Biso   1.000  Zr
  Zr3      1.0000 0.34158  0.53676  0.19633  Biso   1.000  Zr
  Zr4      1.0000 0.36065  0.95908  0.43086  Biso   1.000  Zr
  Zr5      1.0000 0.65402  0.04412  0.06938  Biso   1.000  Zr
  Zr6      1.0000 0.63494  0.45662  0.33432  Biso   1.000  Zr
  Zr7      1.0000 0.86445  0.53921  0.07707  Biso   1.000  Zr
  Zr8      1.0000 0.85842  0.95907  0.32825  Biso   1.000  Zr
  O1       1.0000 0.03366  0.32952  0.08446  Biso   1.000  O
  O2       1.0000 0.02575  0.17467  0.33244  Biso   1.000  O
  O3       1.0000 0.46882  0.89293  0.08926  Biso   1.000  O
  O4       1.0000 0.46604  0.69162  0.33514  Biso   1.000  O
  O5       1.0000 0.26312  0.24952  0.30344  Biso   1.000  O
  O6       1.0000 0.26941  0.23803  0.04914  Biso   1.000  O
  O7       1.0000 0.21583  0.75328  0.30753  Biso   1.000  O
  O8       1.0000 0.22412  0.74665  0.05711  Biso   1.000  O
  O9       1.0000 0.51053  0.29636  0.20945  Biso   1.000  O
  O10      1.0000 0.52610  0.18664  0.43394  Biso   1.000  O
  O11      1.0000 0.96319  0.82962  0.16996  Biso   1.000  O
  O12      1.0000 0.96620  0.67411  0.42025  Biso   1.000  O
  O13      1.0000 0.77418  0.24955  0.45136  Biso   1.000  O
  O14      1.0000 0.77301  0.25570  0.20170  Biso   1.000  O
  O15      1.0000 0.72606  0.75434  0.45634  Biso   1.000  O
  O16      1.0000 0.72186  0.74941  0.20493  Biso   1.000  O
  Zr9      1.0000 0.14369  0.04052  0.67539  Biso   1.000  Zr
  Zr10     1.0000 0.14498  0.46124  0.92642  Biso   1.000  Zr
  Zr11     1.0000 0.36516  0.54027  0.67414  Biso   1.000  Zr
  Zr12     1.0000 0.36588  0.96840  0.92159  Biso   1.000  Zr
  Zr13     1.0000 0.64188  0.03907  0.57691  Biso   1.000  Zr
  Zr14     1.0000 0.65362  0.44638  0.81045  Biso   1.000  Zr
  Zr15     1.0000 0.86571  0.54453  0.57729  Biso   1.000  Zr
  Zr16     1.0000 0.87398  0.95822  0.82757  Biso   1.000  Zr
  O17      1.0000 0.03249  0.32290  0.58316  Biso   1.000  O
  O18      1.0000 0.04272  0.17256  0.83252  Biso   1.000  O
  O19      1.0000 0.47302  0.81952  0.58238  Biso   1.000  O
  O20      1.0000 0.47675  0.66681  0.82384  Biso   1.000  O
  O21      1.0000 0.28216  0.25359  0.79831  Biso   1.000  O
  O22      1.0000 0.27372  0.24723  0.54994  Biso   1.000  O
  O23      1.0000 0.23186  0.75050  0.80156  Biso   1.000  O
  O24      1.0000 0.22709  0.74872  0.55223  Biso   1.000  O
  O25      1.0000 0.53655  0.32612  0.66406  Biso   1.000  O
  O26      1.0000 0.54755  0.11838  0.89053  Biso   1.000  O
  O27      1.0000 0.97648  0.82219  0.66933  Biso   1.000  O
  O28      1.0000 0.97762  0.67275  0.92058  Biso   1.000  O
  O29      1.0000 0.79290  0.25276  0.94293  Biso   1.000  O
  O30      1.0000 0.78451  0.24216  0.69594  Biso   1.000  O
  O31      1.0000 0.74584  0.77359  0.95290  Biso   1.000  O
  O32      1.0000 0.73583  0.74310  0.70282  Biso   1.000  O
  Tl1      1.0000 0.53883  0.51170  0.02899  Biso   1.000  Tl
