data_image0
_cell_length_a       10.0748
_cell_length_b       10.4572
_cell_length_c       5.04895
_cell_angle_alpha    90.0586
_cell_angle_beta     89.9737
_cell_angle_gamma    90.0294

_symmetry_space_group_name_H-M    "P 1"
_symmetry_int_tables_number       1

loop_
  _symmetry_equiv_pos_as_xyz
  'x, y, z'

loop_
  _atom_site_label
  _atom_site_occupancy
  _atom_site_fract_x
  _atom_site_fract_y
  _atom_site_fract_z
  _atom_site_thermal_displace_type
  _atom_site_B_iso_or_equiv
  _atom_site_type_symbol
  Tl1      1.0000 0.12687  0.01497  0.24378  Biso   1.000  Tl
  Zr1      1.0000 0.13444  0.51570  0.25277  Biso   1.000  Zr
  Zr2      1.0000 0.63374  0.01518  0.25018  Biso   1.000  Zr
  Zr3      1.0000 0.63380  0.51521  0.25333  Biso   1.000  Zr
  Zr4      1.0000 0.13402  0.23590  0.75002  Biso   1.000  Zr
  Zr5      1.0000 0.13524  0.73424  0.75490  Biso   1.000  Zr
  Zr6      1.0000 0.63327  0.23327  0.75019  Biso   1.000  Zr
  Zr7      1.0000 0.63348  0.73345  0.75297  Biso   1.000  Zr
  Zr8      1.0000 0.36676  0.26695  0.25509  Biso   1.000  Zr
  Zr9      1.0000 0.36722  0.76390  0.25368  Biso   1.000  Zr
  Zr10     1.0000 0.86273  0.26655  0.24992  Biso   1.000  Zr
  Zr11     1.0000 0.86555  0.76363  0.25018  Biso   1.000  Zr
  Zr12     1.0000 0.36556  0.48401  0.75350  Biso   1.000  Zr
  Zr13     1.0000 0.36647  0.98249  0.74998  Biso   1.000  Zr
  Zr14     1.0000 0.86564  0.48442  0.75335  Biso   1.000  Zr
  Zr15     1.0000 0.86264  0.98280  0.75129  Biso   1.000  Zr
  O1       1.0000 0.03531  0.19747  0.38703  Biso   1.000  O
  O2       1.0000 0.03580  0.68407  0.39077  Biso   1.000  O
  O3       1.0000 0.53820  0.18491  0.38393  Biso   1.000  O
  O4       1.0000 0.53576  0.68163  0.39420  Biso   1.000  O
  O5       1.0000 0.03239  0.06992  0.84690  Biso   1.000  O
  O6       1.0000 0.03438  0.56666  0.89294  Biso   1.000  O
  O7       1.0000 0.53760  0.06484  0.88487  Biso   1.000  O
  O8       1.0000 0.53453  0.56586  0.89390  Biso   1.000  O
  O9       1.0000 0.46564  0.43324  0.39275  Biso   1.000  O
  O10      1.0000 0.46654  0.93301  0.38953  Biso   1.000  O
  O11      1.0000 0.96374  0.43569  0.39178  Biso   1.000  O
  O12      1.0000 0.95087  0.93244  0.38726  Biso   1.000  O
  O13      1.0000 0.46444  0.31572  0.88848  Biso   1.000  O
  O14      1.0000 0.46664  0.81581  0.89352  Biso   1.000  O
  O15      1.0000 0.96449  0.31886  0.89167  Biso   1.000  O
  O16      1.0000 0.96518  0.81660  0.89170  Biso   1.000  O
  O17      1.0000 0.27949  0.12524  0.50884  Biso   1.000  O
  O18      1.0000 0.26925  0.61443  0.49995  Biso   1.000  O
  O19      1.0000 0.76842  0.11730  0.49814  Biso   1.000  O
  O20      1.0000 0.76971  0.61623  0.49839  Biso   1.000  O
  O21      1.0000 0.27428  0.13335  0.99538  Biso   1.000  O
  O22      1.0000 0.26987  0.63134  0.00042  Biso   1.000  O
  O23      1.0000 0.76976  0.13297  0.99807  Biso   1.000  O
  O24      1.0000 0.76854  0.63165  0.99772  Biso   1.000  O
  O25      1.0000 0.23111  0.38294  0.00038  Biso   1.000  O
  O26      1.0000 0.23447  0.87788  0.99869  Biso   1.000  O
  O27      1.0000 0.72942  0.38293  0.99853  Biso   1.000  O
  O28      1.0000 0.72912  0.88056  0.00042  Biso   1.000  O
  O29      1.0000 0.23034  0.36969  0.49953  Biso   1.000  O
  O30      1.0000 0.23895  0.85882  0.50940  Biso   1.000  O
  O31      1.0000 0.73028  0.36750  0.49993  Biso   1.000  O
  O32      1.0000 0.72824  0.86551  0.49901  Biso   1.000  O
