data_image0
_cell_length_a       10.2736
_cell_length_b       10.6551
_cell_length_c       5.18259
_cell_angle_alpha    90.0409
_cell_angle_beta     84.7805
_cell_angle_gamma    88.4313

_symmetry_space_group_name_H-M    "P 1"
_symmetry_int_tables_number       1

loop_
  _symmetry_equiv_pos_as_xyz
  'x, y, z'

loop_
  _atom_site_label
  _atom_site_occupancy
  _atom_site_fract_x
  _atom_site_fract_y
  _atom_site_fract_z
  _atom_site_thermal_displace_type
  _atom_site_B_iso_or_equiv
  _atom_site_type_symbol
  Zr1      1.0000 0.14112  0.01323  0.26373  Biso   1.000  Zr
  Zr2      1.0000 0.13866  0.20531  0.78766  Biso   1.000  Zr
  Zr3      1.0000 0.35625  0.27063  0.27162  Biso   1.000  Zr
  Zr4      1.0000 0.37982  0.49023  0.77023  Biso   1.000  Zr
  O1       1.0000 0.02700  0.08459  0.59885  Biso   1.000  O
  O2       1.0000 0.01116  0.12534  0.07264  Biso   1.000  O
  O3       1.0000 0.49212  0.40026  0.45483  Biso   1.000  O
  O4       1.0000 0.47864  0.32728  0.92863  Biso   1.000  O
  O5       1.0000 0.27228  0.10604  0.50408  Biso   1.000  O
  O6       1.0000 0.27529  0.13073  0.01452  Biso   1.000  O
  O7       1.0000 0.26346  0.42302  0.08941  Biso   1.000  O
  O8       1.0000 0.26445  0.34715  0.61991  Biso   1.000  O
  Zr5      1.0000 0.13540  0.56348  0.23083  Biso   1.000  Zr
  Zr6      1.0000 0.14731  0.75488  0.72070  Biso   1.000  Zr
  Zr7      1.0000 0.40016  0.73677  0.24844  Biso   1.000  Zr
  Zr8      1.0000 0.37173  0.97787  0.72109  Biso   1.000  Zr
  O9       1.0000 0.05041  0.72250  0.38356  Biso   1.000  O
  O10      1.0000 0.01737  0.61558  0.93009  Biso   1.000  O
  O11      1.0000 0.49577  0.89820  0.41603  Biso   1.000  O
  O12      1.0000 0.48418  0.83621  0.93565  Biso   1.000  O
  O13      1.0000 0.26631  0.60916  0.49460  Biso   1.000  O
  O14      1.0000 0.27097  0.66045  0.97560  Biso   1.000  O
  O15      1.0000 0.21900  0.90117  0.94223  Biso   1.000  O
  O16      1.0000 0.25659  0.86156  0.45233  Biso   1.000  O
  Zr9      1.0000 0.60712  0.00040  0.15774  Biso   1.000  Zr
  Zr10     1.0000 0.60340  0.23734  0.66107  Biso   1.000  Zr
  Zr11     1.0000 0.82703  0.23172  0.11846  Biso   1.000  Zr
  Zr12     1.0000 0.87609  0.50133  0.77685  Biso   1.000  Zr
  O17      1.0000 0.51377  0.16117  0.36195  Biso   1.000  O
  O18      1.0000 0.52103  0.07355  0.85118  Biso   1.000  O
  O19      1.0000 0.97228  0.50174  0.42693  Biso   1.000  O
  O20      1.0000 0.98105  0.34167  0.88624  Biso   1.000  O
  O21      1.0000 0.75038  0.08254  0.35419  Biso   1.000  O
  O22      1.0000 0.75400  0.13210  0.84093  Biso   1.000  O
  O23      1.0000 0.73222  0.38868  0.95854  Biso   1.000  O
  O24      1.0000 0.73972  0.33345  0.42746  Biso   1.000  O
  Zr13     1.0000 0.63918  0.49951  0.26919  Biso   1.000  Zr
  Zr14     1.0000 0.64223  0.72742  0.75154  Biso   1.000  Zr
  Zr15     1.0000 0.89488  0.77034  0.16190  Biso   1.000  Zr
  Zr16     1.0000 0.85613  0.97624  0.63748  Biso   1.000  Zr
  O25      1.0000 0.51224  0.64924  0.49939  Biso   1.000  O
  O26      1.0000 0.51242  0.58759  0.00991  Biso   1.000  O
  O27      1.0000 0.96403  0.92823  0.30118  Biso   1.000  O
  O28      1.0000 0.97572  0.84750  0.82316  Biso   1.000  O
  O29      1.0000 0.73555  0.57400  0.55541  Biso   1.000  O
  O30      1.0000 0.76094  0.63638  0.02360  Biso   1.000  O
  O31      1.0000 0.73775  0.88061  0.95379  Biso   1.000  O
  O32      1.0000 0.75812  0.82168  0.47408  Biso   1.000  O
  Tl1      1.0000 0.05123  0.30301  0.34612  Biso   1.000  Tl
