data_image0
_cell_length_a       10.0527
_cell_length_b       10.437
_cell_length_c       10.0871
_cell_angle_alpha    90.0328
_cell_angle_beta     89.9853
_cell_angle_gamma    89.9892

_symmetry_space_group_name_H-M    "P 1"
_symmetry_int_tables_number       1

loop_
  _symmetry_equiv_pos_as_xyz
  'x, y, z'

loop_
  _atom_site_label
  _atom_site_occupancy
  _atom_site_fract_x
  _atom_site_fract_y
  _atom_site_fract_z
  _atom_site_thermal_displace_type
  _atom_site_B_iso_or_equiv
  _atom_site_type_symbol
  Tl1      1.0000 0.12752  0.01482  0.12029  Biso   1.000  Tl
  Zr1      1.0000 0.13360  0.01650  0.62761  Biso   1.000  Zr
  Zr2      1.0000 0.13416  0.51531  0.12593  Biso   1.000  Zr
  Zr3      1.0000 0.13412  0.51626  0.62580  Biso   1.000  Zr
  Zr4      1.0000 0.63443  0.01496  0.12552  Biso   1.000  Zr
  Zr5      1.0000 0.63316  0.01580  0.62478  Biso   1.000  Zr
  Zr6      1.0000 0.63384  0.51527  0.12631  Biso   1.000  Zr
  Zr7      1.0000 0.63364  0.51553  0.62579  Biso   1.000  Zr
  Zr8      1.0000 0.13514  0.23364  0.37692  Biso   1.000  Zr
  Zr9      1.0000 0.13408  0.23627  0.87332  Biso   1.000  Zr
  Zr10     1.0000 0.13473  0.73466  0.37604  Biso   1.000  Zr
  Zr11     1.0000 0.13451  0.73430  0.87680  Biso   1.000  Zr
  Zr12     1.0000 0.63304  0.23406  0.37479  Biso   1.000  Zr
  Zr13     1.0000 0.63464  0.23350  0.87547  Biso   1.000  Zr
  Zr14     1.0000 0.63321  0.73455  0.37644  Biso   1.000  Zr
  Zr15     1.0000 0.63395  0.73371  0.87547  Biso   1.000  Zr
  Zr16     1.0000 0.36536  0.26602  0.12707  Biso   1.000  Zr
  Zr17     1.0000 0.36661  0.26566  0.62544  Biso   1.000  Zr
  Zr18     1.0000 0.36718  0.76394  0.12609  Biso   1.000  Zr
  Zr19     1.0000 0.36586  0.76644  0.62611  Biso   1.000  Zr
  Zr20     1.0000 0.86354  0.26604  0.12591  Biso   1.000  Zr
  Zr21     1.0000 0.86571  0.26627  0.62430  Biso   1.000  Zr
  Zr22     1.0000 0.86501  0.76429  0.12546  Biso   1.000  Zr
  Zr23     1.0000 0.86616  0.76499  0.62494  Biso   1.000  Zr
  Zr24     1.0000 0.36549  0.48436  0.37595  Biso   1.000  Zr
  Zr25     1.0000 0.36611  0.48420  0.87586  Biso   1.000  Zr
  Zr26     1.0000 0.36423  0.98425  0.37487  Biso   1.000  Zr
  Zr27     1.0000 0.36691  0.98448  0.87572  Biso   1.000  Zr
  Zr28     1.0000 0.86598  0.48475  0.37602  Biso   1.000  Zr
  Zr29     1.0000 0.86602  0.48398  0.87603  Biso   1.000  Zr
  Zr30     1.0000 0.86557  0.98463  0.37716  Biso   1.000  Zr
  Zr31     1.0000 0.86404  0.98253  0.87322  Biso   1.000  Zr
  O1       1.0000 0.03123  0.19166  0.20015  Biso   1.000  O
  O2       1.0000 0.03844  0.18842  0.68771  Biso   1.000  O
  O3       1.0000 0.03587  0.68407  0.19463  Biso   1.000  O
  O4       1.0000 0.03544  0.68397  0.69497  Biso   1.000  O
  O5       1.0000 0.53755  0.18472  0.19195  Biso   1.000  O
  O6       1.0000 0.53598  0.18395  0.69433  Biso   1.000  O
  O7       1.0000 0.53595  0.68230  0.19631  Biso   1.000  O
  O8       1.0000 0.53478  0.68297  0.69528  Biso   1.000  O
  O9       1.0000 0.03512  0.06605  0.44515  Biso   1.000  O
  O10      1.0000 0.03549  0.06791  0.91971  Biso   1.000  O
  O11      1.0000 0.03507  0.56605  0.44573  Biso   1.000  O
  O12      1.0000 0.03490  0.56695  0.94503  Biso   1.000  O
  O13      1.0000 0.53482  0.06649  0.44430  Biso   1.000  O
  O14      1.0000 0.53801  0.06531  0.94277  Biso   1.000  O
  O15      1.0000 0.53491  0.56624  0.44539  Biso   1.000  O
  O16      1.0000 0.53460  0.56645  0.94609  Biso   1.000  O
  O17      1.0000 0.46500  0.43319  0.19562  Biso   1.000  O
  O18      1.0000 0.46505  0.43349  0.69494  Biso   1.000  O
  O19      1.0000 0.46631  0.93340  0.19461  Biso   1.000  O
  O20      1.0000 0.46485  0.93363  0.69492  Biso   1.000  O
  O21      1.0000 0.96309  0.43562  0.19452  Biso   1.000  O
  O22      1.0000 0.96507  0.43420  0.69577  Biso   1.000  O
  O23      1.0000 0.95284  0.93167  0.19666  Biso   1.000  O
  O24      1.0000 0.96221  0.93361  0.69031  Biso   1.000  O
  O25      1.0000 0.46426  0.31619  0.44453  Biso   1.000  O
  O26      1.0000 0.46526  0.31642  0.94385  Biso   1.000  O
  O27      1.0000 0.46557  0.81700  0.44715  Biso   1.000  O
  O28      1.0000 0.46573  0.81619  0.94433  Biso   1.000  O
  O29      1.0000 0.96453  0.31783  0.44467  Biso   1.000  O
  O30      1.0000 0.96515  0.31734  0.94598  Biso   1.000  O
  O31      1.0000 0.96443  0.81554  0.44471  Biso   1.000  O
  O32      1.0000 0.96464  0.81663  0.94480  Biso   1.000  O
  O33      1.0000 0.27684  0.12388  0.25331  Biso   1.000  O
  O34      1.0000 0.27190  0.11813  0.74798  Biso   1.000  O
  O35      1.0000 0.26935  0.61446  0.24913  Biso   1.000  O
  O36      1.0000 0.26944  0.61730  0.74949  Biso   1.000  O
  O37      1.0000 0.76781  0.11697  0.24993  Biso   1.000  O
  O38      1.0000 0.76974  0.11707  0.74769  Biso   1.000  O
  O39      1.0000 0.76950  0.61681  0.24910  Biso   1.000  O
  O40      1.0000 0.76944  0.61643  0.74886  Biso   1.000  O
  O41      1.0000 0.26953  0.13197  0.50078  Biso   1.000  O
  O42      1.0000 0.27446  0.13628  0.99398  Biso   1.000  O
  O43      1.0000 0.26965  0.63333  0.49950  Biso   1.000  O
  O44      1.0000 0.26987  0.63152  0.99947  Biso   1.000  O
  O45      1.0000 0.76847  0.13392  0.49878  Biso   1.000  O
  O46      1.0000 0.77182  0.13189  0.99866  Biso   1.000  O
  O47      1.0000 0.76883  0.63306  0.49894  Biso   1.000  O
  O48      1.0000 0.76883  0.63153  0.99859  Biso   1.000  O
  O49      1.0000 0.23082  0.38319  0.49953  Biso   1.000  O
  O50      1.0000 0.23102  0.38344  0.99918  Biso   1.000  O
  O51      1.0000 0.22953  0.88366  0.50087  Biso   1.000  O
  O52      1.0000 0.23487  0.87781  0.99739  Biso   1.000  O
  O53      1.0000 0.73021  0.38336  0.49901  Biso   1.000  O
  O54      1.0000 0.72960  0.38261  0.99885  Biso   1.000  O
  O55      1.0000 0.73033  0.88304  0.49935  Biso   1.000  O
  O56      1.0000 0.72943  0.88085  0.99922  Biso   1.000  O
  O57      1.0000 0.22920  0.36866  0.24973  Biso   1.000  O
  O58      1.0000 0.23126  0.36814  0.74841  Biso   1.000  O
  O59      1.0000 0.23901  0.85884  0.25457  Biso   1.000  O
  O60      1.0000 0.23027  0.86754  0.74942  Biso   1.000  O
  O61      1.0000 0.72992  0.36769  0.24958  Biso   1.000  O
  O62      1.0000 0.73093  0.36688  0.74912  Biso   1.000  O
  O63      1.0000 0.72830  0.86622  0.24967  Biso   1.000  O
  O64      1.0000 0.72975  0.86623  0.74837  Biso   1.000  O
