data_image0
_cell_length_a       10.0915
_cell_length_b       10.1745
_cell_length_c       10.0915
_cell_angle_alpha    89.9987
_cell_angle_beta     90.0002
_cell_angle_gamma    89.9982

_symmetry_space_group_name_H-M    "P 1"
_symmetry_int_tables_number       1

loop_
  _symmetry_equiv_pos_as_xyz
  'x, y, z'

loop_
  _atom_site_label
  _atom_site_occupancy
  _atom_site_fract_x
  _atom_site_fract_y
  _atom_site_fract_z
  _atom_site_thermal_displace_type
  _atom_site_B_iso_or_equiv
  _atom_site_type_symbol
  Zr1      1.0000 0.12516  0.98839  0.12516  Biso   1.000  Zr
  Zr2      1.0000 0.12516  0.24986  0.38727  Biso   1.000  Zr
  Zr3      1.0000 0.38726  0.24986  0.12517  Biso   1.000  Zr
  Zr4      1.0000 0.37486  0.99952  0.37486  Biso   1.000  Zr
  O1       1.0000 0.00353  0.14235  0.00353  Biso   1.000  O
  O2       1.0000 0.00412  0.11527  0.24622  Biso   1.000  O
  O3       1.0000 0.00352  0.35737  0.24681  Biso   1.000  O
  O4       1.0000 0.00411  0.38445  0.00411  Biso   1.000  O
  O5       1.0000 0.24681  0.14235  0.24681  Biso   1.000  O
  O6       1.0000 0.24622  0.11527  0.00412  Biso   1.000  O
  O7       1.0000 0.24680  0.35737  0.00353  Biso   1.000  O
  O8       1.0000 0.24622  0.38445  0.24623  Biso   1.000  O
  Zr5      1.0000 0.12516  0.99718  0.62516  Biso   1.000  Zr
  Zr6      1.0000 0.12516  0.24986  0.86307  Biso   1.000  Zr
  Zr7      1.0000 0.37789  0.24986  0.62517  Biso   1.000  Zr
  Zr8      1.0000 0.37349  0.00190  0.87683  Biso   1.000  Zr
  O9       1.0000 0.99669  0.14104  0.50254  Biso   1.000  O
  O10      1.0000 0.00128  0.10609  0.75133  Biso   1.000  O
  O11      1.0000 0.99669  0.35868  0.74779  Biso   1.000  O
  O12      1.0000 0.00127  0.39363  0.49901  Biso   1.000  O
  O13      1.0000 0.25363  0.14104  0.74780  Biso   1.000  O
  O14      1.0000 0.24905  0.10609  0.49901  Biso   1.000  O
  O15      1.0000 0.25363  0.35868  0.50254  Biso   1.000  O
  O16      1.0000 0.24905  0.39363  0.75133  Biso   1.000  O
  Zr9      1.0000 0.12516  0.51133  0.12516  Biso   1.000  Zr
  Zr10     1.0000 0.12516  0.74986  0.37725  Biso   1.000  Zr
  Zr11     1.0000 0.37725  0.74986  0.12517  Biso   1.000  Zr
  Zr12     1.0000 0.37349  0.49782  0.37349  Biso   1.000  Zr
  O17      1.0000 0.00122  0.64065  0.00122  Biso   1.000  O
  O18      1.0000 0.99746  0.61138  0.25287  Biso   1.000  O
  O19      1.0000 0.00122  0.85907  0.24911  Biso   1.000  O
  O20      1.0000 0.99746  0.88834  0.99746  Biso   1.000  O
  O21      1.0000 0.24910  0.64065  0.24910  Biso   1.000  O
  O22      1.0000 0.25287  0.61138  0.99746  Biso   1.000  O
  O23      1.0000 0.24911  0.85907  0.00122  Biso   1.000  O
  O24      1.0000 0.25287  0.88834  0.25287  Biso   1.000  O
  Zr13     1.0000 0.12516  0.50254  0.62516  Biso   1.000  Zr
  Zr14     1.0000 0.12516  0.74986  0.87308  Biso   1.000  Zr
  Zr15     1.0000 0.37598  0.74986  0.62517  Biso   1.000  Zr
  Zr16     1.0000 0.37486  0.50020  0.87546  Biso   1.000  Zr
  O25      1.0000 0.00031  0.64354  0.50274  Biso   1.000  O
  O26      1.0000 0.00124  0.60629  0.75288  Biso   1.000  O
  O27      1.0000 0.00030  0.85619  0.74759  Biso   1.000  O
  O28      1.0000 0.00124  0.89343  0.49744  Biso   1.000  O
  O29      1.0000 0.25002  0.64354  0.74759  Biso   1.000  O
  O30      1.0000 0.24909  0.60629  0.49744  Biso   1.000  O
  O31      1.0000 0.25002  0.85619  0.50274  Biso   1.000  O
  O32      1.0000 0.24908  0.89343  0.75289  Biso   1.000  O
  Zr17     1.0000 0.62516  0.99718  0.12516  Biso   1.000  Zr
  Zr18     1.0000 0.62517  0.24986  0.37790  Biso   1.000  Zr
  Zr19     1.0000 0.86307  0.24986  0.12517  Biso   1.000  Zr
  Zr20     1.0000 0.87683  0.00190  0.37349  Biso   1.000  Zr
  O33      1.0000 0.50254  0.14104  0.99669  Biso   1.000  O
  O34      1.0000 0.49901  0.10609  0.24905  Biso   1.000  O
  O35      1.0000 0.50254  0.35868  0.25363  Biso   1.000  O
  O36      1.0000 0.49900  0.39363  0.00128  Biso   1.000  O
  O37      1.0000 0.74780  0.14104  0.25363  Biso   1.000  O
  O38      1.0000 0.75133  0.10609  0.00128  Biso   1.000  O
  O39      1.0000 0.74779  0.35868  0.99669  Biso   1.000  O
  O40      1.0000 0.75132  0.39363  0.24905  Biso   1.000  O
  Zr21     1.0000 0.62516  0.99904  0.62516  Biso   1.000  Zr
  Zr22     1.0000 0.62517  0.24986  0.87244  Biso   1.000  Zr
  Zr23     1.0000 0.87244  0.24986  0.62517  Biso   1.000  Zr
  Zr24     1.0000 0.87545  0.99952  0.87545  Biso   1.000  Zr
  O41      1.0000 0.49930  0.14417  0.49930  Biso   1.000  O
  O42      1.0000 0.50090  0.10506  0.74943  Biso   1.000  O
  O43      1.0000 0.49930  0.35555  0.75103  Biso   1.000  O
  O44      1.0000 0.50090  0.39466  0.50090  Biso   1.000  O
  O45      1.0000 0.75103  0.14417  0.75103  Biso   1.000  O
  O46      1.0000 0.74943  0.10506  0.50090  Biso   1.000  O
  O47      1.0000 0.75102  0.35555  0.49930  Biso   1.000  O
  O48      1.0000 0.74943  0.39466  0.74943  Biso   1.000  O
  Zr25     1.0000 0.62516  0.50254  0.12516  Biso   1.000  Zr
  Zr26     1.0000 0.62516  0.74986  0.37598  Biso   1.000  Zr
  Zr27     1.0000 0.87308  0.74986  0.12517  Biso   1.000  Zr
  Zr28     1.0000 0.87546  0.50020  0.37486  Biso   1.000  Zr
  O49      1.0000 0.50273  0.64354  0.00031  Biso   1.000  O
  O50      1.0000 0.49744  0.60629  0.24909  Biso   1.000  O
  O51      1.0000 0.50273  0.85619  0.25002  Biso   1.000  O
  O52      1.0000 0.49744  0.89343  0.00125  Biso   1.000  O
  O53      1.0000 0.74759  0.64354  0.25002  Biso   1.000  O
  O54      1.0000 0.75288  0.60629  0.00125  Biso   1.000  O
  O55      1.0000 0.74759  0.85619  0.00031  Biso   1.000  O
  O56      1.0000 0.75288  0.89343  0.24908  Biso   1.000  O
  Zr29     1.0000 0.62516  0.50068  0.62516  Biso   1.000  Zr
  Zr30     1.0000 0.62516  0.74986  0.87435  Biso   1.000  Zr
  Zr31     1.0000 0.87435  0.74986  0.62517  Biso   1.000  Zr
  Zr32     1.0000 0.87683  0.49783  0.87683  Biso   1.000  Zr
  O57      1.0000 0.49935  0.64400  0.49935  Biso   1.000  O
  O58      1.0000 0.49979  0.60497  0.75054  Biso   1.000  O
  O59      1.0000 0.49934  0.85572  0.75098  Biso   1.000  O
  O60      1.0000 0.49978  0.89476  0.49979  Biso   1.000  O
  O61      1.0000 0.75098  0.64400  0.75098  Biso   1.000  O
  O62      1.0000 0.75054  0.60497  0.49979  Biso   1.000  O
  O63      1.0000 0.75098  0.85572  0.49935  Biso   1.000  O
  O64      1.0000 0.75054  0.89476  0.75054  Biso   1.000  O
  V1       1.0000 0.12517  0.24986  0.12517  Biso   1.000  V
