data_image0
_cell_length_a       10.3357
_cell_length_b       5.20045
_cell_length_c       10.5363
_cell_angle_alpha    90.1915
_cell_angle_beta     79.5818
_cell_angle_gamma    89.8936

_symmetry_space_group_name_H-M    "P 1"
_symmetry_int_tables_number       1

loop_
  _symmetry_equiv_pos_as_xyz
  'x, y, z'

loop_
  _atom_site_label
  _atom_site_occupancy
  _atom_site_fract_x
  _atom_site_fract_y
  _atom_site_fract_z
  _atom_site_thermal_displace_type
  _atom_site_B_iso_or_equiv
  _atom_site_type_symbol
  Zr1      1.0000 0.13608  0.04462  0.14525  Biso   1.000  Zr
  Zr2      1.0000 0.12513  0.44935  0.39599  Biso   1.000  Zr
  Zr3      1.0000 0.35775  0.54831  0.10735  Biso   1.000  Zr
  Zr4      1.0000 0.35805  0.93151  0.34239  Biso   1.000  Zr
  O1       1.0000 0.03002  0.33661  0.07507  Biso   1.000  O
  O2       1.0000 0.02604  0.16725  0.32244  Biso   1.000  O
  O3       1.0000 0.46310  0.86115  0.15743  Biso   1.000  O
  O4       1.0000 0.49002  0.69396  0.42164  Biso   1.000  O
  O5       1.0000 0.27504  0.26023  0.24845  Biso   1.000  O
  O6       1.0000 0.26534  0.20070  0.49021  Biso   1.000  O
  O7       1.0000 0.22272  0.76183  0.00671  Biso   1.000  O
  O8       1.0000 0.20669  0.74870  0.25302  Biso   1.000  O
  Zr5      1.0000 0.13769  0.03832  0.64861  Biso   1.000  Zr
  Zr6      1.0000 0.13715  0.46274  0.89768  Biso   1.000  Zr
  Zr7      1.0000 0.36799  0.53977  0.61861  Biso   1.000  Zr
  Zr8      1.0000 0.36065  0.96130  0.85844  Biso   1.000  Zr
  O9       1.0000 0.03015  0.33074  0.57959  Biso   1.000  O
  O10      1.0000 0.03319  0.17284  0.82476  Biso   1.000  O
  O11      1.0000 0.46759  0.83963  0.67717  Biso   1.000  O
  O12      1.0000 0.46370  0.66605  0.92016  Biso   1.000  O
  O13      1.0000 0.27381  0.25901  0.74561  Biso   1.000  O
  O14      1.0000 0.27307  0.24812  0.99486  Biso   1.000  O
  O15      1.0000 0.24732  0.69391  0.49618  Biso   1.000  O
  O16      1.0000 0.22162  0.75266  0.76009  Biso   1.000  O
  Zr9      1.0000 0.63827  0.05102  0.14215  Biso   1.000  Zr
  Zr10     1.0000 0.65290  0.46047  0.39849  Biso   1.000  Zr
  Zr11     1.0000 0.86011  0.54790  0.10244  Biso   1.000  Zr
  Zr12     1.0000 0.85972  0.95632  0.35212  Biso   1.000  Zr
  O17      1.0000 0.53578  0.34978  0.08177  Biso   1.000  O
  O18      1.0000 0.52958  0.18523  0.32852  Biso   1.000  O
  O19      1.0000 0.96303  0.83817  0.16693  Biso   1.000  O
  O20      1.0000 0.96056  0.67154  0.42259  Biso   1.000  O
  O21      1.0000 0.77367  0.26041  0.23973  Biso   1.000  O
  O22      1.0000 0.78005  0.24024  0.49258  Biso   1.000  O
  O23      1.0000 0.72463  0.76472  0.00925  Biso   1.000  O
  O24      1.0000 0.72447  0.74838  0.25842  Biso   1.000  O
  Zr13     1.0000 0.63970  0.04349  0.64871  Biso   1.000  Zr
  Zr14     1.0000 0.63559  0.46350  0.89736  Biso   1.000  Zr
  Zr15     1.0000 0.86090  0.54346  0.60784  Biso   1.000  Zr
  Zr16     1.0000 0.86133  0.96194  0.85452  Biso   1.000  Zr
  O25      1.0000 0.53958  0.33172  0.57881  Biso   1.000  O
  O26      1.0000 0.53342  0.16987  0.83222  Biso   1.000  O
  O27      1.0000 0.96833  0.83233  0.67082  Biso   1.000  O
  O28      1.0000 0.96468  0.67058  0.91945  Biso   1.000  O
  O29      1.0000 0.77342  0.25975  0.74223  Biso   1.000  O
  O30      1.0000 0.77344  0.24780  0.98988  Biso   1.000  O
  O31      1.0000 0.72609  0.75677  0.51303  Biso   1.000  O
  O32      1.0000 0.72691  0.74696  0.76161  Biso   1.000  O
  V1       1.0000 0.38524  0.42853  0.37581  Biso   1.000  V
