data_image0
_cell_length_a       10.0782
_cell_length_b       10.2859
_cell_length_c       10.5109
_cell_angle_alpha    89.9939
_cell_angle_beta     89.9548
_cell_angle_gamma    89.9355

_symmetry_space_group_name_H-M    "P 1"
_symmetry_int_tables_number       1

loop_
  _symmetry_equiv_pos_as_xyz
  'x, y, z'

loop_
  _atom_site_label
  _atom_site_occupancy
  _atom_site_fract_x
  _atom_site_fract_y
  _atom_site_fract_z
  _atom_site_thermal_displace_type
  _atom_site_B_iso_or_equiv
  _atom_site_type_symbol
  W1       1.0000 0.14049  0.02300  0.17465  Biso   1.000  W
  Zr1      1.0000 0.13960  0.23006  0.42040  Biso   1.000  Zr
  Zr2      1.0000 0.36085  0.27089  0.17182  Biso   1.000  Zr
  Zr3      1.0000 0.36133  0.47980  0.42125  Biso   1.000  Zr
  Zr4      1.0000 0.63875  0.02158  0.07768  Biso   1.000  Zr
  Zr5      1.0000 0.63886  0.22873  0.32876  Biso   1.000  Zr
  Zr6      1.0000 0.86267  0.26993  0.07962  Biso   1.000  Zr
  Zr7      1.0000 0.86067  0.47899  0.32843  Biso   1.000  Zr
  O1       1.0000 0.03460  0.15893  0.08550  Biso   1.000  O
  O2       1.0000 0.03999  0.08033  0.32744  Biso   1.000  O
  O3       1.0000 0.46709  0.41532  0.08431  Biso   1.000  O
  O4       1.0000 0.46691  0.33416  0.33414  Biso   1.000  O
  O5       1.0000 0.27641  0.12135  0.29509  Biso   1.000  O
  O6       1.0000 0.27197  0.12205  0.05022  Biso   1.000  O
  O7       1.0000 0.22515  0.37466  0.29513  Biso   1.000  O
  O8       1.0000 0.22474  0.37466  0.04515  Biso   1.000  O
  O9       1.0000 0.53283  0.16513  0.16704  Biso   1.000  O
  O10      1.0000 0.53261  0.08496  0.41690  Biso   1.000  O
  O11      1.0000 0.96837  0.41377  0.16719  Biso   1.000  O
  O12      1.0000 0.96664  0.33304  0.41498  Biso   1.000  O
  O13      1.0000 0.77738  0.12305  0.45375  Biso   1.000  O
  O14      1.0000 0.77673  0.12556  0.20488  Biso   1.000  O
  O15      1.0000 0.72409  0.37370  0.45545  Biso   1.000  O
  O16      1.0000 0.72444  0.37555  0.20503  Biso   1.000  O
  Zr8      1.0000 0.13859  0.02108  0.67104  Biso   1.000  Zr
  Zr9      1.0000 0.13881  0.22714  0.92183  Biso   1.000  Zr
  Zr10     1.0000 0.36129  0.27150  0.67145  Biso   1.000  Zr
  Zr11     1.0000 0.36106  0.47911  0.92168  Biso   1.000  Zr
  Zr12     1.0000 0.63855  0.02106  0.57834  Biso   1.000  Zr
  Zr13     1.0000 0.63892  0.22955  0.82889  Biso   1.000  Zr
  Zr14     1.0000 0.86130  0.27075  0.57850  Biso   1.000  Zr
  Zr15     1.0000 0.86155  0.47860  0.82965  Biso   1.000  Zr
  O17      1.0000 0.03170  0.16246  0.57913  Biso   1.000  O
  O18      1.0000 0.03125  0.08631  0.83084  Biso   1.000  O
  O19      1.0000 0.46711  0.41582  0.58369  Biso   1.000  O
  O20      1.0000 0.46726  0.33532  0.83374  Biso   1.000  O
  O21      1.0000 0.27588  0.12409  0.79652  Biso   1.000  O
  O22      1.0000 0.27636  0.12639  0.54556  Biso   1.000  O
  O23      1.0000 0.22390  0.37381  0.79535  Biso   1.000  O
  O24      1.0000 0.22388  0.37573  0.54453  Biso   1.000  O
  O25      1.0000 0.53262  0.16540  0.66684  Biso   1.000  O
  O26      1.0000 0.53091  0.08646  0.91727  Biso   1.000  O
  O27      1.0000 0.96819  0.41321  0.66755  Biso   1.000  O
  O28      1.0000 0.96845  0.33353  0.91845  Biso   1.000  O
  O29      1.0000 0.77499  0.12444  0.95417  Biso   1.000  O
  O30      1.0000 0.77563  0.12585  0.70416  Biso   1.000  O
  O31      1.0000 0.72496  0.37444  0.95559  Biso   1.000  O
  O32      1.0000 0.72438  0.37609  0.70537  Biso   1.000  O
  Zr16     1.0000 0.13896  0.52127  0.17119  Biso   1.000  Zr
  Zr17     1.0000 0.13821  0.72873  0.42130  Biso   1.000  Zr
  Zr18     1.0000 0.35767  0.77579  0.17140  Biso   1.000  Zr
  Zr19     1.0000 0.36024  0.97896  0.42157  Biso   1.000  Zr
  Zr20     1.0000 0.63838  0.52225  0.07934  Biso   1.000  Zr
  Zr21     1.0000 0.63771  0.72901  0.32773  Biso   1.000  Zr
  Zr22     1.0000 0.86348  0.77284  0.07827  Biso   1.000  Zr
  Zr23     1.0000 0.86138  0.97861  0.32756  Biso   1.000  Zr
  O33      1.0000 0.03246  0.66354  0.08278  Biso   1.000  O
  O34      1.0000 0.03211  0.58464  0.33295  Biso   1.000  O
  O35      1.0000 0.46739  0.91515  0.08172  Biso   1.000  O
  O36      1.0000 0.46616  0.83668  0.33209  Biso   1.000  O
  O37      1.0000 0.27542  0.62553  0.29504  Biso   1.000  O
  O38      1.0000 0.27582  0.62757  0.04531  Biso   1.000  O
  O39      1.0000 0.21724  0.87654  0.29441  Biso   1.000  O
  O40      1.0000 0.21571  0.88070  0.04700  Biso   1.000  O
  O41      1.0000 0.53120  0.66728  0.16601  Biso   1.000  O
  O42      1.0000 0.53259  0.58529  0.41645  Biso   1.000  O
  O43      1.0000 0.97704  0.91644  0.16521  Biso   1.000  O
  O44      1.0000 0.96737  0.83610  0.41675  Biso   1.000  O
  O45      1.0000 0.77535  0.62419  0.45494  Biso   1.000  O
  O46      1.0000 0.77522  0.62613  0.20507  Biso   1.000  O
  O47      1.0000 0.72387  0.87420  0.45396  Biso   1.000  O
  O48      1.0000 0.72824  0.87683  0.20453  Biso   1.000  O
  Zr24     1.0000 0.13881  0.52114  0.67170  Biso   1.000  Zr
  Zr25     1.0000 0.13914  0.72945  0.92171  Biso   1.000  Zr
  Zr26     1.0000 0.36140  0.77105  0.67145  Biso   1.000  Zr
  Zr27     1.0000 0.36067  0.97838  0.92207  Biso   1.000  Zr
  Zr28     1.0000 0.63901  0.52125  0.57924  Biso   1.000  Zr
  Zr29     1.0000 0.63913  0.72888  0.82937  Biso   1.000  Zr
  Zr30     1.0000 0.86063  0.77105  0.57840  Biso   1.000  Zr
  Zr31     1.0000 0.86091  0.97879  0.82825  Biso   1.000  Zr
  O49      1.0000 0.03162  0.66403  0.58259  Biso   1.000  O
  O50      1.0000 0.03242  0.58525  0.83323  Biso   1.000  O
  O51      1.0000 0.46745  0.91511  0.58343  Biso   1.000  O
  O52      1.0000 0.46733  0.83500  0.83358  Biso   1.000  O
  O53      1.0000 0.27597  0.62406  0.79517  Biso   1.000  O
  O54      1.0000 0.27581  0.62584  0.54548  Biso   1.000  O
  O55      1.0000 0.22434  0.87423  0.79535  Biso   1.000  O
  O56      1.0000 0.22428  0.87549  0.54536  Biso   1.000  O
  O57      1.0000 0.53306  0.66545  0.66669  Biso   1.000  O
  O58      1.0000 0.53296  0.58445  0.91654  Biso   1.000  O
  O59      1.0000 0.96786  0.91417  0.66665  Biso   1.000  O
  O60      1.0000 0.96692  0.83471  0.91615  Biso   1.000  O
  O61      1.0000 0.77650  0.62486  0.95578  Biso   1.000  O
  O62      1.0000 0.77620  0.62542  0.70553  Biso   1.000  O
  O63      1.0000 0.72349  0.87461  0.95429  Biso   1.000  O
  O64      1.0000 0.72415  0.87574  0.70452  Biso   1.000  O
