data_image0
_cell_length_a       10.0898
_cell_length_b       10.4944
_cell_length_c       10.1276
_cell_angle_alpha    89.7049
_cell_angle_beta     89.7015
_cell_angle_gamma    89.8453

_symmetry_space_group_name_H-M    "P 1"
_symmetry_int_tables_number       1

loop_
  _symmetry_equiv_pos_as_xyz
  'x, y, z'

loop_
  _atom_site_label
  _atom_site_occupancy
  _atom_site_fract_x
  _atom_site_fract_y
  _atom_site_fract_z
  _atom_site_thermal_displace_type
  _atom_site_B_iso_or_equiv
  _atom_site_type_symbol
  Zr1      1.0000 0.13134  0.01883  0.12294  Biso   1.000  Zr
  Zr2      1.0000 0.13541  0.22827  0.37785  Biso   1.000  Zr
  Zr3      1.0000 0.38049  0.26685  0.12298  Biso   1.000  Zr
  Zr4      1.0000 0.36774  0.48280  0.37366  Biso   1.000  Zr
  O1       1.0000 0.00386  0.16889  0.22881  Biso   1.000  O
  O2       1.0000 0.03753  0.05949  0.45169  Biso   1.000  O
  O3       1.0000 0.47168  0.43284  0.19952  Biso   1.000  O
  O4       1.0000 0.46983  0.31812  0.45026  Biso   1.000  O
  O5       1.0000 0.26851  0.10931  0.25050  Biso   1.000  O
  O6       1.0000 0.27297  0.13012  0.50120  Biso   1.000  O
  O7       1.0000 0.23439  0.38362  0.49890  Biso   1.000  O
  O8       1.0000 0.23885  0.36256  0.24912  Biso   1.000  O
  Zr5      1.0000 0.13455  0.00860  0.62400  Biso   1.000  Zr
  Zr6      1.0000 0.12812  0.23121  0.85365  Biso   1.000  Zr
  Zr7      1.0000 0.36907  0.26450  0.62317  Biso   1.000  Zr
  Zr8      1.0000 0.37016  0.48947  0.87105  Biso   1.000  Zr
  O9       1.0000 0.02833  0.17156  0.68690  Biso   1.000  O
  O10      1.0000 0.02894  0.06445  0.94261  Biso   1.000  O
  O11      1.0000 0.47040  0.42960  0.69691  Biso   1.000  O
  O12      1.0000 0.46891  0.32167  0.94453  Biso   1.000  O
  O13      1.0000 0.26687  0.11108  0.74926  Biso   1.000  O
  O14      1.0000 0.24535  0.16307  0.00737  Biso   1.000  O
  O15      1.0000 0.23893  0.40473  0.99834  Biso   1.000  O
  O16      1.0000 0.23637  0.36476  0.74572  Biso   1.000  O
  Zr9      1.0000 0.13552  0.53990  0.11784  Biso   1.000  Zr
  Zr10     1.0000 0.13567  0.73519  0.37626  Biso   1.000  Zr
  Zr11     1.0000 0.36792  0.76985  0.12428  Biso   1.000  Zr
  Zr12     1.0000 0.36679  0.98407  0.37603  Biso   1.000  Zr
  O17      1.0000 0.02801  0.68716  0.20536  Biso   1.000  O
  O18      1.0000 0.03441  0.56748  0.44749  Biso   1.000  O
  O19      1.0000 0.46643  0.93074  0.19978  Biso   1.000  O
  O20      1.0000 0.46958  0.81606  0.44726  Biso   1.000  O
  O21      1.0000 0.27475  0.62181  0.24725  Biso   1.000  O
  O22      1.0000 0.26991  0.63149  0.49661  Biso   1.000  O
  O23      1.0000 0.23441  0.88016  0.49742  Biso   1.000  O
  O24      1.0000 0.22945  0.86625  0.24647  Biso   1.000  O
  Zr13     1.0000 0.13400  0.51225  0.62332  Biso   1.000  Zr
  Zr14     1.0000 0.12938  0.73991  0.86681  Biso   1.000  Zr
  Zr15     1.0000 0.36948  0.75977  0.62141  Biso   1.000  Zr
  Zr16     1.0000 0.37301  0.98153  0.86756  Biso   1.000  Zr
  O25      1.0000 0.03395  0.67907  0.69283  Biso   1.000  O
  O26      1.0000 0.03038  0.57396  0.94452  Biso   1.000  O
  O27      1.0000 0.47079  0.92712  0.69653  Biso   1.000  O
  O28      1.0000 0.47150  0.82106  0.94697  Biso   1.000  O
  O29      1.0000 0.26724  0.61302  0.74434  Biso   1.000  O
  O30      1.0000 0.26760  0.65163  0.99082  Biso   1.000  O
  O31      1.0000 0.23617  0.89773  0.99541  Biso   1.000  O
  O32      1.0000 0.23714  0.86147  0.74458  Biso   1.000  O
  Zr17     1.0000 0.63086  0.01073  0.12526  Biso   1.000  Zr
  Zr18     1.0000 0.63369  0.23188  0.37684  Biso   1.000  Zr
  Zr19     1.0000 0.84941  0.25736  0.12399  Biso   1.000  Zr
  Zr20     1.0000 0.87114  0.48077  0.37333  Biso   1.000  Zr
  O33      1.0000 0.53355  0.17742  0.20479  Biso   1.000  O
  O34      1.0000 0.53388  0.06651  0.45033  Biso   1.000  O
  O35      1.0000 0.97524  0.42431  0.19676  Biso   1.000  O
  O36      1.0000 0.97130  0.32049  0.45331  Biso   1.000  O
  O37      1.0000 0.75779  0.10853  0.24902  Biso   1.000  O
  O38      1.0000 0.77108  0.13403  0.49652  Biso   1.000  O
  O39      1.0000 0.73476  0.38386  0.49879  Biso   1.000  O
  O40      1.0000 0.73066  0.36608  0.25127  Biso   1.000  O
  Zr21     1.0000 0.63704  0.01246  0.62188  Biso   1.000  Zr
  Zr22     1.0000 0.63115  0.23366  0.87179  Biso   1.000  Zr
  Zr23     1.0000 0.86524  0.26538  0.62316  Biso   1.000  Zr
  Zr24     1.0000 0.86514  0.48375  0.87619  Biso   1.000  Zr
  O41      1.0000 0.53218  0.17709  0.69948  Biso   1.000  O
  O42      1.0000 0.52058  0.07564  0.95632  Biso   1.000  O
  O43      1.0000 0.97238  0.42470  0.70604  Biso   1.000  O
  O44      1.0000 0.96765  0.31867  0.95427  Biso   1.000  O
  O45      1.0000 0.76772  0.11322  0.74606  Biso   1.000  O
  O46      1.0000 0.76134  0.12961  0.99483  Biso   1.000  O
  O47      1.0000 0.72689  0.38350  0.99770  Biso   1.000  O
  O48      1.0000 0.73288  0.36477  0.74874  Biso   1.000  O
  Zr25     1.0000 0.63497  0.51730  0.12613  Biso   1.000  Zr
  Zr26     1.0000 0.63501  0.73308  0.37352  Biso   1.000  Zr
  Zr27     1.0000 0.86467  0.76537  0.12475  Biso   1.000  Zr
  Zr28     1.0000 0.87193  0.98623  0.37032  Biso   1.000  Zr
  O49      1.0000 0.53605  0.68382  0.19571  Biso   1.000  O
  O50      1.0000 0.53314  0.56708  0.44750  Biso   1.000  O
  O51      1.0000 0.96345  0.93119  0.19213  Biso   1.000  O
  O52      1.0000 0.96809  0.81790  0.44656  Biso   1.000  O
  O53      1.0000 0.77078  0.61300  0.24742  Biso   1.000  O
  O54      1.0000 0.76878  0.63285  0.49670  Biso   1.000  O
  O55      1.0000 0.73532  0.88470  0.49530  Biso   1.000  O
  O56      1.0000 0.73146  0.86302  0.24707  Biso   1.000  O
  Zr29     1.0000 0.63528  0.51420  0.62328  Biso   1.000  Zr
  Zr30     1.0000 0.63526  0.73294  0.87418  Biso   1.000  Zr
  Zr31     1.0000 0.86723  0.76335  0.62100  Biso   1.000  Zr
  Zr32     1.0000 0.86611  0.98159  0.87288  Biso   1.000  Zr
  O57      1.0000 0.53375  0.67813  0.69932  Biso   1.000  O
  O58      1.0000 0.53290  0.57065  0.94967  Biso   1.000  O
  O59      1.0000 0.97072  0.92338  0.70087  Biso   1.000  O
  O60      1.0000 0.96618  0.81716  0.94880  Biso   1.000  O
  O61      1.0000 0.77015  0.61288  0.74688  Biso   1.000  O
  O62      1.0000 0.76914  0.63320  0.99708  Biso   1.000  O
  O63      1.0000 0.72966  0.88286  0.99619  Biso   1.000  O
  O64      1.0000 0.73268  0.86248  0.74523  Biso   1.000  O
  W1       1.0000 0.10753  0.29734  0.10660  Biso   1.000  W
