data_image0
_cell_length_a       10.0485
_cell_length_b       10.264
_cell_length_c       10.5452
_cell_angle_alpha    89.9696
_cell_angle_beta     90.8247
_cell_angle_gamma    90.1354

_symmetry_space_group_name_H-M    "P 1"
_symmetry_int_tables_number       1

loop_
  _symmetry_equiv_pos_as_xyz
  'x, y, z'

loop_
  _atom_site_label
  _atom_site_occupancy
  _atom_site_fract_x
  _atom_site_fract_y
  _atom_site_fract_z
  _atom_site_thermal_displace_type
  _atom_site_B_iso_or_equiv
  _atom_site_type_symbol
  Hf1      1.0000 0.13911  0.02057  0.17382  Biso   1.000  Hf
  Hf2      1.0000 0.13918  0.22701  0.42634  Biso   1.000  Hf
  Hf3      1.0000 0.34831  0.27347  0.18810  Biso   1.000  Hf
  Hf4      1.0000 0.36165  0.47856  0.42558  Biso   1.000  Hf
  Hf5      1.0000 0.64091  0.00874  0.08077  Biso   1.000  Hf
  Hf6      1.0000 0.63758  0.22375  0.33022  Biso   1.000  Hf
  Hf7      1.0000 0.86675  0.27071  0.07564  Biso   1.000  Hf
  Hf8      1.0000 0.85949  0.47815  0.32516  Biso   1.000  Hf
  O1       1.0000 0.03339  0.16131  0.08195  Biso   1.000  O
  O2       1.0000 0.03185  0.08706  0.33266  Biso   1.000  O
  O3       1.0000 0.45446  0.43675  0.10082  Biso   1.000  O
  O4       1.0000 0.46572  0.33226  0.33916  Biso   1.000  O
  O5       1.0000 0.27223  0.12318  0.30196  Biso   1.000  O
  O6       1.0000 0.27701  0.12505  0.04935  Biso   1.000  O
  O7       1.0000 0.21643  0.37702  0.30484  Biso   1.000  O
  O8       1.0000 0.21586  0.37803  0.05200  Biso   1.000  O
  O9       1.0000 0.52078  0.14275  0.18378  Biso   1.000  O
  O10      1.0000 0.53185  0.08345  0.42156  Biso   1.000  O
  O11      1.0000 0.96384  0.41542  0.17000  Biso   1.000  O
  O12      1.0000 0.96955  0.33693  0.41782  Biso   1.000  O
  O13      1.0000 0.77665  0.12320  0.45150  Biso   1.000  O
  O14      1.0000 0.77664  0.12442  0.20390  Biso   1.000  O
  O15      1.0000 0.72428  0.37412  0.44941  Biso   1.000  O
  O16      1.0000 0.71048  0.36980  0.19290  Biso   1.000  O
  Hf9      1.0000 0.14035  0.02080  0.67486  Biso   1.000  Hf
  Hf10     1.0000 0.14321  0.22932  0.92457  Biso   1.000  Hf
  Hf11     1.0000 0.36317  0.27133  0.67520  Biso   1.000  Hf
  Hf12     1.0000 0.35981  0.48181  0.92770  Biso   1.000  Hf
  Hf13     1.0000 0.64179  0.01512  0.57408  Biso   1.000  Hf
  Hf14     1.0000 0.65299  0.22619  0.79688  Biso   1.000  Hf
  Hf15     1.0000 0.86672  0.27278  0.57225  Biso   1.000  Hf
  Hf16     1.0000 0.86524  0.48007  0.82829  Biso   1.000  Hf
  O17      1.0000 0.03386  0.16219  0.58231  Biso   1.000  O
  O18      1.0000 0.03440  0.08742  0.83299  Biso   1.000  O
  O19      1.0000 0.47105  0.41323  0.58438  Biso   1.000  O
  O20      1.0000 0.47826  0.33511  0.83362  Biso   1.000  O
  O21      1.0000 0.27835  0.12448  0.79784  Biso   1.000  O
  O22      1.0000 0.27776  0.12495  0.54949  Biso   1.000  O
  O23      1.0000 0.22785  0.37318  0.80015  Biso   1.000  O
  O24      1.0000 0.22644  0.37470  0.55101  Biso   1.000  O
  O25      1.0000 0.53112  0.15808  0.66067  Biso   1.000  O
  O26      1.0000 0.53164  0.08388  0.91734  Biso   1.000  O
  O27      1.0000 0.97212  0.41215  0.66984  Biso   1.000  O
  O28      1.0000 0.97143  0.33575  0.91863  Biso   1.000  O
  O29      1.0000 0.76717  0.13062  0.94970  Biso   1.000  O
  O30      1.0000 0.78743  0.11869  0.69296  Biso   1.000  O
  O31      1.0000 0.73002  0.38347  0.94981  Biso   1.000  O
  O32      1.0000 0.73138  0.37759  0.69581  Biso   1.000  O
  Hf17     1.0000 0.13849  0.52226  0.17422  Biso   1.000  Hf
  Hf18     1.0000 0.13823  0.72758  0.42379  Biso   1.000  Hf
  Hf19     1.0000 0.35938  0.77170  0.17549  Biso   1.000  Hf
  Hf20     1.0000 0.36095  0.97698  0.42595  Biso   1.000  Hf
  Hf21     1.0000 0.63992  0.53656  0.07722  Biso   1.000  Hf
  Hf22     1.0000 0.63877  0.72973  0.33024  Biso   1.000  Hf
  Hf23     1.0000 0.86468  0.77108  0.07851  Biso   1.000  Hf
  Hf24     1.0000 0.86332  0.97915  0.32837  Biso   1.000  Hf
  O33      1.0000 0.03280  0.66348  0.08273  Biso   1.000  O
  O34      1.0000 0.02963  0.58631  0.33424  Biso   1.000  O
  O35      1.0000 0.46813  0.90751  0.08034  Biso   1.000  O
  O36      1.0000 0.46844  0.83754  0.33453  Biso   1.000  O
  O37      1.0000 0.27454  0.62462  0.29803  Biso   1.000  O
  O38      1.0000 0.27481  0.62858  0.04630  Biso   1.000  O
  O39      1.0000 0.22370  0.87361  0.29875  Biso   1.000  O
  O40      1.0000 0.22290  0.87688  0.04844  Biso   1.000  O
  O41      1.0000 0.53316  0.67168  0.17093  Biso   1.000  O
  O42      1.0000 0.53161  0.58640  0.41800  Biso   1.000  O
  O43      1.0000 0.96876  0.91416  0.16945  Biso   1.000  O
  O44      1.0000 0.96919  0.83658  0.42077  Biso   1.000  O
  O45      1.0000 0.77692  0.62389  0.45438  Biso   1.000  O
  O46      1.0000 0.77804  0.62619  0.20568  Biso   1.000  O
  O47      1.0000 0.72648  0.87315  0.45554  Biso   1.000  O
  O48      1.0000 0.72817  0.87157  0.20730  Biso   1.000  O
  Hf25     1.0000 0.14155  0.52028  0.67440  Biso   1.000  Hf
  Hf26     1.0000 0.13955  0.73010  0.92301  Biso   1.000  Hf
  Hf27     1.0000 0.36232  0.77022  0.67412  Biso   1.000  Hf
  Hf28     1.0000 0.36232  0.97714  0.92397  Biso   1.000  Hf
  Hf29     1.0000 0.64035  0.52302  0.57578  Biso   1.000  Hf
  Hf30     1.0000 0.64078  0.72954  0.82613  Biso   1.000  Hf
  Hf31     1.0000 0.86516  0.77010  0.57997  Biso   1.000  Hf
  Hf32     1.0000 0.86402  0.98027  0.82946  Biso   1.000  Hf
  O49      1.0000 0.03460  0.66259  0.58402  Biso   1.000  O
  O50      1.0000 0.03537  0.58624  0.83352  Biso   1.000  O
  O51      1.0000 0.47047  0.90916  0.58225  Biso   1.000  O
  O52      1.0000 0.46980  0.83639  0.83157  Biso   1.000  O
  O53      1.0000 0.27723  0.62486  0.79714  Biso   1.000  O
  O54      1.0000 0.27698  0.62455  0.54707  Biso   1.000  O
  O55      1.0000 0.22527  0.87363  0.79782  Biso   1.000  O
  O56      1.0000 0.22455  0.87521  0.54875  Biso   1.000  O
  O57      1.0000 0.53350  0.66272  0.66784  Biso   1.000  O
  O58      1.0000 0.53193  0.58873  0.91848  Biso   1.000  O
  O59      1.0000 0.97081  0.91161  0.67174  Biso   1.000  O
  O60      1.0000 0.96973  0.83803  0.92000  Biso   1.000  O
  O61      1.0000 0.78013  0.63001  0.95106  Biso   1.000  O
  O62      1.0000 0.77825  0.62547  0.70342  Biso   1.000  O
  O63      1.0000 0.72677  0.87540  0.95500  Biso   1.000  O
  O64      1.0000 0.72700  0.87423  0.70578  Biso   1.000  O
  Y1       1.0000 0.56187  0.26899  0.02419  Biso   1.000  Y
