data_image0
_cell_length_a       10.1697
_cell_length_b       5.14882
_cell_length_c       10.1697
_cell_angle_alpha    89.9998
_cell_angle_beta     90
_cell_angle_gamma    89.9998

_symmetry_space_group_name_H-M    "P 1"
_symmetry_int_tables_number       1

loop_
  _symmetry_equiv_pos_as_xyz
  'x, y, z'

loop_
  _atom_site_label
  _atom_site_occupancy
  _atom_site_fract_x
  _atom_site_fract_y
  _atom_site_fract_z
  _atom_site_thermal_displace_type
  _atom_site_B_iso_or_equiv
  _atom_site_type_symbol
  Zr1      1.0000 0.12540  0.00015  0.12540  Biso   1.000  Zr
  Zr2      1.0000 0.12539  0.50015  0.39793  Biso   1.000  Zr
  Zr3      1.0000 0.39793  0.50015  0.12539  Biso   1.000  Zr
  Zr4      1.0000 0.37093  0.00010  0.37093  Biso   1.000  Zr
  O1       1.0000 0.99114  0.27954  0.99112  Biso   1.000  O
  O2       1.0000 0.00151  0.22383  0.24926  Biso   1.000  O
  O3       1.0000 0.99114  0.72076  0.25967  Biso   1.000  O
  O4       1.0000 0.00151  0.77647  0.00153  Biso   1.000  O
  O5       1.0000 0.25965  0.27954  0.25967  Biso   1.000  O
  O6       1.0000 0.24928  0.22383  0.00153  Biso   1.000  O
  O7       1.0000 0.25965  0.72076  0.99112  Biso   1.000  O
  O8       1.0000 0.24928  0.77646  0.24926  Biso   1.000  O
  Zr5      1.0000 0.12540  0.00015  0.62540  Biso   1.000  Zr
  Zr6      1.0000 0.12540  0.50015  0.85286  Biso   1.000  Zr
  Zr7      1.0000 0.38104  0.50015  0.62540  Biso   1.000  Zr
  Zr8      1.0000 0.37093  0.00020  0.87986  Biso   1.000  Zr
  O9       1.0000 0.99033  0.27972  0.49946  Biso   1.000  O
  O10      1.0000 0.00625  0.21645  0.74584  Biso   1.000  O
  O11      1.0000 0.99033  0.72057  0.75133  Biso   1.000  O
  O12      1.0000 0.00625  0.78385  0.50495  Biso   1.000  O
  O13      1.0000 0.26046  0.27973  0.75134  Biso   1.000  O
  O14      1.0000 0.24454  0.21645  0.50495  Biso   1.000  O
  O15      1.0000 0.26046  0.72057  0.49946  Biso   1.000  O
  O16      1.0000 0.24454  0.78384  0.74584  Biso   1.000  O
  Zr9      1.0000 0.62540  0.00015  0.12540  Biso   1.000  Zr
  Zr10     1.0000 0.62540  0.50015  0.38104  Biso   1.000  Zr
  Zr11     1.0000 0.85286  0.50015  0.12540  Biso   1.000  Zr
  Zr12     1.0000 0.87986  0.00020  0.37093  Biso   1.000  Zr
  O17      1.0000 0.49947  0.27972  0.99033  Biso   1.000  O
  O18      1.0000 0.50494  0.21645  0.24453  Biso   1.000  O
  O19      1.0000 0.49947  0.72057  0.26047  Biso   1.000  O
  O20      1.0000 0.50494  0.78386  0.00626  Biso   1.000  O
  O21      1.0000 0.75133  0.27973  0.26047  Biso   1.000  O
  O22      1.0000 0.74585  0.21645  0.00626  Biso   1.000  O
  O23      1.0000 0.75132  0.72057  0.99032  Biso   1.000  O
  O24      1.0000 0.74585  0.78385  0.24453  Biso   1.000  O
  Zr13     1.0000 0.62540  0.00015  0.62540  Biso   1.000  Zr
  Zr14     1.0000 0.62539  0.50015  0.86975  Biso   1.000  Zr
  Zr15     1.0000 0.86975  0.50015  0.62539  Biso   1.000  Zr
  Zr16     1.0000 0.87986  0.00009  0.87986  Biso   1.000  Zr
  O25      1.0000 0.49251  0.28995  0.49251  Biso   1.000  O
  O26      1.0000 0.50597  0.21333  0.74481  Biso   1.000  O
  O27      1.0000 0.49252  0.71035  0.75828  Biso   1.000  O
  O28      1.0000 0.50597  0.78697  0.50598  Biso   1.000  O
  O29      1.0000 0.75828  0.28995  0.75829  Biso   1.000  O
  O30      1.0000 0.74482  0.21334  0.50598  Biso   1.000  O
  O31      1.0000 0.75828  0.71035  0.49251  Biso   1.000  O
  O32      1.0000 0.74482  0.78696  0.74481  Biso   1.000  O
  Y1       1.0000 0.12540  0.50015  0.12539  Biso   1.000  Y
