data_image0
_cell_length_a       10.169
_cell_length_b       5.1488
_cell_length_c       10.1704
_cell_angle_alpha    89.9991
_cell_angle_beta     89.9999
_cell_angle_gamma    90.0001

_symmetry_space_group_name_H-M    "P 1"
_symmetry_int_tables_number       1

loop_
  _symmetry_equiv_pos_as_xyz
  'x, y, z'

loop_
  _atom_site_label
  _atom_site_occupancy
  _atom_site_fract_x
  _atom_site_fract_y
  _atom_site_fract_z
  _atom_site_thermal_displace_type
  _atom_site_B_iso_or_equiv
  _atom_site_type_symbol
  Zr1      1.0000 0.12518  0.99996  0.10668  Biso   1.000  Zr
  Zr2      1.0000 0.12518  0.49997  0.37923  Biso   1.000  Zr
  Zr3      1.0000 0.39772  0.49996  0.10669  Biso   1.000  Zr
  Zr4      1.0000 0.37070  0.00001  0.35224  Biso   1.000  Zr
  O1       1.0000 0.99121  0.27935  0.24124  Biso   1.000  O
  O2       1.0000 0.00584  0.21636  0.48651  Biso   1.000  O
  O3       1.0000 0.50446  0.78374  0.22564  Biso   1.000  O
  O4       1.0000 0.49241  0.71017  0.47370  Biso   1.000  O
  O5       1.0000 0.24943  0.22362  0.23019  Biso   1.000  O
  O6       1.0000 0.26015  0.27950  0.48054  Biso   1.000  O
  O7       1.0000 0.24452  0.78355  0.48652  Biso   1.000  O
  O8       1.0000 0.25916  0.72054  0.24126  Biso   1.000  O
  Zr5      1.0000 0.12519  0.99998  0.60669  Biso   1.000  Zr
  Zr6      1.0000 0.12517  0.49998  0.83415  Biso   1.000  Zr
  Zr7      1.0000 0.38082  0.49996  0.60669  Biso   1.000  Zr
  Zr8      1.0000 0.37071  0.99992  0.86114  Biso   1.000  Zr
  O9       1.0000 0.99021  0.27952  0.73283  Biso   1.000  O
  O10      1.0000 0.00094  0.22365  0.98318  Biso   1.000  O
  O11      1.0000 0.50558  0.78677  0.72593  Biso   1.000  O
  O12      1.0000 0.49946  0.72037  0.97152  Biso   1.000  O
  O13      1.0000 0.24452  0.21638  0.72686  Biso   1.000  O
  O14      1.0000 0.25916  0.27936  0.97213  Biso   1.000  O
  O15      1.0000 0.24944  0.77629  0.98319  Biso   1.000  O
  O16      1.0000 0.26016  0.72044  0.73284  Biso   1.000  O
  Zr9      1.0000 0.62519  0.99996  0.10669  Biso   1.000  Zr
  Zr10     1.0000 0.62518  0.49996  0.36234  Biso   1.000  Zr
  Zr11     1.0000 0.85265  0.49996  0.10669  Biso   1.000  Zr
  Zr12     1.0000 0.87966  0.99991  0.35224  Biso   1.000  Zr
  O17      1.0000 0.49946  0.27955  0.24185  Biso   1.000  O
  O18      1.0000 0.50557  0.21315  0.48744  Biso   1.000  O
  O19      1.0000 0.00094  0.77628  0.23020  Biso   1.000  O
  O20      1.0000 0.99021  0.72042  0.48055  Biso   1.000  O
  O21      1.0000 0.74590  0.21617  0.22564  Biso   1.000  O
  O22      1.0000 0.75796  0.28975  0.47370  Biso   1.000  O
  O23      1.0000 0.74479  0.78677  0.48745  Biso   1.000  O
  O24      1.0000 0.75091  0.72036  0.24185  Biso   1.000  O
  Zr13     1.0000 0.62518  0.99996  0.60668  Biso   1.000  Zr
  Zr14     1.0000 0.62518  0.49996  0.85104  Biso   1.000  Zr
  Zr15     1.0000 0.86953  0.49997  0.60669  Biso   1.000  Zr
  Zr16     1.0000 0.87966  0.00003  0.86113  Biso   1.000  Zr
  O25      1.0000 0.49240  0.28975  0.73967  Biso   1.000  O
  O26      1.0000 0.50447  0.21618  0.98773  Biso   1.000  O
  O27      1.0000 0.00585  0.78358  0.72687  Biso   1.000  O
  O28      1.0000 0.99121  0.72058  0.97213  Biso   1.000  O
  O29      1.0000 0.74479  0.21314  0.72593  Biso   1.000  O
  O30      1.0000 0.75091  0.27957  0.97153  Biso   1.000  O
  O31      1.0000 0.74590  0.78376  0.98774  Biso   1.000  O
  O32      1.0000 0.75796  0.71016  0.73968  Biso   1.000  O
  Y1       1.0000 0.12518  0.49996  0.10669  Biso   1.000  Y
