data_image0
_cell_length_a       10.1285
_cell_length_b       10.3352
_cell_length_c       10.6091
_cell_angle_alpha    89.9735
_cell_angle_beta     90.8541
_cell_angle_gamma    90.1459

_symmetry_space_group_name_H-M    "P 1"
_symmetry_int_tables_number       1

loop_
  _symmetry_equiv_pos_as_xyz
  'x, y, z'

loop_
  _atom_site_label
  _atom_site_occupancy
  _atom_site_fract_x
  _atom_site_fract_y
  _atom_site_fract_z
  _atom_site_thermal_displace_type
  _atom_site_B_iso_or_equiv
  _atom_site_type_symbol
  Zr1      1.0000 0.13907  0.02051  0.17367  Biso   1.000  Zr
  Zr2      1.0000 0.13892  0.22686  0.42661  Biso   1.000  Zr
  Zr3      1.0000 0.34747  0.27336  0.18867  Biso   1.000  Zr
  Zr4      1.0000 0.36145  0.47847  0.42626  Biso   1.000  Zr
  Zr5      1.0000 0.64100  0.00808  0.08095  Biso   1.000  Zr
  Zr6      1.0000 0.63779  0.22401  0.33025  Biso   1.000  Zr
  Zr7      1.0000 0.86760  0.27060  0.07598  Biso   1.000  Zr
  Zr8      1.0000 0.85932  0.47809  0.32497  Biso   1.000  Zr
  O1       1.0000 0.03244  0.15931  0.08033  Biso   1.000  O
  O2       1.0000 0.03081  0.08836  0.33128  Biso   1.000  O
  O3       1.0000 0.45547  0.43315  0.09775  Biso   1.000  O
  O4       1.0000 0.46591  0.33326  0.33834  Biso   1.000  O
  O5       1.0000 0.27133  0.12341  0.30217  Biso   1.000  O
  O6       1.0000 0.27643  0.12567  0.04922  Biso   1.000  O
  O7       1.0000 0.21680  0.37732  0.30526  Biso   1.000  O
  O8       1.0000 0.21699  0.37733  0.05207  Biso   1.000  O
  O9       1.0000 0.52100  0.14503  0.18217  Biso   1.000  O
  O10      1.0000 0.53117  0.08410  0.42135  Biso   1.000  O
  O11      1.0000 0.96451  0.41465  0.17120  Biso   1.000  O
  O12      1.0000 0.97050  0.33829  0.41918  Biso   1.000  O
  O13      1.0000 0.77573  0.12359  0.45104  Biso   1.000  O
  O14      1.0000 0.77550  0.12358  0.20394  Biso   1.000  O
  O15      1.0000 0.72497  0.37450  0.44864  Biso   1.000  O
  O16      1.0000 0.71063  0.36896  0.19163  Biso   1.000  O
  Zr9      1.0000 0.14000  0.02074  0.67470  Biso   1.000  Zr
  Zr10     1.0000 0.14273  0.22914  0.92406  Biso   1.000  Zr
  Zr11     1.0000 0.36285  0.27093  0.67569  Biso   1.000  Zr
  Zr12     1.0000 0.35897  0.48285  0.92681  Biso   1.000  Zr
  Zr13     1.0000 0.64188  0.01507  0.57343  Biso   1.000  Zr
  Zr14     1.0000 0.65313  0.22608  0.79565  Biso   1.000  Zr
  Zr15     1.0000 0.86655  0.27298  0.57207  Biso   1.000  Zr
  Zr16     1.0000 0.86511  0.48001  0.82840  Biso   1.000  Zr
  O17      1.0000 0.03284  0.16100  0.58114  Biso   1.000  O
  O18      1.0000 0.03282  0.08889  0.83168  Biso   1.000  O
  O19      1.0000 0.47189  0.41227  0.58466  Biso   1.000  O
  O20      1.0000 0.47704  0.33372  0.83652  Biso   1.000  O
  O21      1.0000 0.27673  0.12476  0.79805  Biso   1.000  O
  O22      1.0000 0.27681  0.12449  0.54978  Biso   1.000  O
  O23      1.0000 0.22840  0.37395  0.80047  Biso   1.000  O
  O24      1.0000 0.22738  0.37421  0.55152  Biso   1.000  O
  O25      1.0000 0.52979  0.15657  0.66130  Biso   1.000  O
  O26      1.0000 0.52965  0.08532  0.91950  Biso   1.000  O
  O27      1.0000 0.97324  0.41079  0.67125  Biso   1.000  O
  O28      1.0000 0.97233  0.33714  0.92021  Biso   1.000  O
  O29      1.0000 0.76395  0.13210  0.95088  Biso   1.000  O
  O30      1.0000 0.78729  0.11789  0.69232  Biso   1.000  O
  O31      1.0000 0.72985  0.38295  0.94927  Biso   1.000  O
  O32      1.0000 0.73258  0.37787  0.69530  Biso   1.000  O
  Zr17     1.0000 0.13850  0.52246  0.17398  Biso   1.000  Zr
  Zr18     1.0000 0.13797  0.72743  0.42363  Biso   1.000  Zr
  Zr19     1.0000 0.35942  0.77163  0.17575  Biso   1.000  Zr
  Zr20     1.0000 0.36089  0.97672  0.42594  Biso   1.000  Zr
  Zr21     1.0000 0.64046  0.53704  0.07698  Biso   1.000  Zr
  Zr22     1.0000 0.63876  0.72945  0.33041  Biso   1.000  Zr
  Zr23     1.0000 0.86490  0.77115  0.07861  Biso   1.000  Zr
  Zr24     1.0000 0.86333  0.97914  0.32841  Biso   1.000  Zr
  O33      1.0000 0.03179  0.66227  0.08161  Biso   1.000  O
  O34      1.0000 0.02888  0.58737  0.33324  Biso   1.000  O
  O35      1.0000 0.46874  0.90642  0.07995  Biso   1.000  O
  O36      1.0000 0.46937  0.83841  0.33361  Biso   1.000  O
  O37      1.0000 0.27365  0.62467  0.29839  Biso   1.000  O
  O38      1.0000 0.27382  0.62812  0.04651  Biso   1.000  O
  O39      1.0000 0.22469  0.87391  0.29907  Biso   1.000  O
  O40      1.0000 0.22379  0.87661  0.04870  Biso   1.000  O
  O41      1.0000 0.53188  0.66962  0.17222  Biso   1.000  O
  O42      1.0000 0.53047  0.58722  0.41929  Biso   1.000  O
  O43      1.0000 0.96986  0.91293  0.17051  Biso   1.000  O
  O44      1.0000 0.97022  0.83780  0.42193  Biso   1.000  O
  O45      1.0000 0.77574  0.62431  0.45429  Biso   1.000  O
  O46      1.0000 0.77732  0.62587  0.20578  Biso   1.000  O
  O47      1.0000 0.72748  0.87351  0.45518  Biso   1.000  O
  O48      1.0000 0.72927  0.87073  0.20718  Biso   1.000  O
  Zr25     1.0000 0.14108  0.52033  0.67412  Biso   1.000  Zr
  Zr26     1.0000 0.13912  0.73043  0.92271  Biso   1.000  Zr
  Zr27     1.0000 0.36230  0.77062  0.67408  Biso   1.000  Zr
  Zr28     1.0000 0.36231  0.97732  0.92428  Biso   1.000  Zr
  Zr29     1.0000 0.64027  0.52327  0.57601  Biso   1.000  Zr
  Zr30     1.0000 0.64082  0.72973  0.82591  Biso   1.000  Zr
  Zr31     1.0000 0.86518  0.77027  0.58021  Biso   1.000  Zr
  Zr32     1.0000 0.86360  0.98068  0.82957  Biso   1.000  Zr
  O49      1.0000 0.03344  0.66151  0.58299  Biso   1.000  O
  O50      1.0000 0.03434  0.58743  0.83252  Biso   1.000  O
  O51      1.0000 0.47142  0.90801  0.58085  Biso   1.000  O
  O52      1.0000 0.47062  0.83752  0.83061  Biso   1.000  O
  O53      1.0000 0.27600  0.62564  0.79714  Biso   1.000  O
  O54      1.0000 0.27582  0.62421  0.54742  Biso   1.000  O
  O55      1.0000 0.22609  0.87425  0.79804  Biso   1.000  O
  O56      1.0000 0.22547  0.87480  0.54904  Biso   1.000  O
  O57      1.0000 0.53261  0.66206  0.66864  Biso   1.000  O
  O58      1.0000 0.53126  0.58935  0.91881  Biso   1.000  O
  O59      1.0000 0.97159  0.91039  0.67299  Biso   1.000  O
  O60      1.0000 0.97052  0.83931  0.92088  Biso   1.000  O
  O61      1.0000 0.77951  0.63017  0.95067  Biso   1.000  O
  O62      1.0000 0.77736  0.62541  0.70322  Biso   1.000  O
  O63      1.0000 0.72766  0.87573  0.95471  Biso   1.000  O
  O64      1.0000 0.72768  0.87405  0.70531  Biso   1.000  O
  Y1       1.0000 0.56464  0.26898  0.02377  Biso   1.000  Y
