data_image0
_cell_length_a       10.0733
_cell_length_b       5.11916
_cell_length_c       10.4774
_cell_angle_alpha    89.9638
_cell_angle_beta     89.8899
_cell_angle_gamma    90.0041

_symmetry_space_group_name_H-M    "P 1"
_symmetry_int_tables_number       1

loop_
  _symmetry_equiv_pos_as_xyz
  'x, y, z'

loop_
  _atom_site_label
  _atom_site_occupancy
  _atom_site_fract_x
  _atom_site_fract_y
  _atom_site_fract_z
  _atom_site_thermal_displace_type
  _atom_site_B_iso_or_equiv
  _atom_site_type_symbol
  Yb1      1.0000 0.13785  0.03509  0.17242  Biso   1.000  Yb
  Hf1      1.0000 0.14042  0.45687  0.42248  Biso   1.000  Hf
  Hf2      1.0000 0.36109  0.53811  0.17064  Biso   1.000  Hf
  Hf3      1.0000 0.36152  0.95774  0.42144  Biso   1.000  Hf
  Hf4      1.0000 0.63792  0.04011  0.07813  Biso   1.000  Hf
  Hf5      1.0000 0.63803  0.45828  0.32817  Biso   1.000  Hf
  Hf6      1.0000 0.85794  0.53988  0.07677  Biso   1.000  Hf
  Hf7      1.0000 0.85917  0.95852  0.32898  Biso   1.000  Hf
  O1       1.0000 0.03111  0.34256  0.08038  Biso   1.000  O
  O2       1.0000 0.02732  0.17729  0.33979  Biso   1.000  O
  O3       1.0000 0.46847  0.82822  0.08293  Biso   1.000  O
  O4       1.0000 0.46977  0.67393  0.33256  Biso   1.000  O
  O5       1.0000 0.28061  0.25174  0.30097  Biso   1.000  O
  O6       1.0000 0.28169  0.25788  0.04098  Biso   1.000  O
  O7       1.0000 0.22839  0.73912  0.29784  Biso   1.000  O
  O8       1.0000 0.23024  0.74317  0.04106  Biso   1.000  O
  O9       1.0000 0.53337  0.32786  0.16696  Biso   1.000  O
  O10      1.0000 0.53308  0.17022  0.41729  Biso   1.000  O
  O11      1.0000 0.95832  0.82440  0.16801  Biso   1.000  O
  O12      1.0000 0.96852  0.67471  0.41781  Biso   1.000  O
  O13      1.0000 0.77490  0.24991  0.45540  Biso   1.000  O
  O14      1.0000 0.77567  0.25184  0.20474  Biso   1.000  O
  O15      1.0000 0.72427  0.74855  0.45468  Biso   1.000  O
  O16      1.0000 0.71926  0.75217  0.20477  Biso   1.000  O
  Hf8      1.0000 0.13967  0.04141  0.67221  Biso   1.000  Hf
  Hf9      1.0000 0.14052  0.45881  0.92196  Biso   1.000  Hf
  Hf10     1.0000 0.36111  0.54219  0.67184  Biso   1.000  Hf
  Hf11     1.0000 0.36130  0.95819  0.92205  Biso   1.000  Hf
  Hf12     1.0000 0.63827  0.04222  0.57835  Biso   1.000  Hf
  Hf13     1.0000 0.63801  0.45745  0.82760  Biso   1.000  Hf
  Hf14     1.0000 0.86090  0.54263  0.57782  Biso   1.000  Hf
  Hf15     1.0000 0.86069  0.95848  0.82776  Biso   1.000  Hf
  O17      1.0000 0.03223  0.33064  0.58470  Biso   1.000  O
  O18      1.0000 0.03198  0.17158  0.83272  Biso   1.000  O
  O19      1.0000 0.46784  0.82876  0.58317  Biso   1.000  O
  O20      1.0000 0.46772  0.67006  0.83220  Biso   1.000  O
  O21      1.0000 0.27557  0.24742  0.79442  Biso   1.000  O
  O22      1.0000 0.27567  0.25125  0.54703  Biso   1.000  O
  O23      1.0000 0.22432  0.74880  0.79410  Biso   1.000  O
  O24      1.0000 0.22436  0.75232  0.54590  Biso   1.000  O
  O25      1.0000 0.53249  0.32920  0.66653  Biso   1.000  O
  O26      1.0000 0.53379  0.16871  0.91597  Biso   1.000  O
  O27      1.0000 0.96771  0.82928  0.66679  Biso   1.000  O
  O28      1.0000 0.96790  0.67499  0.91637  Biso   1.000  O
  O29      1.0000 0.77550  0.24602  0.95371  Biso   1.000  O
  O30      1.0000 0.77578  0.25247  0.70426  Biso   1.000  O
  O31      1.0000 0.72330  0.74680  0.95336  Biso   1.000  O
  O32      1.0000 0.72443  0.75215  0.70399  Biso   1.000  O
