data_image0
_cell_length_a       9.97139
_cell_length_b       10.3676
_cell_length_c       10.0189
_cell_angle_alpha    90.034
_cell_angle_beta     90.0853
_cell_angle_gamma    89.9985

_symmetry_space_group_name_H-M    "P 1"
_symmetry_int_tables_number       1

loop_
  _symmetry_equiv_pos_as_xyz
  'x, y, z'

loop_
  _atom_site_label
  _atom_site_occupancy
  _atom_site_fract_x
  _atom_site_fract_y
  _atom_site_fract_z
  _atom_site_thermal_displace_type
  _atom_site_B_iso_or_equiv
  _atom_site_type_symbol
  Yb1      1.0000 0.13058  0.01522  0.12087  Biso   1.000  Yb
  Hf1      1.0000 0.13494  0.23332  0.37678  Biso   1.000  Hf
  Hf2      1.0000 0.36508  0.26617  0.12744  Biso   1.000  Hf
  Hf3      1.0000 0.36539  0.48355  0.37622  Biso   1.000  Hf
  O1       1.0000 0.03285  0.18958  0.19914  Biso   1.000  O
  O2       1.0000 0.03583  0.06565  0.44447  Biso   1.000  O
  O3       1.0000 0.46370  0.43390  0.19513  Biso   1.000  O
  O4       1.0000 0.46342  0.31553  0.44425  Biso   1.000  O
  O5       1.0000 0.27663  0.12416  0.25331  Biso   1.000  O
  O6       1.0000 0.27027  0.13151  0.50124  Biso   1.000  O
  O7       1.0000 0.22985  0.38256  0.50007  Biso   1.000  O
  O8       1.0000 0.22778  0.36935  0.25003  Biso   1.000  O
  Hf4      1.0000 0.13363  0.01673  0.62663  Biso   1.000  Hf
  Hf5      1.0000 0.13415  0.23498  0.87393  Biso   1.000  Hf
  Hf6      1.0000 0.36613  0.26632  0.62579  Biso   1.000  Hf
  Hf7      1.0000 0.36622  0.48318  0.87602  Biso   1.000  Hf
  O9       1.0000 0.03832  0.18711  0.68950  Biso   1.000  O
  O10      1.0000 0.03523  0.06949  0.93028  Biso   1.000  O
  O11      1.0000 0.46418  0.43405  0.69458  Biso   1.000  O
  O12      1.0000 0.46408  0.31558  0.94393  Biso   1.000  O
  O13      1.0000 0.27146  0.11818  0.74930  Biso   1.000  O
  O14      1.0000 0.27402  0.13421  0.99638  Biso   1.000  O
  O15      1.0000 0.22965  0.38224  0.99988  Biso   1.000  O
  O16      1.0000 0.23018  0.36861  0.74913  Biso   1.000  O
  Hf8      1.0000 0.13475  0.51645  0.12596  Biso   1.000  Hf
  Hf9      1.0000 0.13443  0.73409  0.37649  Biso   1.000  Hf
  Hf10     1.0000 0.36643  0.76581  0.12620  Biso   1.000  Hf
  Hf11     1.0000 0.36435  0.98389  0.37444  Biso   1.000  Hf
  O17      1.0000 0.03591  0.68430  0.19474  Biso   1.000  O
  O18      1.0000 0.03615  0.56570  0.44490  Biso   1.000  O
  O19      1.0000 0.46383  0.93472  0.19368  Biso   1.000  O
  O20      1.0000 0.46419  0.81618  0.44558  Biso   1.000  O
  O21      1.0000 0.27044  0.61636  0.24973  Biso   1.000  O
  O22      1.0000 0.27050  0.63262  0.49990  Biso   1.000  O
  O23      1.0000 0.22890  0.88281  0.50036  Biso   1.000  O
  O24      1.0000 0.23452  0.86245  0.25277  Biso   1.000  O
  Hf12     1.0000 0.13395  0.51675  0.62597  Biso   1.000  Hf
  Hf13     1.0000 0.13494  0.73330  0.87625  Biso   1.000  Hf
  Hf14     1.0000 0.36603  0.76688  0.62581  Biso   1.000  Hf
  Hf15     1.0000 0.36711  0.98330  0.87550  Biso   1.000  Hf
  O25      1.0000 0.03634  0.68443  0.69495  Biso   1.000  O
  O26      1.0000 0.03603  0.56637  0.94449  Biso   1.000  O
  O27      1.0000 0.46410  0.93408  0.69447  Biso   1.000  O
  O28      1.0000 0.46677  0.81593  0.94484  Biso   1.000  O
  O29      1.0000 0.27091  0.61785  0.74986  Biso   1.000  O
  O30      1.0000 0.27115  0.63080  0.00001  Biso   1.000  O
  O31      1.0000 0.23565  0.87735  0.99638  Biso   1.000  O
  O32      1.0000 0.22924  0.86793  0.74917  Biso   1.000  O
  Hf16     1.0000 0.63382  0.01598  0.12573  Biso   1.000  Hf
  Hf17     1.0000 0.63318  0.23330  0.37549  Biso   1.000  Hf
  Hf18     1.0000 0.86367  0.26651  0.12613  Biso   1.000  Hf
  Hf19     1.0000 0.86590  0.48360  0.37683  Biso   1.000  Hf
  O33      1.0000 0.53830  0.18511  0.19215  Biso   1.000  O
  O34      1.0000 0.53587  0.06562  0.44382  Biso   1.000  O
  O35      1.0000 0.96320  0.43518  0.19413  Biso   1.000  O
  O36      1.0000 0.96374  0.31692  0.44489  Biso   1.000  O
  O37      1.0000 0.76974  0.11709  0.25017  Biso   1.000  O
  O38      1.0000 0.76944  0.13311  0.49989  Biso   1.000  O
  O39      1.0000 0.72908  0.38251  0.49979  Biso   1.000  O
  O40      1.0000 0.72923  0.36794  0.25020  Biso   1.000  O
  Hf20     1.0000 0.63336  0.01666  0.62528  Biso   1.000  Hf
  Hf21     1.0000 0.63420  0.23319  0.87562  Biso   1.000  Hf
  Hf22     1.0000 0.86606  0.26689  0.62525  Biso   1.000  Hf
  Hf23     1.0000 0.86603  0.48324  0.87627  Biso   1.000  Hf
  O41      1.0000 0.53640  0.18430  0.69418  Biso   1.000  O
  O42      1.0000 0.53803  0.06513  0.94316  Biso   1.000  O
  O43      1.0000 0.96404  0.43473  0.69522  Biso   1.000  O
  O44      1.0000 0.96404  0.31650  0.94536  Biso   1.000  O
  O45      1.0000 0.77069  0.11771  0.74904  Biso   1.000  O
  O46      1.0000 0.77178  0.13165  0.99937  Biso   1.000  O
  O47      1.0000 0.72884  0.38201  0.99979  Biso   1.000  O
  O48      1.0000 0.72980  0.36759  0.74994  Biso   1.000  O
  Hf24     1.0000 0.63355  0.51609  0.12636  Biso   1.000  Hf
  Hf25     1.0000 0.63303  0.73324  0.37702  Biso   1.000  Hf
  Hf26     1.0000 0.86434  0.76590  0.12693  Biso   1.000  Hf
  Hf27     1.0000 0.86502  0.98329  0.37808  Biso   1.000  Hf
  O49      1.0000 0.53658  0.68331  0.19532  Biso   1.000  O
  O50      1.0000 0.53575  0.56545  0.44496  Biso   1.000  O
  O51      1.0000 0.95483  0.93191  0.19970  Biso   1.000  O
  O52      1.0000 0.96375  0.81527  0.44570  Biso   1.000  O
  O53      1.0000 0.77056  0.61726  0.25001  Biso   1.000  O
  O54      1.0000 0.77026  0.63197  0.49997  Biso   1.000  O
  O55      1.0000 0.72904  0.88176  0.50069  Biso   1.000  O
  O56      1.0000 0.72565  0.86701  0.25042  Biso   1.000  O
  Hf28     1.0000 0.63387  0.51604  0.62621  Biso   1.000  Hf
  Hf29     1.0000 0.63454  0.73279  0.87566  Biso   1.000  Hf
  Hf30     1.0000 0.86606  0.76581  0.62587  Biso   1.000  Hf
  Hf31     1.0000 0.86468  0.98268  0.87458  Biso   1.000  Hf
  O57      1.0000 0.53631  0.68393  0.69443  Biso   1.000  O
  O58      1.0000 0.53628  0.56535  0.94486  Biso   1.000  O
  O59      1.0000 0.96266  0.93420  0.69317  Biso   1.000  O
  O60      1.0000 0.96654  0.81803  0.94771  Biso   1.000  O
  O61      1.0000 0.77085  0.61717  0.74974  Biso   1.000  O
  O62      1.0000 0.77055  0.63142  0.99965  Biso   1.000  O
  O63      1.0000 0.72984  0.88113  0.00012  Biso   1.000  O
  O64      1.0000 0.72946  0.86715  0.74988  Biso   1.000  O
