data_image0
_cell_length_a       10.2377
_cell_length_b       10.3731
_cell_length_c       10.5962
_cell_angle_alpha    89.8886
_cell_angle_beta     79.5741
_cell_angle_gamma    90.0708

_symmetry_space_group_name_H-M    "P 1"
_symmetry_int_tables_number       1

loop_
  _symmetry_equiv_pos_as_xyz
  'x, y, z'

loop_
  _atom_site_label
  _atom_site_occupancy
  _atom_site_fract_x
  _atom_site_fract_y
  _atom_site_fract_z
  _atom_site_thermal_displace_type
  _atom_site_B_iso_or_equiv
  _atom_site_type_symbol
  Zr1      1.0000 0.13531  0.02040  0.14535  Biso   1.000  Zr
  Zr2      1.0000 0.13341  0.22782  0.39442  Biso   1.000  Zr
  Zr3      1.0000 0.34402  0.27293  0.07806  Biso   1.000  Zr
  Zr4      1.0000 0.35901  0.48996  0.35658  Biso   1.000  Zr
  O1       1.0000 0.03328  0.16694  0.07583  Biso   1.000  O
  O2       1.0000 0.03085  0.08317  0.32773  Biso   1.000  O
  O3       1.0000 0.46493  0.41600  0.17245  Biso   1.000  O
  O4       1.0000 0.47751  0.35414  0.43644  Biso   1.000  O
  O5       1.0000 0.27264  0.12274  0.23417  Biso   1.000  O
  O6       1.0000 0.28818  0.12950  0.47709  Biso   1.000  O
  O7       1.0000 0.21135  0.38685  0.00023  Biso   1.000  O
  O8       1.0000 0.23146  0.36484  0.25692  Biso   1.000  O
  Zr5      1.0000 0.13909  0.02172  0.64377  Biso   1.000  Zr
  Zr6      1.0000 0.13254  0.22809  0.88931  Biso   1.000  Zr
  Zr7      1.0000 0.36141  0.27661  0.60459  Biso   1.000  Zr
  Zr8      1.0000 0.35822  0.48351  0.85085  Biso   1.000  Zr
  O9       1.0000 0.03958  0.16922  0.57943  Biso   1.000  O
  O10      1.0000 0.03170  0.08224  0.82615  Biso   1.000  O
  O11      1.0000 0.46663  0.41801  0.67648  Biso   1.000  O
  O12      1.0000 0.46562  0.33772  0.91671  Biso   1.000  O
  O13      1.0000 0.27415  0.12816  0.73543  Biso   1.000  O
  O14      1.0000 0.26955  0.11975  0.98291  Biso   1.000  O
  O15      1.0000 0.22343  0.38172  0.50810  Biso   1.000  O
  O16      1.0000 0.22358  0.37198  0.75617  Biso   1.000  O
  Zr9      1.0000 0.13733  0.52223  0.14693  Biso   1.000  Zr
  Zr10     1.0000 0.13457  0.72860  0.39660  Biso   1.000  Zr
  Zr11     1.0000 0.35919  0.77145  0.10323  Biso   1.000  Zr
  Zr12     1.0000 0.35999  0.96757  0.35321  Biso   1.000  Zr
  O17      1.0000 0.03281  0.66528  0.07931  Biso   1.000  O
  O18      1.0000 0.03282  0.58222  0.32963  Biso   1.000  O
  O19      1.0000 0.46609  0.91386  0.17323  Biso   1.000  O
  O20      1.0000 0.46473  0.82848  0.42498  Biso   1.000  O
  O21      1.0000 0.27342  0.62843  0.24093  Biso   1.000  O
  O22      1.0000 0.27119  0.62698  0.49340  Biso   1.000  O
  O23      1.0000 0.22287  0.87838  0.00900  Biso   1.000  O
  O24      1.0000 0.22007  0.86738  0.25809  Biso   1.000  O
  Zr13     1.0000 0.13718  0.52268  0.64541  Biso   1.000  Zr
  Zr14     1.0000 0.13685  0.72864  0.89673  Biso   1.000  Zr
  Zr15     1.0000 0.36119  0.77186  0.60577  Biso   1.000  Zr
  Zr16     1.0000 0.36017  0.97698  0.85276  Biso   1.000  Zr
  O25      1.0000 0.03024  0.66621  0.57900  Biso   1.000  O
  O26      1.0000 0.03280  0.58382  0.82925  Biso   1.000  O
  O27      1.0000 0.46642  0.91631  0.67297  Biso   1.000  O
  O28      1.0000 0.46546  0.83475  0.92265  Biso   1.000  O
  O29      1.0000 0.27404  0.62878  0.74065  Biso   1.000  O
  O30      1.0000 0.27507  0.62419  0.99096  Biso   1.000  O
  O31      1.0000 0.22327  0.88048  0.51066  Biso   1.000  O
  O32      1.0000 0.22339  0.87099  0.75959  Biso   1.000  O
  Zr17     1.0000 0.64021  0.01824  0.14827  Biso   1.000  Zr
  Zr18     1.0000 0.65268  0.22747  0.41265  Biso   1.000  Zr
  Zr19     1.0000 0.85990  0.27078  0.10777  Biso   1.000  Zr
  Zr20     1.0000 0.85954  0.47844  0.35600  Biso   1.000  Zr
  O33      1.0000 0.52927  0.16868  0.08348  Biso   1.000  O
  O34      1.0000 0.54650  0.06885  0.33838  Biso   1.000  O
  O35      1.0000 0.96569  0.41495  0.17455  Biso   1.000  O
  O36      1.0000 0.96344  0.33265  0.42402  Biso   1.000  O
  O37      1.0000 0.77854  0.12781  0.24320  Biso   1.000  O
  O38      1.0000 0.78615  0.11706  0.50064  Biso   1.000  O
  O39      1.0000 0.72290  0.37779  0.01357  Biso   1.000  O
  O40      1.0000 0.72183  0.36944  0.26382  Biso   1.000  O
  Zr21     1.0000 0.63910  0.02151  0.64954  Biso   1.000  Zr
  Zr22     1.0000 0.63803  0.22821  0.89955  Biso   1.000  Zr
  Zr23     1.0000 0.86290  0.27210  0.61082  Biso   1.000  Zr
  Zr24     1.0000 0.85947  0.47908  0.85734  Biso   1.000  Zr
  O41      1.0000 0.53636  0.16902  0.58433  Biso   1.000  O
  O42      1.0000 0.53158  0.08440  0.83125  Biso   1.000  O
  O43      1.0000 0.96606  0.41720  0.67458  Biso   1.000  O
  O44      1.0000 0.96137  0.33164  0.92139  Biso   1.000  O
  O45      1.0000 0.77480  0.12922  0.74645  Biso   1.000  O
  O46      1.0000 0.77434  0.12110  0.99409  Biso   1.000  O
  O47      1.0000 0.72887  0.37988  0.51706  Biso   1.000  O
  O48      1.0000 0.72407  0.37169  0.76464  Biso   1.000  O
  Zr25     1.0000 0.63640  0.52162  0.14702  Biso   1.000  Zr
  Zr26     1.0000 0.63940  0.72771  0.39787  Biso   1.000  Zr
  Zr27     1.0000 0.85996  0.77037  0.10624  Biso   1.000  Zr
  Zr28     1.0000 0.85797  0.97725  0.35603  Biso   1.000  Zr
  O49      1.0000 0.53172  0.66554  0.07749  Biso   1.000  O
  O50      1.0000 0.53312  0.58915  0.32562  Biso   1.000  O
  O51      1.0000 0.96400  0.91429  0.17407  Biso   1.000  O
  O52      1.0000 0.96431  0.83383  0.42392  Biso   1.000  O
  O53      1.0000 0.77596  0.62666  0.24169  Biso   1.000  O
  O54      1.0000 0.77463  0.62127  0.49184  Biso   1.000  O
  O55      1.0000 0.72359  0.87685  0.01138  Biso   1.000  O
  O56      1.0000 0.72372  0.86886  0.26067  Biso   1.000  O
  Zr29     1.0000 0.63846  0.52305  0.64880  Biso   1.000  Zr
  Zr30     1.0000 0.63739  0.72834  0.89775  Biso   1.000  Zr
  Zr31     1.0000 0.85987  0.77278  0.60657  Biso   1.000  Zr
  Zr32     1.0000 0.85938  0.97770  0.85671  Biso   1.000  Zr
  O57      1.0000 0.53253  0.66508  0.57983  Biso   1.000  O
  O58      1.0000 0.53159  0.58697  0.82850  Biso   1.000  O
  O59      1.0000 0.96575  0.91670  0.67355  Biso   1.000  O
  O60      1.0000 0.96530  0.83380  0.92402  Biso   1.000  O
  O61      1.0000 0.77448  0.62929  0.74252  Biso   1.000  O
  O62      1.0000 0.77397  0.62111  0.99196  Biso   1.000  O
  O63      1.0000 0.72276  0.87705  0.51261  Biso   1.000  O
  O64      1.0000 0.72383  0.87237  0.76234  Biso   1.000  O
  Yb1      1.0000 0.44061  0.23225  0.28295  Biso   1.000  Yb
