data_image0
_cell_length_a       5.02595
_cell_length_b       10.4321
_cell_length_c       10.1092
_cell_angle_alpha    90.0483
_cell_angle_beta     90.1399
_cell_angle_gamma    90.0232

_symmetry_space_group_name_H-M    "P 1"
_symmetry_int_tables_number       1

loop_
  _symmetry_equiv_pos_as_xyz
  'x, y, z'

loop_
  _atom_site_label
  _atom_site_occupancy
  _atom_site_fract_x
  _atom_site_fract_y
  _atom_site_fract_z
  _atom_site_thermal_displace_type
  _atom_site_B_iso_or_equiv
  _atom_site_type_symbol
  Yb1      1.0000 0.26116  0.01435  0.11903  Biso   1.000  Yb
  Zr1      1.0000 0.26623  0.01617  0.62536  Biso   1.000  Zr
  Zr2      1.0000 0.26829  0.51543  0.12568  Biso   1.000  Zr
  Zr3      1.0000 0.26751  0.51584  0.62548  Biso   1.000  Zr
  Zr4      1.0000 0.26811  0.23362  0.37582  Biso   1.000  Zr
  Zr5      1.0000 0.26791  0.23545  0.87297  Biso   1.000  Zr
  Zr6      1.0000 0.26651  0.73488  0.37639  Biso   1.000  Zr
  Zr7      1.0000 0.27070  0.73324  0.87540  Biso   1.000  Zr
  Zr8      1.0000 0.72602  0.26574  0.12688  Biso   1.000  Zr
  Zr9      1.0000 0.73260  0.26606  0.62440  Biso   1.000  Zr
  Zr10     1.0000 0.73057  0.76465  0.12647  Biso   1.000  Zr
  Zr11     1.0000 0.73253  0.76551  0.62487  Biso   1.000  Zr
  Zr12     1.0000 0.73113  0.48445  0.37620  Biso   1.000  Zr
  Zr13     1.0000 0.73277  0.48355  0.87572  Biso   1.000  Zr
  Zr14     1.0000 0.72771  0.98465  0.37569  Biso   1.000  Zr
  Zr15     1.0000 0.73148  0.98305  0.87339  Biso   1.000  Zr
  O1       1.0000 0.06705  0.18777  0.19756  Biso   1.000  O
  O2       1.0000 0.07460  0.18626  0.68989  Biso   1.000  O
  O3       1.0000 0.07088  0.68222  0.19601  Biso   1.000  O
  O4       1.0000 0.07027  0.68333  0.69565  Biso   1.000  O
  O5       1.0000 0.06834  0.06658  0.44499  Biso   1.000  O
  O6       1.0000 0.07095  0.06997  0.93066  Biso   1.000  O
  O7       1.0000 0.06906  0.56655  0.44587  Biso   1.000  O
  O8       1.0000 0.06993  0.56687  0.94547  Biso   1.000  O
  O9       1.0000 0.92812  0.43370  0.19511  Biso   1.000  O
  O10      1.0000 0.93145  0.43361  0.69593  Biso   1.000  O
  O11      1.0000 0.91513  0.93074  0.19995  Biso   1.000  O
  O12      1.0000 0.92862  0.93310  0.69407  Biso   1.000  O
  O13      1.0000 0.92905  0.31754  0.44487  Biso   1.000  O
  O14      1.0000 0.93006  0.31706  0.94544  Biso   1.000  O
  O15      1.0000 0.93028  0.81651  0.44721  Biso   1.000  O
  O16      1.0000 0.94184  0.81936  0.94926  Biso   1.000  O
  O17      1.0000 0.54809  0.12231  0.25176  Biso   1.000  O
  O18      1.0000 0.54086  0.11752  0.74752  Biso   1.000  O
  O19      1.0000 0.53923  0.61561  0.24884  Biso   1.000  O
  O20      1.0000 0.54010  0.61659  0.74864  Biso   1.000  O
  O21      1.0000 0.53626  0.13322  0.50002  Biso   1.000  O
  O22      1.0000 0.54622  0.13360  0.99525  Biso   1.000  O
  O23      1.0000 0.53781  0.63327  0.49881  Biso   1.000  O
  O24      1.0000 0.54015  0.63052  0.99876  Biso   1.000  O
  O25      1.0000 0.46133  0.38358  0.49897  Biso   1.000  O
  O26      1.0000 0.45989  0.38233  0.99882  Biso   1.000  O
  O27      1.0000 0.45957  0.88333  0.49960  Biso   1.000  O
  O28      1.0000 0.47361  0.87683  0.99550  Biso   1.000  O
  O29      1.0000 0.45689  0.36875  0.24928  Biso   1.000  O
  O30      1.0000 0.46324  0.36778  0.74815  Biso   1.000  O
  O31      1.0000 0.46312  0.86234  0.25097  Biso   1.000  O
  O32      1.0000 0.46084  0.86663  0.74786  Biso   1.000  O
