data_image0
_cell_length_a       10.1354
_cell_length_b       5.27581
_cell_length_c       10.2655
_cell_angle_alpha    84.4042
_cell_angle_beta     89.2961
_cell_angle_gamma    89.8172

_symmetry_space_group_name_H-M    "P 1"
_symmetry_int_tables_number       1

loop_
  _symmetry_equiv_pos_as_xyz
  'x, y, z'

loop_
  _atom_site_label
  _atom_site_occupancy
  _atom_site_fract_x
  _atom_site_fract_y
  _atom_site_fract_z
  _atom_site_thermal_displace_type
  _atom_site_B_iso_or_equiv
  _atom_site_type_symbol
  Zr1      1.0000 0.14055  0.08346  0.11032  Biso   1.000  Zr
  Zr2      1.0000 0.14361  0.46781  0.39477  Biso   1.000  Zr
  Zr3      1.0000 0.41151  0.48305  0.08319  Biso   1.000  Zr
  Zr4      1.0000 0.36551  0.98250  0.36554  Biso   1.000  Zr
  O1       1.0000 0.99870  0.30639  0.21667  Biso   1.000  O
  O2       1.0000 0.04579  0.11860  0.45049  Biso   1.000  O
  O3       1.0000 0.49174  0.73326  0.20460  Biso   1.000  O
  O4       1.0000 0.45493  0.64556  0.45060  Biso   1.000  O
  O5       1.0000 0.25240  0.30730  0.23685  Biso   1.000  O
  O6       1.0000 0.28156  0.23432  0.49640  Biso   1.000  O
  O7       1.0000 0.22331  0.72782  0.51755  Biso   1.000  O
  O8       1.0000 0.20476  0.80543  0.27094  Biso   1.000  O
  Zr5      1.0000 0.14038  0.01083  0.62556  Biso   1.000  Zr
  Zr6      1.0000 0.10225  0.46351  0.82438  Biso   1.000  Zr
  Zr7      1.0000 0.37567  0.53493  0.63324  Biso   1.000  Zr
  Zr8      1.0000 0.38936  0.98960  0.85249  Biso   1.000  Zr
  O9       1.0000 0.02288  0.33096  0.66434  Biso   1.000  O
  O10      1.0000 0.03780  0.11604  0.92771  Biso   1.000  O
  O11      1.0000 0.47686  0.84347  0.68399  Biso   1.000  O
  O12      1.0000 0.49078  0.66328  0.92007  Biso   1.000  O
  O13      1.0000 0.25679  0.23119  0.73993  Biso   1.000  O
  O14      1.0000 0.24591  0.35849  0.97904  Biso   1.000  O
  O15      1.0000 0.28564  0.85234  0.02120  Biso   1.000  O
  O16      1.0000 0.24749  0.73024  0.76185  Biso   1.000  O
  Zr9      1.0000 0.63595  0.01450  0.13454  Biso   1.000  Zr
  Zr10     1.0000 0.59389  0.46011  0.34832  Biso   1.000  Zr
  Zr11     1.0000 0.83739  0.50958  0.13259  Biso   1.000  Zr
  Zr12     1.0000 0.90305  0.97755  0.34033  Biso   1.000  Zr
  O17      1.0000 0.48928  0.21612  0.23087  Biso   1.000  O
  O18      1.0000 0.52713  0.12620  0.46047  Biso   1.000  O
  O19      1.0000 0.96258  0.84106  0.16377  Biso   1.000  O
  O20      1.0000 0.96533  0.62331  0.43252  Biso   1.000  O
  O21      1.0000 0.74701  0.21704  0.26459  Biso   1.000  O
  O22      1.0000 0.70672  0.41426  0.51628  Biso   1.000  O
  O23      1.0000 0.79048  0.91391  0.51188  Biso   1.000  O
  O24      1.0000 0.73760  0.72630  0.26352  Biso   1.000  O
  Zr13     1.0000 0.64389  0.05841  0.61920  Biso   1.000  Zr
  Zr14     1.0000 0.64857  0.44828  0.87776  Biso   1.000  Zr
  Zr15     1.0000 0.85616  0.56330  0.60742  Biso   1.000  Zr
  Zr16     1.0000 0.86983  0.94608  0.87724  Biso   1.000  Zr
  O25      1.0000 0.51711  0.30322  0.73494  Biso   1.000  O
  O26      1.0000 0.51244  0.16475  0.98105  Biso   1.000  O
  O27      1.0000 0.99055  0.79421  0.72006  Biso   1.000  O
  O28      1.0000 0.96864  0.59768  0.95682  Biso   1.000  O
  O29      1.0000 0.77652  0.23604  0.75101  Biso   1.000  O
  O30      1.0000 0.77860  0.22665  0.00392  Biso   1.000  O
  O31      1.0000 0.72832  0.75341  0.99913  Biso   1.000  O
  O32      1.0000 0.73531  0.73821  0.74871  Biso   1.000  O
  Yb1      1.0000 0.12871  0.59460  0.10686  Biso   1.000  Yb
