data_image0
_cell_length_a       5.06969
_cell_length_b       10.2324
_cell_length_c       10.452
_cell_angle_alpha    90.1483
_cell_angle_beta     80.3067
_cell_angle_gamma    89.7539

_symmetry_space_group_name_H-M    "P 1"
_symmetry_int_tables_number       1

loop_
  _symmetry_equiv_pos_as_xyz
  'x, y, z'

loop_
  _atom_site_label
  _atom_site_occupancy
  _atom_site_fract_x
  _atom_site_fract_y
  _atom_site_fract_z
  _atom_site_thermal_displace_type
  _atom_site_B_iso_or_equiv
  _atom_site_type_symbol
  Zn1      1.0000 0.25600  0.01130  0.15538  Biso   1.000  Zn
  Hf1      1.0000 0.27737  0.02098  0.64443  Biso   1.000  Hf
  Hf2      1.0000 0.27814  0.52058  0.14482  Biso   1.000  Hf
  Hf3      1.0000 0.27968  0.52138  0.64720  Biso   1.000  Hf
  Hf4      1.0000 0.28087  0.22802  0.39131  Biso   1.000  Hf
  Hf5      1.0000 0.28374  0.22681  0.89842  Biso   1.000  Hf
  Hf6      1.0000 0.27683  0.72780  0.39566  Biso   1.000  Hf
  Hf7      1.0000 0.27836  0.73263  0.89783  Biso   1.000  Hf
  Hf8      1.0000 0.72405  0.26312  0.10387  Biso   1.000  Hf
  Hf9      1.0000 0.71955  0.27165  0.60310  Biso   1.000  Hf
  Hf10     1.0000 0.71428  0.77487  0.10520  Biso   1.000  Hf
  Hf11     1.0000 0.72098  0.77137  0.60481  Biso   1.000  Hf
  Hf12     1.0000 0.72082  0.47830  0.35290  Biso   1.000  Hf
  Hf13     1.0000 0.72391  0.47871  0.85585  Biso   1.000  Hf
  Hf14     1.0000 0.71362  0.97779  0.35154  Biso   1.000  Hf
  Hf15     1.0000 0.71912  0.98213  0.85554  Biso   1.000  Hf
  O1       1.0000 0.08086  0.16600  0.07924  Biso   1.000  O
  O2       1.0000 0.06564  0.16522  0.57535  Biso   1.000  O
  O3       1.0000 0.06637  0.66756  0.07909  Biso   1.000  O
  O4       1.0000 0.06803  0.66627  0.58002  Biso   1.000  O
  O5       1.0000 0.06177  0.08287  0.33322  Biso   1.000  O
  O6       1.0000 0.07215  0.08438  0.82627  Biso   1.000  O
  O7       1.0000 0.06817  0.58200  0.32868  Biso   1.000  O
  O8       1.0000 0.06909  0.58536  0.82948  Biso   1.000  O
  O9       1.0000 0.93287  0.41525  0.17103  Biso   1.000  O
  O10      1.0000 0.93418  0.41536  0.67238  Biso   1.000  O
  O11      1.0000 0.92367  0.91542  0.17361  Biso   1.000  O
  O12      1.0000 0.93041  0.91687  0.67139  Biso   1.000  O
  O13      1.0000 0.93080  0.33342  0.42082  Biso   1.000  O
  O14      1.0000 0.94224  0.33738  0.92352  Biso   1.000  O
  O15      1.0000 0.92877  0.83213  0.42191  Biso   1.000  O
  O16      1.0000 0.92852  0.83529  0.92226  Biso   1.000  O
  O17      1.0000 0.54967  0.12608  0.24008  Biso   1.000  O
  O18      1.0000 0.55221  0.12807  0.73593  Biso   1.000  O
  O19      1.0000 0.55206  0.62668  0.23967  Biso   1.000  O
  O20      1.0000 0.55269  0.62955  0.74131  Biso   1.000  O
  O21      1.0000 0.54996  0.12212  0.48901  Biso   1.000  O
  O22      1.0000 0.58310  0.13283  0.97723  Biso   1.000  O
  O23      1.0000 0.55225  0.62063  0.49100  Biso   1.000  O
  O24      1.0000 0.55108  0.62334  0.99034  Biso   1.000  O
  O25      1.0000 0.45344  0.38073  0.00957  Biso   1.000  O
  O26      1.0000 0.44566  0.37870  0.50919  Biso   1.000  O
  O27      1.0000 0.44791  0.88449  0.00989  Biso   1.000  O
  O28      1.0000 0.44527  0.87796  0.51016  Biso   1.000  O
  O29      1.0000 0.44895  0.37045  0.25876  Biso   1.000  O
  O30      1.0000 0.45164  0.37158  0.75997  Biso   1.000  O
  O31      1.0000 0.44674  0.86625  0.26217  Biso   1.000  O
  O32      1.0000 0.44652  0.87233  0.75960  Biso   1.000  O
