data_image0
_cell_length_a       10.1321
_cell_length_b       5.11989
_cell_length_c       10.4474
_cell_angle_alpha    90.2699
_cell_angle_beta     80.3048
_cell_angle_gamma    89.788

_symmetry_space_group_name_H-M    "P 1"
_symmetry_int_tables_number       1

loop_
  _symmetry_equiv_pos_as_xyz
  'x, y, z'

loop_
  _atom_site_label
  _atom_site_occupancy
  _atom_site_fract_x
  _atom_site_fract_y
  _atom_site_fract_z
  _atom_site_thermal_displace_type
  _atom_site_B_iso_or_equiv
  _atom_site_type_symbol
  Zn1      1.0000 0.12813  0.02406  0.15584  Biso   1.000  Zn
  Hf1      1.0000 0.13984  0.04083  0.64484  Biso   1.000  Hf
  Hf2      1.0000 0.63875  0.04157  0.14554  Biso   1.000  Hf
  Hf3      1.0000 0.63826  0.04316  0.64664  Biso   1.000  Hf
  Hf4      1.0000 0.14052  0.45199  0.39195  Biso   1.000  Hf
  Hf5      1.0000 0.14093  0.45920  0.89803  Biso   1.000  Hf
  Hf6      1.0000 0.63808  0.45692  0.39550  Biso   1.000  Hf
  Hf7      1.0000 0.63888  0.46127  0.89761  Biso   1.000  Hf
  Hf8      1.0000 0.35456  0.54077  0.10460  Biso   1.000  Hf
  Hf9      1.0000 0.36027  0.54461  0.60414  Biso   1.000  Hf
  Hf10     1.0000 0.86651  0.53518  0.10401  Biso   1.000  Hf
  Hf11     1.0000 0.85985  0.54089  0.60390  Biso   1.000  Hf
  Hf12     1.0000 0.35789  0.95552  0.35046  Biso   1.000  Hf
  Hf13     1.0000 0.35927  0.96636  0.85668  Biso   1.000  Hf
  Hf14     1.0000 0.85975  0.95468  0.35494  Biso   1.000  Hf
  Hf15     1.0000 0.86156  0.95776  0.85479  Biso   1.000  Hf
  O1       1.0000 0.04142  0.33917  0.07988  Biso   1.000  O
  O2       1.0000 0.03317  0.32879  0.57694  Biso   1.000  O
  O3       1.0000 0.53456  0.33541  0.07909  Biso   1.000  O
  O4       1.0000 0.53405  0.33518  0.57888  Biso   1.000  O
  O5       1.0000 0.03427  0.15456  0.33520  Biso   1.000  O
  O6       1.0000 0.03425  0.16986  0.82773  Biso   1.000  O
  O7       1.0000 0.53290  0.16628  0.32806  Biso   1.000  O
  O8       1.0000 0.53658  0.16819  0.82885  Biso   1.000  O
  O9       1.0000 0.46814  0.82887  0.17082  Biso   1.000  O
  O10      1.0000 0.46504  0.83622  0.67156  Biso   1.000  O
  O11      1.0000 0.95949  0.84029  0.17140  Biso   1.000  O
  O12      1.0000 0.96598  0.83092  0.67121  Biso   1.000  O
  O13      1.0000 0.46543  0.66757  0.42147  Biso   1.000  O
  O14      1.0000 0.46709  0.67619  0.92232  Biso   1.000  O
  O15      1.0000 0.96364  0.65779  0.41967  Biso   1.000  O
  O16      1.0000 0.96555  0.66664  0.92173  Biso   1.000  O
  O17      1.0000 0.27390  0.24424  0.23651  Biso   1.000  O
  O18      1.0000 0.27511  0.25755  0.73647  Biso   1.000  O
  O19      1.0000 0.77578  0.25618  0.24128  Biso   1.000  O
  O20      1.0000 0.77690  0.25890  0.74067  Biso   1.000  O
  O21      1.0000 0.27657  0.24250  0.48841  Biso   1.000  O
  O22      1.0000 0.29080  0.27486  0.97595  Biso   1.000  O
  O23      1.0000 0.77478  0.24134  0.49121  Biso   1.000  O
  O24      1.0000 0.77683  0.24250  0.99067  Biso   1.000  O
  O25      1.0000 0.22473  0.78026  0.01222  Biso   1.000  O
  O26      1.0000 0.22247  0.75574  0.50956  Biso   1.000  O
  O27      1.0000 0.72545  0.75712  0.00980  Biso   1.000  O
  O28      1.0000 0.72277  0.75633  0.51040  Biso   1.000  O
  O29      1.0000 0.22750  0.72601  0.26180  Biso   1.000  O
  O30      1.0000 0.22422  0.74483  0.76044  Biso   1.000  O
  O31      1.0000 0.72359  0.74086  0.26039  Biso   1.000  O
  O32      1.0000 0.72397  0.74408  0.75993  Biso   1.000  O
