data_image0
_cell_length_a       10.1013
_cell_length_b       10.4514
_cell_length_c       5.08883
_cell_angle_alpha    89.7914
_cell_angle_beta     89.2346
_cell_angle_gamma    90.0108

_symmetry_space_group_name_H-M    "P 1"
_symmetry_int_tables_number       1

loop_
  _symmetry_equiv_pos_as_xyz
  'x, y, z'

loop_
  _atom_site_label
  _atom_site_occupancy
  _atom_site_fract_x
  _atom_site_fract_y
  _atom_site_fract_z
  _atom_site_thermal_displace_type
  _atom_site_B_iso_or_equiv
  _atom_site_type_symbol
  Zr1      1.0000 0.13939  0.01842  0.26093  Biso   1.000  Zr
  Zr2      1.0000 0.13666  0.22577  0.80532  Biso   1.000  Zr
  Zr3      1.0000 0.36620  0.26626  0.24903  Biso   1.000  Zr
  Zr4      1.0000 0.37200  0.48816  0.74447  Biso   1.000  Zr
  O1       1.0000 0.99667  0.15573  0.50039  Biso   1.000  O
  O2       1.0000 0.03460  0.06127  0.93381  Biso   1.000  O
  O3       1.0000 0.46646  0.43242  0.38973  Biso   1.000  O
  O4       1.0000 0.46457  0.31703  0.88342  Biso   1.000  O
  O5       1.0000 0.26631  0.12000  0.51562  Biso   1.000  O
  O6       1.0000 0.29055  0.12038  0.00167  Biso   1.000  O
  O7       1.0000 0.24032  0.39312  0.99659  Biso   1.000  O
  O8       1.0000 0.22672  0.37008  0.50809  Biso   1.000  O
  Zr5      1.0000 0.13859  0.53098  0.24356  Biso   1.000  Zr
  Zr6      1.0000 0.13382  0.73881  0.74783  Biso   1.000  Zr
  Zr7      1.0000 0.37041  0.76676  0.24619  Biso   1.000  Zr
  Zr8      1.0000 0.36834  0.98072  0.74944  Biso   1.000  Zr
  O9       1.0000 0.03383  0.68134  0.39102  Biso   1.000  O
  O10      1.0000 0.03477  0.57064  0.88980  Biso   1.000  O
  O11      1.0000 0.46653  0.93213  0.38469  Biso   1.000  O
  O12      1.0000 0.47234  0.81782  0.89349  Biso   1.000  O
  O13      1.0000 0.27288  0.62042  0.49198  Biso   1.000  O
  O14      1.0000 0.26999  0.63831  0.99061  Biso   1.000  O
  O15      1.0000 0.23185  0.88131  0.00075  Biso   1.000  O
  O16      1.0000 0.23605  0.86671  0.49918  Biso   1.000  O
  Zr9      1.0000 0.63156  0.01019  0.22847  Biso   1.000  Zr
  Zr10     1.0000 0.62693  0.23137  0.73419  Biso   1.000  Zr
  Zr11     1.0000 0.84634  0.26143  0.23505  Biso   1.000  Zr
  Zr12     1.0000 0.86952  0.48188  0.74678  Biso   1.000  Zr
  O17      1.0000 0.53221  0.18200  0.37610  Biso   1.000  O
  O18      1.0000 0.53885  0.06388  0.87330  Biso   1.000  O
  O19      1.0000 0.97230  0.42223  0.38030  Biso   1.000  O
  O20      1.0000 0.96083  0.32129  0.89402  Biso   1.000  O
  O21      1.0000 0.75670  0.11108  0.47357  Biso   1.000  O
  O22      1.0000 0.76735  0.13579  0.97249  Biso   1.000  O
  O23      1.0000 0.72641  0.38300  0.99136  Biso   1.000  O
  O24      1.0000 0.73013  0.36719  0.49142  Biso   1.000  O
  Zr13     1.0000 0.63429  0.51814  0.24706  Biso   1.000  Zr
  Zr14     1.0000 0.64050  0.73603  0.74305  Biso   1.000  Zr
  Zr15     1.0000 0.86738  0.76711  0.23597  Biso   1.000  Zr
  Zr16     1.0000 0.87812  0.99321  0.72001  Biso   1.000  Zr
  O25      1.0000 0.53664  0.68274  0.39381  Biso   1.000  O
  O26      1.0000 0.53544  0.56962  0.89425  Biso   1.000  O
  O27      1.0000 0.97352  0.92203  0.38976  Biso   1.000  O
  O28      1.0000 0.96674  0.81968  0.88154  Biso   1.000  O
  O29      1.0000 0.77251  0.61423  0.48834  Biso   1.000  O
  O30      1.0000 0.77048  0.63225  0.98869  Biso   1.000  O
  O31      1.0000 0.73699  0.88521  0.98105  Biso   1.000  O
  O32      1.0000 0.73412  0.86500  0.48168  Biso   1.000  O
  Zn1      1.0000 0.09824  0.27795  0.29564  Biso   1.000  Zn
