data_image0
_cell_length_a       4.98039
_cell_length_b       10.368
_cell_length_c       10.0004
_cell_angle_alpha    90.02
_cell_angle_beta     90.0349
_cell_angle_gamma    90.002

_symmetry_space_group_name_H-M    "P 1"
_symmetry_int_tables_number       1

loop_
  _symmetry_equiv_pos_as_xyz
  'x, y, z'

loop_
  _atom_site_label
  _atom_site_occupancy
  _atom_site_fract_x
  _atom_site_fract_y
  _atom_site_fract_z
  _atom_site_thermal_displace_type
  _atom_site_B_iso_or_equiv
  _atom_site_type_symbol
  Zr1      1.0000 0.26699  0.01588  0.12627  Biso   1.000  Zr
  Hf1      1.0000 0.26782  0.23370  0.37614  Biso   1.000  Hf
  Hf2      1.0000 0.73145  0.26662  0.12600  Biso   1.000  Hf
  Hf3      1.0000 0.73177  0.48351  0.37604  Biso   1.000  Hf
  O1       1.0000 0.07243  0.18520  0.19436  Biso   1.000  O
  O2       1.0000 0.07314  0.06548  0.44375  Biso   1.000  O
  O3       1.0000 0.92655  0.43473  0.19408  Biso   1.000  O
  O4       1.0000 0.92682  0.31564  0.44410  Biso   1.000  O
  O5       1.0000 0.54219  0.11821  0.25025  Biso   1.000  O
  O6       1.0000 0.54110  0.13223  0.49996  Biso   1.000  O
  O7       1.0000 0.45864  0.38228  0.49988  Biso   1.000  O
  O8       1.0000 0.45824  0.36777  0.24987  Biso   1.000  O
  Hf4      1.0000 0.26787  0.01650  0.62604  Biso   1.000  Hf
  Hf5      1.0000 0.26827  0.23376  0.87579  Biso   1.000  Hf
  Hf6      1.0000 0.73207  0.26648  0.62597  Biso   1.000  Hf
  Hf7      1.0000 0.73228  0.48352  0.87608  Biso   1.000  Hf
  O9       1.0000 0.07343  0.18466  0.69348  Biso   1.000  O
  O10      1.0000 0.07318  0.06616  0.94253  Biso   1.000  O
  O11      1.0000 0.92735  0.43440  0.69421  Biso   1.000  O
  O12      1.0000 0.92768  0.31594  0.94422  Biso   1.000  O
  O13      1.0000 0.54152  0.11778  0.74966  Biso   1.000  O
  O14      1.0000 0.54242  0.13267  0.99934  Biso   1.000  O
  O15      1.0000 0.45885  0.38245  0.99983  Biso   1.000  O
  O16      1.0000 0.45909  0.36783  0.74980  Biso   1.000  O
  Hf8      1.0000 0.26761  0.51635  0.12601  Biso   1.000  Hf
  Hf9      1.0000 0.26773  0.73328  0.37639  Biso   1.000  Hf
  Hf10     1.0000 0.73171  0.76598  0.12613  Biso   1.000  Hf
  Hf11     1.0000 0.73130  0.98346  0.37652  Biso   1.000  Hf
  O17      1.0000 0.07294  0.68451  0.19428  Biso   1.000  O
  O18      1.0000 0.07275  0.56548  0.44426  Biso   1.000  O
  O19      1.0000 0.92468  0.93451  0.19461  Biso   1.000  O
  O20      1.0000 0.92703  0.81559  0.44430  Biso   1.000  O
  O21      1.0000 0.54085  0.61744  0.24990  Biso   1.000  O
  O22      1.0000 0.54133  0.63216  0.49994  Biso   1.000  O
  O23      1.0000 0.45840  0.88214  0.50015  Biso   1.000  O
  O24      1.0000 0.45952  0.86678  0.25058  Biso   1.000  O
  Hf12     1.0000 0.26808  0.51638  0.62612  Biso   1.000  Hf
  Hf13     1.0000 0.26840  0.73351  0.87598  Biso   1.000  Hf
  Hf14     1.0000 0.73205  0.76638  0.62607  Biso   1.000  Hf
  Hf15     1.0000 0.73199  0.98357  0.87580  Biso   1.000  Hf
  O25      1.0000 0.07312  0.68439  0.69412  Biso   1.000  O
  O26      1.0000 0.07294  0.56587  0.94414  Biso   1.000  O
  O27      1.0000 0.92702  0.93438  0.69395  Biso   1.000  O
  O28      1.0000 0.92915  0.81618  0.94478  Biso   1.000  O
  O29      1.0000 0.54160  0.61772  0.74987  Biso   1.000  O
  O30      1.0000 0.54146  0.63215  0.99987  Biso   1.000  O
  O31      1.0000 0.46095  0.88168  0.99951  Biso   1.000  O
  O32      1.0000 0.45886  0.86776  0.74987  Biso   1.000  O
