data_image0
_cell_length_a       10.1108
_cell_length_b       10.2229
_cell_length_c       10.1108
_cell_angle_alpha    89.998
_cell_angle_beta     90.0006
_cell_angle_gamma    89.9984

_symmetry_space_group_name_H-M    "P 1"
_symmetry_int_tables_number       1

loop_
  _symmetry_equiv_pos_as_xyz
  'x, y, z'

loop_
  _atom_site_label
  _atom_site_occupancy
  _atom_site_fract_x
  _atom_site_fract_y
  _atom_site_fract_z
  _atom_site_thermal_displace_type
  _atom_site_B_iso_or_equiv
  _atom_site_type_symbol
  Zr1      1.0000 0.12557  0.98244  0.12557  Biso   1.000  Zr
  Zr2      1.0000 0.12558  0.24991  0.39279  Biso   1.000  Zr
  Zr3      1.0000 0.39279  0.24991  0.12558  Biso   1.000  Zr
  Zr4      1.0000 0.37391  0.00235  0.37391  Biso   1.000  Zr
  O1       1.0000 0.99349  0.14153  0.99349  Biso   1.000  O
  O2       1.0000 0.00423  0.10925  0.24693  Biso   1.000  O
  O3       1.0000 0.99348  0.35829  0.25767  Biso   1.000  O
  O4       1.0000 0.00423  0.39058  0.00423  Biso   1.000  O
  O5       1.0000 0.25768  0.14153  0.25768  Biso   1.000  O
  O6       1.0000 0.24693  0.10925  0.00423  Biso   1.000  O
  O7       1.0000 0.25767  0.35829  0.99348  Biso   1.000  O
  O8       1.0000 0.24693  0.39057  0.24693  Biso   1.000  O
  Zr5      1.0000 0.12557  0.99573  0.62558  Biso   1.000  Zr
  Zr6      1.0000 0.12558  0.24991  0.85838  Biso   1.000  Zr
  Zr7      1.0000 0.37871  0.24991  0.62558  Biso   1.000  Zr
  Zr8      1.0000 0.37314  0.00294  0.87801  Biso   1.000  Zr
  O9       1.0000 0.99381  0.14120  0.50110  Biso   1.000  O
  O10      1.0000 0.00309  0.10525  0.74692  Biso   1.000  O
  O11      1.0000 0.99381  0.35863  0.75006  Biso   1.000  O
  O12      1.0000 0.00309  0.39458  0.50424  Biso   1.000  O
  O13      1.0000 0.25735  0.14120  0.75006  Biso   1.000  O
  O14      1.0000 0.24808  0.10525  0.50425  Biso   1.000  O
  O15      1.0000 0.25735  0.35862  0.50110  Biso   1.000  O
  O16      1.0000 0.24807  0.39458  0.74692  Biso   1.000  O
  Zr9      1.0000 0.12558  0.51739  0.12558  Biso   1.000  Zr
  Zr10     1.0000 0.12558  0.74991  0.37849  Biso   1.000  Zr
  Zr11     1.0000 0.37849  0.74991  0.12558  Biso   1.000  Zr
  Zr12     1.0000 0.37314  0.49689  0.37314  Biso   1.000  Zr
  O17      1.0000 0.99979  0.64365  0.99979  Biso   1.000  O
  O18      1.0000 0.99828  0.61173  0.25287  Biso   1.000  O
  O19      1.0000 0.99979  0.85618  0.25136  Biso   1.000  O
  O20      1.0000 0.99828  0.88810  0.99828  Biso   1.000  O
  O21      1.0000 0.25136  0.64365  0.25136  Biso   1.000  O
  O22      1.0000 0.25287  0.61173  0.99828  Biso   1.000  O
  O23      1.0000 0.25136  0.85618  0.99979  Biso   1.000  O
  O24      1.0000 0.25287  0.88810  0.25288  Biso   1.000  O
  Zr13     1.0000 0.12557  0.50410  0.62558  Biso   1.000  Zr
  Zr14     1.0000 0.12558  0.74991  0.87267  Biso   1.000  Zr
  Zr15     1.0000 0.37708  0.74991  0.62558  Biso   1.000  Zr
  Zr16     1.0000 0.37391  0.49748  0.87724  Biso   1.000  Zr
  O25      1.0000 0.99901  0.64428  0.50166  Biso   1.000  O
  O26      1.0000 0.00292  0.60599  0.75243  Biso   1.000  O
  O27      1.0000 0.99901  0.85554  0.74949  Biso   1.000  O
  O28      1.0000 0.00292  0.89384  0.49872  Biso   1.000  O
  O29      1.0000 0.25214  0.64428  0.74949  Biso   1.000  O
  O30      1.0000 0.24823  0.60599  0.49872  Biso   1.000  O
  O31      1.0000 0.25215  0.85554  0.50167  Biso   1.000  O
  O32      1.0000 0.24824  0.89384  0.75243  Biso   1.000  O
  Zr17     1.0000 0.62557  0.99573  0.12558  Biso   1.000  Zr
  Zr18     1.0000 0.62558  0.24991  0.37871  Biso   1.000  Zr
  Zr19     1.0000 0.85838  0.24991  0.12558  Biso   1.000  Zr
  Zr20     1.0000 0.87801  0.00293  0.37314  Biso   1.000  Zr
  O33      1.0000 0.50110  0.14120  0.99381  Biso   1.000  O
  O34      1.0000 0.50425  0.10525  0.24807  Biso   1.000  O
  O35      1.0000 0.50110  0.35862  0.25735  Biso   1.000  O
  O36      1.0000 0.50424  0.39458  0.00309  Biso   1.000  O
  O37      1.0000 0.75006  0.14120  0.25735  Biso   1.000  O
  O38      1.0000 0.74692  0.10525  0.00309  Biso   1.000  O
  O39      1.0000 0.75006  0.35863  0.99381  Biso   1.000  O
  O40      1.0000 0.74692  0.39458  0.24807  Biso   1.000  O
  Zr21     1.0000 0.62557  0.99800  0.62557  Biso   1.000  Zr
  Zr22     1.0000 0.62558  0.24991  0.87246  Biso   1.000  Zr
  Zr23     1.0000 0.87246  0.24991  0.62558  Biso   1.000  Zr
  Zr24     1.0000 0.87724  0.00235  0.87724  Biso   1.000  Zr
  O41      1.0000 0.49704  0.14574  0.49704  Biso   1.000  O
  O42      1.0000 0.50311  0.10392  0.74806  Biso   1.000  O
  O43      1.0000 0.49703  0.35408  0.75413  Biso   1.000  O
  O44      1.0000 0.50311  0.39590  0.50311  Biso   1.000  O
  O45      1.0000 0.75413  0.14574  0.75413  Biso   1.000  O
  O46      1.0000 0.74806  0.10392  0.50311  Biso   1.000  O
  O47      1.0000 0.75413  0.35408  0.49703  Biso   1.000  O
  O48      1.0000 0.74805  0.39590  0.74805  Biso   1.000  O
  Zr25     1.0000 0.62558  0.50410  0.12557  Biso   1.000  Zr
  Zr26     1.0000 0.62558  0.74991  0.37708  Biso   1.000  Zr
  Zr27     1.0000 0.87268  0.74991  0.12558  Biso   1.000  Zr
  Zr28     1.0000 0.87724  0.49748  0.37391  Biso   1.000  Zr
  O49      1.0000 0.50166  0.64429  0.99901  Biso   1.000  O
  O50      1.0000 0.49872  0.60599  0.24823  Biso   1.000  O
  O51      1.0000 0.50167  0.85554  0.25215  Biso   1.000  O
  O52      1.0000 0.49873  0.89384  0.00292  Biso   1.000  O
  O53      1.0000 0.74949  0.64428  0.25214  Biso   1.000  O
  O54      1.0000 0.75243  0.60599  0.00292  Biso   1.000  O
  O55      1.0000 0.74949  0.85554  0.99902  Biso   1.000  O
  O56      1.0000 0.75243  0.89384  0.24824  Biso   1.000  O
  Zr29     1.0000 0.62558  0.50183  0.62558  Biso   1.000  Zr
  Zr30     1.0000 0.62558  0.74992  0.87408  Biso   1.000  Zr
  Zr31     1.0000 0.87409  0.74991  0.62558  Biso   1.000  Zr
  Zr32     1.0000 0.87801  0.49689  0.87801  Biso   1.000  Zr
  O57      1.0000 0.49832  0.64564  0.49832  Biso   1.000  O
  O58      1.0000 0.50153  0.60400  0.74962  Biso   1.000  O
  O59      1.0000 0.49832  0.85418  0.75283  Biso   1.000  O
  O60      1.0000 0.50153  0.89582  0.50153  Biso   1.000  O
  O61      1.0000 0.75283  0.64564  0.75283  Biso   1.000  O
  O62      1.0000 0.74962  0.60400  0.50153  Biso   1.000  O
  O63      1.0000 0.75284  0.85418  0.49832  Biso   1.000  O
  O64      1.0000 0.74963  0.89583  0.74963  Biso   1.000  O
  Zr33     1.0000 0.12558  0.24991  0.12558  Biso   1.000  Zr
