data_image0
_cell_length_a       10.133
_cell_length_b       10.5103
_cell_length_c       5.23238
_cell_angle_alpha    89.9996
_cell_angle_beta     89.993
_cell_angle_gamma    90.4669

_symmetry_space_group_name_H-M    "P 1"
_symmetry_int_tables_number       1

loop_
  _symmetry_equiv_pos_as_xyz
  'x, y, z'

loop_
  _atom_site_label
  _atom_site_occupancy
  _atom_site_fract_x
  _atom_site_fract_y
  _atom_site_fract_z
  _atom_site_thermal_displace_type
  _atom_site_B_iso_or_equiv
  _atom_site_type_symbol
  La1      1.0000 0.12702  0.01165  0.30489  Biso   1.000  La
  Hf1      1.0000 0.13989  0.52219  0.33608  Biso   1.000  Hf
  Hf2      1.0000 0.13431  0.23870  0.83205  Biso   1.000  Hf
  Hf3      1.0000 0.14390  0.72596  0.83393  Biso   1.000  Hf
  Hf4      1.0000 0.35611  0.27399  0.33389  Biso   1.000  Hf
  Hf5      1.0000 0.36569  0.76135  0.33204  Biso   1.000  Hf
  Hf6      1.0000 0.36020  0.47779  0.83605  Biso   1.000  Hf
  La2      1.0000 0.37294  0.98837  0.80492  Biso   1.000  La
  Hf7      1.0000 0.64373  0.02059  0.18981  Biso   1.000  Hf
  Hf8      1.0000 0.63767  0.51767  0.15259  Biso   1.000  Hf
  Hf9      1.0000 0.63951  0.23692  0.65615  Biso   1.000  Hf
  Hf10     1.0000 0.64121  0.72320  0.65627  Biso   1.000  Hf
  Hf11     1.0000 0.85878  0.27684  0.15630  Biso   1.000  Hf
  Hf12     1.0000 0.86053  0.76305  0.15612  Biso   1.000  Hf
  Hf13     1.0000 0.86229  0.48235  0.65262  Biso   1.000  Hf
  Hf14     1.0000 0.85623  0.97940  0.68983  Biso   1.000  Hf
  O1       1.0000 0.03327  0.19895  0.18065  Biso   1.000  O 
  O2       1.0000 0.03681  0.67158  0.17365  Biso   1.000  O 
  O3       1.0000 0.02788  0.07834  0.72281  Biso   1.000  O 
  O4       1.0000 0.03432  0.58172  0.66914  Biso   1.000  O 
  O5       1.0000 0.46564  0.41829  0.16913  Biso   1.000  O 
  O6       1.0000 0.47205  0.92171  0.22247  Biso   1.000  O 
  O7       1.0000 0.46319  0.32830  0.67369  Biso   1.000  O 
  O8       1.0000 0.46675  0.80111  0.68054  Biso   1.000  O 
  O9       1.0000 0.25752  0.14526  0.56838  Biso   1.000  O 
  O10      1.0000 0.27914  0.61781  0.58168  Biso   1.000  O 
  O11      1.0000 0.27752  0.14757  0.06584  Biso   1.000  O 
  O12      1.0000 0.27644  0.61834  0.08224  Biso   1.000  O 
  O13      1.0000 0.22361  0.38166  0.58226  Biso   1.000  O 
  O14      1.0000 0.22254  0.85245  0.56595  Biso   1.000  O 
  O15      1.0000 0.22086  0.38225  0.08165  Biso   1.000  O 
  O16      1.0000 0.24239  0.85473  0.06851  Biso   1.000  O 
  O17      1.0000 0.53038  0.16740  0.33991  Biso   1.000  O 
  O18      1.0000 0.54050  0.66459  0.31317  Biso   1.000  O 
  O19      1.0000 0.56969  0.08236  0.84093  Biso   1.000  O 
  O20      1.0000 0.53812  0.57083  0.81608  Biso   1.000  O 
  O21      1.0000 0.96192  0.42919  0.31612  Biso   1.000  O 
  O22      1.0000 0.93041  0.91742  0.34130  Biso   1.000  O 
  O23      1.0000 0.95948  0.33542  0.81320  Biso   1.000  O 
  O24      1.0000 0.96965  0.83265  0.84018  Biso   1.000  O 
  O25      1.0000 0.78672  0.12438  0.93715  Biso   1.000  O 
  O26      1.0000 0.77606  0.62174  0.90738  Biso   1.000  O 
  O27      1.0000 0.77490  0.12907  0.43216  Biso   1.000  O 
  O28      1.0000 0.77709  0.62461  0.40684  Biso   1.000  O 
  O29      1.0000 0.72285  0.37536  0.90681  Biso   1.000  O 
  O30      1.0000 0.72516  0.87094  0.93215  Biso   1.000  O 
  O31      1.0000 0.72393  0.37825  0.40738  Biso   1.000  O 
  O32      1.0000 0.71321  0.87570  0.43710  Biso   1.000  O 
