data_image0
_cell_length_a       5.11572
_cell_length_b       10.4601
_cell_length_c       10.4911
_cell_angle_alpha    90.2692
_cell_angle_beta     81.4153
_cell_angle_gamma    89.901

_symmetry_space_group_name_H-M    "P 1"
_symmetry_int_tables_number       1

loop_
  _symmetry_equiv_pos_as_xyz
  'x, y, z'

loop_
  _atom_site_label
  _atom_site_occupancy
  _atom_site_fract_x
  _atom_site_fract_y
  _atom_site_fract_z
  _atom_site_thermal_displace_type
  _atom_site_B_iso_or_equiv
  _atom_site_type_symbol
  La1      1.0000 0.26268  0.00730  0.13619  Biso   1.000  La
  Hf1      1.0000 0.27535  0.02097  0.64849  Biso   1.000  Hf
  Hf2      1.0000 0.28620  0.51988  0.14059  Biso   1.000  Hf
  Hf3      1.0000 0.27140  0.52510  0.64699  Biso   1.000  Hf
  La2      1.0000 0.26057  0.23693  0.38802  Biso   1.000  La
  Hf4      1.0000 0.28200  0.23329  0.89461  Biso   1.000  Hf
  Hf5      1.0000 0.27034  0.72626  0.39747  Biso   1.000  Hf
  Hf6      1.0000 0.28829  0.72934  0.89174  Biso   1.000  Hf
  Hf7      1.0000 0.72887  0.27363  0.09987  Biso   1.000  Hf
  Hf8      1.0000 0.70754  0.27037  0.61052  Biso   1.000  Hf
  Hf9      1.0000 0.72672  0.76193  0.10220  Biso   1.000  Hf
  Hf10     1.0000 0.71774  0.77204  0.60393  Biso   1.000  Hf
  Hf11     1.0000 0.72195  0.48735  0.35138  Biso   1.000  Hf
  Hf12     1.0000 0.72634  0.47864  0.85114  Biso   1.000  Hf
  Hf13     1.0000 0.70005  0.97656  0.36050  Biso   1.000  Hf
  Hf14     1.0000 0.73297  0.97822  0.85295  Biso   1.000  Hf
  O1       1.0000 0.08981  0.19664  0.08170  Biso   1.000  O 
  O2       1.0000 0.05475  0.17204  0.60142  Biso   1.000  O 
  O3       1.0000 0.08987  0.67872  0.08378  Biso   1.000  O 
  O4       1.0000 0.06651  0.67071  0.58288  Biso   1.000  O 
  O5       1.0000 0.05852  0.04880  0.35154  Biso   1.000  O 
  O6       1.0000 0.08241  0.07640  0.83877  Biso   1.000  O 
  O7       1.0000 0.08293  0.57216  0.33297  Biso   1.000  O 
  O8       1.0000 0.07325  0.58004  0.83232  Biso   1.000  O 
  O9       1.0000 0.94088  0.42446  0.16698  Biso   1.000  O 
  O10      1.0000 0.92641  0.42181  0.66643  Biso   1.000  O 
  O11      1.0000 0.85338  0.92770  0.16550  Biso   1.000  O 
  O12      1.0000 0.92755  0.91880  0.67052  Biso   1.000  O 
  O13      1.0000 0.85880  0.32314  0.42055  Biso   1.000  O 
  O14      1.0000 0.93095  0.33241  0.91284  Biso   1.000  O 
  O15      1.0000 0.91328  0.82123  0.41757  Biso   1.000  O 
  O16      1.0000 0.95531  0.83462  0.92033  Biso   1.000  O 
  O17      1.0000 0.58633  0.13180  0.23985  Biso   1.000  O 
  O18      1.0000 0.54701  0.12943  0.74325  Biso   1.000  O 
  O19      1.0000 0.55429  0.62713  0.23807  Biso   1.000  O 
  O20      1.0000 0.55127  0.63039  0.73836  Biso   1.000  O 
  O21      1.0000 0.54730  0.11355  0.50272  Biso   1.000  O 
  O22      1.0000 0.57387  0.12707  0.98070  Biso   1.000  O 
  O23      1.0000 0.54830  0.62536  0.48951  Biso   1.000  O 
  O24      1.0000 0.55768  0.61682  0.98727  Biso   1.000  O 
  O25      1.0000 0.45601  0.38209  0.00257  Biso   1.000  O 
  O26      1.0000 0.44836  0.39292  0.51568  Biso   1.000  O 
  O27      1.0000 0.48778  0.86381  0.99223  Biso   1.000  O 
  O28      1.0000 0.43764  0.87688  0.51238  Biso   1.000  O 
  O29      1.0000 0.47719  0.38439  0.24331  Biso   1.000  O 
  O30      1.0000 0.44845  0.37199  0.75914  Biso   1.000  O 
  O31      1.0000 0.44572  0.85416  0.26576  Biso   1.000  O 
  O32      1.0000 0.45228  0.87120  0.75612  Biso   1.000  O 
