data_image0
_cell_length_a       10.185
_cell_length_b       5.21019
_cell_length_c       10.4389
_cell_angle_alpha    89.9268
_cell_angle_beta     89.869
_cell_angle_gamma    90.6508

_symmetry_space_group_name_H-M    "P 1"
_symmetry_int_tables_number       1

loop_
  _symmetry_equiv_pos_as_xyz
  'x, y, z'

loop_
  _atom_site_label
  _atom_site_occupancy
  _atom_site_fract_x
  _atom_site_fract_y
  _atom_site_fract_z
  _atom_site_thermal_displace_type
  _atom_site_B_iso_or_equiv
  _atom_site_type_symbol
  La1      1.0000 0.12235  0.01509  0.15390  Biso   1.000  La
  Hf1      1.0000 0.14155  0.04540  0.66964  Biso   1.000  Hf
  Hf2      1.0000 0.13459  0.46500  0.42069  Biso   1.000  Hf
  Hf3      1.0000 0.14046  0.46690  0.91421  Biso   1.000  Hf
  Hf4      1.0000 0.36326  0.52220  0.16411  Biso   1.000  Hf
  Hf5      1.0000 0.36178  0.54613  0.66886  Biso   1.000  Hf
  La2      1.0000 0.37107  0.97807  0.40675  Biso   1.000  La
  Hf6      1.0000 0.36661  0.95803  0.91648  Biso   1.000  Hf
  Hf7      1.0000 0.63986  0.03715  0.08112  Biso   1.000  Hf
  Hf8      1.0000 0.64517  0.03715  0.58921  Biso   1.000  Hf
  Hf9      1.0000 0.64219  0.46236  0.33213  Biso   1.000  Hf
  Hf10     1.0000 0.63724  0.45793  0.82940  Biso   1.000  Hf
  Hf11     1.0000 0.85595  0.53400  0.07561  Biso   1.000  Hf
  Hf12     1.0000 0.86437  0.54646  0.58448  Biso   1.000  Hf
  Hf13     1.0000 0.85015  0.96840  0.33829  Biso   1.000  Hf
  Hf14     1.0000 0.86327  0.96177  0.83197  Biso   1.000  Hf
  O1       1.0000 0.03768  0.40663  0.08722  Biso   1.000  O 
  O2       1.0000 0.03244  0.34743  0.59521  Biso   1.000  O 
  O3       1.0000 0.02036  0.16596  0.35121  Biso   1.000  O 
  O4       1.0000 0.03926  0.15260  0.84506  Biso   1.000  O 
  O5       1.0000 0.46588  0.84411  0.09427  Biso   1.000  O 
  O6       1.0000 0.47434  0.84020  0.60072  Biso   1.000  O 
  O7       1.0000 0.46073  0.58569  0.34376  Biso   1.000  O 
  O8       1.0000 0.46644  0.65123  0.83928  Biso   1.000  O 
  O9       1.0000 0.25489  0.27297  0.28592  Biso   1.000  O 
  O10      1.0000 0.27781  0.25013  0.79062  Biso   1.000  O 
  O11      1.0000 0.28231  0.24819  0.03190  Biso   1.000  O 
  O12      1.0000 0.26731  0.27309  0.54688  Biso   1.000  O 
  O13      1.0000 0.22483  0.72145  0.28695  Biso   1.000  O 
  O14      1.0000 0.22710  0.75367  0.78998  Biso   1.000  O 
  O15      1.0000 0.24548  0.72281  0.02859  Biso   1.000  O 
  O16      1.0000 0.21903  0.75477  0.54875  Biso   1.000  O 
  O17      1.0000 0.53785  0.33222  0.15939  Biso   1.000  O 
  O18      1.0000 0.53687  0.33956  0.65935  Biso   1.000  O 
  O19      1.0000 0.57728  0.12309  0.40600  Biso   1.000  O 
  O20      1.0000 0.54064  0.15103  0.91052  Biso   1.000  O 
  O21      1.0000 0.91907  0.86853  0.15544  Biso   1.000  O 
  O22      1.0000 0.96468  0.85297  0.66284  Biso   1.000  O 
  O23      1.0000 0.96286  0.67036  0.41195  Biso   1.000  O 
  O24      1.0000 0.96452  0.66240  0.90632  Biso   1.000  O 
  O25      1.0000 0.77594  0.24617  0.95688  Biso   1.000  O 
  O26      1.0000 0.78502  0.25272  0.46560  Biso   1.000  O 
  O27      1.0000 0.77456  0.26117  0.20924  Biso   1.000  O 
  O28      1.0000 0.77676  0.25418  0.71133  Biso   1.000  O 
  O29      1.0000 0.72341  0.74527  0.95618  Biso   1.000  O 
  O30      1.0000 0.72619  0.74113  0.46389  Biso   1.000  O 
  O31      1.0000 0.70970  0.75578  0.21148  Biso   1.000  O 
  O32      1.0000 0.72889  0.75044  0.71045  Biso   1.000  O 
