data_image0
_cell_length_a       10.1724
_cell_length_b       10.4672
_cell_length_c       5.04664
_cell_angle_alpha    90.288
_cell_angle_beta     90.1528
_cell_angle_gamma    89.9425

_symmetry_space_group_name_H-M    "P 1"
_symmetry_int_tables_number       1

loop_
  _symmetry_equiv_pos_as_xyz
  'x, y, z'

loop_
  _atom_site_label
  _atom_site_occupancy
  _atom_site_fract_x
  _atom_site_fract_y
  _atom_site_fract_z
  _atom_site_thermal_displace_type
  _atom_site_B_iso_or_equiv
  _atom_site_type_symbol
  La1      1.0000 0.12368  0.99823  0.24513  Biso   1.000  La
  Hf1      1.0000 0.13751  0.51930  0.25228  Biso   1.000  Hf
  Hf2      1.0000 0.62916  0.01166  0.25162  Biso   1.000  Hf
  Hf3      1.0000 0.63336  0.51207  0.25770  Biso   1.000  Hf
  Hf4      1.0000 0.14315  0.23587  0.74768  Biso   1.000  Hf
  Hf5      1.0000 0.13748  0.73053  0.75828  Biso   1.000  Hf
  Hf6      1.0000 0.62850  0.23324  0.75198  Biso   1.000  Hf
  Hf7      1.0000 0.63341  0.72833  0.75945  Biso   1.000  Hf
  Hf8      1.0000 0.36251  0.26505  0.25350  Biso   1.000  Hf
  Hf9      1.0000 0.37200  0.75987  0.25295  Biso   1.000  Hf
  La2      1.0000 0.87593  0.25837  0.25867  Biso   1.000  La
  Hf10     1.0000 0.86097  0.76311  0.25594  Biso   1.000  Hf
  Hf11     1.0000 0.36728  0.48209  0.75454  Biso   1.000  Hf
  Hf12     1.0000 0.37055  0.97921  0.75089  Biso   1.000  Hf
  Hf13     1.0000 0.86455  0.48745  0.75116  Biso   1.000  Hf
  Hf14     1.0000 0.85277  0.97953  0.75728  Biso   1.000  Hf
  O1       1.0000 0.07964  0.20981  0.35839  Biso   1.000  O 
  O2       1.0000 0.03912  0.69833  0.39209  Biso   1.000  O 
  O3       1.0000 0.53252  0.18389  0.38773  Biso   1.000  O 
  O4       1.0000 0.53467  0.67698  0.40267  Biso   1.000  O 
  O5       1.0000 0.02278  0.07828  0.82787  Biso   1.000  O 
  O6       1.0000 0.03388  0.57173  0.89720  Biso   1.000  O 
  O7       1.0000 0.52977  0.06657  0.89768  Biso   1.000  O 
  O8       1.0000 0.53372  0.56484  0.89980  Biso   1.000  O 
  O9       1.0000 0.46405  0.43196  0.39204  Biso   1.000  O 
  O10      1.0000 0.46441  0.93011  0.39305  Biso   1.000  O 
  O11      1.0000 0.96541  0.45954  0.39013  Biso   1.000  O 
  O12      1.0000 0.92572  0.94103  0.38503  Biso   1.000  O 
  O13      1.0000 0.46220  0.31626  0.89295  Biso   1.000  O 
  O14      1.0000 0.47438  0.81604  0.90476  Biso   1.000  O 
  O15      1.0000 0.96817  0.32323  0.82377  Biso   1.000  O 
  O16      1.0000 0.97367  0.82578  0.90742  Biso   1.000  O 
  O17      1.0000 0.28829  0.12429  0.51664  Biso   1.000  O 
  O18      1.0000 0.26890  0.61382  0.50323  Biso   1.000  O 
  O19      1.0000 0.74907  0.10765  0.51639  Biso   1.000  O 
  O20      1.0000 0.77005  0.61846  0.49971  Biso   1.000  O 
  O21      1.0000 0.27508  0.13062  0.99358  Biso   1.000  O 
  O22      1.0000 0.27240  0.62837  0.00242  Biso   1.000  O 
  O23      1.0000 0.75607  0.12213  0.99311  Biso   1.000  O 
  O24      1.0000 0.76914  0.63092  0.00173  Biso   1.000  O 
  O25      1.0000 0.23004  0.38390  0.00252  Biso   1.000  O 
  O26      1.0000 0.24499  0.86856  0.98520  Biso   1.000  O 
  O27      1.0000 0.72686  0.38445  0.99563  Biso   1.000  O 
  O28      1.0000 0.72806  0.87463  0.00818  Biso   1.000  O 
  O29      1.0000 0.23482  0.37347  0.50438  Biso   1.000  O 
  O30      1.0000 0.24487  0.85312  0.51012  Biso   1.000  O 
  O31      1.0000 0.71880  0.37617  0.51595  Biso   1.000  O 
  O32      1.0000 0.71966  0.85961  0.50750  Biso   1.000  O 
