data_image0
_cell_length_a       10.1262
_cell_length_b       5.21514
_cell_length_c       10.2246
_cell_angle_alpha    90.3571
_cell_angle_beta     90.006
_cell_angle_gamma    90.0061

_symmetry_space_group_name_H-M    "P 1"
_symmetry_int_tables_number       1

loop_
  _symmetry_equiv_pos_as_xyz
  'x, y, z'

loop_
  _atom_site_label
  _atom_site_occupancy
  _atom_site_fract_x
  _atom_site_fract_y
  _atom_site_fract_z
  _atom_site_thermal_displace_type
  _atom_site_B_iso_or_equiv
  _atom_site_type_symbol
  La1      1.0000 0.12009  0.99475  0.11811  Biso   1.000  La
  Hf1      1.0000 0.13408  0.03144  0.62329  Biso   1.000  Hf
  Hf2      1.0000 0.64176  0.02600  0.12793  Biso   1.000  Hf
  Hf3      1.0000 0.63139  0.03260  0.62600  Biso   1.000  Hf
  Hf4      1.0000 0.13718  0.46469  0.37686  Biso   1.000  Hf
  Hf5      1.0000 0.13268  0.46813  0.86652  Biso   1.000  Hf
  Hf6      1.0000 0.63558  0.46490  0.38838  Biso   1.000  Hf
  Hf7      1.0000 0.63771  0.46185  0.87238  Biso   1.000  Hf
  La2      1.0000 0.37978  0.49472  0.11806  Biso   1.000  La
  Hf8      1.0000 0.36590  0.53146  0.62330  Biso   1.000  Hf
  Hf9      1.0000 0.85819  0.52595  0.12793  Biso   1.000  Hf
  Hf10     1.0000 0.86863  0.53262  0.62601  Biso   1.000  Hf
  Hf11     1.0000 0.36280  0.96468  0.37687  Biso   1.000  Hf
  Hf12     1.0000 0.36729  0.96810  0.86651  Biso   1.000  Hf
  Hf13     1.0000 0.86431  0.96495  0.38842  Biso   1.000  Hf
  Hf14     1.0000 0.86214  0.96181  0.87244  Biso   1.000  Hf
  O1       1.0000 0.02853  0.40818  0.20270  Biso   1.000  O 
  O2       1.0000 0.03688  0.37030  0.68594  Biso   1.000  O 
  O3       1.0000 0.57503  0.37734  0.20184  Biso   1.000  O 
  O4       1.0000 0.53466  0.36386  0.69687  Biso   1.000  O 
  O5       1.0000 0.03374  0.12755  0.44579  Biso   1.000  O 
  O6       1.0000 0.01652  0.16906  0.92358  Biso   1.000  O 
  O7       1.0000 0.53619  0.13366  0.44938  Biso   1.000  O 
  O8       1.0000 0.52565  0.16086  0.95857  Biso   1.000  O 
  O9       1.0000 0.47147  0.90825  0.20268  Biso   1.000  O 
  O10      1.0000 0.46309  0.87033  0.68587  Biso   1.000  O 
  O11      1.0000 0.92482  0.87721  0.20191  Biso   1.000  O 
  O12      1.0000 0.96531  0.86384  0.69691  Biso   1.000  O 
  O13      1.0000 0.46626  0.62763  0.44584  Biso   1.000  O 
  O14      1.0000 0.48337  0.66902  0.92357  Biso   1.000  O 
  O15      1.0000 0.96374  0.63353  0.44939  Biso   1.000  O 
  O16      1.0000 0.97422  0.66084  0.95862  Biso   1.000  O 
  O17      1.0000 0.26194  0.21889  0.26367  Biso   1.000  O 
  O18      1.0000 0.27025  0.23958  0.74106  Biso   1.000  O 
  O19      1.0000 0.77793  0.23099  0.25544  Biso   1.000  O 
  O20      1.0000 0.76877  0.23165  0.74915  Biso   1.000  O 
  O21      1.0000 0.26946  0.26177  0.50199  Biso   1.000  O 
  O22      1.0000 0.25769  0.24027  0.97714  Biso   1.000  O 
  O23      1.0000 0.77030  0.26201  0.50484  Biso   1.000  O 
  O24      1.0000 0.76894  0.25872  0.99980  Biso   1.000  O 
  O25      1.0000 0.23052  0.76181  0.50202  Biso   1.000  O 
  O26      1.0000 0.24224  0.74033  0.97720  Biso   1.000  O 
  O27      1.0000 0.72963  0.76193  0.50481  Biso   1.000  O 
  O28      1.0000 0.73095  0.75869  0.99981  Biso   1.000  O 
  O29      1.0000 0.23804  0.71891  0.26367  Biso   1.000  O 
  O30      1.0000 0.22970  0.73959  0.74110  Biso   1.000  O 
  O31      1.0000 0.72198  0.73093  0.25538  Biso   1.000  O 
  O32      1.0000 0.73116  0.73162  0.74915  Biso   1.000  O 
