data_image0
_cell_length_a       10.1539
_cell_length_b       10.4793
_cell_length_c       5.08309
_cell_angle_alpha    90.0045
_cell_angle_beta     89.9947
_cell_angle_gamma    90.025

_symmetry_space_group_name_H-M    "P 1"
_symmetry_int_tables_number       1

loop_
  _symmetry_equiv_pos_as_xyz
  'x, y, z'

loop_
  _atom_site_label
  _atom_site_occupancy
  _atom_site_fract_x
  _atom_site_fract_y
  _atom_site_fract_z
  _atom_site_thermal_displace_type
  _atom_site_B_iso_or_equiv
  _atom_site_type_symbol
  La1      1.0000 0.12073  0.00793  0.23823  Biso   1.000  La
  Hf1      1.0000 0.12935  0.51620  0.24194  Biso   1.000  Hf
  Hf2      1.0000 0.63234  0.01540  0.25467  Biso   1.000  Hf
  Hf3      1.0000 0.63962  0.51709  0.25764  Biso   1.000  Hf
  Hf4      1.0000 0.13434  0.23893  0.74283  Biso   1.000  Hf
  Hf5      1.0000 0.13204  0.73587  0.75116  Biso   1.000  Hf
  Hf6      1.0000 0.63857  0.22870  0.74780  Biso   1.000  Hf
  Hf7      1.0000 0.63772  0.73529  0.76233  Biso   1.000  Hf
  Hf8      1.0000 0.36459  0.26086  0.24282  Biso   1.000  Hf
  Hf9      1.0000 0.36695  0.76389  0.25112  Biso   1.000  Hf
  Hf10     1.0000 0.86042  0.27110  0.24785  Biso   1.000  Hf
  Hf11     1.0000 0.86128  0.76452  0.26221  Biso   1.000  Hf
  La2      1.0000 0.37825  0.49184  0.73813  Biso   1.000  La
  Hf12     1.0000 0.36954  0.98358  0.74198  Biso   1.000  Hf
  Hf13     1.0000 0.86660  0.48443  0.75472  Biso   1.000  Hf
  Hf14     1.0000 0.85932  0.98274  0.75758  Biso   1.000  Hf
  O1       1.0000 0.02772  0.20327  0.39051  Biso   1.000  O 
  O2       1.0000 0.02555  0.68148  0.40326  Biso   1.000  O 
  O3       1.0000 0.53625  0.17833  0.39323  Biso   1.000  O 
  O4       1.0000 0.52384  0.67180  0.43039  Biso   1.000  O 
  O5       1.0000 0.02809  0.07611  0.83076  Biso   1.000  O 
  O6       1.0000 0.03276  0.56884  0.88930  Biso   1.000  O 
  O7       1.0000 0.54058  0.06006  0.88924  Biso   1.000  O 
  O8       1.0000 0.55311  0.57923  0.92862  Biso   1.000  O 
  O9       1.0000 0.47089  0.42363  0.33091  Biso   1.000  O 
  O10      1.0000 0.46616  0.93094  0.38936  Biso   1.000  O 
  O11      1.0000 0.95835  0.43982  0.38915  Biso   1.000  O 
  O12      1.0000 0.94548  0.92097  0.42777  Biso   1.000  O 
  O13      1.0000 0.47116  0.29654  0.89052  Biso   1.000  O 
  O14      1.0000 0.47339  0.81859  0.90344  Biso   1.000  O 
  O15      1.0000 0.96265  0.32146  0.89329  Biso   1.000  O 
  O16      1.0000 0.97504  0.82799  0.92983  Biso   1.000  O 
  O17      1.0000 0.27898  0.12523  0.50390  Biso   1.000  O 
  O18      1.0000 0.25400  0.62268  0.47957  Biso   1.000  O 
  O19      1.0000 0.76928  0.11547  0.49905  Biso   1.000  O 
  O20      1.0000 0.76683  0.61961  0.50846  Biso   1.000  O 
  O21      1.0000 0.27524  0.13425  0.97919  Biso   1.000  O 
  O22      1.0000 0.25718  0.64104  0.00600  Biso   1.000  O 
  O23      1.0000 0.76961  0.13300  0.00404  Biso   1.000  O 
  O24      1.0000 0.77977  0.63227  0.00373  Biso   1.000  O 
  O25      1.0000 0.21991  0.37459  0.00376  Biso   1.000  O 
  O26      1.0000 0.24486  0.87709  0.97963  Biso   1.000  O 
  O27      1.0000 0.72959  0.38442  0.99913  Biso   1.000  O 
  O28      1.0000 0.73205  0.88022  0.00841  Biso   1.000  O 
  O29      1.0000 0.22365  0.36554  0.47910  Biso   1.000  O 
  O30      1.0000 0.24176  0.85874  0.50606  Biso   1.000  O 
  O31      1.0000 0.72935  0.36684  0.50426  Biso   1.000  O 
  O32      1.0000 0.71910  0.86754  0.50373  Biso   1.000  O 
