data_image0
_cell_length_a       10.3193
_cell_length_b       5.16879
_cell_length_c       10.4802
_cell_angle_alpha    89.4856
_cell_angle_beta     91.6053
_cell_angle_gamma    90.4414

_symmetry_space_group_name_H-M    "P 1"
_symmetry_int_tables_number       1

loop_
  _symmetry_equiv_pos_as_xyz
  'x, y, z'

loop_
  _atom_site_label
  _atom_site_occupancy
  _atom_site_fract_x
  _atom_site_fract_y
  _atom_site_fract_z
  _atom_site_thermal_displace_type
  _atom_site_B_iso_or_equiv
  _atom_site_type_symbol
  La1      1.0000 0.12747  0.02310  0.15367  Biso   1.000  La
  Hf1      1.0000 0.14500  0.03046  0.66512  Biso   1.000  Hf
  Hf2      1.0000 0.13552  0.45434  0.41923  Biso   1.000  Hf
  Hf3      1.0000 0.17511  0.44887  0.90288  Biso   1.000  Hf
  Hf4      1.0000 0.36236  0.53575  0.17326  Biso   1.000  Hf
  Hf5      1.0000 0.36966  0.53724  0.66052  Biso   1.000  Hf
  Hf6      1.0000 0.35972  0.95949  0.41782  Biso   1.000  Hf
  Hf7      1.0000 0.37137  0.95144  0.91531  Biso   1.000  Hf
  Hf8      1.0000 0.62863  0.04856  0.08469  Biso   1.000  Hf
  Hf9      1.0000 0.64028  0.04051  0.58218  Biso   1.000  Hf
  Hf10     1.0000 0.63034  0.46275  0.33948  Biso   1.000  Hf
  Hf11     1.0000 0.63764  0.46425  0.82674  Biso   1.000  Hf
  Hf12     1.0000 0.82489  0.55113  0.09712  Biso   1.000  Hf
  Hf13     1.0000 0.86448  0.54566  0.58077  Biso   1.000  Hf
  Hf14     1.0000 0.85500  0.96954  0.33488  Biso   1.000  Hf
  La2      1.0000 0.87253  0.97690  0.84633  Biso   1.000  La
  O1       1.0000 0.01759  0.41857  0.05503  Biso   1.000  O 
  O2       1.0000 0.03411  0.32112  0.58560  Biso   1.000  O 
  O3       1.0000 0.01814  0.19330  0.33105  Biso   1.000  O 
  O4       1.0000 0.07756  0.13050  0.84642  Biso   1.000  O 
  O5       1.0000 0.46490  0.83605  0.08620  Biso   1.000  O 
  O6       1.0000 0.46888  0.83433  0.58187  Biso   1.000  O 
  O7       1.0000 0.46404  0.66996  0.33684  Biso   1.000  O 
  O8       1.0000 0.47050  0.66398  0.82941  Biso   1.000  O 
  O9       1.0000 0.27594  0.24915  0.29651  Biso   1.000  O 
  O10      1.0000 0.29547  0.23925  0.78209  Biso   1.000  O 
  O11      1.0000 0.28905  0.25456  0.03217  Biso   1.000  O 
  O12      1.0000 0.27324  0.24963  0.53965  Biso   1.000  O 
  O13      1.0000 0.22605  0.72946  0.29351  Biso   1.000  O 
  O14      1.0000 0.23784  0.73588  0.78244  Biso   1.000  O 
  O15      1.0000 0.24178  0.72662  0.02967  Biso   1.000  O 
  O16      1.0000 0.22796  0.75072  0.53892  Biso   1.000  O 
  O17      1.0000 0.52950  0.33602  0.17059  Biso   1.000  O 
  O18      1.0000 0.53596  0.33004  0.66315  Biso   1.000  O 
  O19      1.0000 0.53112  0.16567  0.41813  Biso   1.000  O 
  O20      1.0000 0.53510  0.16395  0.91380  Biso   1.000  O 
  O21      1.0000 0.92244  0.86950  0.15358  Biso   1.000  O 
  O22      1.0000 0.98186  0.80670  0.66895  Biso   1.000  O 
  O23      1.0000 0.96589  0.67888  0.41440  Biso   1.000  O 
  O24      1.0000 0.98241  0.58143  0.94497  Biso   1.000  O 
  O25      1.0000 0.75822  0.27338  0.97033  Biso   1.000  O 
  O26      1.0000 0.77204  0.24928  0.46108  Biso   1.000  O 
  O27      1.0000 0.76216  0.26412  0.21756  Biso   1.000  O 
  O28      1.0000 0.77395  0.27054  0.70649  Biso   1.000  O 
  O29      1.0000 0.71095  0.74544  0.96783  Biso   1.000  O 
  O30      1.0000 0.72676  0.75037  0.46035  Biso   1.000  O 
  O31      1.0000 0.70453  0.76075  0.21791  Biso   1.000  O 
  O32      1.0000 0.72406  0.75085  0.70349  Biso   1.000  O 
