data_image0
_cell_length_a       10.1147
_cell_length_b       5.24696
_cell_length_c       10.1848
_cell_angle_alpha    89.6246
_cell_angle_beta     90.2304
_cell_angle_gamma    90.4253

_symmetry_space_group_name_H-M    "P 1"
_symmetry_int_tables_number       1

loop_
  _symmetry_equiv_pos_as_xyz
  'x, y, z'

loop_
  _atom_site_label
  _atom_site_occupancy
  _atom_site_fract_x
  _atom_site_fract_y
  _atom_site_fract_z
  _atom_site_thermal_displace_type
  _atom_site_B_iso_or_equiv
  _atom_site_type_symbol
  La1      1.0000 0.12147  0.00464  0.12707  Biso   1.000  La
  Hf1      1.0000 0.13253  0.03720  0.62606  Biso   1.000  Hf
  Hf2      1.0000 0.62969  0.02007  0.11197  Biso   1.000  Hf
  Hf3      1.0000 0.62974  0.03925  0.62561  Biso   1.000  Hf
  Hf4      1.0000 0.13648  0.47512  0.38264  Biso   1.000  Hf
  Hf5      1.0000 0.13993  0.46958  0.87120  Biso   1.000  Hf
  La2      1.0000 0.62554  0.48895  0.35898  Biso   1.000  La
  Hf6      1.0000 0.62755  0.46805  0.86964  Biso   1.000  Hf
  Hf7      1.0000 0.36394  0.51619  0.12379  Biso   1.000  Hf
  Hf8      1.0000 0.36387  0.53718  0.62775  Biso   1.000  Hf
  Hf9      1.0000 0.88607  0.48006  0.08668  Biso   1.000  Hf
  Hf10     1.0000 0.86773  0.54329  0.62285  Biso   1.000  Hf
  Hf11     1.0000 0.36344  0.96552  0.38159  Biso   1.000  Hf
  Hf12     1.0000 0.36700  0.96072  0.87261  Biso   1.000  Hf
  Hf13     1.0000 0.86415  0.99749  0.39060  Biso   1.000  Hf
  Hf14     1.0000 0.85794  0.97150  0.86818  Biso   1.000  Hf
  O1       1.0000 0.03021  0.39287  0.21006  Biso   1.000  O 
  O2       1.0000 0.03404  0.37445  0.69644  Biso   1.000  O 
  O3       1.0000 0.52852  0.32762  0.16468  Biso   1.000  O 
  O4       1.0000 0.53063  0.36788  0.69567  Biso   1.000  O 
  O5       1.0000 0.03824  0.14118  0.44508  Biso   1.000  O 
  O6       1.0000 0.99864  0.21860  0.95692  Biso   1.000  O 
  O7       1.0000 0.52904  0.12128  0.45531  Biso   1.000  O 
  O8       1.0000 0.53556  0.12151  0.93323  Biso   1.000  O 
  O9       1.0000 0.48835  0.82081  0.21351  Biso   1.000  O 
  O10      1.0000 0.46560  0.86389  0.70076  Biso   1.000  O 
  O11      1.0000 0.91268  0.84000  0.19438  Biso   1.000  O 
  O12      1.0000 0.96530  0.87709  0.70070  Biso   1.000  O 
  O13      1.0000 0.44838  0.64140  0.46101  Biso   1.000  O 
  O14      1.0000 0.47151  0.63612  0.94927  Biso   1.000  O 
  O15      1.0000 0.96975  0.65264  0.45114  Biso   1.000  O 
  O16      1.0000 0.98860  0.69822  0.95125  Biso   1.000  O 
  O17      1.0000 0.27976  0.23667  0.25584  Biso   1.000  O 
  O18      1.0000 0.26454  0.23122  0.75189  Biso   1.000  O 
  O19      1.0000 0.76525  0.19795  0.23895  Biso   1.000  O 
  O20      1.0000 0.76703  0.24051  0.74595  Biso   1.000  O 
  O21      1.0000 0.26624  0.26942  0.50583  Biso   1.000  O 
  O22      1.0000 0.26825  0.25588  0.99351  Biso   1.000  O 
  O23      1.0000 0.77862  0.27272  0.50331  Biso   1.000  O 
  O24      1.0000 0.75667  0.25348  0.98894  Biso   1.000  O 
  O25      1.0000 0.22273  0.77591  0.50334  Biso   1.000  O 
  O26      1.0000 0.24369  0.74125  0.99391  Biso   1.000  O 
  O27      1.0000 0.73824  0.79298  0.50548  Biso   1.000  O 
  O28      1.0000 0.73813  0.74694  0.99417  Biso   1.000  O 
  O29      1.0000 0.24493  0.71530  0.25813  Biso   1.000  O 
  O30      1.0000 0.22854  0.73919  0.74831  Biso   1.000  O 
  O31      1.0000 0.78895  0.72998  0.23559  Biso   1.000  O 
  O32      1.0000 0.73003  0.73566  0.74806  Biso   1.000  O 
