data_image0
_cell_length_a       5.06085
_cell_length_b       10.306
_cell_length_c       10.4071
_cell_angle_alpha    89.9734
_cell_angle_beta     82.2301
_cell_angle_gamma    89.9277

_symmetry_space_group_name_H-M    "P 1"
_symmetry_int_tables_number       1

loop_
  _symmetry_equiv_pos_as_xyz
  'x, y, z'

loop_
  _atom_site_label
  _atom_site_occupancy
  _atom_site_fract_x
  _atom_site_fract_y
  _atom_site_fract_z
  _atom_site_thermal_displace_type
  _atom_site_B_iso_or_equiv
  _atom_site_type_symbol
  La1      1.0000 0.23714  0.99930  0.13135  Biso   1.000  La
  Hf1      1.0000 0.27509  0.02525  0.64648  Biso   1.000  Hf
  Hf2      1.0000 0.26831  0.51028  0.14268  Biso   1.000  Hf
  Hf3      1.0000 0.26544  0.53084  0.63558  Biso   1.000  Hf
  Hf4      1.0000 0.26525  0.22718  0.39485  Biso   1.000  Hf
  Hf5      1.0000 0.27926  0.23705  0.89053  Biso   1.000  Hf
  Hf6      1.0000 0.24639  0.73659  0.37852  Biso   1.000  Hf
  Hf7      1.0000 0.28620  0.73204  0.89650  Biso   1.000  Hf
  Hf8      1.0000 0.71571  0.26767  0.10191  Biso   1.000  Hf
  Hf9      1.0000 0.71657  0.27528  0.60337  Biso   1.000  Hf
  Hf10     1.0000 0.74014  0.75734  0.11317  Biso   1.000  Hf
  Hf11     1.0000 0.70623  0.77220  0.60957  Biso   1.000  Hf
  Hf12     1.0000 0.70775  0.47883  0.35367  Biso   1.000  Hf
  Hf13     1.0000 0.72488  0.48360  0.84900  Biso   1.000  Hf
  Hf14     1.0000 0.70834  0.98251  0.36195  Biso   1.000  Hf
  Hf15     1.0000 0.73772  0.98184  0.85673  Biso   1.000  Hf
  O1       1.0000 0.07516  0.18925  0.07421  Biso   1.000  O 
  O2       1.0000 0.06737  0.17523  0.58414  Biso   1.000  O 
  O3       1.0000 0.07689  0.65511  0.06612  Biso   1.000  O 
  O4       1.0000 0.05881  0.68118  0.56092  Biso   1.000  O 
  O5       1.0000 0.06423  0.07264  0.34526  Biso   1.000  O 
  O6       1.0000 0.07875  0.08620  0.82709  Biso   1.000  O 
  O7       1.0000 0.05896  0.57875  0.32667  Biso   1.000  O 
  O8       1.0000 0.05395  0.60275  0.81408  Biso   1.000  O 
  O9       1.0000 0.90643  0.42217  0.16929  Biso   1.000  O 
  O10      1.0000 0.91971  0.42955  0.66166  Biso   1.000  O 
  O11      1.0000 0.96645  0.83554  0.25729  Biso   1.000  O 
  O12      1.0000 0.93467  0.91143  0.67842  Biso   1.000  O 
  O13      1.0000 0.91508  0.32846  0.41741  Biso   1.000  O 
  O14      1.0000 0.92932  0.33912  0.91180  Biso   1.000  O 
  O15      1.0000 0.99143  0.86861  0.96366  Biso   1.000  O 
  O16      1.0000 0.57457  0.12511  0.24308  Biso   1.000  O 
  O17      1.0000 0.55626  0.13257  0.73804  Biso   1.000  O 
  O18      1.0000 0.52997  0.62284  0.23742  Biso   1.000  O 
  O19      1.0000 0.53919  0.63304  0.73673  Biso   1.000  O 
  O20      1.0000 0.54010  0.12369  0.49474  Biso   1.000  O 
  O21      1.0000 0.56506  0.12502  0.98005  Biso   1.000  O 
  O22      1.0000 0.53862  0.62766  0.48370  Biso   1.000  O 
  O23      1.0000 0.56023  0.61906  0.98788  Biso   1.000  O 
  O24      1.0000 0.44905  0.38081  0.00441  Biso   1.000  O 
  O25      1.0000 0.43720  0.38365  0.50654  Biso   1.000  O 
  O26      1.0000 0.51357  0.86167  0.99744  Biso   1.000  O 
  O27      1.0000 0.45559  0.88166  0.50607  Biso   1.000  O 
  O28      1.0000 0.43417  0.36507  0.25773  Biso   1.000  O 
  O29      1.0000 0.44256  0.37880  0.75435  Biso   1.000  O 
  O30      1.0000 0.48799  0.86543  0.25663  Biso   1.000  O 
  O31      1.0000 0.44809  0.87681  0.76029  Biso   1.000  O 
