data_image0
_cell_length_a       10.0684
_cell_length_b       5.20663
_cell_length_c       10.111
_cell_angle_alpha    90.4926
_cell_angle_beta     91.1078
_cell_angle_gamma    90.4431

_symmetry_space_group_name_H-M    "P 1"
_symmetry_int_tables_number       1

loop_
  _symmetry_equiv_pos_as_xyz
  'x, y, z'

loop_
  _atom_site_label
  _atom_site_occupancy
  _atom_site_fract_x
  _atom_site_fract_y
  _atom_site_fract_z
  _atom_site_thermal_displace_type
  _atom_site_B_iso_or_equiv
  _atom_site_type_symbol
  La1      1.0000 0.12182  0.01355  0.12237  Biso   1.000  La
  Hf1      1.0000 0.13338  0.02727  0.61907  Biso   1.000  Hf
  Hf2      1.0000 0.63099  0.02823  0.12500  Biso   1.000  Hf
  Hf3      1.0000 0.63290  0.03370  0.62560  Biso   1.000  Hf
  Hf4      1.0000 0.13430  0.46962  0.37694  Biso   1.000  Hf
  Hf5      1.0000 0.15387  0.45000  0.86179  Biso   1.000  Hf
  Hf6      1.0000 0.62989  0.46314  0.38139  Biso   1.000  Hf
  Hf7      1.0000 0.63610  0.47159  0.87565  Biso   1.000  Hf
  Hf8      1.0000 0.36768  0.52199  0.12664  Biso   1.000  Hf
  Hf9      1.0000 0.37062  0.53213  0.61926  Biso   1.000  Hf
  Hf10     1.0000 0.84951  0.53000  0.14418  Biso   1.000  Hf
  Hf11     1.0000 0.87056  0.54020  0.62661  Biso   1.000  Hf
  Hf12     1.0000 0.36432  0.96910  0.37166  Biso   1.000  Hf
  Hf13     1.0000 0.37256  0.95458  0.87441  Biso   1.000  Hf
  Hf14     1.0000 0.86055  0.96753  0.38148  Biso   1.000  Hf
  Hf15     1.0000 0.85800  0.98835  0.87199  Biso   1.000  Hf
  O1       1.0000 0.02648  0.40788  0.20296  Biso   1.000  O 
  O2       1.0000 0.04211  0.37058  0.68190  Biso   1.000  O 
  O3       1.0000 0.53617  0.35912  0.19496  Biso   1.000  O 
  O4       1.0000 0.53702  0.36777  0.69543  Biso   1.000  O 
  O5       1.0000 0.03550  0.13026  0.43927  Biso   1.000  O 
  O6       1.0000 0.02155  0.18420  0.92668  Biso   1.000  O 
  O7       1.0000 0.53395  0.13053  0.44872  Biso   1.000  O 
  O8       1.0000 0.54371  0.12824  0.93987  Biso   1.000  O 
  O9       1.0000 0.46173  0.86871  0.19040  Biso   1.000  O 
  O10      1.0000 0.46959  0.86374  0.69629  Biso   1.000  O 
  O11      1.0000 0.92976  0.87530  0.20105  Biso   1.000  O 
  O12      1.0000 0.96836  0.86959  0.70347  Biso   1.000  O 
  O13      1.0000 0.46513  0.63415  0.44626  Biso   1.000  O 
  O14      1.0000 0.47677  0.63629  0.94995  Biso   1.000  O 
  O15      1.0000 0.96511  0.64049  0.45053  Biso   1.000  O 
  O16      1.0000 0.27718  0.24545  0.25438  Biso   1.000  O 
  O17      1.0000 0.27345  0.22351  0.74442  Biso   1.000  O 
  O18      1.0000 0.76206  0.23635  0.25696  Biso   1.000  O 
  O19      1.0000 0.77165  0.24366  0.74934  Biso   1.000  O 
  O20      1.0000 0.26922  0.26340  0.49962  Biso   1.000  O 
  O21      1.0000 0.28390  0.25196  0.98887  Biso   1.000  O 
  O22      1.0000 0.76954  0.26746  0.50370  Biso   1.000  O 
  O23      1.0000 0.76939  0.27394  0.00274  Biso   1.000  O 
  O24      1.0000 0.23202  0.76865  0.49655  Biso   1.000  O 
  O25      1.0000 0.23841  0.73135  0.98623  Biso   1.000  O 
  O26      1.0000 0.72983  0.76385  0.50458  Biso   1.000  O 
  O27      1.0000 0.74502  0.76591  0.00116  Biso   1.000  O 
  O28      1.0000 0.24195  0.71436  0.25546  Biso   1.000  O 
  O29      1.0000 0.23676  0.73025  0.74063  Biso   1.000  O 
  O30      1.0000 0.71081  0.73442  0.25677  Biso   1.000  O 
  O31      1.0000 0.73270  0.74014  0.75170  Biso   1.000  O 
