data_image0
_cell_length_a       10.1491
_cell_length_b       10.243
_cell_length_c       5.26389
_cell_angle_alpha    90.2036
_cell_angle_beta     81.6574
_cell_angle_gamma    89.754

_symmetry_space_group_name_H-M    "P 1"
_symmetry_int_tables_number       1

loop_
  _symmetry_equiv_pos_as_xyz
  'x, y, z'

loop_
  _atom_site_label
  _atom_site_occupancy
  _atom_site_fract_x
  _atom_site_fract_y
  _atom_site_fract_z
  _atom_site_thermal_displace_type
  _atom_site_B_iso_or_equiv
  _atom_site_type_symbol
  La1      1.0000 0.11279  0.01062  0.25878  Biso   1.000  La
  Hf1      1.0000 0.13798  0.52282  0.27660  Biso   1.000  Hf
  Hf2      1.0000 0.63874  0.02114  0.29444  Biso   1.000  Hf
  Hf3      1.0000 0.63443  0.52111  0.29073  Biso   1.000  Hf
  Hf4      1.0000 0.14297  0.23695  0.75687  Biso   1.000  Hf
  Hf5      1.0000 0.13389  0.73532  0.77967  Biso   1.000  Hf
  Hf6      1.0000 0.63669  0.22921  0.79355  Biso   1.000  Hf
  Hf7      1.0000 0.63792  0.72871  0.79011  Biso   1.000  Hf
  Hf8      1.0000 0.35926  0.26956  0.19598  Biso   1.000  Hf
  Hf9      1.0000 0.36448  0.77224  0.19782  Biso   1.000  Hf
  Hf10     1.0000 0.85362  0.27607  0.21813  Biso   1.000  Hf
  Hf11     1.0000 0.85996  0.76536  0.22910  Biso   1.000  Hf
  Hf12     1.0000 0.36094  0.48151  0.69872  Biso   1.000  Hf
  Hf13     1.0000 0.36235  0.98081  0.69363  Biso   1.000  Hf
  Hf14     1.0000 0.86485  0.47796  0.71394  Biso   1.000  Hf
  Hf15     1.0000 0.85924  0.97512  0.73730  Biso   1.000  Hf
  O1       1.0000 0.02645  0.65307  0.12489  Biso   1.000  O 
  O2       1.0000 0.53230  0.16351  0.14387  Biso   1.000  O 
  O3       1.0000 0.53369  0.66223  0.14150  Biso   1.000  O 
  O4       1.0000 0.02197  0.09552  0.67757  Biso   1.000  O 
  O5       1.0000 0.02920  0.59262  0.63337  Biso   1.000  O 
  O6       1.0000 0.53656  0.08887  0.64213  Biso   1.000  O 
  O7       1.0000 0.53072  0.58901  0.64284  Biso   1.000  O 
  O8       1.0000 0.46621  0.41295  0.34271  Biso   1.000  O 
  O9       1.0000 0.47014  0.91416  0.34295  Biso   1.000  O 
  O10      1.0000 0.97256  0.40117  0.36747  Biso   1.000  O 
  O11      1.0000 0.96772  0.85921  0.46405  Biso   1.000  O 
  O12      1.0000 0.46793  0.33863  0.84187  Biso   1.000  O 
  O13      1.0000 0.47588  0.84303  0.84623  Biso   1.000  O 
  O14      1.0000 0.96812  0.33843  0.87549  Biso   1.000  O 
  O15      1.0000 0.98232  0.87132  0.94584  Biso   1.000  O 
  O16      1.0000 0.27744  0.13287  0.46290  Biso   1.000  O 
  O17      1.0000 0.27364  0.62777  0.46038  Biso   1.000  O 
  O18      1.0000 0.78517  0.12466  0.48095  Biso   1.000  O 
  O19      1.0000 0.77259  0.62374  0.48516  Biso   1.000  O 
  O20      1.0000 0.27185  0.13047  0.94844  Biso   1.000  O 
  O21      1.0000 0.27123  0.62426  0.96045  Biso   1.000  O 
  O22      1.0000 0.77339  0.12279  0.99343  Biso   1.000  O 
  O23      1.0000 0.77671  0.62071  0.98163  Biso   1.000  O 
  O24      1.0000 0.22391  0.38184  0.00634  Biso   1.000  O 
  O25      1.0000 0.24030  0.87147  0.98864  Biso   1.000  O 
  O26      1.0000 0.72341  0.37949  0.02347  Biso   1.000  O 
  O27      1.0000 0.72873  0.87486  0.02931  Biso   1.000  O 
  O28      1.0000 0.22579  0.37664  0.50436  Biso   1.000  O 
  O29      1.0000 0.23324  0.86716  0.50987  Biso   1.000  O 
  O30      1.0000 0.72471  0.37075  0.52469  Biso   1.000  O 
  O31      1.0000 0.72108  0.87377  0.52823  Biso   1.000  O 
