data_image0
_cell_length_a       10.1164
_cell_length_b       10.3046
_cell_length_c       10.4559
_cell_angle_alpha    89.9439
_cell_angle_beta     90.6408
_cell_angle_gamma    89.9352

_symmetry_space_group_name_H-M    "P 1"
_symmetry_int_tables_number       1

loop_
  _symmetry_equiv_pos_as_xyz
  'x, y, z'

loop_
  _atom_site_label
  _atom_site_occupancy
  _atom_site_fract_x
  _atom_site_fract_y
  _atom_site_fract_z
  _atom_site_thermal_displace_type
  _atom_site_B_iso_or_equiv
  _atom_site_type_symbol
  La1      1.0000 0.13109  0.00068  0.16010  Biso   1.000  La
  Hf1      1.0000 0.13809  0.02053  0.67089  Biso   1.000  Hf
  Hf2      1.0000 0.13952  0.52411  0.17180  Biso   1.000  Hf
  Hf3      1.0000 0.13778  0.52118  0.67022  Biso   1.000  Hf
  Hf4      1.0000 0.13673  0.22722  0.41895  Biso   1.000  Hf
  Hf5      1.0000 0.14730  0.23522  0.91181  Biso   1.000  Hf
  Hf6      1.0000 0.13910  0.72892  0.42266  Biso   1.000  Hf
  Hf7      1.0000 0.14036  0.72763  0.91941  Biso   1.000  Hf
  Hf8      1.0000 0.35330  0.26969  0.16902  Biso   1.000  Hf
  Hf9      1.0000 0.36203  0.26964  0.66810  Biso   1.000  Hf
  Hf10     1.0000 0.36789  0.76399  0.17077  Biso   1.000  Hf
  Hf11     1.0000 0.36109  0.76965  0.67057  Biso   1.000  Hf
  Hf12     1.0000 0.35792  0.47852  0.42088  Biso   1.000  Hf
  Hf13     1.0000 0.36481  0.48024  0.92033  Biso   1.000  Hf
  Hf14     1.0000 0.36127  0.97882  0.42185  Biso   1.000  Hf
  Hf15     1.0000 0.36495  0.97618  0.91557  Biso   1.000  Hf
  Hf16     1.0000 0.63506  0.01761  0.08141  Biso   1.000  Hf
  Hf17     1.0000 0.63854  0.02028  0.58199  Biso   1.000  Hf
  Hf18     1.0000 0.64216  0.51538  0.07928  Biso   1.000  Hf
  Hf19     1.0000 0.63875  0.51931  0.57905  Biso   1.000  Hf
  Hf20     1.0000 0.63040  0.23224  0.33274  Biso   1.000  Hf
  Hf21     1.0000 0.64077  0.22987  0.82917  Biso   1.000  Hf
  Hf22     1.0000 0.63909  0.72586  0.33102  Biso   1.000  Hf
  Hf23     1.0000 0.64114  0.72706  0.82837  Biso   1.000  Hf
  La2      1.0000 0.87381  0.25809  0.09119  Biso   1.000  La
  Hf24     1.0000 0.86129  0.27101  0.57877  Biso   1.000  Hf
  Hf25     1.0000 0.85713  0.76768  0.07913  Biso   1.000  Hf
  Hf26     1.0000 0.86254  0.77126  0.57971  Biso   1.000  Hf
  Hf27     1.0000 0.86233  0.48332  0.33165  Biso   1.000  Hf
  Hf28     1.0000 0.86251  0.47672  0.82789  Biso   1.000  Hf
  Hf29     1.0000 0.84984  0.98091  0.33504  Biso   1.000  Hf
  Hf30     1.0000 0.86204  0.97772  0.83085  Biso   1.000  Hf
  O1       1.0000 0.08085  0.20270  0.09373  Biso   1.000  O 
  O2       1.0000 0.03556  0.17136  0.58903  Biso   1.000  O 
  O3       1.0000 0.04333  0.68981  0.09737  Biso   1.000  O 
  O4       1.0000 0.03611  0.67345  0.59002  Biso   1.000  O 
  O5       1.0000 0.01874  0.08599  0.34193  Biso   1.000  O 
  O6       1.0000 0.03837  0.07776  0.84473  Biso   1.000  O 
  O7       1.0000 0.03856  0.58032  0.34393  Biso   1.000  O 
  O8       1.0000 0.03646  0.57839  0.83826  Biso   1.000  O 
  O9       1.0000 0.46990  0.41115  0.08189  Biso   1.000  O 
  O10      1.0000 0.46817  0.41240  0.58180  Biso   1.000  O 
  O11      1.0000 0.47043  0.91114  0.08212  Biso   1.000  O 
  O12      1.0000 0.46794  0.91241  0.58303  Biso   1.000  O 
  O13      1.0000 0.46066  0.33659  0.33210  Biso   1.000  O 
  O14      1.0000 0.46835  0.33497  0.83095  Biso   1.000  O 
  O15      1.0000 0.47414  0.83732  0.33189  Biso   1.000  O 
  O16      1.0000 0.47159  0.83590  0.82863  Biso   1.000  O 
  O17      1.0000 0.27725  0.12657  0.30088  Biso   1.000  O 
  O18      1.0000 0.27671  0.12322  0.78863  Biso   1.000  O 
  O19      1.0000 0.27837  0.62134  0.29533  Biso   1.000  O 
  O20      1.0000 0.27662  0.62497  0.79442  Biso   1.000  O 
  O21      1.0000 0.29107  0.13023  0.03102  Biso   1.000  O 
  O22      1.0000 0.27388  0.12450  0.54432  Biso   1.000  O 
  O23      1.0000 0.27599  0.62154  0.04517  Biso   1.000  O 
  O24      1.0000 0.27493  0.62507  0.54553  Biso   1.000  O 
  O25      1.0000 0.21875  0.37454  0.29230  Biso   1.000  O 
  O26      1.0000 0.22926  0.37598  0.78890  Biso   1.000  O 
  O27      1.0000 0.23618  0.86126  0.30130  Biso   1.000  O 
  O28      1.0000 0.22419  0.87220  0.79089  Biso   1.000  O 
  O29      1.0000 0.22873  0.38365  0.03798  Biso   1.000  O 
  O30      1.0000 0.22303  0.37591  0.54214  Biso   1.000  O 
  O31      1.0000 0.24624  0.86027  0.03091  Biso   1.000  O 
  O32      1.0000 0.22366  0.87764  0.54556  Biso   1.000  O 
  O33      1.0000 0.52425  0.16442  0.16739  Biso   1.000  O 
  O34      1.0000 0.53261  0.16284  0.66837  Biso   1.000  O 
  O35      1.0000 0.53402  0.65723  0.16970  Biso   1.000  O 
  O36      1.0000 0.53179  0.66164  0.66786  Biso   1.000  O 
  O37      1.0000 0.52996  0.08634  0.42153  Biso   1.000  O 
  O38      1.0000 0.52917  0.08849  0.91849  Biso   1.000  O 
  O39      1.0000 0.53058  0.58424  0.41910  Biso   1.000  O 
  O40      1.0000 0.53344  0.58822  0.91952  Biso   1.000  O 
  O41      1.0000 0.96096  0.44669  0.16196  Biso   1.000  O 
  O42      1.0000 0.96390  0.42405  0.65696  Biso   1.000  O 
  O43      1.0000 0.91981  0.94429  0.14783  Biso   1.000  O 
  O44      1.0000 0.96435  0.92089  0.66328  Biso   1.000  O 
  O45      1.0000 0.96195  0.32952  0.40941  Biso   1.000  O 
  O46      1.0000 0.97214  0.32888  0.89642  Biso   1.000  O 
  O47      1.0000 0.96436  0.83061  0.40874  Biso   1.000  O 
  O48      1.0000 0.96727  0.83043  0.91494  Biso   1.000  O 
  O49      1.0000 0.76630  0.11276  0.95062  Biso   1.000  O 
  O50      1.0000 0.77151  0.12440  0.46157  Biso   1.000  O 
  O51      1.0000 0.77881  0.62186  0.95590  Biso   1.000  O 
  O52      1.0000 0.77575  0.62397  0.45759  Biso   1.000  O 
  O53      1.0000 0.74965  0.11571  0.22094  Biso   1.000  O 
  O54      1.0000 0.77724  0.12652  0.70679  Biso   1.000  O 
  O55      1.0000 0.77642  0.62809  0.20698  Biso   1.000  O 
  O56      1.0000 0.77658  0.62639  0.70530  Biso   1.000  O 
  O57      1.0000 0.72154  0.37734  0.94888  Biso   1.000  O 
  O58      1.0000 0.72349  0.37487  0.45822  Biso   1.000  O 
  O59      1.0000 0.72231  0.86936  0.95532  Biso   1.000  O 
  O60      1.0000 0.72287  0.87335  0.45904  Biso   1.000  O 
  O61      1.0000 0.71599  0.38215  0.21586  Biso   1.000  O 
  O62      1.0000 0.72545  0.37439  0.70412  Biso   1.000  O 
  O63      1.0000 0.71475  0.86818  0.20790  Biso   1.000  O 
  O64      1.0000 0.72610  0.87476  0.70659  Biso   1.000  O 
