data_image0
_cell_length_a       10.139
_cell_length_b       10.2857
_cell_length_c       10.5368
_cell_angle_alpha    89.981
_cell_angle_beta     90.0324
_cell_angle_gamma    90.2149

_symmetry_space_group_name_H-M    "P 1"
_symmetry_int_tables_number       1

loop_
  _symmetry_equiv_pos_as_xyz
  'x, y, z'

loop_
  _atom_site_label
  _atom_site_occupancy
  _atom_site_fract_x
  _atom_site_fract_y
  _atom_site_fract_z
  _atom_site_thermal_displace_type
  _atom_site_B_iso_or_equiv
  _atom_site_type_symbol
  La1      1.0000 0.13355  0.01318  0.16436  Biso   1.000  La
  Hf1      1.0000 0.14018  0.02210  0.67177  Biso   1.000  Hf
  Hf2      1.0000 0.13530  0.51935  0.16797  Biso   1.000  Hf
  Hf3      1.0000 0.13803  0.52181  0.67189  Biso   1.000  Hf
  Hf4      1.0000 0.13963  0.22893  0.42301  Biso   1.000  Hf
  Hf5      1.0000 0.13891  0.23400  0.91842  Biso   1.000  Hf
  Hf6      1.0000 0.13445  0.73211  0.42195  Biso   1.000  Hf
  Hf7      1.0000 0.14144  0.72732  0.92041  Biso   1.000  Hf
  Hf8      1.0000 0.36016  0.26540  0.16873  Biso   1.000  Hf
  Hf9      1.0000 0.36105  0.27194  0.67305  Biso   1.000  Hf
  Hf10     1.0000 0.36554  0.76816  0.17076  Biso   1.000  Hf
  Hf11     1.0000 0.35954  0.77227  0.67231  Biso   1.000  Hf
  La2      1.0000 0.36395  0.48572  0.41368  Biso   1.000  La
  Hf12     1.0000 0.36063  0.47853  0.92248  Biso   1.000  Hf
  Hf13     1.0000 0.36205  0.97972  0.42293  Biso   1.000  Hf
  Hf14     1.0000 0.36467  0.97932  0.91857  Biso   1.000  Hf
  Hf15     1.0000 0.64102  0.02007  0.07678  Biso   1.000  Hf
  Hf16     1.0000 0.63829  0.02097  0.58013  Biso   1.000  Hf
  Hf17     1.0000 0.63708  0.51849  0.07888  Biso   1.000  Hf
  Hf18     1.0000 0.64374  0.52073  0.58191  Biso   1.000  Hf
  Hf19     1.0000 0.64078  0.22669  0.32550  Biso   1.000  Hf
  Hf20     1.0000 0.63915  0.22861  0.82761  Biso   1.000  Hf
  Hf21     1.0000 0.64505  0.73185  0.32812  Biso   1.000  Hf
  Hf22     1.0000 0.63675  0.72836  0.82744  Biso   1.000  Hf
  Hf23     1.0000 0.85844  0.27385  0.07521  Biso   1.000  Hf
  Hf24     1.0000 0.86179  0.27126  0.57838  Biso   1.000  Hf
  Hf25     1.0000 0.85800  0.76633  0.07464  Biso   1.000  Hf
  Hf26     1.0000 0.86135  0.77167  0.57970  Biso   1.000  Hf
  Hf27     1.0000 0.86085  0.47936  0.32946  Biso   1.000  Hf
  Hf28     1.0000 0.86041  0.48003  0.82733  Biso   1.000  Hf
  Hf29     1.0000 0.85565  0.98172  0.33402  Biso   1.000  Hf
  Hf30     1.0000 0.86246  0.97938  0.82830  Biso   1.000  Hf
  O1       1.0000 0.03024  0.18384  0.07608  Biso   1.000  O 
  O2       1.0000 0.03153  0.16547  0.58709  Biso   1.000  O 
  O3       1.0000 0.03065  0.66384  0.07827  Biso   1.000  O 
  O4       1.0000 0.02723  0.66288  0.58273  Biso   1.000  O 
  O5       1.0000 0.02109  0.09093  0.34657  Biso   1.000  O 
  O6       1.0000 0.03311  0.08635  0.83416  Biso   1.000  O 
  O7       1.0000 0.02994  0.58542  0.33308  Biso   1.000  O 
  O8       1.0000 0.03033  0.58810  0.83010  Biso   1.000  O 
  O9       1.0000 0.46656  0.41224  0.08346  Biso   1.000  O 
  O10      1.0000 0.48006  0.40786  0.59474  Biso   1.000  O 
  O11      1.0000 0.47195  0.91360  0.07997  Biso   1.000  O 
  O12      1.0000 0.46913  0.91152  0.58239  Biso   1.000  O 
  O13      1.0000 0.47194  0.31991  0.32437  Biso   1.000  O 
  O14      1.0000 0.46767  0.33248  0.83666  Biso   1.000  O 
  O15      1.0000 0.47380  0.83756  0.33038  Biso   1.000  O 
  O16      1.0000 0.46992  0.83712  0.83018  Biso   1.000  O 
  O17      1.0000 0.28290  0.12666  0.30405  Biso   1.000  O 
  O18      1.0000 0.27493  0.12408  0.79250  Biso   1.000  O 
  O19      1.0000 0.25730  0.63528  0.28232  Biso   1.000  O 
  O20      1.0000 0.27564  0.62405  0.79615  Biso   1.000  O 
  O21      1.0000 0.28501  0.13281  0.03269  Biso   1.000  O 
  O22      1.0000 0.27657  0.12653  0.54680  Biso   1.000  O 
  O23      1.0000 0.27416  0.62028  0.04301  Biso   1.000  O 
  O24      1.0000 0.26449  0.63747  0.55170  Biso   1.000  O 
  O25      1.0000 0.21143  0.36302  0.28245  Biso   1.000  O 
  O26      1.0000 0.22595  0.37667  0.79588  Biso   1.000  O 
  O27      1.0000 0.23671  0.86858  0.30399  Biso   1.000  O 
  O28      1.0000 0.22538  0.87448  0.79294  Biso   1.000  O 
  O29      1.0000 0.22387  0.37715  0.04165  Biso   1.000  O 
  O30      1.0000 0.21785  0.37147  0.55458  Biso   1.000  O 
  O31      1.0000 0.24297  0.86143  0.03440  Biso   1.000  O 
  O32      1.0000 0.22334  0.88080  0.54659  Biso   1.000  O 
  O33      1.0000 0.53487  0.15972  0.16249  Biso   1.000  O 
  O34      1.0000 0.53135  0.16090  0.66895  Biso   1.000  O 
  O35      1.0000 0.52922  0.65525  0.17506  Biso   1.000  O 
  O36      1.0000 0.52954  0.66054  0.67166  Biso   1.000  O 
  O37      1.0000 0.53632  0.08185  0.41739  Biso   1.000  O 
  O38      1.0000 0.53674  0.08253  0.91342  Biso   1.000  O 
  O39      1.0000 0.55222  0.59747  0.42889  Biso   1.000  O 
  O40      1.0000 0.53026  0.58821  0.92161  Biso   1.000  O 
  O41      1.0000 0.96014  0.42019  0.16403  Biso   1.000  O 
  O42      1.0000 0.96645  0.41666  0.66604  Biso   1.000  O 
  O43      1.0000 0.94519  0.90234  0.17859  Biso   1.000  O 
  O44      1.0000 0.96884  0.91326  0.67071  Biso   1.000  O 
  O45      1.0000 0.96772  0.33811  0.41905  Biso   1.000  O 
  O46      1.0000 0.96567  0.33978  0.91166  Biso   1.000  O 
  O47      1.0000 0.96811  0.84112  0.42207  Biso   1.000  O 
  O48      1.0000 0.97304  0.84178  0.92300  Biso   1.000  O 
  O49      1.0000 0.77690  0.12457  0.95356  Biso   1.000  O 
  O50      1.0000 0.77316  0.12542  0.45839  Biso   1.000  O 
  O51      1.0000 0.77249  0.62164  0.95299  Biso   1.000  O 
  O52      1.0000 0.78751  0.62488  0.45512  Biso   1.000  O 
  O53      1.0000 0.77813  0.12640  0.20428  Biso   1.000  O 
  O54      1.0000 0.77576  0.12518  0.70523  Biso   1.000  O 
  O55      1.0000 0.77403  0.62663  0.20345  Biso   1.000  O 
  O56      1.0000 0.77412  0.62729  0.70545  Biso   1.000  O 
  O57      1.0000 0.72194  0.37442  0.95395  Biso   1.000  O 
  O58      1.0000 0.72489  0.37439  0.45523  Biso   1.000  O 
  O59      1.0000 0.72711  0.87221  0.95266  Biso   1.000  O 
  O60      1.0000 0.72529  0.87395  0.45690  Biso   1.000  O 
  O61      1.0000 0.72199  0.37635  0.20491  Biso   1.000  O 
  O62      1.0000 0.72837  0.37379  0.70639  Biso   1.000  O 
  O63      1.0000 0.71410  0.87838  0.20407  Biso   1.000  O 
  O64      1.0000 0.72500  0.87571  0.70519  Biso   1.000  O 
