data_image0
_cell_length_a       10.0733
_cell_length_b       10.231
_cell_length_c       10.1256
_cell_angle_alpha    89.8294
_cell_angle_beta     89.9777
_cell_angle_gamma    89.9072

_symmetry_space_group_name_H-M    "P 1"
_symmetry_int_tables_number       1

loop_
  _symmetry_equiv_pos_as_xyz
  'x, y, z'

loop_
  _atom_site_label
  _atom_site_occupancy
  _atom_site_fract_x
  _atom_site_fract_y
  _atom_site_fract_z
  _atom_site_thermal_displace_type
  _atom_site_B_iso_or_equiv
  _atom_site_type_symbol
  La1      1.0000 0.12397  0.00335  0.12884  Biso   1.000  La
  Hf1      1.0000 0.12517  0.99717  0.62919  Biso   1.000  Hf
  Hf2      1.0000 0.12430  0.50341  0.12463  Biso   1.000  Hf
  Hf3      1.0000 0.12502  0.50096  0.62463  Biso   1.000  Hf
  Hf4      1.0000 0.62904  0.98500  0.10917  Biso   1.000  Hf
  Hf5      1.0000 0.62696  0.00162  0.62667  Biso   1.000  Hf
  Hf6      1.0000 0.62547  0.49925  0.12898  Biso   1.000  Hf
  Hf7      1.0000 0.62864  0.50346  0.62751  Biso   1.000  Hf
  La2      1.0000 0.12720  0.24702  0.37302  Biso   1.000  La
  Hf8      1.0000 0.12613  0.25317  0.87266  Biso   1.000  Hf
  Hf9      1.0000 0.12698  0.74695  0.37728  Biso   1.000  Hf
  Hf10     1.0000 0.12615  0.74941  0.87727  Biso   1.000  Hf
  Hf11     1.0000 0.62215  0.26539  0.39269  Biso   1.000  Hf
  Hf12     1.0000 0.62430  0.24881  0.87516  Biso   1.000  Hf
  Hf13     1.0000 0.62574  0.75118  0.37299  Biso   1.000  Hf
  Hf14     1.0000 0.62250  0.74693  0.87435  Biso   1.000  Hf
  Hf15     1.0000 0.37881  0.26131  0.11585  Biso   1.000  Hf
  Hf16     1.0000 0.37372  0.24977  0.62905  Biso   1.000  Hf
  Hf17     1.0000 0.37375  0.74740  0.12704  Biso   1.000  Hf
  Hf18     1.0000 0.37764  0.74825  0.62862  Biso   1.000  Hf
  Hf19     1.0000 0.87810  0.26069  0.11635  Biso   1.000  Hf
  Hf20     1.0000 0.87845  0.24721  0.62665  Biso   1.000  Hf
  Hf21     1.0000 0.87683  0.74894  0.12730  Biso   1.000  Hf
  Hf22     1.0000 0.87907  0.74932  0.62726  Biso   1.000  Hf
  Hf23     1.0000 0.37316  0.98971  0.38547  Biso   1.000  Hf
  Hf24     1.0000 0.37280  0.00323  0.87520  Biso   1.000  Hf
  Hf25     1.0000 0.37436  0.50147  0.37453  Biso   1.000  Hf
  Hf26     1.0000 0.37211  0.50098  0.87469  Biso   1.000  Hf
  Hf27     1.0000 0.87247  0.98900  0.38606  Biso   1.000  Hf
  Hf28     1.0000 0.87751  0.00069  0.87277  Biso   1.000  Hf
  Hf29     1.0000 0.87746  0.50307  0.37478  Biso   1.000  Hf
  Hf30     1.0000 0.87354  0.50211  0.87337  Biso   1.000  Hf
  O1       1.0000 0.99784  0.15383  0.99745  Biso   1.000  O 
  O2       1.0000 0.99107  0.12680  0.51679  Biso   1.000  O 
  O3       1.0000 0.00614  0.64337  0.01266  Biso   1.000  O 
  O4       1.0000 0.00111  0.64198  0.51167  Biso   1.000  O 
  O5       1.0000 0.50877  0.14337  0.01119  Biso   1.000  O 
  O6       1.0000 0.49694  0.14978  0.50764  Biso   1.000  O 
  O7       1.0000 0.50507  0.64534  0.01016  Biso   1.000  O 
  O8       1.0000 0.50103  0.64929  0.50731  Biso   1.000  O 
  O9       1.0000 0.94482  0.11992  0.25227  Biso   1.000  O 
  O10      1.0000 0.00487  0.10342  0.75949  Biso   1.000  O 
  O11      1.0000 0.00406  0.61116  0.26279  Biso   1.000  O 
  O12      1.0000 0.00290  0.60522  0.76114  Biso   1.000  O 
  O13      1.0000 0.55324  0.11060  0.26061  Biso   1.000  O 
  O14      1.0000 0.50280  0.10240  0.75727  Biso   1.000  O 
  O15      1.0000 0.50240  0.60805  0.25928  Biso   1.000  O 
  O16      1.0000 0.50193  0.60333  0.75931  Biso   1.000  O 
  O17      1.0000 0.99691  0.37358  0.23080  Biso   1.000  O 
  O18      1.0000 0.00040  0.35474  0.74221  Biso   1.000  O 
  O19      1.0000 0.99222  0.85281  0.25489  Biso   1.000  O 
  O20      1.0000 0.00649  0.85297  0.74050  Biso   1.000  O 
  O21      1.0000 0.50465  0.35668  0.24687  Biso   1.000  O 
  O22      1.0000 0.49928  0.35253  0.74710  Biso   1.000  O 
  O23      1.0000 0.50138  0.85852  0.23719  Biso   1.000  O 
  O24      1.0000 0.50769  0.85204  0.73717  Biso   1.000  O 
  O25      1.0000 0.99346  0.39514  0.99120  Biso   1.000  O 
  O26      1.0000 0.99562  0.39626  0.49924  Biso   1.000  O 
  O27      1.0000 0.99195  0.88310  0.98611  Biso   1.000  O 
  O28      1.0000 0.01106  0.88858  0.49413  Biso   1.000  O 
  O29      1.0000 0.49472  0.39719  0.99686  Biso   1.000  O 
  O30      1.0000 0.50648  0.40315  0.49516  Biso   1.000  O 
  O31      1.0000 0.50252  0.89280  0.98255  Biso   1.000  O 
  O32      1.0000 0.51573  0.89770  0.48932  Biso   1.000  O 
  O33      1.0000 0.30620  0.13048  0.24960  Biso   1.000  O 
  O34      1.0000 0.24645  0.14696  0.74238  Biso   1.000  O 
  O35      1.0000 0.24720  0.63924  0.23909  Biso   1.000  O 
  O36      1.0000 0.24817  0.64512  0.74071  Biso   1.000  O 
  O37      1.0000 0.69751  0.13983  0.24117  Biso   1.000  O 
  O38      1.0000 0.74852  0.14801  0.74465  Biso   1.000  O 
  O39      1.0000 0.74885  0.64232  0.24269  Biso   1.000  O 
  O40      1.0000 0.74914  0.64708  0.74264  Biso   1.000  O 
  O41      1.0000 0.26019  0.12354  0.98508  Biso   1.000  O 
  O42      1.0000 0.25343  0.09653  0.50441  Biso   1.000  O 
  O43      1.0000 0.25025  0.60843  0.99025  Biso   1.000  O 
  O44      1.0000 0.24521  0.60703  0.48926  Biso   1.000  O 
  O45      1.0000 0.75435  0.10058  0.99428  Biso   1.000  O 
  O46      1.0000 0.74248  0.10699  0.49063  Biso   1.000  O 
  O47      1.0000 0.75035  0.60111  0.99471  Biso   1.000  O 
  O48      1.0000 0.74631  0.60499  0.49185  Biso   1.000  O 
  O49      1.0000 0.24027  0.36181  0.00772  Biso   1.000  O 
  O50      1.0000 0.25914  0.36724  0.51578  Biso   1.000  O 
  O51      1.0000 0.25545  0.85411  0.00261  Biso   1.000  O 
  O52      1.0000 0.25788  0.85522  0.51061  Biso   1.000  O 
  O53      1.0000 0.73557  0.35277  0.01250  Biso   1.000  O 
  O54      1.0000 0.74851  0.35753  0.51942  Biso   1.000  O 
  O55      1.0000 0.74461  0.84725  0.00667  Biso   1.000  O 
  O56      1.0000 0.75659  0.85313  0.50495  Biso   1.000  O 
  O57      1.0000 0.25900  0.39756  0.24697  Biso   1.000  O 
  O58      1.0000 0.24490  0.39736  0.76134  Biso   1.000  O 
  O59      1.0000 0.25435  0.87677  0.27101  Biso   1.000  O 
  O60      1.0000 0.25106  0.89558  0.75956  Biso   1.000  O 
  O61      1.0000 0.74986  0.39180  0.26475  Biso   1.000  O 
  O62      1.0000 0.74370  0.39833  0.76467  Biso   1.000  O 
  O63      1.0000 0.74657  0.89375  0.25495  Biso   1.000  O 
  O64      1.0000 0.75216  0.89783  0.75460  Biso   1.000  O 
