data_image0
_cell_length_a       10.0777
_cell_length_b       10.2329
_cell_length_c       10.0774
_cell_angle_alpha    89.6895
_cell_angle_beta     89.6721
_cell_angle_gamma    89.6708

_symmetry_space_group_name_H-M    "P 1"
_symmetry_int_tables_number       1

loop_
  _symmetry_equiv_pos_as_xyz
  'x, y, z'

loop_
  _atom_site_label
  _atom_site_occupancy
  _atom_site_fract_x
  _atom_site_fract_y
  _atom_site_fract_z
  _atom_site_thermal_displace_type
  _atom_site_B_iso_or_equiv
  _atom_site_type_symbol
  Hf1      1.0000 0.14127  0.00198  0.14118  Biso   1.000  Hf
  Hf2      1.0000 0.12893  0.99882  0.62298  Biso   1.000  Hf
  Hf3      1.0000 0.12709  0.50854  0.12703  Biso   1.000  Hf
  Hf4      1.0000 0.12095  0.49811  0.62351  Biso   1.000  Hf
  Hf5      1.0000 0.62334  0.99862  0.12872  Biso   1.000  Hf
  Hf6      1.0000 0.62252  0.99933  0.62214  Biso   1.000  Hf
  Hf7      1.0000 0.62352  0.49817  0.12092  Biso   1.000  Hf
  Hf8      1.0000 0.62060  0.49569  0.62064  Biso   1.000  Hf
  Hf9      1.0000 0.12361  0.25263  0.37487  Biso   1.000  Hf
  La1      1.0000 0.11956  0.24281  0.87866  Biso   1.000  La
  Hf10     1.0000 0.12445  0.74784  0.37646  Biso   1.000  Hf
  Hf11     1.0000 0.13642  0.74211  0.86798  Biso   1.000  Hf
  Hf12     1.0000 0.62391  0.24765  0.37253  Biso   1.000  Hf
  Hf13     1.0000 0.62064  0.24771  0.87452  Biso   1.000  Hf
  Hf14     1.0000 0.62553  0.74672  0.37769  Biso   1.000  Hf
  Hf15     1.0000 0.62954  0.74952  0.87733  Biso   1.000  Hf
  Hf16     1.0000 0.37499  0.25260  0.12340  Biso   1.000  Hf
  Hf17     1.0000 0.37276  0.24750  0.62367  Biso   1.000  Hf
  Hf18     1.0000 0.37642  0.74789  0.12449  Biso   1.000  Hf
  Hf19     1.0000 0.37754  0.74691  0.62563  Biso   1.000  Hf
  La2      1.0000 0.87879  0.24289  0.11949  Biso   1.000  La
  Hf20     1.0000 0.87468  0.24764  0.62056  Biso   1.000  Hf
  Hf21     1.0000 0.86797  0.74205  0.13640  Biso   1.000  Hf
  Hf22     1.0000 0.87731  0.74956  0.62965  Biso   1.000  Hf
  Hf23     1.0000 0.37878  0.99853  0.37836  Biso   1.000  Hf
  Hf24     1.0000 0.37542  0.99689  0.87470  Biso   1.000  Hf
  Hf25     1.0000 0.37371  0.49656  0.37373  Biso   1.000  Hf
  Hf26     1.0000 0.37373  0.49408  0.87141  Biso   1.000  Hf
  Hf27     1.0000 0.87491  0.99676  0.37515  Biso   1.000  Hf
  Hf28     1.0000 0.86074  0.00097  0.86072  Biso   1.000  Hf
  Hf29     1.0000 0.87152  0.49416  0.37378  Biso   1.000  Hf
  Hf30     1.0000 0.86408  0.49662  0.86402  Biso   1.000  Hf
  O1       1.0000 0.00237  0.14781  0.49940  Biso   1.000  O 
  O2       1.0000 0.01663  0.68458  0.01661  Biso   1.000  O 
  O3       1.0000 0.00314  0.64731  0.50826  Biso   1.000  O 
  O4       1.0000 0.49926  0.14780  0.00174  Biso   1.000  O 
  O5       1.0000 0.50154  0.14408  0.50115  Biso   1.000  O 
  O6       1.0000 0.50840  0.64737  0.00337  Biso   1.000  O 
  O7       1.0000 0.50030  0.64420  0.50047  Biso   1.000  O 
  O8       1.0000 0.00995  0.10251  0.26261  Biso   1.000  O 
  O9       1.0000 0.99114  0.09964  0.73667  Biso   1.000  O 
  O10      1.0000 0.99337  0.60839  0.25748  Biso   1.000  O 
  O11      1.0000 0.00757  0.60595  0.75867  Biso   1.000  O 
  O12      1.0000 0.49627  0.09925  0.24979  Biso   1.000  O 
  O13      1.0000 0.50565  0.09672  0.75395  Biso   1.000  O 
  O14      1.0000 0.49254  0.59992  0.24721  Biso   1.000  O 
  O15      1.0000 0.50618  0.59877  0.75284  Biso   1.000  O 
  O16      1.0000 0.01154  0.36613  0.25369  Biso   1.000  O 
  O17      1.0000 0.98508  0.36383  0.74037  Biso   1.000  O 
  O18      1.0000 0.00806  0.85682  0.23894  Biso   1.000  O 
  O19      1.0000 0.99079  0.85258  0.77066  Biso   1.000  O 
  O20      1.0000 0.50267  0.34928  0.24804  Biso   1.000  O 
  O21      1.0000 0.49462  0.34727  0.74814  Biso   1.000  O 
  O22      1.0000 0.50702  0.84905  0.24835  Biso   1.000  O 
  O23      1.0000 0.49461  0.84707  0.75411  Biso   1.000  O 
  O24      1.0000 0.99788  0.42323  0.99779  Biso   1.000  O 
  O25      1.0000 0.99873  0.39612  0.49806  Biso   1.000  O 
  O26      1.0000 0.00044  0.05261  0.00049  Biso   1.000  O 
  O27      1.0000 0.00007  0.89482  0.50336  Biso   1.000  O 
  O28      1.0000 0.49826  0.39614  0.99848  Biso   1.000  O 
  O29      1.0000 0.49819  0.39413  0.49790  Biso   1.000  O 
  O30      1.0000 0.50324  0.89484  0.00022  Biso   1.000  O 
  O31      1.0000 0.50098  0.89324  0.50116  Biso   1.000  O 
  O32      1.0000 0.24983  0.14618  0.24965  Biso   1.000  O 
  O33      1.0000 0.25979  0.12910  0.74128  Biso   1.000  O 
  O34      1.0000 0.24271  0.64828  0.24270  Biso   1.000  O 
  O35      1.0000 0.25553  0.63780  0.74286  Biso   1.000  O 
  O36      1.0000 0.74146  0.12902  0.25969  Biso   1.000  O 
  O37      1.0000 0.75090  0.14468  0.75079  Biso   1.000  O 
  O38      1.0000 0.74287  0.63782  0.25551  Biso   1.000  O 
  O39      1.0000 0.75574  0.64455  0.75572  Biso   1.000  O 
  O40      1.0000 0.26254  0.10244  0.00985  Biso   1.000  O 
  O41      1.0000 0.25027  0.09920  0.49612  Biso   1.000  O 
  O42      1.0000 0.25758  0.60842  0.99333  Biso   1.000  O 
  O43      1.0000 0.24704  0.59989  0.49243  Biso   1.000  O 
  O44      1.0000 0.73663  0.09980  0.99112  Biso   1.000  O 
  O45      1.0000 0.75443  0.09672  0.50562  Biso   1.000  O 
  O46      1.0000 0.75878  0.60598  0.00753  Biso   1.000  O 
  O47      1.0000 0.75265  0.59876  0.50606  Biso   1.000  O 
  O48      1.0000 0.25385  0.36611  0.01124  Biso   1.000  O 
  O49      1.0000 0.24841  0.34927  0.50237  Biso   1.000  O 
  O50      1.0000 0.23884  0.85677  0.00822  Biso   1.000  O 
  O51      1.0000 0.24810  0.84900  0.50716  Biso   1.000  O 
  O52      1.0000 0.74051  0.36386  0.98484  Biso   1.000  O 
  O53      1.0000 0.74847  0.34722  0.49438  Biso   1.000  O 
  O54      1.0000 0.77037  0.85274  0.99111  Biso   1.000  O 
  O55      1.0000 0.75380  0.84711  0.49490  Biso   1.000  O 
  O56      1.0000 0.25327  0.39804  0.25297  Biso   1.000  O 
  O57      1.0000 0.25108  0.39377  0.74588  Biso   1.000  O 
  O58      1.0000 0.26043  0.89015  0.26057  Biso   1.000  O 
  O59      1.0000 0.24545  0.88842  0.75581  Biso   1.000  O 
  O60      1.0000 0.74611  0.39382  0.25092  Biso   1.000  O 
  O61      1.0000 0.74195  0.39306  0.74165  Biso   1.000  O 
  O62      1.0000 0.75573  0.88830  0.24565  Biso   1.000  O 
  O63      1.0000 0.74126  0.88979  0.74151  Biso   1.000  O 
