data_image0
_cell_length_a       10.2375
_cell_length_b       10.3342
_cell_length_c       10.4968
_cell_angle_alpha    90.0961
_cell_angle_beta     80.5025
_cell_angle_gamma    90.3143

_symmetry_space_group_name_H-M    "P 1"
_symmetry_int_tables_number       1

loop_
  _symmetry_equiv_pos_as_xyz
  'x, y, z'

loop_
  _atom_site_label
  _atom_site_occupancy
  _atom_site_fract_x
  _atom_site_fract_y
  _atom_site_fract_z
  _atom_site_thermal_displace_type
  _atom_site_B_iso_or_equiv
  _atom_site_type_symbol
  La1      1.0000 0.13404  0.01161  0.14056  Biso   1.000  La
  Hf1      1.0000 0.13876  0.01872  0.64674  Biso   1.000  Hf
  Hf2      1.0000 0.14005  0.52125  0.14589  Biso   1.000  Hf
  Hf3      1.0000 0.13979  0.52018  0.64632  Biso   1.000  Hf
  Hf4      1.0000 0.63979  0.02017  0.14632  Biso   1.000  Hf
  Hf5      1.0000 0.64004  0.02127  0.64588  Biso   1.000  Hf
  Hf6      1.0000 0.63875  0.51867  0.14672  Biso   1.000  Hf
  La2      1.0000 0.63404  0.51155  0.64052  Biso   1.000  La
  Hf7      1.0000 0.14234  0.22836  0.39572  Biso   1.000  Hf
  Hf8      1.0000 0.13525  0.23084  0.89528  Biso   1.000  Hf
  Hf9      1.0000 0.14094  0.72688  0.39720  Biso   1.000  Hf
  Hf10     1.0000 0.13943  0.72884  0.89486  Biso   1.000  Hf
  Hf11     1.0000 0.63941  0.22881  0.39487  Biso   1.000  Hf
  Hf12     1.0000 0.64093  0.22685  0.89717  Biso   1.000  Hf
  Hf13     1.0000 0.63523  0.73082  0.39528  Biso   1.000  Hf
  Hf14     1.0000 0.64232  0.72834  0.89571  Biso   1.000  Hf
  Hf15     1.0000 0.36190  0.26954  0.10382  Biso   1.000  Hf
  Hf16     1.0000 0.35675  0.26580  0.60351  Biso   1.000  Hf
  Hf17     1.0000 0.36726  0.76730  0.10364  Biso   1.000  Hf
  Hf18     1.0000 0.35830  0.77364  0.60279  Biso   1.000  Hf
  Hf19     1.0000 0.85828  0.27361  0.10276  Biso   1.000  Hf
  Hf20     1.0000 0.86723  0.26728  0.60366  Biso   1.000  Hf
  Hf21     1.0000 0.85676  0.76575  0.10348  Biso   1.000  Hf
  Hf22     1.0000 0.86189  0.76952  0.60384  Biso   1.000  Hf
  Hf23     1.0000 0.36091  0.47726  0.35409  Biso   1.000  Hf
  Hf24     1.0000 0.35452  0.47792  0.85957  Biso   1.000  Hf
  Hf25     1.0000 0.36181  0.97975  0.35312  Biso   1.000  Hf
  Hf26     1.0000 0.36395  0.97940  0.85155  Biso   1.000  Hf
  Hf27     1.0000 0.86400  0.47939  0.35151  Biso   1.000  Hf
  Hf28     1.0000 0.86182  0.47975  0.85311  Biso   1.000  Hf
  Hf29     1.0000 0.85449  0.97786  0.35956  Biso   1.000  Hf
  Hf30     1.0000 0.86089  0.97723  0.85411  Biso   1.000  Hf
  O1       1.0000 0.03247  0.18715  0.07684  Biso   1.000  O 
  O2       1.0000 0.03984  0.17052  0.58388  Biso   1.000  O 
  O3       1.0000 0.03567  0.67152  0.08112  Biso   1.000  O 
  O4       1.0000 0.03627  0.66834  0.58009  Biso   1.000  O 
  O5       1.0000 0.53631  0.16836  0.08006  Biso   1.000  O 
  O6       1.0000 0.53564  0.17159  0.58116  Biso   1.000  O 
  O7       1.0000 0.53983  0.67046  0.08382  Biso   1.000  O 
  O8       1.0000 0.53245  0.68708  0.57680  Biso   1.000  O 
  O9       1.0000 0.02305  0.08756  0.34530  Biso   1.000  O 
  O10      1.0000 0.03523  0.07920  0.83242  Biso   1.000  O 
  O11      1.0000 0.03739  0.58321  0.32782  Biso   1.000  O 
  O12      1.0000 0.03621  0.58026  0.83002  Biso   1.000  O 
  O13      1.0000 0.53618  0.08023  0.33004  Biso   1.000  O 
  O14      1.0000 0.53735  0.08316  0.82785  Biso   1.000  O 
  O15      1.0000 0.53520  0.57924  0.33236  Biso   1.000  O 
  O16      1.0000 0.52305  0.58756  0.84523  Biso   1.000  O 
  O17      1.0000 0.46516  0.41666  0.17173  Biso   1.000  O 
  O18      1.0000 0.43609  0.41687  0.67810  Biso   1.000  O 
  O19      1.0000 0.46455  0.92196  0.16643  Biso   1.000  O 
  O20      1.0000 0.46272  0.92289  0.66882  Biso   1.000  O 
  O21      1.0000 0.96271  0.42285  0.16882  Biso   1.000  O 
  O22      1.0000 0.96452  0.42194  0.66644  Biso   1.000  O 
  O23      1.0000 0.93611  0.91677  0.17811  Biso   1.000  O 
  O24      1.0000 0.96513  0.91671  0.67172  Biso   1.000  O 
  O25      1.0000 0.46701  0.33288  0.42270  Biso   1.000  O 
  O26      1.0000 0.46911  0.33516  0.92032  Biso   1.000  O 
  O27      1.0000 0.46119  0.83282  0.41701  Biso   1.000  O 
  O28      1.0000 0.47599  0.83819  0.92066  Biso   1.000  O 
  O29      1.0000 0.97603  0.33823  0.42065  Biso   1.000  O 
  O30      1.0000 0.96120  0.33279  0.91699  Biso   1.000  O 
  O31      1.0000 0.96910  0.83512  0.42035  Biso   1.000  O 
  O32      1.0000 0.96696  0.83278  0.92269  Biso   1.000  O 
  O33      1.0000 0.28330  0.13556  0.24745  Biso   1.000  O 
  O34      1.0000 0.27397  0.12801  0.73903  Biso   1.000  O 
  O35      1.0000 0.27883  0.62352  0.23955  Biso   1.000  O 
  O36      1.0000 0.27422  0.63097  0.74167  Biso   1.000  O 
  O37      1.0000 0.77426  0.13094  0.24169  Biso   1.000  O 
  O38      1.0000 0.77886  0.12349  0.73958  Biso   1.000  O 
  O39      1.0000 0.77394  0.62797  0.23901  Biso   1.000  O 
  O40      1.0000 0.78327  0.63551  0.74742  Biso   1.000  O 
  O41      1.0000 0.27483  0.11799  0.49148  Biso   1.000  O 
  O42      1.0000 0.28480  0.12860  0.97903  Biso   1.000  O 
  O43      1.0000 0.27563  0.62003  0.49076  Biso   1.000  O 
  O44      1.0000 0.27203  0.61910  0.99336  Biso   1.000  O 
  O45      1.0000 0.77202  0.11908  0.49334  Biso   1.000  O 
  O46      1.0000 0.77566  0.12002  0.99072  Biso   1.000  O 
  O47      1.0000 0.78475  0.62859  0.47901  Biso   1.000  O 
  O48      1.0000 0.77479  0.61798  0.99147  Biso   1.000  O 
  O49      1.0000 0.22526  0.37858  0.01053  Biso   1.000  O 
  O50      1.0000 0.22587  0.37782  0.50879  Biso   1.000  O 
  O51      1.0000 0.24222  0.86498  0.99498  Biso   1.000  O 
  O52      1.0000 0.22245  0.87958  0.50967  Biso   1.000  O 
  O53      1.0000 0.72247  0.37957  0.00957  Biso   1.000  O 
  O54      1.0000 0.74226  0.36497  0.49490  Biso   1.000  O 
  O55      1.0000 0.72582  0.87780  0.00882  Biso   1.000  O 
  O56      1.0000 0.72527  0.87860  0.51053  Biso   1.000  O 
  O57      1.0000 0.22406  0.37172  0.25819  Biso   1.000  O 
  O58      1.0000 0.21028  0.37110  0.76290  Biso   1.000  O 
  O59      1.0000 0.23722  0.85836  0.26312  Biso   1.000  O 
  O60      1.0000 0.22320  0.87254  0.75776  Biso   1.000  O 
  O61      1.0000 0.72320  0.37249  0.25776  Biso   1.000  O 
  O62      1.0000 0.73723  0.35836  0.76310  Biso   1.000  O 
  O63      1.0000 0.71024  0.87105  0.26286  Biso   1.000  O 
  O64      1.0000 0.72402  0.87172  0.75817  Biso   1.000  O 
