data_image0
_cell_length_a       10.0474
_cell_length_b       10.4047
_cell_length_c       10.1133
_cell_angle_alpha    90.0662
_cell_angle_beta     90.5745
_cell_angle_gamma    89.9605

_symmetry_space_group_name_H-M    "P 1"
_symmetry_int_tables_number       1

loop_
  _symmetry_equiv_pos_as_xyz
  'x, y, z'

loop_
  _atom_site_label
  _atom_site_occupancy
  _atom_site_fract_x
  _atom_site_fract_y
  _atom_site_fract_z
  _atom_site_thermal_displace_type
  _atom_site_B_iso_or_equiv
  _atom_site_type_symbol
  La1      1.0000 0.12249  0.00774  0.11768  Biso   1.000  La
  Hf1      1.0000 0.13269  0.01706  0.62578  Biso   1.000  Hf
  Hf2      1.0000 0.13529  0.51220  0.11841  Biso   1.000  Hf
  Hf3      1.0000 0.13492  0.51657  0.62715  Biso   1.000  Hf
  Hf4      1.0000 0.63632  0.01768  0.12391  Biso   1.000  Hf
  Hf5      1.0000 0.63053  0.01887  0.62787  Biso   1.000  Hf
  Hf6      1.0000 0.63309  0.51505  0.12569  Biso   1.000  Hf
  Hf7      1.0000 0.63152  0.51584  0.62433  Biso   1.000  Hf
  Hf8      1.0000 0.13470  0.23484  0.37627  Biso   1.000  Hf
  Hf9      1.0000 0.13540  0.23731  0.86917  Biso   1.000  Hf
  La2      1.0000 0.12098  0.74253  0.36891  Biso   1.000  La
  Hf10     1.0000 0.13587  0.73342  0.87466  Biso   1.000  Hf
  Hf11     1.0000 0.63135  0.23458  0.37440  Biso   1.000  Hf
  Hf12     1.0000 0.63409  0.23520  0.87530  Biso   1.000  Hf
  Hf13     1.0000 0.63166  0.73333  0.37792  Biso   1.000  Hf
  Hf14     1.0000 0.63429  0.73124  0.87477  Biso   1.000  Hf
  Hf15     1.0000 0.36530  0.26577  0.12533  Biso   1.000  Hf
  Hf16     1.0000 0.36502  0.26662  0.62307  Biso   1.000  Hf
  Hf17     1.0000 0.37343  0.76169  0.12029  Biso   1.000  Hf
  Hf18     1.0000 0.36490  0.76647  0.62314  Biso   1.000  Hf
  Hf19     1.0000 0.86241  0.26952  0.12671  Biso   1.000  Hf
  Hf20     1.0000 0.86531  0.26731  0.62526  Biso   1.000  Hf
  Hf21     1.0000 0.85856  0.76485  0.12517  Biso   1.000  Hf
  Hf22     1.0000 0.86050  0.76555  0.63382  Biso   1.000  Hf
  Hf23     1.0000 0.36292  0.48428  0.37512  Biso   1.000  Hf
  Hf24     1.0000 0.36750  0.48370  0.87389  Biso   1.000  Hf
  Hf25     1.0000 0.36856  0.98733  0.37336  Biso   1.000  Hf
  Hf26     1.0000 0.36939  0.98481  0.87133  Biso   1.000  Hf
  Hf27     1.0000 0.86086  0.48223  0.37810  Biso   1.000  Hf
  Hf28     1.0000 0.86695  0.48173  0.87469  Biso   1.000  Hf
  Hf29     1.0000 0.85562  0.98268  0.38464  Biso   1.000  Hf
  Hf30     1.0000 0.86328  0.98467  0.87217  Biso   1.000  Hf
  O1       1.0000 0.02678  0.19470  0.20435  Biso   1.000  O 
  O2       1.0000 0.03854  0.18865  0.68469  Biso   1.000  O 
  O3       1.0000 0.03011  0.67286  0.16487  Biso   1.000  O 
  O4       1.0000 0.03341  0.68392  0.69547  Biso   1.000  O 
  O5       1.0000 0.53746  0.18374  0.19326  Biso   1.000  O 
  O6       1.0000 0.53307  0.18473  0.69708  Biso   1.000  O 
  O7       1.0000 0.53990  0.68139  0.19513  Biso   1.000  O 
  O8       1.0000 0.53459  0.68286  0.69602  Biso   1.000  O 
  O9       1.0000 0.03356  0.06443  0.44334  Biso   1.000  O 
  O10      1.0000 0.03060  0.07753  0.91666  Biso   1.000  O 
  O11      1.0000 0.02566  0.55481  0.45672  Biso   1.000  O 
  O12      1.0000 0.03885  0.56447  0.93325  Biso   1.000  O 
  O13      1.0000 0.53508  0.06970  0.44756  Biso   1.000  O 
  O14      1.0000 0.53910  0.06729  0.94297  Biso   1.000  O 
  O15      1.0000 0.53569  0.56484  0.44288  Biso   1.000  O 
  O16      1.0000 0.53400  0.56797  0.94798  Biso   1.000  O 
  O17      1.0000 0.46723  0.43076  0.19589  Biso   1.000  O 
  O18      1.0000 0.46513  0.43384  0.69531  Biso   1.000  O 
  O19      1.0000 0.47430  0.93275  0.19527  Biso   1.000  O 
  O20      1.0000 0.46634  0.93277  0.69664  Biso   1.000  O 
  O21      1.0000 0.96431  0.43534  0.19899  Biso   1.000  O 
  O22      1.0000 0.96579  0.43100  0.69874  Biso   1.000  O 
  O23      1.0000 0.95856  0.90693  0.22771  Biso   1.000  O 
  O24      1.0000 0.96275  0.93384  0.69856  Biso   1.000  O 
  O25      1.0000 0.46440  0.31724  0.44573  Biso   1.000  O 
  O26      1.0000 0.46900  0.31927  0.94555  Biso   1.000  O 
  O27      1.0000 0.46539  0.81558  0.44629  Biso   1.000  O 
  O28      1.0000 0.47474  0.81960  0.94593  Biso   1.000  O 
  O29      1.0000 0.96150  0.31463  0.44603  Biso   1.000  O 
  O30      1.0000 0.96880  0.31996  0.95122  Biso   1.000  O 
  O31      1.0000 0.94264  0.82358  0.46631  Biso   1.000  O 
  O32      1.0000 0.97338  0.82787  0.95592  Biso   1.000  O 
  O33      1.0000 0.27965  0.12758  0.25401  Biso   1.000  O 
  O34      1.0000 0.27062  0.11743  0.74523  Biso   1.000  O 
  O35      1.0000 0.27505  0.60897  0.23904  Biso   1.000  O 
  O36      1.0000 0.26989  0.61920  0.75050  Biso   1.000  O 
  O37      1.0000 0.76984  0.11711  0.24951  Biso   1.000  O 
  O38      1.0000 0.76944  0.11903  0.74824  Biso   1.000  O 
  O39      1.0000 0.77181  0.61738  0.25044  Biso   1.000  O 
  O40      1.0000 0.76747  0.61418  0.75024  Biso   1.000  O 
  O41      1.0000 0.26810  0.13577  0.49931  Biso   1.000  O 
  O42      1.0000 0.27666  0.13828  0.98894  Biso   1.000  O 
  O43      1.0000 0.27796  0.62379  0.50494  Biso   1.000  O 
  O44      1.0000 0.27203  0.62952  0.99593  Biso   1.000  O 
  O45      1.0000 0.76629  0.13476  0.50080  Biso   1.000  O 
  O46      1.0000 0.77320  0.13392  0.99889  Biso   1.000  O 
  O47      1.0000 0.76616  0.63294  0.50200  Biso   1.000  O 
  O48      1.0000 0.77061  0.63033  0.99731  Biso   1.000  O 
  O49      1.0000 0.22774  0.38234  0.49780  Biso   1.000  O 
  O50      1.0000 0.23372  0.38218  0.99534  Biso   1.000  O 
  O51      1.0000 0.24208  0.89579  0.50433  Biso   1.000  O 
  O52      1.0000 0.24560  0.87243  0.98678  Biso   1.000  O 
  O53      1.0000 0.72790  0.38221  0.49987  Biso   1.000  O 
  O54      1.0000 0.73044  0.38356  0.99894  Biso   1.000  O 
  O55      1.0000 0.71682  0.88285  0.50504  Biso   1.000  O 
  O56      1.0000 0.73383  0.88213  0.00175  Biso   1.000  O 
  O57      1.0000 0.22850  0.36723  0.24725  Biso   1.000  O 
  O58      1.0000 0.23271  0.36862  0.74606  Biso   1.000  O 
  O59      1.0000 0.25738  0.86548  0.24501  Biso   1.000  O 
  O60      1.0000 0.22860  0.86693  0.74540  Biso   1.000  O 
  O61      1.0000 0.72829  0.36763  0.24965  Biso   1.000  O 
  O62      1.0000 0.73024  0.36684  0.74919  Biso   1.000  O 
  O63      1.0000 0.72202  0.86902  0.25294  Biso   1.000  O 
  O64      1.0000 0.72804  0.86818  0.75379  Biso   1.000  O 
