data_image0
_cell_length_a       10.0272
_cell_length_b       10.4018
_cell_length_c       10.0572
_cell_angle_alpha    90.2073
_cell_angle_beta     89.9479
_cell_angle_gamma    89.906

_symmetry_space_group_name_H-M    "P 1"
_symmetry_int_tables_number       1

loop_
  _symmetry_equiv_pos_as_xyz
  'x, y, z'

loop_
  _atom_site_label
  _atom_site_occupancy
  _atom_site_fract_x
  _atom_site_fract_y
  _atom_site_fract_z
  _atom_site_thermal_displace_type
  _atom_site_B_iso_or_equiv
  _atom_site_type_symbol
  La1      1.0000 0.12828  0.99598  0.12280  Biso   1.000  La
  Hf1      1.0000 0.13475  0.01317  0.62304  Biso   1.000  Hf
  Hf2      1.0000 0.13329  0.52056  0.12342  Biso   1.000  Hf
  Hf3      1.0000 0.13373  0.52051  0.62652  Biso   1.000  Hf
  Hf4      1.0000 0.63008  0.01280  0.12533  Biso   1.000  Hf
  Hf5      1.0000 0.63470  0.01718  0.62651  Biso   1.000  Hf
  Hf6      1.0000 0.63546  0.51214  0.12723  Biso   1.000  Hf
  Hf7      1.0000 0.63612  0.51533  0.62680  Biso   1.000  Hf
  Hf8      1.0000 0.14871  0.23811  0.39534  Biso   1.000  Hf
  Hf9      1.0000 0.13934  0.23518  0.86661  Biso   1.000  Hf
  Hf10     1.0000 0.13491  0.73150  0.37734  Biso   1.000  Hf
  Hf11     1.0000 0.13611  0.73357  0.87499  Biso   1.000  Hf
  Hf12     1.0000 0.63225  0.23354  0.37467  Biso   1.000  Hf
  Hf13     1.0000 0.63342  0.23460  0.87649  Biso   1.000  Hf
  Hf14     1.0000 0.63296  0.73063  0.37949  Biso   1.000  Hf
  Hf15     1.0000 0.63567  0.73167  0.87568  Biso   1.000  Hf
  Hf16     1.0000 0.36241  0.26458  0.12562  Biso   1.000  Hf
  Hf17     1.0000 0.37178  0.26738  0.62895  Biso   1.000  Hf
  Hf18     1.0000 0.37312  0.75939  0.12376  Biso   1.000  Hf
  Hf19     1.0000 0.36797  0.76656  0.62515  Biso   1.000  Hf
  La2      1.0000 0.88223  0.25438  0.12484  Biso   1.000  La
  Hf20     1.0000 0.86651  0.26713  0.62351  Biso   1.000  Hf
  Hf21     1.0000 0.85967  0.76662  0.12842  Biso   1.000  Hf
  Hf22     1.0000 0.86625  0.76677  0.62519  Biso   1.000  Hf
  Hf23     1.0000 0.36816  0.48385  0.37422  Biso   1.000  Hf
  Hf24     1.0000 0.36764  0.48378  0.87745  Biso   1.000  Hf
  Hf25     1.0000 0.36849  0.98294  0.37446  Biso   1.000  Hf
  Hf26     1.0000 0.36979  0.98305  0.87304  Biso   1.000  Hf
  Hf27     1.0000 0.86611  0.48393  0.37601  Biso   1.000  Hf
  Hf28     1.0000 0.86657  0.48517  0.87293  Biso   1.000  Hf
  Hf29     1.0000 0.85945  0.98191  0.38041  Biso   1.000  Hf
  Hf30     1.0000 0.86204  0.98339  0.87530  Biso   1.000  Hf
  O1       1.0000 0.04416  0.18862  0.67548  Biso   1.000  O 
  O2       1.0000 0.03883  0.69788  0.19285  Biso   1.000  O 
  O3       1.0000 0.03617  0.68662  0.69519  Biso   1.000  O 
  O4       1.0000 0.53046  0.18254  0.19558  Biso   1.000  O 
  O5       1.0000 0.53685  0.18310  0.69716  Biso   1.000  O 
  O6       1.0000 0.53510  0.67746  0.20054  Biso   1.000  O 
  O7       1.0000 0.53654  0.68291  0.69471  Biso   1.000  O 
  O8       1.0000 0.03869  0.06724  0.42482  Biso   1.000  O 
  O9       1.0000 0.01914  0.08882  0.93771  Biso   1.000  O 
  O10      1.0000 0.03671  0.56610  0.44592  Biso   1.000  O 
  O11      1.0000 0.03408  0.57405  0.94434  Biso   1.000  O 
  O12      1.0000 0.53498  0.06549  0.44872  Biso   1.000  O 
  O13      1.0000 0.53155  0.06782  0.94440  Biso   1.000  O 
  O14      1.0000 0.53469  0.56287  0.44735  Biso   1.000  O 
  O15      1.0000 0.53582  0.56676  0.94718  Biso   1.000  O 
  O16      1.0000 0.45986  0.43237  0.19414  Biso   1.000  O 
  O17      1.0000 0.46793  0.43325  0.69730  Biso   1.000  O 
  O18      1.0000 0.45908  0.93541  0.19140  Biso   1.000  O 
  O19      1.0000 0.46635  0.93271  0.69523  Biso   1.000  O 
  O20      1.0000 0.96737  0.44751  0.19796  Biso   1.000  O 
  O21      1.0000 0.96212  0.43791  0.68362  Biso   1.000  O 
  O22      1.0000 0.92913  0.94547  0.19415  Biso   1.000  O 
  O23      1.0000 0.96337  0.93652  0.69278  Biso   1.000  O 
  O24      1.0000 0.46114  0.31450  0.44562  Biso   1.000  O 
  O25      1.0000 0.46458  0.31760  0.94534  Biso   1.000  O 
  O26      1.0000 0.46567  0.81680  0.44720  Biso   1.000  O 
  O27      1.0000 0.47290  0.81705  0.94678  Biso   1.000  O 
  O28      1.0000 0.96344  0.31109  0.42909  Biso   1.000  O 
  O29      1.0000 0.97418  0.32917  0.92381  Biso   1.000  O 
  O30      1.0000 0.96456  0.81702  0.44503  Biso   1.000  O 
  O31      1.0000 0.97453  0.82931  0.95386  Biso   1.000  O 
  O32      1.0000 0.26432  0.12787  0.25865  Biso   1.000  O 
  O33      1.0000 0.26998  0.11505  0.74800  Biso   1.000  O 
  O34      1.0000 0.26740  0.61050  0.24944  Biso   1.000  O 
  O35      1.0000 0.27177  0.61889  0.75005  Biso   1.000  O 
  O36      1.0000 0.75330  0.10920  0.25880  Biso   1.000  O 
  O37      1.0000 0.77302  0.12039  0.74764  Biso   1.000  O 
  O38      1.0000 0.77107  0.61769  0.25041  Biso   1.000  O 
  O39      1.0000 0.77175  0.61895  0.74803  Biso   1.000  O 
  O40      1.0000 0.27556  0.12959  0.50673  Biso   1.000  O 
  O41      1.0000 0.27149  0.13603  0.99366  Biso   1.000  O 
  O42      1.0000 0.27159  0.63275  0.49979  Biso   1.000  O 
  O43      1.0000 0.27213  0.63017  0.99888  Biso   1.000  O 
  O44      1.0000 0.76969  0.13279  0.50117  Biso   1.000  O 
  O45      1.0000 0.75812  0.12307  0.99447  Biso   1.000  O 
  O46      1.0000 0.77043  0.63168  0.50036  Biso   1.000  O 
  O47      1.0000 0.77054  0.63172  0.00018  Biso   1.000  O 
  O48      1.0000 0.23322  0.38486  0.50352  Biso   1.000  O 
  O49      1.0000 0.22865  0.38379  0.99969  Biso   1.000  O 
  O50      1.0000 0.23021  0.88349  0.49745  Biso   1.000  O 
  O51      1.0000 0.24412  0.87006  0.98884  Biso   1.000  O 
  O52      1.0000 0.73181  0.38111  0.50113  Biso   1.000  O 
  O53      1.0000 0.73126  0.38281  0.99647  Biso   1.000  O 
  O54      1.0000 0.72802  0.88005  0.50350  Biso   1.000  O 
  O55      1.0000 0.72982  0.87800  0.00022  Biso   1.000  O 
  O56      1.0000 0.21876  0.36233  0.24937  Biso   1.000  O 
  O57      1.0000 0.23337  0.37072  0.74783  Biso   1.000  O 
  O58      1.0000 0.24687  0.85126  0.25726  Biso   1.000  O 
  O59      1.0000 0.22867  0.86831  0.74460  Biso   1.000  O 
  O60      1.0000 0.72173  0.37303  0.25463  Biso   1.000  O 
  O61      1.0000 0.73078  0.36814  0.74913  Biso   1.000  O 
  O62      1.0000 0.71673  0.86180  0.25288  Biso   1.000  O 
  O63      1.0000 0.73105  0.86780  0.75079  Biso   1.000  O 
