data_image0
_cell_length_a       9.98147
_cell_length_b       10.3813
_cell_length_c       10.031
_cell_angle_alpha    90.1114
_cell_angle_beta     90.073
_cell_angle_gamma    90.0368

_symmetry_space_group_name_H-M    "P 1"
_symmetry_int_tables_number       1

loop_
  _symmetry_equiv_pos_as_xyz
  'x, y, z'

loop_
  _atom_site_label
  _atom_site_occupancy
  _atom_site_fract_x
  _atom_site_fract_y
  _atom_site_fract_z
  _atom_site_thermal_displace_type
  _atom_site_B_iso_or_equiv
  _atom_site_type_symbol
  La1      1.0000 0.11327  0.00035  0.12644  Biso   1.000  La
  Hf1      1.0000 0.13345  0.01669  0.62542  Biso   1.000  Hf
  Hf2      1.0000 0.13387  0.51684  0.12524  Biso   1.000  Hf
  Hf3      1.0000 0.13467  0.51720  0.62611  Biso   1.000  Hf
  Hf4      1.0000 0.63568  0.01618  0.12447  Biso   1.000  Hf
  Hf5      1.0000 0.63115  0.01733  0.62713  Biso   1.000  Hf
  Hf6      1.0000 0.63088  0.51287  0.12589  Biso   1.000  Hf
  Hf7      1.0000 0.63291  0.51579  0.62496  Biso   1.000  Hf
  Hf8      1.0000 0.13460  0.23336  0.37638  Biso   1.000  Hf
  Hf9      1.0000 0.13455  0.23452  0.87242  Biso   1.000  Hf
  Hf10     1.0000 0.13493  0.73343  0.37866  Biso   1.000  Hf
  Hf11     1.0000 0.13664  0.73416  0.87704  Biso   1.000  Hf
  Hf12     1.0000 0.63227  0.23324  0.37449  Biso   1.000  Hf
  Hf13     1.0000 0.63348  0.23449  0.87585  Biso   1.000  Hf
  Hf14     1.0000 0.63301  0.73297  0.37636  Biso   1.000  Hf
  Hf15     1.0000 0.63277  0.73239  0.87378  Biso   1.000  Hf
  Hf16     1.0000 0.36270  0.26288  0.12657  Biso   1.000  Hf
  Hf17     1.0000 0.36506  0.26598  0.62544  Biso   1.000  Hf
  Hf18     1.0000 0.37023  0.76342  0.12476  Biso   1.000  Hf
  Hf19     1.0000 0.36563  0.76735  0.62609  Biso   1.000  Hf
  Hf20     1.0000 0.86480  0.26983  0.12507  Biso   1.000  Hf
  Hf21     1.0000 0.86657  0.26863  0.62478  Biso   1.000  Hf
  Hf22     1.0000 0.85926  0.75691  0.12331  Biso   1.000  Hf
  Hf23     1.0000 0.86617  0.76474  0.62431  Biso   1.000  Hf
  Hf24     1.0000 0.36481  0.48254  0.37564  Biso   1.000  Hf
  Hf25     1.0000 0.36608  0.48224  0.87641  Biso   1.000  Hf
  Hf26     1.0000 0.36631  0.98370  0.37528  Biso   1.000  Hf
  Hf27     1.0000 0.36666  0.98477  0.87592  Biso   1.000  Hf
  Hf28     1.0000 0.86599  0.48321  0.37616  Biso   1.000  Hf
  Hf29     1.0000 0.86645  0.48303  0.87475  Biso   1.000  Hf
  Hf30     1.0000 0.85838  0.98494  0.38587  Biso   1.000  Hf
  Hf31     1.0000 0.86184  0.98346  0.87166  Biso   1.000  Hf
  O1       1.0000 0.02845  0.19430  0.20132  Biso   1.000  O 
  O2       1.0000 0.03961  0.18841  0.68276  Biso   1.000  O 
  O3       1.0000 0.03727  0.69776  0.19436  Biso   1.000  O 
  O4       1.0000 0.03581  0.68545  0.69588  Biso   1.000  O 
  O5       1.0000 0.53867  0.18444  0.19167  Biso   1.000  O 
  O6       1.0000 0.53504  0.18443  0.69504  Biso   1.000  O 
  O7       1.0000 0.53886  0.68291  0.19515  Biso   1.000  O 
  O8       1.0000 0.53531  0.68319  0.69427  Biso   1.000  O 
  O9       1.0000 0.03790  0.06118  0.43478  Biso   1.000  O 
  O10      1.0000 0.03082  0.07254  0.91882  Biso   1.000  O 
  O11      1.0000 0.03552  0.56671  0.44556  Biso   1.000  O 
  O12      1.0000 0.03284  0.57192  0.94667  Biso   1.000  O 
  O13      1.0000 0.53731  0.06575  0.44506  Biso   1.000  O 
  O14      1.0000 0.53856  0.06577  0.94382  Biso   1.000  O 
  O15      1.0000 0.53566  0.56562  0.44362  Biso   1.000  O 
  O16      1.0000 0.53477  0.56612  0.94591  Biso   1.000  O 
  O17      1.0000 0.46280  0.43233  0.19552  Biso   1.000  O 
  O18      1.0000 0.46405  0.43389  0.69455  Biso   1.000  O 
  O19      1.0000 0.47037  0.93200  0.19660  Biso   1.000  O 
  O20      1.0000 0.46385  0.93388  0.69579  Biso   1.000  O 
  O21      1.0000 0.96077  0.44224  0.19268  Biso   1.000  O 
  O22      1.0000 0.96469  0.43544  0.69543  Biso   1.000  O 
  O23      1.0000 0.96013  0.93444  0.68910  Biso   1.000  O 
  O24      1.0000 0.46353  0.31499  0.44429  Biso   1.000  O 
  O25      1.0000 0.46414  0.31621  0.94438  Biso   1.000  O 
  O26      1.0000 0.46573  0.81596  0.44804  Biso   1.000  O 
  O27      1.0000 0.47022  0.81756  0.94528  Biso   1.000  O 
  O28      1.0000 0.96333  0.31751  0.44458  Biso   1.000  O 
  O29      1.0000 0.96518  0.31948  0.94521  Biso   1.000  O 
  O30      1.0000 0.96213  0.81664  0.44179  Biso   1.000  O 
  O31      1.0000 0.97383  0.82804  0.96015  Biso   1.000  O 
  O32      1.0000 0.27778  0.12300  0.25461  Biso   1.000  O 
  O33      1.0000 0.27107  0.11811  0.74820  Biso   1.000  O 
  O34      1.0000 0.26814  0.61399  0.24986  Biso   1.000  O 
  O35      1.0000 0.27032  0.61859  0.75087  Biso   1.000  O 
  O36      1.0000 0.77148  0.11415  0.25037  Biso   1.000  O 
  O37      1.0000 0.76942  0.11881  0.74862  Biso   1.000  O 
  O38      1.0000 0.76828  0.61435  0.24889  Biso   1.000  O 
  O39      1.0000 0.77076  0.61690  0.74781  Biso   1.000  O 
  O40      1.0000 0.26972  0.13095  0.50142  Biso   1.000  O 
  O41      1.0000 0.27085  0.13404  0.99507  Biso   1.000  O 
  O42      1.0000 0.27124  0.63184  0.50086  Biso   1.000  O 
  O43      1.0000 0.27114  0.62946  0.00026  Biso   1.000  O 
  O44      1.0000 0.76963  0.13322  0.50098  Biso   1.000  O 
  O45      1.0000 0.77231  0.13285  0.99939  Biso   1.000  O 
  O46      1.0000 0.76983  0.63217  0.49805  Biso   1.000  O 
  O47      1.0000 0.76905  0.63071  0.99722  Biso   1.000  O 
  O48      1.0000 0.22966  0.38272  0.49997  Biso   1.000  O 
  O49      1.0000 0.22856  0.38305  0.00033  Biso   1.000  O 
  O50      1.0000 0.22918  0.88243  0.50065  Biso   1.000  O 
  O51      1.0000 0.24192  0.87263  0.99349  Biso   1.000  O 
  O52      1.0000 0.72863  0.38230  0.49901  Biso   1.000  O 
  O53      1.0000 0.72857  0.38343  0.99825  Biso   1.000  O 
  O54      1.0000 0.72560  0.88088  0.50262  Biso   1.000  O 
  O55      1.0000 0.73080  0.87935  0.00032  Biso   1.000  O 
  O56      1.0000 0.22703  0.36803  0.24942  Biso   1.000  O 
  O57      1.0000 0.23006  0.36924  0.74876  Biso   1.000  O 
  O58      1.0000 0.24422  0.85668  0.25718  Biso   1.000  O 
  O59      1.0000 0.22786  0.86957  0.74834  Biso   1.000  O 
  O60      1.0000 0.72918  0.36645  0.24960  Biso   1.000  O 
  O61      1.0000 0.72959  0.36802  0.74926  Biso   1.000  O 
  O62      1.0000 0.74113  0.86615  0.25145  Biso   1.000  O 
  O63      1.0000 0.72971  0.86615  0.74960  Biso   1.000  O 
