data_image0
_cell_length_a       10.1642
_cell_length_b       10.31
_cell_length_c       10.4609
_cell_angle_alpha    90.0415
_cell_angle_beta     80.4886
_cell_angle_gamma    90.1436

_symmetry_space_group_name_H-M    "P 1"
_symmetry_int_tables_number       1

loop_
  _symmetry_equiv_pos_as_xyz
  'x, y, z'

loop_
  _atom_site_label
  _atom_site_occupancy
  _atom_site_fract_x
  _atom_site_fract_y
  _atom_site_fract_z
  _atom_site_thermal_displace_type
  _atom_site_B_iso_or_equiv
  _atom_site_type_symbol
  La1      1.0000 0.13276  0.01179  0.14057  Biso   1.000  La
  Hf1      1.0000 0.13961  0.02129  0.64611  Biso   1.000  Hf
  Hf2      1.0000 0.13876  0.52065  0.14434  Biso   1.000  Hf
  Hf3      1.0000 0.13916  0.52116  0.64562  Biso   1.000  Hf
  Hf4      1.0000 0.64042  0.02041  0.14649  Biso   1.000  Hf
  Hf5      1.0000 0.63981  0.02229  0.64713  Biso   1.000  Hf
  Hf6      1.0000 0.63814  0.51842  0.14652  Biso   1.000  Hf
  Hf7      1.0000 0.63902  0.52084  0.64532  Biso   1.000  Hf
  Hf8      1.0000 0.13839  0.22775  0.39714  Biso   1.000  Hf
  Hf9      1.0000 0.13815  0.23250  0.89403  Biso   1.000  Hf
  Hf10     1.0000 0.13956  0.72662  0.39614  Biso   1.000  Hf
  Hf11     1.0000 0.14098  0.72802  0.89417  Biso   1.000  Hf
  Hf12     1.0000 0.63750  0.22991  0.39642  Biso   1.000  Hf
  Hf13     1.0000 0.64013  0.22891  0.89668  Biso   1.000  Hf
  Hf14     1.0000 0.63597  0.72665  0.39696  Biso   1.000  Hf
  Hf15     1.0000 0.64223  0.72878  0.89391  Biso   1.000  Hf
  Hf16     1.0000 0.36024  0.26895  0.10394  Biso   1.000  Hf
  Hf17     1.0000 0.36051  0.27059  0.60371  Biso   1.000  Hf
  Hf18     1.0000 0.36699  0.76719  0.10297  Biso   1.000  Hf
  Hf19     1.0000 0.36012  0.77156  0.60380  Biso   1.000  Hf
  Hf20     1.0000 0.85977  0.27342  0.10316  Biso   1.000  Hf
  Hf21     1.0000 0.86138  0.27209  0.60452  Biso   1.000  Hf
  Hf22     1.0000 0.85701  0.76611  0.10385  Biso   1.000  Hf
  Hf23     1.0000 0.86237  0.77161  0.60352  Biso   1.000  Hf
  Hf24     1.0000 0.35870  0.47713  0.35280  Biso   1.000  Hf
  Hf25     1.0000 0.36244  0.47803  0.85403  Biso   1.000  Hf
  Hf26     1.0000 0.36196  0.97917  0.35471  Biso   1.000  Hf
  Hf27     1.0000 0.36419  0.97857  0.85156  Biso   1.000  Hf
  Hf28     1.0000 0.86122  0.47905  0.35437  Biso   1.000  Hf
  Hf29     1.0000 0.86093  0.47926  0.85249  Biso   1.000  Hf
  Hf30     1.0000 0.85352  0.97901  0.36010  Biso   1.000  Hf
  Hf31     1.0000 0.86269  0.97863  0.85541  Biso   1.000  Hf
  O1       1.0000 0.03689  0.19232  0.07810  Biso   1.000  O 
  O2       1.0000 0.03696  0.17368  0.58627  Biso   1.000  O 
  O3       1.0000 0.03901  0.67627  0.08303  Biso   1.000  O 
  O4       1.0000 0.03644  0.67040  0.58169  Biso   1.000  O 
  O5       1.0000 0.53639  0.16814  0.07965  Biso   1.000  O 
  O6       1.0000 0.53377  0.16771  0.58032  Biso   1.000  O 
  O7       1.0000 0.53881  0.66641  0.07821  Biso   1.000  O 
  O8       1.0000 0.53360  0.66676  0.58051  Biso   1.000  O 
  O9       1.0000 0.02543  0.08153  0.34814  Biso   1.000  O 
  O10      1.0000 0.03886  0.07736  0.83478  Biso   1.000  O 
  O11      1.0000 0.03597  0.58025  0.33036  Biso   1.000  O 
  O12      1.0000 0.03660  0.57878  0.83075  Biso   1.000  O 
  O13      1.0000 0.53669  0.08040  0.33099  Biso   1.000  O 
  O14      1.0000 0.53798  0.08220  0.82861  Biso   1.000  O 
  O15      1.0000 0.53273  0.58087  0.32916  Biso   1.000  O 
  O16      1.0000 0.53612  0.58208  0.82894  Biso   1.000  O 
  O17      1.0000 0.46438  0.41626  0.17082  Biso   1.000  O 
  O18      1.0000 0.46557  0.41720  0.67030  Biso   1.000  O 
  O19      1.0000 0.46552  0.91986  0.16854  Biso   1.000  O 
  O20      1.0000 0.46659  0.91726  0.67011  Biso   1.000  O 
  O21      1.0000 0.95903  0.42729  0.16687  Biso   1.000  O 
  O22      1.0000 0.96332  0.42266  0.66684  Biso   1.000  O 
  O23      1.0000 0.93093  0.92399  0.17363  Biso   1.000  O 
  O24      1.0000 0.96443  0.92039  0.66978  Biso   1.000  O 
  O25      1.0000 0.46353  0.33106  0.42019  Biso   1.000  O 
  O26      1.0000 0.46795  0.33369  0.92068  Biso   1.000  O 
  O27      1.0000 0.46405  0.83124  0.42253  Biso   1.000  O 
  O28      1.0000 0.47530  0.83505  0.91952  Biso   1.000  O 
  O29      1.0000 0.96361  0.33195  0.42004  Biso   1.000  O 
  O30      1.0000 0.96025  0.32991  0.91255  Biso   1.000  O 
  O31      1.0000 0.96412  0.83002  0.41804  Biso   1.000  O 
  O32      1.0000 0.96651  0.83074  0.92084  Biso   1.000  O 
  O33      1.0000 0.28290  0.13490  0.24886  Biso   1.000  O 
  O34      1.0000 0.27651  0.12909  0.73828  Biso   1.000  O 
  O35      1.0000 0.27711  0.62356  0.23845  Biso   1.000  O 
  O36      1.0000 0.27681  0.62900  0.73996  Biso   1.000  O 
  O37      1.0000 0.77427  0.13205  0.24292  Biso   1.000  O 
  O38      1.0000 0.77828  0.12944  0.74164  Biso   1.000  O 
  O39      1.0000 0.77378  0.62833  0.24146  Biso   1.000  O 
  O40      1.0000 0.77685  0.62946  0.73880  Biso   1.000  O 
  O41      1.0000 0.27509  0.12009  0.49271  Biso   1.000  O 
  O42      1.0000 0.28538  0.12769  0.97935  Biso   1.000  O 
  O43      1.0000 0.27576  0.62026  0.49015  Biso   1.000  O 
  O44      1.0000 0.27697  0.61765  0.98980  Biso   1.000  O 
  O45      1.0000 0.77241  0.12267  0.49388  Biso   1.000  O 
  O46      1.0000 0.77694  0.12047  0.99143  Biso   1.000  O 
  O47      1.0000 0.77558  0.62104  0.49045  Biso   1.000  O 
  O48      1.0000 0.77690  0.61914  0.98956  Biso   1.000  O 
  O49      1.0000 0.22555  0.38002  0.00752  Biso   1.000  O 
  O50      1.0000 0.22339  0.37908  0.50899  Biso   1.000  O 
  O51      1.0000 0.24138  0.86517  0.99485  Biso   1.000  O 
  O52      1.0000 0.22341  0.87930  0.51025  Biso   1.000  O 
  O53      1.0000 0.72259  0.37971  0.00875  Biso   1.000  O 
  O54      1.0000 0.72325  0.37936  0.50954  Biso   1.000  O 
  O55      1.0000 0.72515  0.87781  0.00882  Biso   1.000  O 
  O56      1.0000 0.72308  0.87852  0.51177  Biso   1.000  O 
  O57      1.0000 0.22032  0.37110  0.25800  Biso   1.000  O 
  O58      1.0000 0.22450  0.37237  0.75791  Biso   1.000  O 
  O59      1.0000 0.23664  0.85854  0.26391  Biso   1.000  O 
  O60      1.0000 0.22414  0.87112  0.75645  Biso   1.000  O 
  O61      1.0000 0.72236  0.37221  0.26062  Biso   1.000  O 
  O62      1.0000 0.72393  0.37091  0.75851  Biso   1.000  O 
  O63      1.0000 0.71005  0.86874  0.26419  Biso   1.000  O 
  O64      1.0000 0.72673  0.87116  0.75896  Biso   1.000  O 
