data_image0
_cell_length_a       10.0093
_cell_length_b       10.4038
_cell_length_c       10.0214
_cell_angle_alpha    90.371
_cell_angle_beta     90.3868
_cell_angle_gamma    89.9417

_symmetry_space_group_name_H-M    "P 1"
_symmetry_int_tables_number       1

loop_
  _symmetry_equiv_pos_as_xyz
  'x, y, z'

loop_
  _atom_site_label
  _atom_site_occupancy
  _atom_site_fract_x
  _atom_site_fract_y
  _atom_site_fract_z
  _atom_site_thermal_displace_type
  _atom_site_B_iso_or_equiv
  _atom_site_type_symbol
  La1      1.0000 0.12543  0.00519  0.12451  Biso   1.000  La
  Hf1      1.0000 0.13184  0.01589  0.62322  Biso   1.000  Hf
  Hf2      1.0000 0.13094  0.51483  0.12280  Biso   1.000  Hf
  Hf3      1.0000 0.13362  0.51656  0.62599  Biso   1.000  Hf
  Hf4      1.0000 0.63261  0.01497  0.12631  Biso   1.000  Hf
  Hf5      1.0000 0.63410  0.01704  0.62726  Biso   1.000  Hf
  Hf6      1.0000 0.63471  0.51720  0.12503  Biso   1.000  Hf
  Hf7      1.0000 0.63293  0.51615  0.62638  Biso   1.000  Hf
  Hf8      1.0000 0.12651  0.23758  0.38006  Biso   1.000  Hf
  Hf9      1.0000 0.13552  0.23625  0.87044  Biso   1.000  Hf
  Hf10     1.0000 0.13320  0.73038  0.37638  Biso   1.000  Hf
  Hf11     1.0000 0.13577  0.73476  0.87612  Biso   1.000  Hf
  Hf12     1.0000 0.63373  0.23335  0.37663  Biso   1.000  Hf
  Hf13     1.0000 0.63772  0.23342  0.87550  Biso   1.000  Hf
  Hf14     1.0000 0.63311  0.73133  0.37894  Biso   1.000  Hf
  Hf15     1.0000 0.63631  0.73376  0.87529  Biso   1.000  Hf
  Hf16     1.0000 0.37327  0.27310  0.11628  Biso   1.000  Hf
  Hf17     1.0000 0.36702  0.26543  0.62200  Biso   1.000  Hf
  Hf18     1.0000 0.36981  0.76232  0.12260  Biso   1.000  Hf
  Hf19     1.0000 0.36444  0.76591  0.62696  Biso   1.000  Hf
  Hf20     1.0000 0.86503  0.26838  0.12771  Biso   1.000  Hf
  Hf21     1.0000 0.86560  0.26811  0.62671  Biso   1.000  Hf
  Hf22     1.0000 0.86059  0.76608  0.13000  Biso   1.000  Hf
  Hf23     1.0000 0.86705  0.76538  0.62574  Biso   1.000  Hf
  Hf24     1.0000 0.36564  0.48100  0.37482  Biso   1.000  Hf
  Hf25     1.0000 0.36738  0.48579  0.87316  Biso   1.000  Hf
  Hf26     1.0000 0.37132  0.97628  0.37943  Biso   1.000  Hf
  Hf27     1.0000 0.36924  0.98454  0.87332  Biso   1.000  Hf
  Hf28     1.0000 0.86389  0.48475  0.37739  Biso   1.000  Hf
  Hf29     1.0000 0.86688  0.48396  0.87679  Biso   1.000  Hf
  Hf30     1.0000 0.85985  0.98221  0.38082  Biso   1.000  Hf
  Hf31     1.0000 0.86536  0.98291  0.87456  Biso   1.000  Hf
  O1       1.0000 0.03136  0.19561  0.20398  Biso   1.000  O 
  O2       1.0000 0.04168  0.19002  0.68103  Biso   1.000  O 
  O3       1.0000 0.03622  0.68717  0.19357  Biso   1.000  O 
  O4       1.0000 0.03646  0.68455  0.69534  Biso   1.000  O 
  O5       1.0000 0.52980  0.18195  0.19808  Biso   1.000  O 
  O6       1.0000 0.53650  0.18437  0.69491  Biso   1.000  O 
  O7       1.0000 0.53531  0.68247  0.19756  Biso   1.000  O 
  O8       1.0000 0.53546  0.68344  0.69535  Biso   1.000  O 
  O9       1.0000 0.03469  0.06429  0.44035  Biso   1.000  O 
  O10      1.0000 0.03473  0.07386  0.91665  Biso   1.000  O 
  O11      1.0000 0.03466  0.56483  0.44654  Biso   1.000  O 
  O12      1.0000 0.03530  0.57005  0.94458  Biso   1.000  O 
  O13      1.0000 0.53826  0.06492  0.44617  Biso   1.000  O 
  O14      1.0000 0.53896  0.06841  0.94324  Biso   1.000  O 
  O15      1.0000 0.53447  0.56479  0.44543  Biso   1.000  O 
  O16      1.0000 0.53602  0.56845  0.94570  Biso   1.000  O 
  O17      1.0000 0.46671  0.43623  0.19399  Biso   1.000  O 
  O18      1.0000 0.46422  0.43333  0.69252  Biso   1.000  O 
  O19      1.0000 0.45691  0.94046  0.19135  Biso   1.000  O 
  O20      1.0000 0.46552  0.93327  0.69415  Biso   1.000  O 
  O21      1.0000 0.96251  0.43891  0.19702  Biso   1.000  O 
  O22      1.0000 0.96557  0.43474  0.69765  Biso   1.000  O 
  O23      1.0000 0.93730  0.93088  0.20416  Biso   1.000  O 
  O24      1.0000 0.96291  0.93438  0.69153  Biso   1.000  O 
  O25      1.0000 0.46459  0.31553  0.44477  Biso   1.000  O 
  O26      1.0000 0.46953  0.32116  0.94136  Biso   1.000  O 
  O27      1.0000 0.46505  0.81527  0.44826  Biso   1.000  O 
  O28      1.0000 0.47360  0.81963  0.94644  Biso   1.000  O 
  O29      1.0000 0.95985  0.31876  0.44728  Biso   1.000  O 
  O30      1.0000 0.96779  0.31957  0.94812  Biso   1.000  O 
  O31      1.0000 0.96307  0.81431  0.44584  Biso   1.000  O 
  O32      1.0000 0.97273  0.82460  0.95532  Biso   1.000  O 
  O33      1.0000 0.27261  0.11749  0.74277  Biso   1.000  O 
  O34      1.0000 0.26586  0.60725  0.24850  Biso   1.000  O 
  O35      1.0000 0.27074  0.61861  0.74899  Biso   1.000  O 
  O36      1.0000 0.76527  0.11837  0.25196  Biso   1.000  O 
  O37      1.0000 0.77207  0.11902  0.75031  Biso   1.000  O 
  O38      1.0000 0.76928  0.61843  0.25107  Biso   1.000  O 
  O39      1.0000 0.77147  0.61707  0.74937  Biso   1.000  O 
  O40      1.0000 0.27313  0.13113  0.48511  Biso   1.000  O 
  O41      1.0000 0.27702  0.13832  0.99525  Biso   1.000  O 
  O42      1.0000 0.27073  0.63168  0.49930  Biso   1.000  O 
  O43      1.0000 0.27113  0.63057  0.99874  Biso   1.000  O 
  O44      1.0000 0.76902  0.13354  0.50234  Biso   1.000  O 
  O45      1.0000 0.77297  0.13207  0.00149  Biso   1.000  O 
  O46      1.0000 0.76977  0.63111  0.50071  Biso   1.000  O 
  O47      1.0000 0.77073  0.63212  0.99930  Biso   1.000  O 
  O48      1.0000 0.22885  0.38339  0.49865  Biso   1.000  O 
  O49      1.0000 0.23201  0.38647  0.99618  Biso   1.000  O 
  O50      1.0000 0.22936  0.88169  0.50026  Biso   1.000  O 
  O51      1.0000 0.24432  0.87230  0.98904  Biso   1.000  O 
  O52      1.0000 0.72871  0.38268  0.50074  Biso   1.000  O 
  O53      1.0000 0.73115  0.38316  0.00003  Biso   1.000  O 
  O54      1.0000 0.72788  0.88024  0.50340  Biso   1.000  O 
  O55      1.0000 0.73201  0.88159  0.00139  Biso   1.000  O 
  O56      1.0000 0.23594  0.35391  0.24844  Biso   1.000  O 
  O57      1.0000 0.23263  0.36859  0.74654  Biso   1.000  O 
  O58      1.0000 0.24394  0.85204  0.25740  Biso   1.000  O 
  O59      1.0000 0.22916  0.86850  0.74675  Biso   1.000  O 
  O60      1.0000 0.72851  0.36812  0.25056  Biso   1.000  O 
  O61      1.0000 0.73037  0.36844  0.75069  Biso   1.000  O 
  O62      1.0000 0.71381  0.86664  0.25298  Biso   1.000  O 
  O63      1.0000 0.73173  0.86738  0.75098  Biso   1.000  O 
