data_image0
_cell_length_a       10.178
_cell_length_b       5.15446
_cell_length_c       10.1782
_cell_angle_alpha    90.0072
_cell_angle_beta     89.9861
_cell_angle_gamma    90.0072

_symmetry_space_group_name_H-M    "P 1"
_symmetry_int_tables_number       1

loop_
  _symmetry_equiv_pos_as_xyz
  'x, y, z'

loop_
  _atom_site_label
  _atom_site_occupancy
  _atom_site_fract_x
  _atom_site_fract_y
  _atom_site_fract_z
  _atom_site_thermal_displace_type
  _atom_site_B_iso_or_equiv
  _atom_site_type_symbol
  La1      1.0000 0.12464  0.00233  0.12463  Biso   1.000  La
  Hf1      1.0000 0.12468  0.00231  0.62466  Biso   1.000  Hf
  Hf2      1.0000 0.62465  0.00231  0.12468  Biso   1.000  Hf
  La2      1.0000 0.62463  0.00230  0.62464  Biso   1.000  La
  Hf3      1.0000 0.12464  0.50235  0.37902  Biso   1.000  Hf
  Hf4      1.0000 0.12462  0.50234  0.87028  Biso   1.000  Hf
  Hf5      1.0000 0.62465  0.50240  0.37026  Biso   1.000  Hf
  Hf6      1.0000 0.62464  0.50223  0.87904  Biso   1.000  Hf
  Hf7      1.0000 0.37902  0.50235  0.12463  Biso   1.000  Hf
  Hf8      1.0000 0.37027  0.50239  0.62465  Biso   1.000  Hf
  Hf9      1.0000 0.87028  0.50235  0.12461  Biso   1.000  Hf
  Hf10     1.0000 0.87904  0.50223  0.62464  Biso   1.000  Hf
  Hf11     1.0000 0.37465  0.00970  0.37465  Biso   1.000  Hf
  Hf12     1.0000 0.37473  0.99481  0.87473  Biso   1.000  Hf
  Hf13     1.0000 0.87473  0.99482  0.37473  Biso   1.000  Hf
  Hf14     1.0000 0.87461  0.00970  0.87461  Biso   1.000  Hf
  O1       1.0000 0.99797  0.30181  0.99797  Biso   1.000  O 
  O2       1.0000 0.01424  0.30039  0.51423  Biso   1.000  O 
  O3       1.0000 0.51422  0.30039  0.01425  Biso   1.000  O 
  O4       1.0000 0.49802  0.30184  0.49802  Biso   1.000  O 
  O5       1.0000 0.98482  0.23544  0.26434  Biso   1.000  O 
  O6       1.0000 0.99563  0.20417  0.75358  Biso   1.000  O 
  O7       1.0000 0.49563  0.20427  0.25362  Biso   1.000  O 
  O8       1.0000 0.48484  0.23544  0.76439  Biso   1.000  O 
  O9       1.0000 0.99801  0.70263  0.25125  Biso   1.000  O 
  O10      1.0000 0.01432  0.70391  0.73495  Biso   1.000  O 
  O11      1.0000 0.51427  0.70401  0.23501  Biso   1.000  O 
  O12      1.0000 0.49803  0.70264  0.75132  Biso   1.000  O 
  O13      1.0000 0.98486  0.76918  0.98485  Biso   1.000  O 
  O14      1.0000 0.99571  0.80011  0.49561  Biso   1.000  O 
  O15      1.0000 0.49563  0.80010  0.99570  Biso   1.000  O 
  O16      1.0000 0.48489  0.76914  0.48488  Biso   1.000  O 
  O17      1.0000 0.25125  0.30192  0.25124  Biso   1.000  O 
  O18      1.0000 0.23491  0.30079  0.73490  Biso   1.000  O 
  O19      1.0000 0.73491  0.30080  0.23490  Biso   1.000  O 
  O20      1.0000 0.75128  0.30180  0.75128  Biso   1.000  O 
  O21      1.0000 0.26434  0.23543  0.98481  Biso   1.000  O 
  O22      1.0000 0.25361  0.20427  0.49561  Biso   1.000  O 
  O23      1.0000 0.75357  0.20416  0.99562  Biso   1.000  O 
  O24      1.0000 0.76438  0.23544  0.48483  Biso   1.000  O 
  O25      1.0000 0.25125  0.70263  0.99801  Biso   1.000  O 
  O26      1.0000 0.23502  0.70400  0.51428  Biso   1.000  O 
  O27      1.0000 0.73495  0.70391  0.01433  Biso   1.000  O 
  O28      1.0000 0.75132  0.70264  0.49803  Biso   1.000  O 
  O29      1.0000 0.26439  0.76915  0.26439  Biso   1.000  O 
  O30      1.0000 0.25367  0.80051  0.75365  Biso   1.000  O 
  O31      1.0000 0.75364  0.80052  0.25368  Biso   1.000  O 
  O32      1.0000 0.76438  0.76908  0.76439  Biso   1.000  O 
