data_image0
_cell_length_a       5.06828
_cell_length_b       10.4725
_cell_length_c       10.178
_cell_angle_alpha    90.6411
_cell_angle_beta     90.1629
_cell_angle_gamma    89.8696

_symmetry_space_group_name_H-M    "P 1"
_symmetry_int_tables_number       1

loop_
  _symmetry_equiv_pos_as_xyz
  'x, y, z'

loop_
  _atom_site_label
  _atom_site_occupancy
  _atom_site_fract_x
  _atom_site_fract_y
  _atom_site_fract_z
  _atom_site_thermal_displace_type
  _atom_site_B_iso_or_equiv
  _atom_site_type_symbol
  La1      1.0000 0.24792  0.00475  0.11627  Biso   1.000  La
  Hf1      1.0000 0.26591  0.00995  0.62730  Biso   1.000  Hf
  Hf2      1.0000 0.26382  0.51547  0.12368  Biso   1.000  Hf
  Hf3      1.0000 0.27686  0.51709  0.62878  Biso   1.000  Hf
  Hf4      1.0000 0.26272  0.23555  0.36881  Biso   1.000  Hf
  Hf5      1.0000 0.28080  0.23782  0.87419  Biso   1.000  Hf
  Hf6      1.0000 0.25903  0.72981  0.38189  Biso   1.000  Hf
  Hf7      1.0000 0.28085  0.73103  0.87626  Biso   1.000  Hf
  Hf8      1.0000 0.72180  0.26791  0.12764  Biso   1.000  Hf
  La2      1.0000 0.74801  0.25462  0.61750  Biso   1.000  La
  Hf9      1.0000 0.72838  0.75963  0.12976  Biso   1.000  Hf
  Hf10     1.0000 0.73361  0.76386  0.62444  Biso   1.000  Hf
  Hf11     1.0000 0.72364  0.48677  0.37214  Biso   1.000  Hf
  Hf12     1.0000 0.73544  0.48348  0.87806  Biso   1.000  Hf
  Hf13     1.0000 0.71005  0.98071  0.37807  Biso   1.000  Hf
  Hf14     1.0000 0.73891  0.97984  0.87361  Biso   1.000  Hf
  O1       1.0000 0.06287  0.19714  0.19527  Biso   1.000  O 
  O2       1.0000 0.14583  0.19379  0.68575  Biso   1.000  O 
  O3       1.0000 0.06386  0.68192  0.20248  Biso   1.000  O 
  O4       1.0000 0.07489  0.68765  0.69801  Biso   1.000  O 
  O5       1.0000 0.02308  0.07754  0.45489  Biso   1.000  O 
  O6       1.0000 0.06507  0.07723  0.91602  Biso   1.000  O 
  O7       1.0000 0.05674  0.56982  0.45204  Biso   1.000  O 
  O8       1.0000 0.06864  0.57328  0.94923  Biso   1.000  O 
  O9       1.0000 0.91776  0.44118  0.18777  Biso   1.000  O 
  O10      1.0000 0.94651  0.44705  0.70529  Biso   1.000  O 
  O11      1.0000 0.87603  0.92953  0.20357  Biso   1.000  O 
  O12      1.0000 0.92376  0.93369  0.69430  Biso   1.000  O 
  O13      1.0000 0.93071  0.32841  0.41919  Biso   1.000  O 
  O14      1.0000 0.94017  0.32087  0.94359  Biso   1.000  O 
  O15      1.0000 0.93064  0.82009  0.45106  Biso   1.000  O 
  O16      1.0000 0.97412  0.82729  0.96063  Biso   1.000  O 
  O17      1.0000 0.55326  0.12858  0.25441  Biso   1.000  O 
  O18      1.0000 0.53361  0.09953  0.75331  Biso   1.000  O 
  O19      1.0000 0.52896  0.61394  0.24808  Biso   1.000  O 
  O20      1.0000 0.55009  0.61935  0.74975  Biso   1.000  O 
  O21      1.0000 0.48998  0.11703  0.49038  Biso   1.000  O 
  O22      1.0000 0.55860  0.13752  0.99275  Biso   1.000  O 
  O23      1.0000 0.53633  0.63318  0.49982  Biso   1.000  O 
  O24      1.0000 0.54119  0.62775  0.00012  Biso   1.000  O 
  O25      1.0000 0.44676  0.38862  0.49199  Biso   1.000  O 
  O26      1.0000 0.46548  0.38344  0.00188  Biso   1.000  O 
  O27      1.0000 0.45228  0.87723  0.50233  Biso   1.000  O 
  O28      1.0000 0.50068  0.86647  0.99040  Biso   1.000  O 
  O29      1.0000 0.44981  0.37123  0.24720  Biso   1.000  O 
  O30      1.0000 0.45684  0.38011  0.75714  Biso   1.000  O 
  O31      1.0000 0.45699  0.85049  0.25779  Biso   1.000  O 
  O32      1.0000 0.46312  0.86120  0.74683  Biso   1.000  O 
