data_image0
_cell_length_a       10.2587
_cell_length_b       10.4371
_cell_length_c       5.2199
_cell_angle_alpha    90.0405
_cell_angle_beta     81.5093
_cell_angle_gamma    89.7814

_symmetry_space_group_name_H-M    "P 1"
_symmetry_int_tables_number       1

loop_
  _symmetry_equiv_pos_as_xyz
  'x, y, z'

loop_
  _atom_site_label
  _atom_site_occupancy
  _atom_site_fract_x
  _atom_site_fract_y
  _atom_site_fract_z
  _atom_site_thermal_displace_type
  _atom_site_B_iso_or_equiv
  _atom_site_type_symbol
  La1      1.0000 0.12945  0.00540  0.27674  Biso   1.000  La
  Hf1      1.0000 0.13926  0.52416  0.28570  Biso   1.000  Hf
  Hf2      1.0000 0.63450  0.01683  0.29922  Biso   1.000  Hf
  Hf3      1.0000 0.63966  0.51408  0.29360  Biso   1.000  Hf
  Hf4      1.0000 0.14487  0.23357  0.76890  Biso   1.000  Hf
  Hf5      1.0000 0.14061  0.72739  0.78863  Biso   1.000  Hf
  Hf6      1.0000 0.63335  0.23059  0.80495  Biso   1.000  Hf
  Hf7      1.0000 0.63908  0.72375  0.79462  Biso   1.000  Hf
  Hf8      1.0000 0.35536  0.26935  0.20238  Biso   1.000  Hf
  Hf9      1.0000 0.36627  0.76339  0.20357  Biso   1.000  Hf
  La2      1.0000 0.87334  0.26074  0.22483  Biso   1.000  La
  Hf10     1.0000 0.85813  0.76583  0.21296  Biso   1.000  Hf
  Hf11     1.0000 0.36220  0.47947  0.69983  Biso   1.000  Hf
  Hf12     1.0000 0.36422  0.97417  0.70021  Biso   1.000  Hf
  Hf13     1.0000 0.86346  0.48307  0.70916  Biso   1.000  Hf
  Hf14     1.0000 0.85002  0.97572  0.72982  Biso   1.000  Hf
  O1       1.0000 0.08383  0.21170  0.16415  Biso   1.000  O 
  O2       1.0000 0.04585  0.69136  0.18152  Biso   1.000  O 
  O3       1.0000 0.53013  0.16818  0.16711  Biso   1.000  O 
  O4       1.0000 0.53746  0.66254  0.15924  Biso   1.000  O 
  O5       1.0000 0.02436  0.08020  0.71011  Biso   1.000  O 
  O6       1.0000 0.04145  0.57672  0.67643  Biso   1.000  O 
  O7       1.0000 0.52849  0.08198  0.66509  Biso   1.000  O 
  O8       1.0000 0.53444  0.57963  0.65850  Biso   1.000  O 
  O9       1.0000 0.46541  0.41504  0.33676  Biso   1.000  O 
  O10      1.0000 0.46392  0.91579  0.33618  Biso   1.000  O 
  O11      1.0000 0.95752  0.45461  0.32309  Biso   1.000  O 
  O12      1.0000 0.92122  0.93746  0.33660  Biso   1.000  O 
  O13      1.0000 0.46219  0.33076  0.83824  Biso   1.000  O 
  O14      1.0000 0.47271  0.83026  0.83958  Biso   1.000  O 
  O15      1.0000 0.96780  0.32758  0.78574  Biso   1.000  O 
  O16      1.0000 0.96388  0.82742  0.83544  Biso   1.000  O 
  O17      1.0000 0.27961  0.13171  0.48394  Biso   1.000  O 
  O18      1.0000 0.27788  0.62440  0.47517  Biso   1.000  O 
  O19      1.0000 0.75543  0.11989  0.51799  Biso   1.000  O 
  O20      1.0000 0.77319  0.63032  0.48700  Biso   1.000  O 
  O21      1.0000 0.28798  0.12486  0.95469  Biso   1.000  O 
  O22      1.0000 0.27626  0.62007  0.97695  Biso   1.000  O 
  O23      1.0000 0.75901  0.10894  0.99321  Biso   1.000  O 
  O24      1.0000 0.77872  0.61988  0.98706  Biso   1.000  O 
  O25      1.0000 0.22887  0.38794  0.99926  Biso   1.000  O 
  O26      1.0000 0.24276  0.86711  0.99053  Biso   1.000  O 
  O27      1.0000 0.72029  0.38231  0.01161  Biso   1.000  O 
  O28      1.0000 0.72189  0.87116  0.02812  Biso   1.000  O 
  O29      1.0000 0.22544  0.37420  0.50216  Biso   1.000  O 
  O30      1.0000 0.23502  0.85648  0.51665  Biso   1.000  O 
  O31      1.0000 0.71828  0.37631  0.53596  Biso   1.000  O 
  O32      1.0000 0.71251  0.86619  0.53308  Biso   1.000  O 
