data_image0
_cell_length_a       10.2596
_cell_length_b       5.20893
_cell_length_c       10.526
_cell_angle_alpha    90.2207
_cell_angle_beta     81.5547
_cell_angle_gamma    90.6481

_symmetry_space_group_name_H-M    "P 1"
_symmetry_int_tables_number       1

loop_
  _symmetry_equiv_pos_as_xyz
  'x, y, z'

loop_
  _atom_site_label
  _atom_site_occupancy
  _atom_site_fract_x
  _atom_site_fract_y
  _atom_site_fract_z
  _atom_site_thermal_displace_type
  _atom_site_B_iso_or_equiv
  _atom_site_type_symbol
  La1      1.0000 0.12972  0.02584  0.13756  Biso   1.000  La
  Hf1      1.0000 0.13405  0.04397  0.64950  Biso   1.000  Hf
  Hf2      1.0000 0.64684  0.03409  0.13847  Biso   1.000  Hf
  Hf3      1.0000 0.63715  0.04277  0.64699  Biso   1.000  Hf
  Hf4      1.0000 0.13022  0.46353  0.40196  Biso   1.000  Hf
  Hf5      1.0000 0.14233  0.46601  0.89205  Biso   1.000  Hf
  Hf6      1.0000 0.64017  0.46473  0.39948  Biso   1.000  Hf
  Hf7      1.0000 0.64151  0.45535  0.89316  Biso   1.000  Hf
  Hf8      1.0000 0.36940  0.53649  0.09800  Biso   1.000  Hf
  Hf9      1.0000 0.35734  0.53404  0.60791  Biso   1.000  Hf
  Hf10     1.0000 0.85940  0.53533  0.10049  Biso   1.000  Hf
  Hf11     1.0000 0.85810  0.54471  0.60679  Biso   1.000  Hf
  La2      1.0000 0.36990  0.97422  0.36237  Biso   1.000  La
  Hf12     1.0000 0.36561  0.95609  0.85045  Biso   1.000  Hf
  Hf13     1.0000 0.85272  0.96597  0.36149  Biso   1.000  Hf
  Hf14     1.0000 0.86243  0.95726  0.85299  Biso   1.000  Hf
  O1       1.0000 0.04260  0.40407  0.07959  Biso   1.000  O 
  O2       1.0000 0.02524  0.34367  0.59022  Biso   1.000  O 
  O3       1.0000 0.54189  0.33297  0.07759  Biso   1.000  O 
  O4       1.0000 0.53355  0.33532  0.58571  Biso   1.000  O 
  O5       1.0000 0.02434  0.16399  0.34810  Biso   1.000  O 
  O6       1.0000 0.03810  0.15634  0.83663  Biso   1.000  O 
  O7       1.0000 0.57227  0.14286  0.32617  Biso   1.000  O 
  O8       1.0000 0.54032  0.15266  0.82959  Biso   1.000  O 
  O9       1.0000 0.47527  0.83617  0.15178  Biso   1.000  O 
  O10      1.0000 0.46153  0.84391  0.66325  Biso   1.000  O 
  O11      1.0000 0.92731  0.85712  0.17384  Biso   1.000  O 
  O12      1.0000 0.95932  0.84719  0.67044  Biso   1.000  O 
  O13      1.0000 0.45701  0.59589  0.42031  Biso   1.000  O 
  O14      1.0000 0.47438  0.65622  0.90966  Biso   1.000  O 
  O15      1.0000 0.95771  0.66722  0.42241  Biso   1.000  O 
  O16      1.0000 0.96608  0.66492  0.91434  Biso   1.000  O 
  O17      1.0000 0.27190  0.28805  0.24461  Biso   1.000  O 
  O18      1.0000 0.27571  0.25646  0.74179  Biso   1.000  O 
  O19      1.0000 0.78622  0.26395  0.23822  Biso   1.000  O 
  O20      1.0000 0.77496  0.25983  0.74154  Biso   1.000  O 
  O21      1.0000 0.25423  0.26082  0.50642  Biso   1.000  O 
  O22      1.0000 0.28546  0.24636  0.97925  Biso   1.000  O 
  O23      1.0000 0.77080  0.24716  0.49528  Biso   1.000  O 
  O24      1.0000 0.77875  0.23641  0.98823  Biso   1.000  O 
  O25      1.0000 0.24543  0.73929  0.99355  Biso   1.000  O 
  O26      1.0000 0.21417  0.75372  0.52070  Biso   1.000  O 
  O27      1.0000 0.72877  0.75282  0.00469  Biso   1.000  O 
  O28      1.0000 0.72086  0.76359  0.51177  Biso   1.000  O 
  O29      1.0000 0.22772  0.71203  0.25536  Biso   1.000  O 
  O30      1.0000 0.22394  0.74355  0.75817  Biso   1.000  O 
  O31      1.0000 0.71333  0.73619  0.26179  Biso   1.000  O 
  O32      1.0000 0.72463  0.74037  0.75843  Biso   1.000  O 
