data_image0
_cell_length_a       5.10931
_cell_length_b       10.4849
_cell_length_c       10.4989
_cell_angle_alpha    90.3109
_cell_angle_beta     81.2701
_cell_angle_gamma    90.5051

_symmetry_space_group_name_H-M    "P 1"
_symmetry_int_tables_number       1

loop_
  _symmetry_equiv_pos_as_xyz
  'x, y, z'

loop_
  _atom_site_label
  _atom_site_occupancy
  _atom_site_fract_x
  _atom_site_fract_y
  _atom_site_fract_z
  _atom_site_thermal_displace_type
  _atom_site_B_iso_or_equiv
  _atom_site_type_symbol
  La1      1.0000 0.26818  0.01361  0.14101  Biso   1.000  La
  La2      1.0000 0.26822  0.01362  0.64105  Biso   1.000  La
  Hf1      1.0000 0.27579  0.51790  0.14476  Biso   1.000  Hf
  Hf2      1.0000 0.27579  0.51789  0.64478  Biso   1.000  Hf
  Hf3      1.0000 0.27553  0.23460  0.39572  Biso   1.000  Hf
  Hf4      1.0000 0.27550  0.23460  0.89576  Biso   1.000  Hf
  Hf5      1.0000 0.28336  0.72273  0.39486  Biso   1.000  Hf
  Hf6      1.0000 0.28332  0.72272  0.89488  Biso   1.000  Hf
  Hf7      1.0000 0.71821  0.27333  0.10339  Biso   1.000  Hf
  Hf8      1.0000 0.71819  0.27334  0.60342  Biso   1.000  Hf
  Hf9      1.0000 0.72410  0.76089  0.10305  Biso   1.000  Hf
  Hf10     1.0000 0.72413  0.76089  0.60307  Biso   1.000  Hf
  Hf11     1.0000 0.72192  0.47771  0.35187  Biso   1.000  Hf
  Hf12     1.0000 0.72193  0.47770  0.85189  Biso   1.000  Hf
  Hf13     1.0000 0.72163  0.97782  0.36039  Biso   1.000  Hf
  Hf14     1.0000 0.72164  0.97781  0.86041  Biso   1.000  Hf
  O1       1.0000 0.07548  0.19633  0.08203  Biso   1.000  O 
  O2       1.0000 0.07545  0.19632  0.58203  Biso   1.000  O 
  O3       1.0000 0.08335  0.67395  0.08393  Biso   1.000  O 
  O4       1.0000 0.08334  0.67394  0.58397  Biso   1.000  O 
  O5       1.0000 0.06803  0.07701  0.35291  Biso   1.000  O 
  O6       1.0000 0.06799  0.07702  0.85293  Biso   1.000  O 
  O7       1.0000 0.07188  0.57750  0.32998  Biso   1.000  O 
  O8       1.0000 0.07185  0.57752  0.82999  Biso   1.000  O 
  O9       1.0000 0.91778  0.42767  0.16480  Biso   1.000  O 
  O10      1.0000 0.91775  0.42768  0.66483  Biso   1.000  O 
  O11      1.0000 0.86597  0.92507  0.17203  Biso   1.000  O 
  O12      1.0000 0.86602  0.92505  0.67205  Biso   1.000  O 
  O13      1.0000 0.92358  0.33181  0.41258  Biso   1.000  O 
  O14      1.0000 0.92355  0.33179  0.91260  Biso   1.000  O 
  O15      1.0000 0.95064  0.83163  0.41999  Biso   1.000  O 
  O16      1.0000 0.95059  0.83160  0.92001  Biso   1.000  O 
  O17      1.0000 0.56345  0.13941  0.24868  Biso   1.000  O 
  O18      1.0000 0.56348  0.13942  0.74870  Biso   1.000  O 
  O19      1.0000 0.55180  0.62366  0.23841  Biso   1.000  O 
  O20      1.0000 0.55182  0.62367  0.73842  Biso   1.000  O 
  O21      1.0000 0.56393  0.12742  0.48526  Biso   1.000  O 
  O22      1.0000 0.56397  0.12744  0.98529  Biso   1.000  O 
  O23      1.0000 0.55370  0.61544  0.48953  Biso   1.000  O 
  O24      1.0000 0.55372  0.61545  0.98954  Biso   1.000  O 
  O25      1.0000 0.44848  0.38140  0.00665  Biso   1.000  O 
  O26      1.0000 0.44853  0.38141  0.50668  Biso   1.000  O 
  O27      1.0000 0.48130  0.86385  0.99945  Biso   1.000  O 
  O28      1.0000 0.48133  0.86383  0.49942  Biso   1.000  O 
  O29      1.0000 0.44135  0.37386  0.25704  Biso   1.000  O 
  O30      1.0000 0.44133  0.37386  0.75708  Biso   1.000  O 
  O31      1.0000 0.45571  0.85584  0.26392  Biso   1.000  O 
  O32      1.0000 0.45573  0.85581  0.76394  Biso   1.000  O 
