data_image0
_cell_length_a       5.14043
_cell_length_b       10.4283
_cell_length_c       10.5373
_cell_angle_alpha    90.2716
_cell_angle_beta     81.0609
_cell_angle_gamma    90.7455

_symmetry_space_group_name_H-M    "P 1"
_symmetry_int_tables_number       1

loop_
  _symmetry_equiv_pos_as_xyz
  'x, y, z'

loop_
  _atom_site_label
  _atom_site_occupancy
  _atom_site_fract_x
  _atom_site_fract_y
  _atom_site_fract_z
  _atom_site_thermal_displace_type
  _atom_site_B_iso_or_equiv
  _atom_site_type_symbol
  La1      1.0000 0.26736  0.00880  0.13976  Biso   1.000  La
  Hf1      1.0000 0.27978  0.01901  0.64657  Biso   1.000  Hf
  Hf2      1.0000 0.27975  0.51898  0.14658  Biso   1.000  Hf
  La2      1.0000 0.26733  0.50879  0.63976  Biso   1.000  La
  Hf3      1.0000 0.28536  0.22898  0.39447  Biso   1.000  Hf
  Hf4      1.0000 0.27334  0.22745  0.89728  Biso   1.000  Hf
  Hf5      1.0000 0.27327  0.72744  0.39732  Biso   1.000  Hf
  Hf6      1.0000 0.28534  0.72899  0.89449  Biso   1.000  Hf
  Hf7      1.0000 0.71716  0.27203  0.10309  Biso   1.000  Hf
  Hf8      1.0000 0.72754  0.26135  0.60328  Biso   1.000  Hf
  Hf9      1.0000 0.72747  0.76133  0.10334  Biso   1.000  Hf
  Hf10     1.0000 0.71716  0.77203  0.60311  Biso   1.000  Hf
  Hf11     1.0000 0.72881  0.47733  0.35148  Biso   1.000  Hf
  Hf12     1.0000 0.71005  0.47924  0.85938  Biso   1.000  Hf
  Hf13     1.0000 0.71009  0.97921  0.35939  Biso   1.000  Hf
  Hf14     1.0000 0.72884  0.97732  0.85147  Biso   1.000  Hf
  O1       1.0000 0.06603  0.18708  0.07691  Biso   1.000  O 
  O2       1.0000 0.08455  0.17743  0.58774  Biso   1.000  O 
  O3       1.0000 0.08450  0.67741  0.08774  Biso   1.000  O 
  O4       1.0000 0.06605  0.68709  0.57697  Biso   1.000  O 
  O5       1.0000 0.05308  0.08204  0.34693  Biso   1.000  O 
  O6       1.0000 0.07762  0.07862  0.83079  Biso   1.000  O 
  O7       1.0000 0.07762  0.57860  0.33080  Biso   1.000  O 
  O8       1.0000 0.05303  0.58206  0.84694  Biso   1.000  O 
  O9       1.0000 0.92542  0.42166  0.16964  Biso   1.000  O 
  O10      1.0000 0.85778  0.42848  0.66902  Biso   1.000  O 
  O11      1.0000 0.85784  0.92841  0.16908  Biso   1.000  O 
  O12      1.0000 0.92542  0.92168  0.66964  Biso   1.000  O 
  O13      1.0000 0.95599  0.33765  0.42294  Biso   1.000  O 
  O14      1.0000 0.93082  0.33496  0.91403  Biso   1.000  O 
  O15      1.0000 0.93071  0.83492  0.41412  Biso   1.000  O 
  O16      1.0000 0.95602  0.83767  0.92294  Biso   1.000  O 
  O17      1.0000 0.56043  0.13847  0.24843  Biso   1.000  O 
  O18      1.0000 0.55738  0.12232  0.73750  Biso   1.000  O 
  O19      1.0000 0.55736  0.62229  0.23753  Biso   1.000  O 
  O20      1.0000 0.56038  0.63845  0.74847  Biso   1.000  O 
  O21      1.0000 0.54392  0.11688  0.49380  Biso   1.000  O 
  O22      1.0000 0.56645  0.12691  0.98013  Biso   1.000  O 
  O23      1.0000 0.56637  0.62689  0.48016  Biso   1.000  O 
  O24      1.0000 0.54389  0.61687  0.99383  Biso   1.000  O 
  O25      1.0000 0.44912  0.38008  0.01059  Biso   1.000  O 
  O26      1.0000 0.48868  0.36403  0.49402  Biso   1.000  O 
  O27      1.0000 0.48867  0.86403  0.99405  Biso   1.000  O 
  O28      1.0000 0.44908  0.88009  0.51062  Biso   1.000  O 
  O29      1.0000 0.44590  0.37302  0.25635  Biso   1.000  O 
  O30      1.0000 0.45263  0.35648  0.76657  Biso   1.000  O 
  O31      1.0000 0.45256  0.85646  0.26660  Biso   1.000  O 
  O32      1.0000 0.44593  0.87302  0.75636  Biso   1.000  O 
