data_image0
_cell_length_a       5.0896
_cell_length_b       10.3286
_cell_length_c       10.1716
_cell_angle_alpha    90.0278
_cell_angle_beta     90.0046
_cell_angle_gamma    89.9786

_symmetry_space_group_name_H-M    "P 1"
_symmetry_int_tables_number       1

loop_
  _symmetry_equiv_pos_as_xyz
  'x, y, z'

loop_
  _atom_site_label
  _atom_site_occupancy
  _atom_site_fract_x
  _atom_site_fract_y
  _atom_site_fract_z
  _atom_site_thermal_displace_type
  _atom_site_B_iso_or_equiv
  _atom_site_type_symbol
  La1      1.0000 0.25453  0.00014  0.12462  Biso   1.000  La
  Hf1      1.0000 0.25467  0.00009  0.62463  Biso   1.000  Hf
  Hf2      1.0000 0.25418  0.50015  0.12465  Biso   1.000  Hf
  La2      1.0000 0.25476  0.50008  0.62463  Biso   1.000  La
  Hf3      1.0000 0.24692  0.25015  0.37466  Biso   1.000  Hf
  Hf4      1.0000 0.26181  0.25009  0.87466  Biso   1.000  Hf
  Hf5      1.0000 0.26167  0.75018  0.37471  Biso   1.000  Hf
  Hf6      1.0000 0.24696  0.75008  0.87472  Biso   1.000  Hf
  Hf7      1.0000 0.75421  0.25766  0.12463  Biso   1.000  Hf
  Hf8      1.0000 0.75456  0.24257  0.62475  Biso   1.000  Hf
  Hf9      1.0000 0.75413  0.74260  0.12476  Biso   1.000  Hf
  Hf10     1.0000 0.75457  0.75763  0.62467  Biso   1.000  Hf
  Hf11     1.0000 0.75477  0.00015  0.37690  Biso   1.000  Hf
  Hf12     1.0000 0.75471  0.00014  0.87229  Biso   1.000  Hf
  Hf13     1.0000 0.75473  0.49991  0.37227  Biso   1.000  Hf
  Hf14     1.0000 0.75464  0.50031  0.87693  Biso   1.000  Hf
  O1       1.0000 0.00860  0.15316  0.99802  Biso   1.000  O 
  O2       1.0000 0.03933  0.14520  0.51103  Biso   1.000  O 
  O3       1.0000 0.03872  0.64523  0.01091  Biso   1.000  O 
  O4       1.0000 0.00861  0.65301  0.49796  Biso   1.000  O 
  O5       1.0000 0.97497  0.11800  0.26361  Biso   1.000  O 
  O6       1.0000 0.97839  0.10080  0.74749  Biso   1.000  O 
  O7       1.0000 0.97763  0.60085  0.24738  Biso   1.000  O 
  O8       1.0000 0.97512  0.61799  0.76361  Biso   1.000  O 
  O9       1.0000 0.03867  0.35510  0.23846  Biso   1.000  O 
  O10      1.0000 0.00886  0.34719  0.75131  Biso   1.000  O 
  O11      1.0000 0.00864  0.84719  0.25124  Biso   1.000  O 
  O12      1.0000 0.03939  0.85498  0.73822  Biso   1.000  O 
  O13      1.0000 0.97779  0.39949  0.00192  Biso   1.000  O 
  O14      1.0000 0.97495  0.38225  0.48579  Biso   1.000  O 
  O15      1.0000 0.97505  0.88230  0.98560  Biso   1.000  O 
  O16      1.0000 0.97845  0.89939  0.50173  Biso   1.000  O 
  O17      1.0000 0.50034  0.15317  0.25130  Biso   1.000  O 
  O18      1.0000 0.46983  0.14529  0.73828  Biso   1.000  O 
  O19      1.0000 0.46909  0.64541  0.23808  Biso   1.000  O 
  O20      1.0000 0.50056  0.65318  0.75124  Biso   1.000  O 
  O21      1.0000 0.53406  0.11792  0.98567  Biso   1.000  O 
  O22      1.0000 0.53084  0.10062  0.50187  Biso   1.000  O 
  O23      1.0000 0.53014  0.60071  0.00171  Biso   1.000  O 
  O24      1.0000 0.53400  0.61787  0.48553  Biso   1.000  O 
  O25      1.0000 0.46924  0.35490  0.01118  Biso   1.000  O 
  O26      1.0000 0.50038  0.34694  0.49803  Biso   1.000  O 
  O27      1.0000 0.50040  0.84706  0.99803  Biso   1.000  O 
  O28      1.0000 0.46980  0.85486  0.51109  Biso   1.000  O 
  O29      1.0000 0.53009  0.39953  0.24760  Biso   1.000  O 
  O30      1.0000 0.53417  0.38224  0.76376  Biso   1.000  O 
  O31      1.0000 0.53396  0.88229  0.26375  Biso   1.000  O 
  O32      1.0000 0.53081  0.89949  0.74753  Biso   1.000  O 
