data_image0
_cell_length_a       5.07169
_cell_length_b       10.3484
_cell_length_c       10.151
_cell_angle_alpha    89.9939
_cell_angle_beta     90.0035
_cell_angle_gamma    89.9996

_symmetry_space_group_name_H-M    "P 1"
_symmetry_int_tables_number       1

loop_
  _symmetry_equiv_pos_as_xyz
  'x, y, z'

loop_
  _atom_site_label
  _atom_site_occupancy
  _atom_site_fract_x
  _atom_site_fract_y
  _atom_site_fract_z
  _atom_site_thermal_displace_type
  _atom_site_B_iso_or_equiv
  _atom_site_type_symbol
  La1      1.0000 0.24740  0.99896  0.12242  Biso   1.000  La
  Hf1      1.0000 0.24728  0.99886  0.63050  Biso   1.000  Hf
  Hf2      1.0000 0.24745  0.49897  0.12424  Biso   1.000  Hf
  Hf3      1.0000 0.24740  0.49883  0.62672  Biso   1.000  Hf
  Hf4      1.0000 0.24067  0.25620  0.38031  Biso   1.000  Hf
  Hf5      1.0000 0.25310  0.25105  0.87403  Biso   1.000  Hf
  Hf6      1.0000 0.25409  0.74150  0.38022  Biso   1.000  Hf
  Hf7      1.0000 0.24184  0.74681  0.87396  Biso   1.000  Hf
  Hf8      1.0000 0.75390  0.25642  0.12169  Biso   1.000  Hf
  Hf9      1.0000 0.74163  0.25097  0.62787  Biso   1.000  Hf
  Hf10     1.0000 0.74084  0.74149  0.12164  Biso   1.000  Hf
  Hf11     1.0000 0.75311  0.74671  0.62778  Biso   1.000  Hf
  La2      1.0000 0.74738  0.99888  0.37953  Biso   1.000  La
  Hf12     1.0000 0.74730  0.99887  0.87153  Biso   1.000  Hf
  Hf13     1.0000 0.74740  0.49887  0.37768  Biso   1.000  Hf
  Hf14     1.0000 0.74745  0.49893  0.87517  Biso   1.000  Hf
  O1       1.0000 0.00009  0.15346  0.99274  Biso   1.000  O 
  O2       1.0000 0.99499  0.15350  0.50880  Biso   1.000  O 
  O3       1.0000 0.01346  0.64147  0.00146  Biso   1.000  O 
  O4       1.0000 0.98179  0.64148  0.50006  Biso   1.000  O 
  O5       1.0000 0.99692  0.13634  0.25076  Biso   1.000  O 
  O6       1.0000 0.99668  0.09773  0.75064  Biso   1.000  O 
  O7       1.0000 0.99665  0.59856  0.25061  Biso   1.000  O 
  O8       1.0000 0.99744  0.59880  0.75077  Biso   1.000  O 
  O9       1.0000 0.99865  0.36426  0.25104  Biso   1.000  O 
  O10      1.0000 0.99768  0.35033  0.75103  Biso   1.000  O 
  O11      1.0000 0.99771  0.83560  0.25107  Biso   1.000  O 
  O12      1.0000 0.99724  0.84778  0.75112  Biso   1.000  O 
  O13      1.0000 0.98279  0.39826  0.00307  Biso   1.000  O 
  O14      1.0000 0.01123  0.39819  0.49928  Biso   1.000  O 
  O15      1.0000 0.96673  0.88340  0.99160  Biso   1.000  O 
  O16      1.0000 0.02739  0.88335  0.51078  Biso   1.000  O 
  O17      1.0000 0.49706  0.16228  0.25109  Biso   1.000  O 
  O18      1.0000 0.49710  0.14998  0.75113  Biso   1.000  O 
  O19      1.0000 0.49677  0.63354  0.25104  Biso   1.000  O 
  O20      1.0000 0.49752  0.64741  0.75108  Biso   1.000  O 
  O21      1.0000 0.52826  0.11452  0.99167  Biso   1.000  O 
  O22      1.0000 0.46735  0.11435  0.51080  Biso   1.000  O 
  O23      1.0000 0.51214  0.59967  0.00303  Biso   1.000  O 
  O24      1.0000 0.48351  0.59953  0.49917  Biso   1.000  O 
  O25      1.0000 0.48167  0.35649  0.00125  Biso   1.000  O 
  O26      1.0000 0.51294  0.35624  0.49988  Biso   1.000  O 
  O27      1.0000 0.49477  0.84442  0.99288  Biso   1.000  O 
  O28      1.0000 0.49966  0.84429  0.50894  Biso   1.000  O 
  O29      1.0000 0.49898  0.39927  0.25032  Biso   1.000  O 
  O30      1.0000 0.49805  0.39892  0.75055  Biso   1.000  O 
  O31      1.0000 0.49776  0.86145  0.25084  Biso   1.000  O 
  O32      1.0000 0.49736  0.90002  0.75091  Biso   1.000  O 
