data_image0
_cell_length_a       10.1411
_cell_length_b       5.22675
_cell_length_c       10.169
_cell_angle_alpha    89.993
_cell_angle_beta     90.0836
_cell_angle_gamma    90.4533

_symmetry_space_group_name_H-M    "P 1"
_symmetry_int_tables_number       1

loop_
  _symmetry_equiv_pos_as_xyz
  'x, y, z'

loop_
  _atom_site_label
  _atom_site_occupancy
  _atom_site_fract_x
  _atom_site_fract_y
  _atom_site_fract_z
  _atom_site_thermal_displace_type
  _atom_site_B_iso_or_equiv
  _atom_site_type_symbol
  La1      1.0000 0.11746  0.00543  0.11881  Biso   1.000  La
  Hf1      1.0000 0.13642  0.03242  0.62409  Biso   1.000  Hf
  Hf2      1.0000 0.63682  0.03216  0.12285  Biso   1.000  Hf
  Hf3      1.0000 0.63896  0.02985  0.63451  Biso   1.000  Hf
  Hf4      1.0000 0.13277  0.47564  0.38067  Biso   1.000  Hf
  Hf5      1.0000 0.13741  0.47039  0.87019  Biso   1.000  Hf
  Hf6      1.0000 0.63889  0.46582  0.38392  Biso   1.000  Hf
  Hf7      1.0000 0.63640  0.46221  0.87313  Biso   1.000  Hf
  Hf8      1.0000 0.36800  0.51672  0.11870  Biso   1.000  Hf
  Hf9      1.0000 0.36533  0.53183  0.62733  Biso   1.000  Hf
  Hf10     1.0000 0.85481  0.53593  0.12981  Biso   1.000  Hf
  Hf11     1.0000 0.87114  0.53745  0.62767  Biso   1.000  Hf
  La2      1.0000 0.37871  0.98977  0.36693  Biso   1.000  La
  Hf12     1.0000 0.37003  0.96281  0.87346  Biso   1.000  Hf
  Hf13     1.0000 0.85850  0.97312  0.38284  Biso   1.000  Hf
  Hf14     1.0000 0.86509  0.96431  0.87503  Biso   1.000  Hf
  O1       1.0000 0.02251  0.41613  0.20541  Biso   1.000  O 
  O2       1.0000 0.03985  0.37708  0.68760  Biso   1.000  O 
  O3       1.0000 0.52662  0.33767  0.20748  Biso   1.000  O 
  O4       1.0000 0.53702  0.36147  0.69591  Biso   1.000  O 
  O5       1.0000 0.03307  0.13058  0.43999  Biso   1.000  O 
  O6       1.0000 0.02539  0.16401  0.92228  Biso   1.000  O 
  O7       1.0000 0.56835  0.11807  0.45308  Biso   1.000  O 
  O8       1.0000 0.53952  0.12994  0.94241  Biso   1.000  O 
  O9       1.0000 0.46938  0.84523  0.16151  Biso   1.000  O 
  O10      1.0000 0.46757  0.86694  0.69239  Biso   1.000  O 
  O11      1.0000 0.92119  0.88842  0.19659  Biso   1.000  O 
  O12      1.0000 0.96594  0.87115  0.69752  Biso   1.000  O 
  O13      1.0000 0.46863  0.59330  0.45403  Biso   1.000  O 
  O14      1.0000 0.46936  0.62266  0.93263  Biso   1.000  O 
  O15      1.0000 0.96140  0.64374  0.44685  Biso   1.000  O 
  O16      1.0000 0.97516  0.65957  0.95793  Biso   1.000  O 
  O17      1.0000 0.25915  0.26658  0.24505  Biso   1.000  O 
  O18      1.0000 0.27210  0.23349  0.74829  Biso   1.000  O 
  O19      1.0000 0.76429  0.24591  0.25466  Biso   1.000  O 
  O20      1.0000 0.77341  0.23654  0.75229  Biso   1.000  O 
  O21      1.0000 0.25823  0.28012  0.50771  Biso   1.000  O 
  O22      1.0000 0.27420  0.25739  0.98844  Biso   1.000  O 
  O23      1.0000 0.77993  0.26805  0.50550  Biso   1.000  O 
  O24      1.0000 0.76948  0.26429  0.00135  Biso   1.000  O 
  O25      1.0000 0.22201  0.75975  0.50446  Biso   1.000  O 
  O26      1.0000 0.24310  0.73974  0.98858  Biso   1.000  O 
  O27      1.0000 0.73233  0.76003  0.50704  Biso   1.000  O 
  O28      1.0000 0.72875  0.75980  0.99861  Biso   1.000  O 
  O29      1.0000 0.24030  0.70709  0.24937  Biso   1.000  O 
  O30      1.0000 0.23264  0.74123  0.74706  Biso   1.000  O 
  O31      1.0000 0.71230  0.73742  0.25402  Biso   1.000  O 
  O32      1.0000 0.73461  0.73185  0.75204  Biso   1.000  O 
