data_image0
_cell_length_a       10.1597
_cell_length_b       10.4577
_cell_length_c       5.09434
_cell_angle_alpha    90.7257
_cell_angle_beta     90.963
_cell_angle_gamma    90.0767

_symmetry_space_group_name_H-M    "P 1"
_symmetry_int_tables_number       1

loop_
  _symmetry_equiv_pos_as_xyz
  'x, y, z'

loop_
  _atom_site_label
  _atom_site_occupancy
  _atom_site_fract_x
  _atom_site_fract_y
  _atom_site_fract_z
  _atom_site_thermal_displace_type
  _atom_site_B_iso_or_equiv
  _atom_site_type_symbol
  La1      1.0000 0.11981  0.00338  0.24022  Biso   1.000  La
  Hf1      1.0000 0.13351  0.51616  0.25081  Biso   1.000  Hf
  Hf2      1.0000 0.63352  0.01613  0.25079  Biso   1.000  Hf
  La2      1.0000 0.61981  0.50335  0.24025  Biso   1.000  La
  Hf3      1.0000 0.13486  0.23465  0.74799  Biso   1.000  Hf
  Hf4      1.0000 0.13731  0.73177  0.75221  Biso   1.000  Hf
  Hf5      1.0000 0.63736  0.23174  0.75221  Biso   1.000  Hf
  Hf6      1.0000 0.63486  0.73460  0.74801  Biso   1.000  Hf
  Hf7      1.0000 0.36106  0.26011  0.25499  Biso   1.000  Hf
  Hf8      1.0000 0.36663  0.76741  0.24575  Biso   1.000  Hf
  Hf9      1.0000 0.86663  0.26741  0.24577  Biso   1.000  Hf
  Hf10     1.0000 0.86103  0.76005  0.25507  Biso   1.000  Hf
  Hf11     1.0000 0.35683  0.47958  0.75559  Biso   1.000  Hf
  Hf12     1.0000 0.36954  0.98500  0.74680  Biso   1.000  Hf
  Hf13     1.0000 0.86958  0.48496  0.74686  Biso   1.000  Hf
  Hf14     1.0000 0.85684  0.97955  0.75556  Biso   1.000  Hf
  O1       1.0000 0.03219  0.19898  0.39382  Biso   1.000  O 
  O2       1.0000 0.03786  0.68576  0.39099  Biso   1.000  O 
  O3       1.0000 0.53789  0.18577  0.39102  Biso   1.000  O 
  O4       1.0000 0.53218  0.69894  0.39385  Biso   1.000  O 
  O5       1.0000 0.02559  0.07500  0.83587  Biso   1.000  O 
  O6       1.0000 0.03684  0.56968  0.89111  Biso   1.000  O 
  O7       1.0000 0.53686  0.06965  0.89108  Biso   1.000  O 
  O8       1.0000 0.52554  0.57501  0.83595  Biso   1.000  O 
  O9       1.0000 0.44082  0.42078  0.41959  Biso   1.000  O 
  O10      1.0000 0.46319  0.94138  0.38873  Biso   1.000  O 
  O11      1.0000 0.96315  0.44138  0.38878  Biso   1.000  O 
  O12      1.0000 0.94083  0.92075  0.41957  Biso   1.000  O 
  O13      1.0000 0.47754  0.32521  0.92053  Biso   1.000  O 
  O14      1.0000 0.47625  0.82470  0.90405  Biso   1.000  O 
  O15      1.0000 0.97623  0.32469  0.90404  Biso   1.000  O 
  O16      1.0000 0.97753  0.82519  0.92058  Biso   1.000  O 
  O17      1.0000 0.28038  0.12576  0.50708  Biso   1.000  O 
  O18      1.0000 0.26679  0.61273  0.50286  Biso   1.000  O 
  O19      1.0000 0.76679  0.11269  0.50292  Biso   1.000  O 
  O20      1.0000 0.78030  0.62571  0.50715  Biso   1.000  O 
  O21      1.0000 0.27324  0.13297  0.98419  Biso   1.000  O 
  O22      1.0000 0.26976  0.63014  0.00540  Biso   1.000  O 
  O23      1.0000 0.76983  0.13012  0.00541  Biso   1.000  O 
  O24      1.0000 0.77319  0.63294  0.98426  Biso   1.000  O 
  O25      1.0000 0.23274  0.37973  0.00657  Biso   1.000  O 
  O26      1.0000 0.24486  0.87342  0.97781  Biso   1.000  O 
  O27      1.0000 0.74488  0.37340  0.97782  Biso   1.000  O 
  O28      1.0000 0.73274  0.87972  0.00655  Biso   1.000  O 
  O29      1.0000 0.21692  0.36862  0.50097  Biso   1.000  O 
  O30      1.0000 0.24348  0.85598  0.50616  Biso   1.000  O 
  O31      1.0000 0.74351  0.35595  0.50620  Biso   1.000  O 
  O32      1.0000 0.71696  0.86860  0.50092  Biso   1.000  O 
