data_image0
_cell_length_a       10.2812
_cell_length_b       5.21353
_cell_length_c       10.4711
_cell_angle_alpha    90.006
_cell_angle_beta     81.2544
_cell_angle_gamma    90.022

_symmetry_space_group_name_H-M    "P 1"
_symmetry_int_tables_number       1

loop_
  _symmetry_equiv_pos_as_xyz
  'x, y, z'

loop_
  _atom_site_label
  _atom_site_occupancy
  _atom_site_fract_x
  _atom_site_fract_y
  _atom_site_fract_z
  _atom_site_thermal_displace_type
  _atom_site_B_iso_or_equiv
  _atom_site_type_symbol
  La1      1.0000 0.12925  0.02010  0.13834  Biso   1.000  La
  Hf1      1.0000 0.13480  0.02906  0.64646  Biso   1.000  Hf
  Hf2      1.0000 0.63678  0.03816  0.14582  Biso   1.000  Hf
  Hf3      1.0000 0.64532  0.03430  0.64832  Biso   1.000  Hf
  Hf4      1.0000 0.14065  0.45095  0.39801  Biso   1.000  Hf
  Hf5      1.0000 0.13564  0.46416  0.89529  Biso   1.000  Hf
  Hf6      1.0000 0.64323  0.45589  0.39047  Biso   1.000  Hf
  Hf7      1.0000 0.64125  0.45847  0.89401  Biso   1.000  Hf
  Hf8      1.0000 0.36532  0.52904  0.10344  Biso   1.000  Hf
  La2      1.0000 0.37088  0.52027  0.61156  Biso   1.000  La
  Hf9      1.0000 0.85481  0.53431  0.10144  Biso   1.000  Hf
  Hf10     1.0000 0.86336  0.53817  0.60401  Biso   1.000  Hf
  Hf11     1.0000 0.35940  0.95102  0.35187  Biso   1.000  Hf
  Hf12     1.0000 0.36439  0.96419  0.85461  Biso   1.000  Hf
  Hf13     1.0000 0.85680  0.95593  0.35940  Biso   1.000  Hf
  Hf14     1.0000 0.85876  0.95848  0.85582  Biso   1.000  Hf
  O1       1.0000 0.03905  0.40581  0.08566  Biso   1.000  O 
  O2       1.0000 0.03684  0.34607  0.58817  Biso   1.000  O 
  O3       1.0000 0.54089  0.34422  0.08094  Biso   1.000  O 
  O4       1.0000 0.57536  0.36352  0.58150  Biso   1.000  O 
  O5       1.0000 0.02540  0.16192  0.34463  Biso   1.000  O 
  O6       1.0000 0.02818  0.15639  0.84110  Biso   1.000  O 
  O7       1.0000 0.53540  0.15900  0.33254  Biso   1.000  O 
  O8       1.0000 0.54231  0.15538  0.83530  Biso   1.000  O 
  O9       1.0000 0.46324  0.84608  0.16165  Biso   1.000  O 
  O10      1.0000 0.46096  0.90595  0.66412  Biso   1.000  O 
  O11      1.0000 0.92461  0.86355  0.16839  Biso   1.000  O 
  O12      1.0000 0.95917  0.84424  0.66888  Biso   1.000  O 
  O13      1.0000 0.47468  0.66184  0.40519  Biso   1.000  O 
  O14      1.0000 0.47190  0.65622  0.90859  Biso   1.000  O 
  O15      1.0000 0.96469  0.65910  0.41730  Biso   1.000  O 
  O16      1.0000 0.95785  0.65566  0.91456  Biso   1.000  O 
  O17      1.0000 0.28156  0.25586  0.24595  Biso   1.000  O 
  O18      1.0000 0.25639  0.23516  0.75346  Biso   1.000  O 
  O19      1.0000 0.77213  0.26239  0.24141  Biso   1.000  O 
  O20      1.0000 0.77853  0.25817  0.74174  Biso   1.000  O 
  O21      1.0000 0.26454  0.21532  0.48959  Biso   1.000  O 
  O22      1.0000 0.28467  0.24868  0.98447  Biso   1.000  O 
  O23      1.0000 0.78504  0.24279  0.48856  Biso   1.000  O 
  O24      1.0000 0.77394  0.23726  0.99221  Biso   1.000  O 
  O25      1.0000 0.24377  0.73509  0.99644  Biso   1.000  O 
  O26      1.0000 0.21856  0.75595  0.50393  Biso   1.000  O 
  O27      1.0000 0.72156  0.75817  0.00810  Biso   1.000  O 
  O28      1.0000 0.72799  0.76220  0.50845  Biso   1.000  O 
  O29      1.0000 0.23555  0.71519  0.26027  Biso   1.000  O 
  O30      1.0000 0.21536  0.74884  0.76544  Biso   1.000  O 
  O31      1.0000 0.71492  0.74294  0.26132  Biso   1.000  O 
  O32      1.0000 0.72611  0.73738  0.75758  Biso   1.000  O 
