data_image0
_cell_length_a       5.14655
_cell_length_b       10.3456
_cell_length_c       10.7089
_cell_angle_alpha    90.271
_cell_angle_beta     81.5112
_cell_angle_gamma    90.9745

_symmetry_space_group_name_H-M    "P 1"
_symmetry_int_tables_number       1

loop_
  _symmetry_equiv_pos_as_xyz
  'x, y, z'

loop_
  _atom_site_label
  _atom_site_occupancy
  _atom_site_fract_x
  _atom_site_fract_y
  _atom_site_fract_z
  _atom_site_thermal_displace_type
  _atom_site_B_iso_or_equiv
  _atom_site_type_symbol
  La1      1.0000 0.26587  0.00845  0.14045  Biso   1.000  La
  Hf1      1.0000 0.27465  0.02365  0.65064  Biso   1.000  Hf
  Hf2      1.0000 0.29745  0.51843  0.13587  Biso   1.000  Hf
  Hf3      1.0000 0.26817  0.52030  0.64702  Biso   1.000  Hf
  Hf4      1.0000 0.27992  0.22943  0.39838  Biso   1.000  Hf
  Hf5      1.0000 0.27969  0.23331  0.89496  Biso   1.000  Hf
  Hf6      1.0000 0.24852  0.73885  0.41244  Biso   1.000  Hf
  Hf7      1.0000 0.29378  0.72727  0.88959  Biso   1.000  Hf
  Hf8      1.0000 0.72010  0.27054  0.10214  Biso   1.000  Hf
  Hf9      1.0000 0.72043  0.26665  0.60555  Biso   1.000  Hf
  Hf10     1.0000 0.75163  0.76106  0.08802  Biso   1.000  Hf
  Hf11     1.0000 0.70640  0.77269  0.61094  Biso   1.000  Hf
  La2      1.0000 0.73399  0.49151  0.36001  Biso   1.000  La
  Hf12     1.0000 0.72545  0.47629  0.84989  Biso   1.000  Hf
  Hf13     1.0000 0.70255  0.98156  0.36469  Biso   1.000  Hf
  Hf14     1.0000 0.73195  0.97967  0.85351  Biso   1.000  Hf
  O1       1.0000 0.06800  0.18306  0.07053  Biso   1.000  O 
  O2       1.0000 0.06368  0.16312  0.58563  Biso   1.000  O 
  O3       1.0000 0.09397  0.66653  0.06738  Biso   1.000  O 
  O4       1.0000 0.02729  0.65494  0.57735  Biso   1.000  O 
  O5       1.0000 0.05660  0.08109  0.34455  Biso   1.000  O 
  O6       1.0000 0.07545  0.08560  0.82889  Biso   1.000  O 
  O7       1.0000 0.13688  0.59050  0.31472  Biso   1.000  O 
  O8       1.0000 0.06517  0.58721  0.82171  Biso   1.000  O 
  O9       1.0000 0.94334  0.41900  0.15589  Biso   1.000  O 
  O10      1.0000 0.92464  0.41438  0.67162  Biso   1.000  O 
  O11      1.0000 0.86280  0.90939  0.18588  Biso   1.000  O 
  O12      1.0000 0.93492  0.91276  0.67886  Biso   1.000  O 
  O13      1.0000 0.93205  0.31696  0.43001  Biso   1.000  O 
  O14      1.0000 0.93649  0.33683  0.91485  Biso   1.000  O 
  O15      1.0000 0.90614  0.83347  0.43314  Biso   1.000  O 
  O16      1.0000 0.97295  0.84506  0.92319  Biso   1.000  O 
  O17      1.0000 0.56880  0.13453  0.25006  Biso   1.000  O 
  O18      1.0000 0.55488  0.12778  0.74043  Biso   1.000  O 
  O19      1.0000 0.57584  0.63236  0.21595  Biso   1.000  O 
  O20      1.0000 0.54633  0.62786  0.74054  Biso   1.000  O 
  O21      1.0000 0.53820  0.12180  0.49643  Biso   1.000  O 
  O22      1.0000 0.56735  0.12649  0.97994  Biso   1.000  O 
  O23      1.0000 0.50435  0.63545  0.50679  Biso   1.000  O 
  O24      1.0000 0.56070  0.61526  0.97927  Biso   1.000  O 
  O25      1.0000 0.46183  0.37820  0.00408  Biso   1.000  O 
  O26      1.0000 0.43274  0.37350  0.52059  Biso   1.000  O 
  O27      1.0000 0.49577  0.86452  0.99375  Biso   1.000  O 
  O28      1.0000 0.43943  0.88468  0.52132  Biso   1.000  O 
  O29      1.0000 0.43119  0.36551  0.25042  Biso   1.000  O 
  O30      1.0000 0.44533  0.37212  0.76006  Biso   1.000  O 
  O31      1.0000 0.42353  0.86802  0.28485  Biso   1.000  O 
  O32      1.0000 0.45380  0.87207  0.75999  Biso   1.000  O 
