data_image0
_cell_length_a       5.06267
_cell_length_b       10.4549
_cell_length_c       10.1893
_cell_angle_alpha    90.7474
_cell_angle_beta     89.7954
_cell_angle_gamma    90.1793

_symmetry_space_group_name_H-M    "P 1"
_symmetry_int_tables_number       1

loop_
  _symmetry_equiv_pos_as_xyz
  'x, y, z'

loop_
  _atom_site_label
  _atom_site_occupancy
  _atom_site_fract_x
  _atom_site_fract_y
  _atom_site_fract_z
  _atom_site_thermal_displace_type
  _atom_site_B_iso_or_equiv
  _atom_site_type_symbol
  La1      1.0000 0.24907  0.99376  0.12177  Biso   1.000  La
  Hf1      1.0000 0.26580  0.01539  0.62349  Biso   1.000  Hf
  Hf2      1.0000 0.27493  0.51434  0.12817  Biso   1.000  Hf
  Hf3      1.0000 0.26740  0.51618  0.62442  Biso   1.000  Hf
  Hf4      1.0000 0.27686  0.23418  0.38159  Biso   1.000  Hf
  Hf5      1.0000 0.26122  0.23641  0.86399  Biso   1.000  Hf
  Hf6      1.0000 0.27029  0.72820  0.38281  Biso   1.000  Hf
  Hf7      1.0000 0.27286  0.73036  0.87542  Biso   1.000  Hf
  La2      1.0000 0.73942  0.25314  0.11768  Biso   1.000  La
  Hf8      1.0000 0.73544  0.26922  0.62444  Biso   1.000  Hf
  Hf9      1.0000 0.73874  0.75437  0.12482  Biso   1.000  Hf
  Hf10     1.0000 0.73519  0.76473  0.62535  Biso   1.000  Hf
  Hf11     1.0000 0.73111  0.48146  0.37624  Biso   1.000  Hf
  Hf12     1.0000 0.72663  0.48676  0.87167  Biso   1.000  Hf
  Hf13     1.0000 0.72868  0.98121  0.38626  Biso   1.000  Hf
  Hf14     1.0000 0.72690  0.98112  0.86847  Biso   1.000  Hf
  O1       1.0000 0.11420  0.19202  0.20648  Biso   1.000  O 
  O2       1.0000 0.07509  0.18526  0.68550  Biso   1.000  O 
  O3       1.0000 0.08572  0.69250  0.19973  Biso   1.000  O 
  O4       1.0000 0.06586  0.68314  0.69924  Biso   1.000  O 
  O5       1.0000 0.07134  0.06301  0.44677  Biso   1.000  O 
  O6       1.0000 0.01318  0.09367  0.93933  Biso   1.000  O 
  O7       1.0000 0.07309  0.56562  0.44835  Biso   1.000  O 
  O8       1.0000 0.05289  0.57795  0.95228  Biso   1.000  O 
  O9       1.0000 0.93829  0.44845  0.20219  Biso   1.000  O 
  O10      1.0000 0.92631  0.43882  0.68737  Biso   1.000  O 
  O11      1.0000 0.85874  0.93732  0.19757  Biso   1.000  O 
  O12      1.0000 0.92972  0.93212  0.69522  Biso   1.000  O 
  O13      1.0000 0.92693  0.31526  0.44396  Biso   1.000  O 
  O14      1.0000 0.93599  0.33247  0.91919  Biso   1.000  O 
  O15      1.0000 0.93687  0.81457  0.45117  Biso   1.000  O 
  O16      1.0000 0.97796  0.83475  0.95897  Biso   1.000  O 
  O17      1.0000 0.53758  0.11105  0.27257  Biso   1.000  O 
  O18      1.0000 0.54119  0.11823  0.74282  Biso   1.000  O 
  O19      1.0000 0.54635  0.61241  0.24931  Biso   1.000  O 
  O20      1.0000 0.53706  0.61908  0.74748  Biso   1.000  O 
  O21      1.0000 0.54090  0.13063  0.50719  Biso   1.000  O 
  O22      1.0000 0.50020  0.11877  0.97596  Biso   1.000  O 
  O23      1.0000 0.54328  0.63111  0.50036  Biso   1.000  O 
  O24      1.0000 0.53669  0.62783  0.99890  Biso   1.000  O 
  O25      1.0000 0.46525  0.38236  0.50304  Biso   1.000  O 
  O26      1.0000 0.44285  0.38723  0.99080  Biso   1.000  O 
  O27      1.0000 0.45987  0.87993  0.50243  Biso   1.000  O 
  O28      1.0000 0.50462  0.86245  0.98895  Biso   1.000  O 
  O29      1.0000 0.44688  0.37680  0.25898  Biso   1.000  O 
  O30      1.0000 0.46004  0.37056  0.74512  Biso   1.000  O 
  O31      1.0000 0.48341  0.84464  0.25844  Biso   1.000  O 
  O32      1.0000 0.45620  0.86696  0.74608  Biso   1.000  O 
