data_image0
_cell_length_a       10.1183
_cell_length_b       10.498
_cell_length_c       5.04722
_cell_angle_alpha    89.998
_cell_angle_beta     89.9959
_cell_angle_gamma    90.1736

_symmetry_space_group_name_H-M    "P 1"
_symmetry_int_tables_number       1

loop_
  _symmetry_equiv_pos_as_xyz
  'x, y, z'

loop_
  _atom_site_label
  _atom_site_occupancy
  _atom_site_fract_x
  _atom_site_fract_y
  _atom_site_fract_z
  _atom_site_thermal_displace_type
  _atom_site_B_iso_or_equiv
  _atom_site_type_symbol
  La1      1.0000 0.13043  0.00937  0.26357  Biso   1.000  La
  Hf1      1.0000 0.13272  0.51623  0.25541  Biso   1.000  Hf
  Hf2      1.0000 0.63152  0.01664  0.25339  Biso   1.000  Hf
  Hf3      1.0000 0.63287  0.51605  0.25675  Biso   1.000  Hf
  Hf4      1.0000 0.13767  0.24105  0.74747  Biso   1.000  Hf
  Hf5      1.0000 0.14167  0.72693  0.75844  Biso   1.000  Hf
  Hf6      1.0000 0.62910  0.23717  0.75222  Biso   1.000  Hf
  Hf7      1.0000 0.63299  0.73001  0.75574  Biso   1.000  Hf
  Hf8      1.0000 0.36622  0.26958  0.25572  Biso   1.000  Hf
  Hf9      1.0000 0.37006  0.76243  0.25219  Biso   1.000  Hf
  Hf10     1.0000 0.85749  0.27267  0.25839  Biso   1.000  Hf
  Hf11     1.0000 0.86154  0.75853  0.24748  Biso   1.000  Hf
  Hf12     1.0000 0.36631  0.48356  0.75673  Biso   1.000  Hf
  Hf13     1.0000 0.36770  0.98294  0.75335  Biso   1.000  Hf
  Hf14     1.0000 0.86650  0.48336  0.75542  Biso   1.000  Hf
  La2      1.0000 0.86875  0.99023  0.76355  Biso   1.000  La
  O1       1.0000 0.02638  0.20164  0.39988  Biso   1.000  O 
  O2       1.0000 0.03688  0.68978  0.39378  Biso   1.000  O 
  O3       1.0000 0.53059  0.18337  0.39301  Biso   1.000  O 
  O4       1.0000 0.53541  0.68012  0.39567  Biso   1.000  O 
  O5       1.0000 0.08009  0.05456  0.79184  Biso   1.000  O 
  O6       1.0000 0.03835  0.55873  0.89233  Biso   1.000  O 
  O7       1.0000 0.53560  0.06502  0.88900  Biso   1.000  O 
  O8       1.0000 0.53276  0.56646  0.90016  Biso   1.000  O 
  O9       1.0000 0.46645  0.43312  0.40021  Biso   1.000  O 
  O10      1.0000 0.46358  0.93459  0.38895  Biso   1.000  O 
  O11      1.0000 0.96086  0.44085  0.39232  Biso   1.000  O 
  O12      1.0000 0.91908  0.94501  0.29191  Biso   1.000  O 
  O13      1.0000 0.46375  0.31948  0.89561  Biso   1.000  O 
  O14      1.0000 0.46862  0.81624  0.89302  Biso   1.000  O 
  O15      1.0000 0.96231  0.30981  0.89372  Biso   1.000  O 
  O16      1.0000 0.97280  0.79799  0.89996  Biso   1.000  O 
  O17      1.0000 0.28591  0.13050  0.51250  Biso   1.000  O 
  O18      1.0000 0.26925  0.61183  0.50200  Biso   1.000  O 
  O19      1.0000 0.75640  0.13076  0.49480  Biso   1.000  O 
  O20      1.0000 0.76899  0.61504  0.50360  Biso   1.000  O 
  O21      1.0000 0.27844  0.13816  0.99905  Biso   1.000  O 
  O22      1.0000 0.27241  0.62706  0.00675  Biso   1.000  O 
  O23      1.0000 0.75399  0.14571  0.01537  Biso   1.000  O 
  O24      1.0000 0.76963  0.62878  0.99914  Biso   1.000  O 
  O25      1.0000 0.23018  0.38454  0.00359  Biso   1.000  O 
  O26      1.0000 0.24278  0.86887  0.99480  Biso   1.000  O 
  O27      1.0000 0.72993  0.38779  0.00199  Biso   1.000  O 
  O28      1.0000 0.71327  0.86907  0.01256  Biso   1.000  O 
  O29      1.0000 0.22956  0.37080  0.49912  Biso   1.000  O 
  O30      1.0000 0.24518  0.85388  0.51541  Biso   1.000  O 
  O31      1.0000 0.72676  0.37255  0.50675  Biso   1.000  O 
  O32      1.0000 0.72074  0.86146  0.49906  Biso   1.000  O 
