data_image0
_cell_length_a       10.2849
_cell_length_b       10.4383
_cell_length_c       5.27341
_cell_angle_alpha    90.2539
_cell_angle_beta     81.0678
_cell_angle_gamma    90.7424

_symmetry_space_group_name_H-M    "P 1"
_symmetry_int_tables_number       1

loop_
  _symmetry_equiv_pos_as_xyz
  'x, y, z'

loop_
  _atom_site_label
  _atom_site_occupancy
  _atom_site_fract_x
  _atom_site_fract_y
  _atom_site_fract_z
  _atom_site_thermal_displace_type
  _atom_site_B_iso_or_equiv
  _atom_site_type_symbol
  La1      1.0000 0.13143  0.01567  0.28252  Biso   1.000  La
  Hf1      1.0000 0.13511  0.52146  0.29506  Biso   1.000  Hf
  Hf2      1.0000 0.64032  0.02057  0.29810  Biso   1.000  Hf
  Hf3      1.0000 0.64366  0.51944  0.27244  Biso   1.000  Hf
  Hf4      1.0000 0.13721  0.23536  0.79107  Biso   1.000  Hf
  Hf5      1.0000 0.13725  0.72982  0.79208  Biso   1.000  Hf
  Hf6      1.0000 0.64195  0.22579  0.79388  Biso   1.000  Hf
  Hf7      1.0000 0.64071  0.73300  0.79353  Biso   1.000  Hf
  Hf8      1.0000 0.36277  0.26463  0.20902  Biso   1.000  Hf
  Hf9      1.0000 0.36278  0.77020  0.20793  Biso   1.000  Hf
  Hf10     1.0000 0.85800  0.27418  0.20615  Biso   1.000  Hf
  Hf11     1.0000 0.85928  0.76703  0.20636  Biso   1.000  Hf
  La2      1.0000 0.36857  0.48432  0.71755  Biso   1.000  La
  Hf12     1.0000 0.36488  0.97859  0.70503  Biso   1.000  Hf
  Hf13     1.0000 0.85968  0.47940  0.70186  Biso   1.000  Hf
  Hf14     1.0000 0.85634  0.98059  0.72747  Biso   1.000  Hf
  O1       1.0000 0.03428  0.19564  0.16198  Biso   1.000  O 
  O2       1.0000 0.02992  0.67089  0.16152  Biso   1.000  O 
  O3       1.0000 0.53895  0.16512  0.16993  Biso   1.000  O 
  O4       1.0000 0.53299  0.66331  0.14853  Biso   1.000  O 
  O5       1.0000 0.02750  0.08339  0.70167  Biso   1.000  O 
  O6       1.0000 0.03276  0.58190  0.66033  Biso   1.000  O 
  O7       1.0000 0.54381  0.07260  0.66609  Biso   1.000  O 
  O8       1.0000 0.56320  0.58356  0.63322  Biso   1.000  O 
  O9       1.0000 0.47254  0.41653  0.29847  Biso   1.000  O 
  O10      1.0000 0.46729  0.91808  0.33970  Biso   1.000  O 
  O11      1.0000 0.95616  0.42740  0.33391  Biso   1.000  O 
  O12      1.0000 0.93671  0.91659  0.36651  Biso   1.000  O 
  O13      1.0000 0.46574  0.30440  0.83815  Biso   1.000  O 
  O14      1.0000 0.47010  0.82919  0.83859  Biso   1.000  O 
  O15      1.0000 0.96105  0.33484  0.83004  Biso   1.000  O 
  O16      1.0000 0.96696  0.83657  0.85122  Biso   1.000  O 
  O17      1.0000 0.28526  0.13313  0.49601  Biso   1.000  O 
  O18      1.0000 0.26512  0.63558  0.47583  Biso   1.000  O 
  O19      1.0000 0.77799  0.13023  0.48660  Biso   1.000  O 
  O20      1.0000 0.78454  0.62890  0.46921  Biso   1.000  O 
  O21      1.0000 0.28133  0.12594  0.96631  Biso   1.000  O 
  O22      1.0000 0.25917  0.62918  0.00309  Biso   1.000  O 
  O23      1.0000 0.77444  0.12134  0.99066  Biso   1.000  O 
  O24      1.0000 0.77413  0.62097  0.97365  Biso   1.000  O 
  O25      1.0000 0.21870  0.37402  0.03378  Biso   1.000  O 
  O26      1.0000 0.24082  0.87080  0.99700  Biso   1.000  O 
  O27      1.0000 0.72559  0.37869  0.00931  Biso   1.000  O 
  O28      1.0000 0.72583  0.87909  0.02624  Biso   1.000  O 
  O29      1.0000 0.21477  0.36689  0.50409  Biso   1.000  O 
  O30      1.0000 0.23490  0.86445  0.52420  Biso   1.000  O 
  O31      1.0000 0.72203  0.36971  0.51347  Biso   1.000  O 
  O32      1.0000 0.71544  0.87105  0.53062  Biso   1.000  O 
