data_image0
_cell_length_a       5.07242
_cell_length_b       10.3286
_cell_length_c       10.1834
_cell_angle_alpha    89.9939
_cell_angle_beta     89.9976
_cell_angle_gamma    90.0026

_symmetry_space_group_name_H-M    "P 1"
_symmetry_int_tables_number       1

loop_
  _symmetry_equiv_pos_as_xyz
  'x, y, z'

loop_
  _atom_site_label
  _atom_site_occupancy
  _atom_site_fract_x
  _atom_site_fract_y
  _atom_site_fract_z
  _atom_site_thermal_displace_type
  _atom_site_B_iso_or_equiv
  _atom_site_type_symbol
  La1      1.0000 0.25513  0.00028  0.12547  Biso   1.000  La
  Hf1      1.0000 0.25514  0.00024  0.62547  Biso   1.000  Hf
  La2      1.0000 0.25520  0.50025  0.12547  Biso   1.000  La
  Hf2      1.0000 0.25490  0.50029  0.62547  Biso   1.000  Hf
  Hf3      1.0000 0.25518  0.25024  0.38039  Biso   1.000  Hf
  Hf4      1.0000 0.25515  0.25028  0.87052  Biso   1.000  Hf
  Hf5      1.0000 0.25515  0.75025  0.38037  Biso   1.000  Hf
  Hf6      1.0000 0.25517  0.75027  0.87058  Biso   1.000  Hf
  Hf7      1.0000 0.75522  0.25027  0.12545  Biso   1.000  Hf
  Hf8      1.0000 0.75515  0.25025  0.62537  Biso   1.000  Hf
  Hf9      1.0000 0.75519  0.75026  0.12543  Biso   1.000  Hf
  Hf10     1.0000 0.75513  0.75027  0.62550  Biso   1.000  Hf
  Hf11     1.0000 0.75514  0.00023  0.38042  Biso   1.000  Hf
  Hf12     1.0000 0.75518  0.00030  0.87049  Biso   1.000  Hf
  Hf13     1.0000 0.75507  0.50033  0.38044  Biso   1.000  Hf
  Hf14     1.0000 0.75503  0.50021  0.87049  Biso   1.000  Hf
  O1       1.0000 0.01023  0.15109  0.00066  Biso   1.000  O 
  O2       1.0000 0.01595  0.14872  0.51257  Biso   1.000  O 
  O3       1.0000 0.01042  0.65113  0.00074  Biso   1.000  O 
  O4       1.0000 0.01586  0.64873  0.51261  Biso   1.000  O 
  O5       1.0000 0.97953  0.11499  0.26633  Biso   1.000  O 
  O6       1.0000 0.00568  0.10150  0.75550  Biso   1.000  O 
  O7       1.0000 0.97974  0.61501  0.26641  Biso   1.000  O 
  O8       1.0000 0.00544  0.60150  0.75556  Biso   1.000  O 
  O9       1.0000 0.01045  0.34936  0.25022  Biso   1.000  O 
  O10      1.0000 0.01571  0.35176  0.73835  Biso   1.000  O 
  O11      1.0000 0.01028  0.84939  0.25023  Biso   1.000  O 
  O12      1.0000 0.01603  0.85176  0.73832  Biso   1.000  O 
  O13      1.0000 0.97964  0.38549  0.98457  Biso   1.000  O 
  O14      1.0000 0.00536  0.39896  0.49541  Biso   1.000  O 
  O15      1.0000 0.97962  0.88550  0.98453  Biso   1.000  O 
  O16      1.0000 0.00563  0.89899  0.49538  Biso   1.000  O 
  O17      1.0000 0.49987  0.15114  0.25020  Biso   1.000  O 
  O18      1.0000 0.49415  0.14879  0.73824  Biso   1.000  O 
  O19      1.0000 0.50000  0.65112  0.25021  Biso   1.000  O 
  O20      1.0000 0.49398  0.64879  0.73823  Biso   1.000  O 
  O21      1.0000 0.53051  0.11505  0.98447  Biso   1.000  O 
  O22      1.0000 0.50450  0.10146  0.49531  Biso   1.000  O 
  O23      1.0000 0.53065  0.61503  0.98448  Biso   1.000  O 
  O24      1.0000 0.50431  0.60144  0.49533  Biso   1.000  O 
  O25      1.0000 0.49992  0.34939  0.00072  Biso   1.000  O 
  O26      1.0000 0.49392  0.35171  0.51269  Biso   1.000  O 
  O27      1.0000 0.49989  0.84938  0.00074  Biso   1.000  O 
  O28      1.0000 0.49414  0.85171  0.51266  Biso   1.000  O 
  O29      1.0000 0.53072  0.38549  0.26643  Biso   1.000  O 
  O30      1.0000 0.50417  0.39906  0.75564  Biso   1.000  O 
  O31      1.0000 0.53051  0.88548  0.26643  Biso   1.000  O 
  O32      1.0000 0.50455  0.89906  0.75559  Biso   1.000  O 
