data_image0
_cell_length_a       10.2624
_cell_length_b       5.16881
_cell_length_c       10.4385
_cell_angle_alpha    90.0017
_cell_angle_beta     90.8134
_cell_angle_gamma    90.0163

_symmetry_space_group_name_H-M    "P 1"
_symmetry_int_tables_number       1

loop_
  _symmetry_equiv_pos_as_xyz
  'x, y, z'

loop_
  _atom_site_label
  _atom_site_occupancy
  _atom_site_fract_x
  _atom_site_fract_y
  _atom_site_fract_z
  _atom_site_thermal_displace_type
  _atom_site_B_iso_or_equiv
  _atom_site_type_symbol
  La1      1.0000 0.12447  0.01666  0.15991  Biso   1.000  La
  Hf1      1.0000 0.14343  0.03550  0.67307  Biso   1.000  Hf
  Hf2      1.0000 0.15045  0.45910  0.41768  Biso   1.000  Hf
  Hf3      1.0000 0.13861  0.46444  0.91620  Biso   1.000  Hf
  Hf4      1.0000 0.36502  0.52645  0.16711  Biso   1.000  Hf
  Hf5      1.0000 0.35920  0.53409  0.66983  Biso   1.000  Hf
  Hf6      1.0000 0.36298  0.95424  0.41780  Biso   1.000  Hf
  Hf7      1.0000 0.36461  0.95815  0.92007  Biso   1.000  Hf
  Hf8      1.0000 0.64081  0.03416  0.08017  Biso   1.000  Hf
  Hf9      1.0000 0.63504  0.02642  0.58287  Biso   1.000  Hf
  Hf10     1.0000 0.63703  0.45424  0.33220  Biso   1.000  Hf
  Hf11     1.0000 0.63531  0.45816  0.82992  Biso   1.000  Hf
  Hf12     1.0000 0.85657  0.53559  0.07691  Biso   1.000  Hf
  La2      1.0000 0.87559  0.51671  0.59012  Biso   1.000  La
  Hf13     1.0000 0.84959  0.95917  0.33235  Biso   1.000  Hf
  Hf14     1.0000 0.86128  0.96453  0.83379  Biso   1.000  Hf
  O1       1.0000 0.04066  0.41945  0.09264  Biso   1.000  O 
  O2       1.0000 0.08206  0.38510  0.60572  Biso   1.000  O 
  O3       1.0000 0.01752  0.18121  0.35975  Biso   1.000  O 
  O4       1.0000 0.04235  0.13839  0.85543  Biso   1.000  O 
  O5       1.0000 0.47280  0.81923  0.08175  Biso   1.000  O 
  O6       1.0000 0.46804  0.81369  0.58035  Biso   1.000  O 
  O7       1.0000 0.47257  0.67156  0.33006  Biso   1.000  O 
  O8       1.0000 0.46713  0.67046  0.82950  Biso   1.000  O 
  O9       1.0000 0.27729  0.24481  0.29826  Biso   1.000  O 
  O10      1.0000 0.27653  0.24689  0.79358  Biso   1.000  O 
  O11      1.0000 0.28081  0.24908  0.03714  Biso   1.000  O 
  O12      1.0000 0.28808  0.24834  0.54081  Biso   1.000  O 
  O13      1.0000 0.23847  0.72638  0.29453  Biso   1.000  O 
  O14      1.0000 0.22603  0.74593  0.79061  Biso   1.000  O 
  O15      1.0000 0.24367  0.72727  0.03158  Biso   1.000  O 
  O16      1.0000 0.22776  0.76291  0.54057  Biso   1.000  O 
  O17      1.0000 0.53196  0.31369  0.16966  Biso   1.000  O 
  O18      1.0000 0.52716  0.31922  0.66822  Biso   1.000  O 
  O19      1.0000 0.52750  0.17154  0.41990  Biso   1.000  O 
  O20      1.0000 0.53286  0.17048  0.92050  Biso   1.000  O 
  O21      1.0000 0.91796  0.88510  0.14437  Biso   1.000  O 
  O22      1.0000 0.95930  0.91960  0.65729  Biso   1.000  O 
  O23      1.0000 0.98252  0.68123  0.39027  Biso   1.000  O 
  O24      1.0000 0.95763  0.63843  0.89455  Biso   1.000  O 
  O25      1.0000 0.77394  0.24596  0.95938  Biso   1.000  O 
  O26      1.0000 0.76161  0.22651  0.45544  Biso   1.000  O 
  O27      1.0000 0.77224  0.26303  0.20943  Biso   1.000  O 
  O28      1.0000 0.75629  0.22730  0.71843  Biso   1.000  O 
  O29      1.0000 0.72348  0.74696  0.95643  Biso   1.000  O 
  O30      1.0000 0.72274  0.74492  0.45178  Biso   1.000  O 
  O31      1.0000 0.71185  0.74858  0.20919  Biso   1.000  O 
  O32      1.0000 0.71919  0.74913  0.71287  Biso   1.000  O 
