data_image0
_cell_length_a       10.1763
_cell_length_b       5.21505
_cell_length_c       10.1822
_cell_angle_alpha    90.3881
_cell_angle_beta     90.8209
_cell_angle_gamma    90.3366

_symmetry_space_group_name_H-M    "P 1"
_symmetry_int_tables_number       1

loop_
  _symmetry_equiv_pos_as_xyz
  'x, y, z'

loop_
  _atom_site_label
  _atom_site_occupancy
  _atom_site_fract_x
  _atom_site_fract_y
  _atom_site_fract_z
  _atom_site_thermal_displace_type
  _atom_site_B_iso_or_equiv
  _atom_site_type_symbol
  La1      1.0000 0.12129  0.00754  0.12056  Biso   1.000  La
  Hf1      1.0000 0.13480  0.02870  0.62400  Biso   1.000  Hf
  Hf2      1.0000 0.63479  0.02874  0.12400  Biso   1.000  Hf
  La2      1.0000 0.62130  0.00753  0.62055  Biso   1.000  La
  Hf3      1.0000 0.13957  0.46438  0.37661  Biso   1.000  Hf
  Hf4      1.0000 0.13504  0.46844  0.87267  Biso   1.000  Hf
  Hf5      1.0000 0.63503  0.46845  0.37266  Biso   1.000  Hf
  Hf6      1.0000 0.63959  0.46438  0.87660  Biso   1.000  Hf
  Hf7      1.0000 0.36960  0.52269  0.12405  Biso   1.000  Hf
  Hf8      1.0000 0.35883  0.53084  0.62791  Biso   1.000  Hf
  Hf9      1.0000 0.85880  0.53083  0.12794  Biso   1.000  Hf
  Hf10     1.0000 0.86965  0.52268  0.62403  Biso   1.000  Hf
  Hf11     1.0000 0.36411  0.96490  0.37089  Biso   1.000  Hf
  Hf12     1.0000 0.36565  0.97003  0.88045  Biso   1.000  Hf
  Hf13     1.0000 0.86567  0.97008  0.38047  Biso   1.000  Hf
  Hf14     1.0000 0.86412  0.96487  0.87089  Biso   1.000  Hf
  O1       1.0000 0.02870  0.40098  0.20481  Biso   1.000  O 
  O2       1.0000 0.04120  0.37022  0.68605  Biso   1.000  O 
  O3       1.0000 0.54117  0.37023  0.18606  Biso   1.000  O 
  O4       1.0000 0.52874  0.40096  0.70477  Biso   1.000  O 
  O5       1.0000 0.03775  0.13043  0.44176  Biso   1.000  O 
  O6       1.0000 0.02873  0.15501  0.92096  Biso   1.000  O 
  O7       1.0000 0.52873  0.15502  0.42097  Biso   1.000  O 
  O8       1.0000 0.53773  0.13045  0.94175  Biso   1.000  O 
  O9       1.0000 0.46527  0.86812  0.19218  Biso   1.000  O 
  O10      1.0000 0.43288  0.87059  0.70246  Biso   1.000  O 
  O11      1.0000 0.93284  0.87063  0.20247  Biso   1.000  O 
  O12      1.0000 0.96530  0.86810  0.69222  Biso   1.000  O 
  O13      1.0000 0.47679  0.65560  0.45920  Biso   1.000  O 
  O14      1.0000 0.47682  0.64117  0.94903  Biso   1.000  O 
  O15      1.0000 0.97681  0.64114  0.44906  Biso   1.000  O 
  O16      1.0000 0.97679  0.65560  0.95922  Biso   1.000  O 
  O17      1.0000 0.27983  0.24089  0.25283  Biso   1.000  O 
  O18      1.0000 0.26720  0.23630  0.75010  Biso   1.000  O 
  O19      1.0000 0.76718  0.23631  0.25013  Biso   1.000  O 
  O20      1.0000 0.77985  0.24086  0.75284  Biso   1.000  O 
  O21      1.0000 0.27093  0.25960  0.50053  Biso   1.000  O 
  O22      1.0000 0.27467  0.26704  0.99306  Biso   1.000  O 
  O23      1.0000 0.77467  0.26706  0.49308  Biso   1.000  O 
  O24      1.0000 0.77091  0.25964  0.00056  Biso   1.000  O 
  O25      1.0000 0.23276  0.76383  0.49852  Biso   1.000  O 
  O26      1.0000 0.24541  0.74131  0.99069  Biso   1.000  O 
  O27      1.0000 0.74542  0.74135  0.49068  Biso   1.000  O 
  O28      1.0000 0.73277  0.76385  0.99852  Biso   1.000  O 
  O29      1.0000 0.24496  0.71086  0.25505  Biso   1.000  O 
  O30      1.0000 0.21719  0.73455  0.74559  Biso   1.000  O 
  O31      1.0000 0.71715  0.73458  0.24558  Biso   1.000  O 
  O32      1.0000 0.74499  0.71083  0.75503  Biso   1.000  O 
