data_image0
_cell_length_a       10.1862
_cell_length_b       5.20278
_cell_length_c       10.1381
_cell_angle_alpha    90.3624
_cell_angle_beta     90
_cell_angle_gamma    90.0041

_symmetry_space_group_name_H-M    "P 1"
_symmetry_int_tables_number       1

loop_
  _symmetry_equiv_pos_as_xyz
  'x, y, z'

loop_
  _atom_site_label
  _atom_site_occupancy
  _atom_site_fract_x
  _atom_site_fract_y
  _atom_site_fract_z
  _atom_site_thermal_displace_type
  _atom_site_B_iso_or_equiv
  _atom_site_type_symbol
  La1      1.0000 0.12710  0.00072  0.12553  Biso   1.000  La
  Hf1      1.0000 0.13244  0.03297  0.62247  Biso   1.000  Hf
  Hf2      1.0000 0.63162  0.01314  0.12570  Biso   1.000  Hf
  Hf3      1.0000 0.63277  0.02931  0.62620  Biso   1.000  Hf
  Hf4      1.0000 0.14185  0.46802  0.38307  Biso   1.000  Hf
  Hf5      1.0000 0.14104  0.46885  0.87001  Biso   1.000  Hf
  Hf6      1.0000 0.63052  0.46392  0.37876  Biso   1.000  Hf
  Hf7      1.0000 0.63158  0.46258  0.87324  Biso   1.000  Hf
  Hf8      1.0000 0.36834  0.51309  0.12574  Biso   1.000  Hf
  Hf9      1.0000 0.36717  0.52926  0.62621  Biso   1.000  Hf
  La2      1.0000 0.87289  0.50071  0.12561  Biso   1.000  La
  Hf10     1.0000 0.86747  0.53290  0.62251  Biso   1.000  Hf
  Hf11     1.0000 0.36942  0.96388  0.37880  Biso   1.000  Hf
  Hf12     1.0000 0.36843  0.96252  0.87326  Biso   1.000  Hf
  Hf13     1.0000 0.85809  0.96798  0.38308  Biso   1.000  Hf
  Hf14     1.0000 0.85897  0.96885  0.87003  Biso   1.000  Hf
  O1       1.0000 0.07603  0.43668  0.19456  Biso   1.000  O 
  O2       1.0000 0.03926  0.37720  0.68474  Biso   1.000  O 
  O3       1.0000 0.53443  0.35706  0.19773  Biso   1.000  O 
  O4       1.0000 0.53184  0.35878  0.69802  Biso   1.000  O 
  O5       1.0000 0.03713  0.12940  0.43649  Biso   1.000  O 
  O6       1.0000 0.00967  0.19950  0.93679  Biso   1.000  O 
  O7       1.0000 0.53485  0.12778  0.45256  Biso   1.000  O 
  O8       1.0000 0.52704  0.13667  0.94830  Biso   1.000  O 
  O9       1.0000 0.46551  0.85714  0.19779  Biso   1.000  O 
  O10      1.0000 0.46812  0.85878  0.69804  Biso   1.000  O 
  O11      1.0000 0.92395  0.93657  0.19462  Biso   1.000  O 
  O12      1.0000 0.96066  0.87718  0.68478  Biso   1.000  O 
  O13      1.0000 0.46513  0.62788  0.45259  Biso   1.000  O 
  O14      1.0000 0.47297  0.63670  0.94831  Biso   1.000  O 
  O15      1.0000 0.96284  0.62949  0.43649  Biso   1.000  O 
  O16      1.0000 0.99034  0.69948  0.93679  Biso   1.000  O 
  O17      1.0000 0.28751  0.23465  0.25729  Biso   1.000  O 
  O18      1.0000 0.26804  0.23072  0.74761  Biso   1.000  O 
  O19      1.0000 0.74690  0.21382  0.26153  Biso   1.000  O 
  O20      1.0000 0.76951  0.23795  0.74428  Biso   1.000  O 
  O21      1.0000 0.27077  0.25971  0.50374  Biso   1.000  O 
  O22      1.0000 0.27287  0.25604  0.99145  Biso   1.000  O 
  O23      1.0000 0.76874  0.26584  0.50127  Biso   1.000  O 
  O24      1.0000 0.75252  0.23825  0.99058  Biso   1.000  O 
  O25      1.0000 0.23122  0.76586  0.50133  Biso   1.000  O 
  O26      1.0000 0.24746  0.73819  0.99061  Biso   1.000  O 
  O27      1.0000 0.72922  0.75967  0.50379  Biso   1.000  O 
  O28      1.0000 0.72713  0.75603  0.99149  Biso   1.000  O 
  O29      1.0000 0.25305  0.71377  0.26155  Biso   1.000  O 
  O30      1.0000 0.23049  0.73792  0.74430  Biso   1.000  O 
  O31      1.0000 0.71241  0.73479  0.25735  Biso   1.000  O 
  O32      1.0000 0.73194  0.73073  0.74765  Biso   1.000  O 
