data_image0
_cell_length_a       5.07576
_cell_length_b       10.3513
_cell_length_c       10.1498
_cell_angle_alpha    89.9978
_cell_angle_beta     90.003
_cell_angle_gamma    89.9969

_symmetry_space_group_name_H-M    "P 1"
_symmetry_int_tables_number       1

loop_
  _symmetry_equiv_pos_as_xyz
  'x, y, z'

loop_
  _atom_site_label
  _atom_site_occupancy
  _atom_site_fract_x
  _atom_site_fract_y
  _atom_site_fract_z
  _atom_site_thermal_displace_type
  _atom_site_B_iso_or_equiv
  _atom_site_type_symbol
  La1      1.0000 0.25480  0.00038  0.12495  Biso   1.000  La
  La2      1.0000 0.25476  0.00036  0.62494  Biso   1.000  La
  Hf1      1.0000 0.25467  0.50034  0.12492  Biso   1.000  Hf
  Hf2      1.0000 0.25464  0.50036  0.62495  Biso   1.000  Hf
  Hf3      1.0000 0.25484  0.25624  0.37493  Biso   1.000  Hf
  Hf4      1.0000 0.25483  0.25622  0.87492  Biso   1.000  Hf
  Hf5      1.0000 0.25475  0.74452  0.37496  Biso   1.000  Hf
  Hf6      1.0000 0.25476  0.74453  0.87501  Biso   1.000  Hf
  Hf7      1.0000 0.75478  0.25625  0.12494  Biso   1.000  Hf
  Hf8      1.0000 0.75473  0.25622  0.62491  Biso   1.000  Hf
  Hf9      1.0000 0.75474  0.74449  0.12499  Biso   1.000  Hf
  Hf10     1.0000 0.75469  0.74449  0.62495  Biso   1.000  Hf
  Hf11     1.0000 0.75479  0.00043  0.37492  Biso   1.000  Hf
  Hf12     1.0000 0.75478  0.00042  0.87492  Biso   1.000  Hf
  Hf13     1.0000 0.75469  0.50044  0.37495  Biso   1.000  Hf
  Hf14     1.0000 0.75460  0.50043  0.87493  Biso   1.000  Hf
  O1       1.0000 0.01248  0.15617  0.00377  Biso   1.000  O 
  O2       1.0000 0.01241  0.15615  0.50376  Biso   1.000  O 
  O3       1.0000 0.02381  0.64335  0.00949  Biso   1.000  O 
  O4       1.0000 0.02388  0.64336  0.50951  Biso   1.000  O 
  O5       1.0000 0.97751  0.11735  0.26356  Biso   1.000  O 
  O6       1.0000 0.97761  0.11735  0.76359  Biso   1.000  O 
  O7       1.0000 0.99435  0.60195  0.25507  Biso   1.000  O 
  O8       1.0000 0.99431  0.60193  0.75508  Biso   1.000  O 
  O9       1.0000 0.02415  0.35733  0.24029  Biso   1.000  O 
  O10      1.0000 0.02407  0.35730  0.74026  Biso   1.000  O 
  O11      1.0000 0.01247  0.84458  0.24607  Biso   1.000  O 
  O12      1.0000 0.01252  0.84453  0.74605  Biso   1.000  O 
  O13      1.0000 0.99422  0.39877  0.99472  Biso   1.000  O 
  O14      1.0000 0.99432  0.39871  0.49471  Biso   1.000  O 
  O15      1.0000 0.97751  0.88340  0.98627  Biso   1.000  O 
  O16      1.0000 0.97742  0.88337  0.48628  Biso   1.000  O 
  O17      1.0000 0.49720  0.15611  0.24613  Biso   1.000  O 
  O18      1.0000 0.49725  0.15608  0.74614  Biso   1.000  O 
  O19      1.0000 0.48562  0.64333  0.24042  Biso   1.000  O 
  O20      1.0000 0.48556  0.64333  0.74042  Biso   1.000  O 
  O21      1.0000 0.53209  0.11736  0.98636  Biso   1.000  O 
  O22      1.0000 0.53199  0.11734  0.48632  Biso   1.000  O 
  O23      1.0000 0.51500  0.60199  0.99480  Biso   1.000  O 
  O24      1.0000 0.51504  0.60197  0.49480  Biso   1.000  O 
  O25      1.0000 0.48551  0.35738  0.00954  Biso   1.000  O 
  O26      1.0000 0.48555  0.35739  0.50952  Biso   1.000  O 
  O27      1.0000 0.49712  0.84458  0.00382  Biso   1.000  O 
  O28      1.0000 0.49704  0.84456  0.50381  Biso   1.000  O 
  O29      1.0000 0.51529  0.39873  0.25511  Biso   1.000  O 
  O30      1.0000 0.51518  0.39870  0.75513  Biso   1.000  O 
  O31      1.0000 0.53207  0.88338  0.26359  Biso   1.000  O 
  O32      1.0000 0.53210  0.88338  0.76360  Biso   1.000  O 
