data_image0
_cell_length_a       5.13618
_cell_length_b       10.4472
_cell_length_c       10.5279
_cell_angle_alpha    90.1744
_cell_angle_beta     80.8539
_cell_angle_gamma    89.8855

_symmetry_space_group_name_H-M    "P 1"
_symmetry_int_tables_number       1

loop_
  _symmetry_equiv_pos_as_xyz
  'x, y, z'

loop_
  _atom_site_label
  _atom_site_occupancy
  _atom_site_fract_x
  _atom_site_fract_y
  _atom_site_fract_z
  _atom_site_thermal_displace_type
  _atom_site_B_iso_or_equiv
  _atom_site_type_symbol
  La1      1.0000 0.26633  0.01307  0.14304  Biso   1.000  La
  Hf1      1.0000 0.27801  0.01043  0.65021  Biso   1.000  Hf
  Hf2      1.0000 0.27474  0.51870  0.14398  Biso   1.000  Hf
  Hf3      1.0000 0.28434  0.52129  0.64661  Biso   1.000  Hf
  Hf4      1.0000 0.29075  0.23233  0.39029  Biso   1.000  Hf
  Hf5      1.0000 0.26982  0.23233  0.89444  Biso   1.000  Hf
  Hf6      1.0000 0.27652  0.72190  0.39867  Biso   1.000  Hf
  Hf7      1.0000 0.28449  0.72840  0.89526  Biso   1.000  Hf
  Hf8      1.0000 0.71398  0.27292  0.10037  Biso   1.000  Hf
  La2      1.0000 0.73771  0.26058  0.60907  Biso   1.000  La
  Hf9      1.0000 0.72271  0.76171  0.10436  Biso   1.000  Hf
  Hf10     1.0000 0.72487  0.76784  0.60454  Biso   1.000  Hf
  Hf11     1.0000 0.72183  0.47906  0.35003  Biso   1.000  Hf
  Hf12     1.0000 0.72482  0.48314  0.85351  Biso   1.000  Hf
  Hf13     1.0000 0.71221  0.97153  0.35966  Biso   1.000  Hf
  Hf14     1.0000 0.72209  0.97739  0.85619  Biso   1.000  Hf
  O1       1.0000 0.06690  0.18904  0.07378  Biso   1.000  O 
  O2       1.0000 0.14711  0.17985  0.58502  Biso   1.000  O 
  O3       1.0000 0.08036  0.67414  0.08330  Biso   1.000  O 
  O4       1.0000 0.07795  0.67202  0.58327  Biso   1.000  O 
  O5       1.0000 0.04449  0.08504  0.35164  Biso   1.000  O 
  O6       1.0000 0.05507  0.08393  0.82968  Biso   1.000  O 
  O7       1.0000 0.06835  0.58105  0.32829  Biso   1.000  O 
  O8       1.0000 0.07353  0.58392  0.83511  Biso   1.000  O 
  O9       1.0000 0.92071  0.42578  0.16264  Biso   1.000  O 
  O10      1.0000 0.93145  0.44043  0.67135  Biso   1.000  O 
  O11      1.0000 0.86598  0.92369  0.17249  Biso   1.000  O 
  O12      1.0000 0.92117  0.92176  0.66966  Biso   1.000  O 
  O13      1.0000 0.94838  0.33463  0.40290  Biso   1.000  O 
  O14      1.0000 0.91950  0.33206  0.91025  Biso   1.000  O 
  O15      1.0000 0.93264  0.82919  0.42141  Biso   1.000  O 
  O16      1.0000 0.95239  0.83629  0.92375  Biso   1.000  O 
  O17      1.0000 0.56008  0.13874  0.24766  Biso   1.000  O 
  O18      1.0000 0.52226  0.11330  0.75330  Biso   1.000  O 
  O19      1.0000 0.54908  0.62273  0.23938  Biso   1.000  O 
  O20      1.0000 0.55311  0.63081  0.74070  Biso   1.000  O 
  O21      1.0000 0.53437  0.10657  0.48771  Biso   1.000  O 
  O22      1.0000 0.56264  0.12787  0.98415  Biso   1.000  O 
  O23      1.0000 0.55837  0.62172  0.49021  Biso   1.000  O 
  O24      1.0000 0.55172  0.61808  0.99139  Biso   1.000  O 
  O25      1.0000 0.44491  0.38144  0.00755  Biso   1.000  O 
  O26      1.0000 0.44464  0.38731  0.49828  Biso   1.000  O 
  O27      1.0000 0.48094  0.86497  0.99850  Biso   1.000  O 
  O28      1.0000 0.44999  0.87217  0.51380  Biso   1.000  O 
  O29      1.0000 0.44786  0.37361  0.25389  Biso   1.000  O 
  O30      1.0000 0.43575  0.37847  0.76570  Biso   1.000  O 
  O31      1.0000 0.44969  0.85468  0.26975  Biso   1.000  O 
  O32      1.0000 0.45204  0.86616  0.75833  Biso   1.000  O 
