data_image0
_cell_length_a       10.1282
_cell_length_b       10.5045
_cell_length_c       5.11652
_cell_angle_alpha    91.2916
_cell_angle_beta     90.1304
_cell_angle_gamma    90.1676

_symmetry_space_group_name_H-M    "P 1"
_symmetry_int_tables_number       1

loop_
  _symmetry_equiv_pos_as_xyz
  'x, y, z'

loop_
  _atom_site_label
  _atom_site_occupancy
  _atom_site_fract_x
  _atom_site_fract_y
  _atom_site_fract_z
  _atom_site_thermal_displace_type
  _atom_site_B_iso_or_equiv
  _atom_site_type_symbol
  La1      1.0000 0.11374  0.00591  0.24842  Biso   1.000  La
  Hf1      1.0000 0.14003  0.51852  0.24749  Biso   1.000  Hf
  Hf2      1.0000 0.60702  0.01330  0.22284  Biso   1.000  Hf
  Hf3      1.0000 0.62370  0.50897  0.21515  Biso   1.000  Hf
  Hf4      1.0000 0.13606  0.23933  0.73728  Biso   1.000  Hf
  Hf5      1.0000 0.14202  0.73341  0.75803  Biso   1.000  Hf
  Hf6      1.0000 0.63144  0.23193  0.73315  Biso   1.000  Hf
  La2      1.0000 0.62253  0.74828  0.72151  Biso   1.000  La
  Hf7      1.0000 0.36466  0.26418  0.23980  Biso   1.000  Hf
  Hf8      1.0000 0.36632  0.76944  0.25035  Biso   1.000  Hf
  Hf9      1.0000 0.87822  0.28211  0.20831  Biso   1.000  Hf
  Hf10     1.0000 0.88693  0.73074  0.18680  Biso   1.000  Hf
  Hf11     1.0000 0.36692  0.47811  0.74066  Biso   1.000  Hf
  Hf12     1.0000 0.36223  0.99139  0.75969  Biso   1.000  Hf
  Hf13     1.0000 0.85976  0.48530  0.71958  Biso   1.000  Hf
  Hf14     1.0000 0.85530  0.99447  0.79884  Biso   1.000  Hf
  O1       1.0000 0.01662  0.19478  0.40471  Biso   1.000  O 
  O2       1.0000 0.04305  0.68602  0.41045  Biso   1.000  O 
  O3       1.0000 0.52528  0.17953  0.39082  Biso   1.000  O 
  O4       1.0000 0.52559  0.67021  0.33912  Biso   1.000  O 
  O5       1.0000 0.01930  0.09124  0.86551  Biso   1.000  O 
  O6       1.0000 0.01827  0.59161  0.92773  Biso   1.000  O 
  O7       1.0000 0.52178  0.08849  0.90284  Biso   1.000  O 
  O8       1.0000 0.52442  0.56566  0.87999  Biso   1.000  O 
  O9       1.0000 0.46862  0.42489  0.39672  Biso   1.000  O 
  O10      1.0000 0.48908  0.91536  0.47820  Biso   1.000  O 
  O11      1.0000 0.97188  0.44315  0.38229  Biso   1.000  O 
  O12      1.0000 0.92485  0.91688  0.43416  Biso   1.000  O 
  O13      1.0000 0.46774  0.32107  0.89568  Biso   1.000  O 
  O14      1.0000 0.48275  0.86686  0.99692  Biso   1.000  O 
  O15      1.0000 0.97390  0.33921  0.88100  Biso   1.000  O 
  O16      1.0000 0.98988  0.84008  0.92801  Biso   1.000  O 
  O17      1.0000 0.27396  0.12412  0.50581  Biso   1.000  O 
  O18      1.0000 0.26951  0.61223  0.50759  Biso   1.000  O 
  O19      1.0000 0.72887  0.07247  0.54175  Biso   1.000  O 
  O20      1.0000 0.76506  0.59810  0.44705  Biso   1.000  O 
  O21      1.0000 0.26205  0.13798  0.99235  Biso   1.000  O 
  O22      1.0000 0.26986  0.63356  0.00419  Biso   1.000  O 
  O23      1.0000 0.76132  0.14016  0.02313  Biso   1.000  O 
  O24      1.0000 0.76956  0.62224  0.96125  Biso   1.000  O 
  O25      1.0000 0.23007  0.38733  0.98482  Biso   1.000  O 
  O26      1.0000 0.24431  0.87445  0.98695  Biso   1.000  O 
  O27      1.0000 0.72961  0.38420  0.96287  Biso   1.000  O 
  O28      1.0000 0.74598  0.88683  0.05007  Biso   1.000  O 
  O29      1.0000 0.22894  0.36664  0.47942  Biso   1.000  O 
  O30      1.0000 0.24429  0.86121  0.51212  Biso   1.000  O 
  O31      1.0000 0.74087  0.34929  0.47361  Biso   1.000  O 
  O32      1.0000 0.82111  0.83535  0.52216  Biso   1.000  O 
