data_image0
_cell_length_a       10.1776
_cell_length_b       5.17479
_cell_length_c       10.6338
_cell_angle_alpha    90.0288
_cell_angle_beta     89.984
_cell_angle_gamma    90.0062

_symmetry_space_group_name_H-M    "P 1"
_symmetry_int_tables_number       1

loop_
  _symmetry_equiv_pos_as_xyz
  'x, y, z'

loop_
  _atom_site_label
  _atom_site_occupancy
  _atom_site_fract_x
  _atom_site_fract_y
  _atom_site_fract_z
  _atom_site_thermal_displace_type
  _atom_site_B_iso_or_equiv
  _atom_site_type_symbol
  La1      1.0000 0.12735  0.00383  0.16120  Biso   1.000  La
  Hf1      1.0000 0.13928  0.04023  0.67011  Biso   1.000  Hf
  Hf2      1.0000 0.14018  0.44748  0.42468  Biso   1.000  Hf
  Hf3      1.0000 0.13672  0.46235  0.91183  Biso   1.000  Hf
  La2      1.0000 0.37272  0.50397  0.16117  Biso   1.000  La
  Hf4      1.0000 0.36077  0.54027  0.67014  Biso   1.000  Hf
  Hf5      1.0000 0.35989  0.94756  0.42469  Biso   1.000  Hf
  Hf6      1.0000 0.36325  0.96243  0.91182  Biso   1.000  Hf
  Hf7      1.0000 0.64299  0.02956  0.07457  Biso   1.000  Hf
  Hf8      1.0000 0.63600  0.04350  0.58206  Biso   1.000  Hf
  Hf9      1.0000 0.64571  0.46250  0.33974  Biso   1.000  Hf
  Hf10     1.0000 0.63888  0.45875  0.82633  Biso   1.000  Hf
  Hf11     1.0000 0.85706  0.52966  0.07449  Biso   1.000  Hf
  Hf12     1.0000 0.86399  0.54359  0.58199  Biso   1.000  Hf
  Hf13     1.0000 0.85424  0.96255  0.33971  Biso   1.000  Hf
  Hf14     1.0000 0.86105  0.95884  0.82632  Biso   1.000  Hf
  O1       1.0000 0.03581  0.38787  0.08245  Biso   1.000  O 
  O2       1.0000 0.03329  0.33515  0.58834  Biso   1.000  O 
  O3       1.0000 0.01847  0.17590  0.34621  Biso   1.000  O 
  O4       1.0000 0.03199  0.16399  0.83131  Biso   1.000  O 
  O5       1.0000 0.46417  0.88796  0.08252  Biso   1.000  O 
  O6       1.0000 0.46664  0.83528  0.58843  Biso   1.000  O 
  O7       1.0000 0.48146  0.67560  0.34633  Biso   1.000  O 
  O8       1.0000 0.46796  0.66385  0.83137  Biso   1.000  O 
  O9       1.0000 0.26946  0.22021  0.30982  Biso   1.000  O 
  O10      1.0000 0.27530  0.24905  0.78599  Biso   1.000  O 
  O11      1.0000 0.26058  0.22686  0.01870  Biso   1.000  O 
  O12      1.0000 0.27542  0.24893  0.54721  Biso   1.000  O 
  O13      1.0000 0.23060  0.72025  0.30979  Biso   1.000  O 
  O14      1.0000 0.22470  0.74910  0.78598  Biso   1.000  O 
  O15      1.0000 0.23943  0.72681  0.01871  Biso   1.000  O 
  O16      1.0000 0.22458  0.74892  0.54721  Biso   1.000  O 
  O17      1.0000 0.57644  0.34627  0.16537  Biso   1.000  O 
  O18      1.0000 0.53386  0.33440  0.66511  Biso   1.000  O 
  O19      1.0000 0.53335  0.16976  0.41738  Biso   1.000  O 
  O20      1.0000 0.53633  0.17463  0.91212  Biso   1.000  O 
  O21      1.0000 0.92356  0.84636  0.16532  Biso   1.000  O 
  O22      1.0000 0.96620  0.83420  0.66514  Biso   1.000  O 
  O23      1.0000 0.96677  0.66998  0.41735  Biso   1.000  O 
  O24      1.0000 0.96366  0.67474  0.91213  Biso   1.000  O 
  O25      1.0000 0.77778  0.24078  0.95396  Biso   1.000  O 
  O26      1.0000 0.77293  0.25001  0.46333  Biso   1.000  O 
  O27      1.0000 0.79161  0.27197  0.21588  Biso   1.000  O 
  O28      1.0000 0.77494  0.25559  0.70622  Biso   1.000  O 
  O29      1.0000 0.72223  0.74081  0.95395  Biso   1.000  O 
  O30      1.0000 0.72707  0.75003  0.46334  Biso   1.000  O 
  O31      1.0000 0.70831  0.77207  0.21594  Biso   1.000  O 
  O32      1.0000 0.72505  0.75559  0.70623  Biso   1.000  O 
