data_image0
_cell_length_a       10.066
_cell_length_b       5.15029
_cell_length_c       10.4288
_cell_angle_alpha    90.3049
_cell_angle_beta     90.7115
_cell_angle_gamma    90.2899

_symmetry_space_group_name_H-M    "P 1"
_symmetry_int_tables_number       1

loop_
  _symmetry_equiv_pos_as_xyz
  'x, y, z'

loop_
  _atom_site_label
  _atom_site_occupancy
  _atom_site_fract_x
  _atom_site_fract_y
  _atom_site_fract_z
  _atom_site_thermal_displace_type
  _atom_site_B_iso_or_equiv
  _atom_site_type_symbol
  La1      1.0000 0.11568  0.00433  0.15379  Biso   1.000  La
  Hf1      1.0000 0.13908  0.04499  0.66923  Biso   1.000  Hf
  Hf2      1.0000 0.13623  0.44716  0.41649  Biso   1.000  Hf
  Hf3      1.0000 0.14304  0.47055  0.91866  Biso   1.000  Hf
  Hf4      1.0000 0.36243  0.52578  0.17000  Biso   1.000  Hf
  Hf5      1.0000 0.35800  0.54320  0.66746  Biso   1.000  Hf
  Hf6      1.0000 0.35704  0.95370  0.41615  Biso   1.000  Hf
  Hf7      1.0000 0.36660  0.96155  0.91872  Biso   1.000  Hf
  Hf8      1.0000 0.64014  0.03585  0.07959  Biso   1.000  Hf
  Hf9      1.0000 0.63325  0.04158  0.58094  Biso   1.000  Hf
  Hf10     1.0000 0.63637  0.45543  0.33051  Biso   1.000  Hf
  Hf11     1.0000 0.63699  0.46284  0.82676  Biso   1.000  Hf
  Hf12     1.0000 0.85521  0.53379  0.07821  Biso   1.000  Hf
  Hf13     1.0000 0.86185  0.54217  0.58025  Biso   1.000  Hf
  Hf14     1.0000 0.85105  0.96301  0.34190  Biso   1.000  Hf
  Hf15     1.0000 0.86141  0.96435  0.82901  Biso   1.000  Hf
  O1       1.0000 0.04092  0.41923  0.10136  Biso   1.000  O 
  O2       1.0000 0.03408  0.34254  0.58934  Biso   1.000  O 
  O3       1.0000 0.02387  0.15142  0.34694  Biso   1.000  O 
  O4       1.0000 0.03407  0.17396  0.84092  Biso   1.000  O 
  O5       1.0000 0.47403  0.82889  0.08487  Biso   1.000  O 
  O6       1.0000 0.46261  0.83480  0.58350  Biso   1.000  O 
  O7       1.0000 0.47013  0.66738  0.33263  Biso   1.000  O 
  O8       1.0000 0.46726  0.66777  0.83023  Biso   1.000  O 
  O9       1.0000 0.27721  0.23985  0.29456  Biso   1.000  O 
  O10      1.0000 0.27634  0.25100  0.78984  Biso   1.000  O 
  O11      1.0000 0.27819  0.24906  0.03448  Biso   1.000  O 
  O12      1.0000 0.27362  0.24995  0.54161  Biso   1.000  O 
  O13      1.0000 0.22762  0.72336  0.29501  Biso   1.000  O 
  O14      1.0000 0.22301  0.75204  0.79083  Biso   1.000  O 
  O15      1.0000 0.24786  0.72942  0.03290  Biso   1.000  O 
  O16      1.0000 0.21950  0.75294  0.54192  Biso   1.000  O 
  O17      1.0000 0.53767  0.33155  0.16353  Biso   1.000  O 
  O18      1.0000 0.53145  0.33627  0.66343  Biso   1.000  O 
  O19      1.0000 0.53303  0.16097  0.41336  Biso   1.000  O 
  O20      1.0000 0.54015  0.16530  0.91432  Biso   1.000  O 
  O21      1.0000 0.96483  0.83934  0.66689  Biso   1.000  O 
  O22      1.0000 0.96021  0.65668  0.40847  Biso   1.000  O 
  O23      1.0000 0.97266  0.70069  0.92912  Biso   1.000  O 
  O24      1.0000 0.78031  0.25316  0.95721  Biso   1.000  O 
  O25      1.0000 0.77124  0.24916  0.46090  Biso   1.000  O 
  O26      1.0000 0.77701  0.24458  0.20868  Biso   1.000  O 
  O27      1.0000 0.77541  0.25769  0.70740  Biso   1.000  O 
  O28      1.0000 0.72548  0.75018  0.95363  Biso   1.000  O 
  O29      1.0000 0.71944  0.74590  0.46001  Biso   1.000  O 
  O30      1.0000 0.73410  0.74469  0.20669  Biso   1.000  O 
  O31      1.0000 0.72405  0.75512  0.70609  Biso   1.000  O 
