data_image0
_cell_length_a       9.98645
_cell_length_b       10.4063
_cell_length_c       5.03419
_cell_angle_alpha    89.8989
_cell_angle_beta     91.3085
_cell_angle_gamma    90.2415

_symmetry_space_group_name_H-M    "P 1"
_symmetry_int_tables_number       1

loop_
  _symmetry_equiv_pos_as_xyz
  'x, y, z'

loop_
  _atom_site_label
  _atom_site_occupancy
  _atom_site_fract_x
  _atom_site_fract_y
  _atom_site_fract_z
  _atom_site_thermal_displace_type
  _atom_site_B_iso_or_equiv
  _atom_site_type_symbol
  La1      1.0000 0.11569  0.00428  0.25534  Biso   1.000  La
  Hf1      1.0000 0.13250  0.51813  0.22882  Biso   1.000  Hf
  Hf2      1.0000 0.63179  0.02023  0.25146  Biso   1.000  Hf
  Hf3      1.0000 0.63164  0.51619  0.25476  Biso   1.000  Hf
  Hf4      1.0000 0.13576  0.23558  0.74146  Biso   1.000  Hf
  Hf5      1.0000 0.14045  0.73205  0.72284  Biso   1.000  Hf
  Hf6      1.0000 0.63104  0.23759  0.74880  Biso   1.000  Hf
  Hf7      1.0000 0.63553  0.73342  0.76551  Biso   1.000  Hf
  Hf8      1.0000 0.36176  0.26517  0.25043  Biso   1.000  Hf
  Hf9      1.0000 0.37056  0.76523  0.23758  Biso   1.000  Hf
  Hf10     1.0000 0.86395  0.27496  0.25192  Biso   1.000  Hf
  Hf11     1.0000 0.85629  0.76212  0.29619  Biso   1.000  Hf
  Hf12     1.0000 0.36536  0.48273  0.74650  Biso   1.000  Hf
  Hf13     1.0000 0.36656  0.98488  0.74680  Biso   1.000  Hf
  Hf14     1.0000 0.86644  0.48283  0.75730  Biso   1.000  Hf
  Hf15     1.0000 0.85285  0.98966  0.76411  Biso   1.000  Hf
  O1       1.0000 0.03473  0.20298  0.37597  Biso   1.000  O 
  O2       1.0000 0.04750  0.70139  0.30572  Biso   1.000  O 
  O3       1.0000 0.53905  0.18748  0.38031  Biso   1.000  O 
  O4       1.0000 0.53835  0.68450  0.39397  Biso   1.000  O 
  O5       1.0000 0.03337  0.06600  0.81225  Biso   1.000  O 
  O6       1.0000 0.03891  0.57074  0.85347  Biso   1.000  O 
  O7       1.0000 0.54195  0.06541  0.87799  Biso   1.000  O 
  O8       1.0000 0.53765  0.56792  0.89274  Biso   1.000  O 
  O9       1.0000 0.46475  0.43437  0.38927  Biso   1.000  O 
  O10      1.0000 0.46384  0.93901  0.37755  Biso   1.000  O 
  O11      1.0000 0.95824  0.44992  0.37591  Biso   1.000  O 
  O12      1.0000 0.96153  0.82900  0.67652  Biso   1.000  O 
  O13      1.0000 0.46365  0.31683  0.88642  Biso   1.000  O 
  O14      1.0000 0.47252  0.82046  0.89360  Biso   1.000  O 
  O15      1.0000 0.96481  0.32008  0.88764  Biso   1.000  O 
  O16      1.0000 0.27956  0.12712  0.50844  Biso   1.000  O 
  O17      1.0000 0.26662  0.61538  0.48703  Biso   1.000  O 
  O18      1.0000 0.77301  0.12213  0.50098  Biso   1.000  O 
  O19      1.0000 0.76783  0.62042  0.51780  Biso   1.000  O 
  O20      1.0000 0.27096  0.13212  0.99485  Biso   1.000  O 
  O21      1.0000 0.27736  0.62764  0.98737  Biso   1.000  O 
  O22      1.0000 0.76908  0.13809  0.00515  Biso   1.000  O 
  O23      1.0000 0.77768  0.63319  0.01644  Biso   1.000  O 
  O24      1.0000 0.22982  0.38315  0.99214  Biso   1.000  O 
  O25      1.0000 0.23220  0.87117  0.97376  Biso   1.000  O 
  O26      1.0000 0.72675  0.38578  0.99914  Biso   1.000  O 
  O27      1.0000 0.73896  0.87488  0.01884  Biso   1.000  O 
  O28      1.0000 0.22810  0.37142  0.49067  Biso   1.000  O 
  O29      1.0000 0.24880  0.85852  0.49728  Biso   1.000  O 
  O30      1.0000 0.73008  0.37167  0.50232  Biso   1.000  O 
  O31      1.0000 0.72053  0.87652  0.51254  Biso   1.000  O 
