data_image0
_cell_length_a       10.0768
_cell_length_b       5.20641
_cell_length_c       10.0555
_cell_angle_alpha    89.6762
_cell_angle_beta     90.5881
_cell_angle_gamma    90.5015

_symmetry_space_group_name_H-M    "P 1"
_symmetry_int_tables_number       1

loop_
  _symmetry_equiv_pos_as_xyz
  'x, y, z'

loop_
  _atom_site_label
  _atom_site_occupancy
  _atom_site_fract_x
  _atom_site_fract_y
  _atom_site_fract_z
  _atom_site_thermal_displace_type
  _atom_site_B_iso_or_equiv
  _atom_site_type_symbol
  La1      1.0000 0.12157  0.01136  0.11929  Biso   1.000  La
  Hf1      1.0000 0.13614  0.03281  0.62657  Biso   1.000  Hf
  Hf2      1.0000 0.63532  0.03153  0.12757  Biso   1.000  Hf
  Hf3      1.0000 0.63645  0.03362  0.62469  Biso   1.000  Hf
  Hf4      1.0000 0.13197  0.46816  0.37745  Biso   1.000  Hf
  Hf5      1.0000 0.12366  0.48947  0.86175  Biso   1.000  Hf
  Hf6      1.0000 0.63000  0.46498  0.37846  Biso   1.000  Hf
  Hf7      1.0000 0.63751  0.46273  0.87503  Biso   1.000  Hf
  Hf8      1.0000 0.37309  0.53726  0.13122  Biso   1.000  Hf
  Hf9      1.0000 0.36787  0.52526  0.62260  Biso   1.000  Hf
  Hf10     1.0000 0.85646  0.53728  0.13370  Biso   1.000  Hf
  Hf11     1.0000 0.86661  0.53589  0.62273  Biso   1.000  Hf
  Hf12     1.0000 0.36340  0.96859  0.37427  Biso   1.000  Hf
  Hf13     1.0000 0.37790  0.94117  0.86706  Biso   1.000  Hf
  Hf14     1.0000 0.86225  0.97020  0.37961  Biso   1.000  Hf
  Hf15     1.0000 0.86389  0.96660  0.87528  Biso   1.000  Hf
  O1       1.0000 0.02827  0.40403  0.20357  Biso   1.000  O 
  O2       1.0000 0.04088  0.37620  0.67768  Biso   1.000  O 
  O3       1.0000 0.53845  0.36217  0.19504  Biso   1.000  O 
  O4       1.0000 0.53703  0.36112  0.69467  Biso   1.000  O 
  O5       1.0000 0.03648  0.12713  0.44215  Biso   1.000  O 
  O6       1.0000 0.03316  0.16028  0.91672  Biso   1.000  O 
  O7       1.0000 0.53431  0.12797  0.44737  Biso   1.000  O 
  O8       1.0000 0.53355  0.13012  0.94624  Biso   1.000  O 
  O9       1.0000 0.46321  0.86929  0.19242  Biso   1.000  O 
  O10      1.0000 0.47000  0.85649  0.69322  Biso   1.000  O 
  O11      1.0000 0.93114  0.88153  0.19898  Biso   1.000  O 
  O12      1.0000 0.96909  0.86097  0.69970  Biso   1.000  O 
  O13      1.0000 0.46320  0.63033  0.44540  Biso   1.000  O 
  O14      1.0000 0.47321  0.61926  0.94574  Biso   1.000  O 
  O15      1.0000 0.96242  0.63644  0.44524  Biso   1.000  O 
  O16      1.0000 0.97096  0.65807  0.95856  Biso   1.000  O 
  O17      1.0000 0.27979  0.24542  0.24799  Biso   1.000  O 
  O18      1.0000 0.27177  0.23575  0.76156  Biso   1.000  O 
  O19      1.0000 0.76516  0.24190  0.25439  Biso   1.000  O 
  O20      1.0000 0.77324  0.23573  0.74841  Biso   1.000  O 
  O21      1.0000 0.27019  0.26003  0.50229  Biso   1.000  O 
  O22      1.0000 0.76824  0.26623  0.50124  Biso   1.000  O 
  O23      1.0000 0.77129  0.26254  0.00013  Biso   1.000  O 
  O24      1.0000 0.22966  0.76711  0.49932  Biso   1.000  O 
  O25      1.0000 0.24536  0.72993  0.98725  Biso   1.000  O 
  O26      1.0000 0.72950  0.76391  0.50293  Biso   1.000  O 
  O27      1.0000 0.72846  0.76277  0.00024  Biso   1.000  O 
  O28      1.0000 0.24137  0.71830  0.25709  Biso   1.000  O 
  O29      1.0000 0.23512  0.73636  0.74033  Biso   1.000  O 
  O30      1.0000 0.71464  0.73695  0.25448  Biso   1.000  O 
  O31      1.0000 0.73342  0.73465  0.75070  Biso   1.000  O 
