data_image0
_cell_length_a       10.0002
_cell_length_b       10.4043
_cell_length_c       5.02622
_cell_angle_alpha    90.4239
_cell_angle_beta     90.185
_cell_angle_gamma    90.0132

_symmetry_space_group_name_H-M    "P 1"
_symmetry_int_tables_number       1

loop_
  _symmetry_equiv_pos_as_xyz
  'x, y, z'

loop_
  _atom_site_label
  _atom_site_occupancy
  _atom_site_fract_x
  _atom_site_fract_y
  _atom_site_fract_z
  _atom_site_thermal_displace_type
  _atom_site_B_iso_or_equiv
  _atom_site_type_symbol
  La1      1.0000 0.11180  0.00178  0.25603  Biso   1.000  La
  Hf1      1.0000 0.13479  0.51735  0.25254  Biso   1.000  Hf
  Hf2      1.0000 0.63380  0.01760  0.25355  Biso   1.000  Hf
  Hf3      1.0000 0.62970  0.51199  0.25183  Biso   1.000  Hf
  Hf4      1.0000 0.13556  0.23363  0.74239  Biso   1.000  Hf
  Hf5      1.0000 0.13846  0.73427  0.76264  Biso   1.000  Hf
  Hf6      1.0000 0.63254  0.23432  0.74924  Biso   1.000  Hf
  Hf7      1.0000 0.63192  0.73104  0.75212  Biso   1.000  Hf
  Hf8      1.0000 0.36203  0.26231  0.25211  Biso   1.000  Hf
  Hf9      1.0000 0.37012  0.76510  0.25226  Biso   1.000  Hf
  Hf10     1.0000 0.86554  0.27232  0.24875  Biso   1.000  Hf
  Hf11     1.0000 0.85832  0.75574  0.24859  Biso   1.000  Hf
  Hf12     1.0000 0.36475  0.48115  0.75433  Biso   1.000  Hf
  Hf13     1.0000 0.36707  0.98462  0.75333  Biso   1.000  Hf
  Hf14     1.0000 0.86675  0.48276  0.75115  Biso   1.000  Hf
  Hf15     1.0000 0.85568  0.98375  0.76905  Biso   1.000  Hf
  O1       1.0000 0.03657  0.20361  0.36945  Biso   1.000  O 
  O2       1.0000 0.03537  0.70035  0.39826  Biso   1.000  O 
  O3       1.0000 0.53879  0.18532  0.38466  Biso   1.000  O 
  O4       1.0000 0.53805  0.68179  0.39138  Biso   1.000  O 
  O5       1.0000 0.03590  0.06173  0.79287  Biso   1.000  O 
  O6       1.0000 0.03262  0.57251  0.89724  Biso   1.000  O 
  O7       1.0000 0.54034  0.06581  0.88990  Biso   1.000  O 
  O8       1.0000 0.53421  0.56550  0.89235  Biso   1.000  O 
  O9       1.0000 0.46285  0.43218  0.39277  Biso   1.000  O 
  O10      1.0000 0.47139  0.93206  0.39707  Biso   1.000  O 
  O11      1.0000 0.96085  0.44517  0.38543  Biso   1.000  O 
  O12      1.0000 0.46434  0.31531  0.88936  Biso   1.000  O 
  O13      1.0000 0.47024  0.81671  0.89647  Biso   1.000  O 
  O14      1.0000 0.96394  0.31820  0.88369  Biso   1.000  O 
  O15      1.0000 0.97238  0.82979  0.92517  Biso   1.000  O 
  O16      1.0000 0.28086  0.12365  0.50611  Biso   1.000  O 
  O17      1.0000 0.26737  0.61505  0.50503  Biso   1.000  O 
  O18      1.0000 0.77294  0.11572  0.49906  Biso   1.000  O 
  O19      1.0000 0.76794  0.61345  0.49741  Biso   1.000  O 
  O20      1.0000 0.26863  0.13245  0.99443  Biso   1.000  O 
  O21      1.0000 0.27175  0.62910  0.00579  Biso   1.000  O 
  O22      1.0000 0.77281  0.13349  0.00094  Biso   1.000  O 
  O23      1.0000 0.76888  0.62983  0.99424  Biso   1.000  O 
  O24      1.0000 0.22872  0.38323  0.00233  Biso   1.000  O 
  O25      1.0000 0.24154  0.87345  0.99478  Biso   1.000  O 
  O26      1.0000 0.72851  0.38312  0.99621  Biso   1.000  O 
  O27      1.0000 0.72474  0.87606  0.01156  Biso   1.000  O 
  O28      1.0000 0.22813  0.36962  0.49914  Biso   1.000  O 
  O29      1.0000 0.24322  0.85894  0.51399  Biso   1.000  O 
  O30      1.0000 0.72931  0.36712  0.49947  Biso   1.000  O 
  O31      1.0000 0.74140  0.86444  0.51017  Biso   1.000  O 
