data_image0
_cell_length_a       5.09178
_cell_length_b       10.1485
_cell_length_c       10.1014
_cell_angle_alpha    89.251
_cell_angle_beta     94.15
_cell_angle_gamma    89.988

_symmetry_space_group_name_H-M    "P 1"
_symmetry_int_tables_number       1

loop_
  _symmetry_equiv_pos_as_xyz
  'x, y, z'

loop_
  _atom_site_label
  _atom_site_occupancy
  _atom_site_fract_x
  _atom_site_fract_y
  _atom_site_fract_z
  _atom_site_thermal_displace_type
  _atom_site_B_iso_or_equiv
  _atom_site_type_symbol
  La1      1.0000 0.25711  0.98846  0.12941  Biso   1.000  La
  Hf1      1.0000 0.25030  0.00719  0.62786  Biso   1.000  Hf
  Hf2      1.0000 0.25087  0.49985  0.13443  Biso   1.000  Hf
  Hf3      1.0000 0.24011  0.50335  0.62447  Biso   1.000  Hf
  Hf4      1.0000 0.26595  0.24963  0.37661  Biso   1.000  Hf
  Hf5      1.0000 0.23466  0.25204  0.88572  Biso   1.000  Hf
  Hf6      1.0000 0.27756  0.73882  0.38462  Biso   1.000  Hf
  Hf7      1.0000 0.21871  0.73225  0.87486  Biso   1.000  Hf
  Hf8      1.0000 0.77210  0.24256  0.12594  Biso   1.000  Hf
  Hf9      1.0000 0.74510  0.23992  0.62340  Biso   1.000  Hf
  Hf10     1.0000 0.74053  0.74578  0.10173  Biso   1.000  Hf
  Hf11     1.0000 0.74506  0.74271  0.63010  Biso   1.000  Hf
  Hf12     1.0000 0.77417  0.01285  0.38093  Biso   1.000  Hf
  Hf13     1.0000 0.72492  0.01033  0.87587  Biso   1.000  Hf
  Hf14     1.0000 0.77314  0.51902  0.36972  Biso   1.000  Hf
  Hf15     1.0000 0.73169  0.49189  0.88092  Biso   1.000  Hf
  O1       1.0000 0.98351  0.13715  0.99902  Biso   1.000  O 
  O2       1.0000 0.00485  0.14824  0.50692  Biso   1.000  O 
  O3       1.0000 0.98462  0.62609  0.99880  Biso   1.000  O 
  O4       1.0000 0.01160  0.64980  0.50174  Biso   1.000  O 
  O5       1.0000 0.02005  0.12577  0.26013  Biso   1.000  O 
  O6       1.0000 0.99194  0.09430  0.75076  Biso   1.000  O 
  O7       1.0000 0.01722  0.62832  0.25096  Biso   1.000  O 
  O8       1.0000 0.97067  0.59356  0.75223  Biso   1.000  O 
  O9       1.0000 0.97181  0.37337  0.26501  Biso   1.000  O 
  O10      1.0000 0.89455  0.33660  0.78304  Biso   1.000  O 
  O11      1.0000 0.08130  0.83725  0.70480  Biso   1.000  O 
  O12      1.0000 0.99203  0.38492  0.01699  Biso   1.000  O 
  O13      1.0000 0.92361  0.40362  0.52751  Biso   1.000  O 
  O14      1.0000 0.97909  0.87062  0.96616  Biso   1.000  O 
  O15      1.0000 0.11757  0.91267  0.44246  Biso   1.000  O 
  O16      1.0000 0.52690  0.15493  0.26219  Biso   1.000  O 
  O17      1.0000 0.47211  0.15051  0.75118  Biso   1.000  O 
  O18      1.0000 0.52178  0.65151  0.24693  Biso   1.000  O 
  O19      1.0000 0.48726  0.64887  0.74823  Biso   1.000  O 
  O20      1.0000 0.50271  0.11854  0.99626  Biso   1.000  O 
  O21      1.0000 0.50900  0.10097  0.50060  Biso   1.000  O 
  O22      1.0000 0.47947  0.60517  0.00162  Biso   1.000  O 
  O23      1.0000 0.50230  0.59882  0.50341  Biso   1.000  O 
  O24      1.0000 0.48214  0.35894  0.03548  Biso   1.000  O 
  O25      1.0000 0.41887  0.34179  0.54695  Biso   1.000  O 
  O26      1.0000 0.49094  0.85657  0.96639  Biso   1.000  O 
  O27      1.0000 0.60863  0.84096  0.45878  Biso   1.000  O 
  O28      1.0000 0.45822  0.40949  0.29407  Biso   1.000  O 
  O29      1.0000 0.39090  0.41179  0.79343  Biso   1.000  O 
  O30      1.0000 0.73593  0.90869  0.20956  Biso   1.000  O 
  O31      1.0000 0.58006  0.90840  0.71061  Biso   1.000  O 
