data_image0
_cell_length_a       5.01968
_cell_length_b       10.3875
_cell_length_c       10.0411
_cell_angle_alpha    89.9578
_cell_angle_beta     89.9701
_cell_angle_gamma    90.2539

_symmetry_space_group_name_H-M    "P 1"
_symmetry_int_tables_number       1

loop_
  _symmetry_equiv_pos_as_xyz
  'x, y, z'

loop_
  _atom_site_label
  _atom_site_occupancy
  _atom_site_fract_x
  _atom_site_fract_y
  _atom_site_fract_z
  _atom_site_thermal_displace_type
  _atom_site_B_iso_or_equiv
  _atom_site_type_symbol
  La1      1.0000 0.24314  0.99690  0.12926  Biso   1.000  La
  Hf1      1.0000 0.26832  0.01778  0.62647  Biso   1.000  Hf
  Hf2      1.0000 0.26996  0.51686  0.12767  Biso   1.000  Hf
  Hf3      1.0000 0.27191  0.51437  0.62708  Biso   1.000  Hf
  Hf4      1.0000 0.26820  0.23653  0.37670  Biso   1.000  Hf
  Hf5      1.0000 0.26944  0.23316  0.87587  Biso   1.000  Hf
  Hf6      1.0000 0.26799  0.72891  0.38233  Biso   1.000  Hf
  Hf7      1.0000 0.27679  0.73040  0.87274  Biso   1.000  Hf
  Hf8      1.0000 0.72416  0.26547  0.12844  Biso   1.000  Hf
  Hf9      1.0000 0.73549  0.26754  0.62671  Biso   1.000  Hf
  Hf10     1.0000 0.75139  0.75100  0.11414  Biso   1.000  Hf
  Hf11     1.0000 0.73891  0.76610  0.62305  Biso   1.000  Hf
  Hf12     1.0000 0.73138  0.48306  0.37632  Biso   1.000  Hf
  Hf13     1.0000 0.73374  0.47940  0.87765  Biso   1.000  Hf
  Hf14     1.0000 0.73383  0.99091  0.38384  Biso   1.000  Hf
  Hf15     1.0000 0.72896  0.98369  0.87221  Biso   1.000  Hf
  O1       1.0000 0.05737  0.19281  0.20240  Biso   1.000  O 
  O2       1.0000 0.07885  0.18651  0.68708  Biso   1.000  O 
  O3       1.0000 0.10118  0.69688  0.19393  Biso   1.000  O 
  O4       1.0000 0.07365  0.68331  0.69233  Biso   1.000  O 
  O5       1.0000 0.07840  0.06510  0.44191  Biso   1.000  O 
  O6       1.0000 0.06784  0.06971  0.92378  Biso   1.000  O 
  O7       1.0000 0.07649  0.56436  0.44289  Biso   1.000  O 
  O8       1.0000 0.05846  0.57299  0.95203  Biso   1.000  O 
  O9       1.0000 0.92356  0.44117  0.19402  Biso   1.000  O 
  O10      1.0000 0.93356  0.43441  0.69773  Biso   1.000  O 
  O11      1.0000 0.81406  0.92512  0.19874  Biso   1.000  O 
  O12      1.0000 0.92271  0.93524  0.68888  Biso   1.000  O 
  O13      1.0000 0.92536  0.31812  0.44667  Biso   1.000  O 
  O14      1.0000 0.93063  0.31762  0.94630  Biso   1.000  O 
  O15      1.0000 0.93363  0.81728  0.44542  Biso   1.000  O 
  O16      1.0000 0.95909  0.82449  0.94833  Biso   1.000  O 
  O17      1.0000 0.54362  0.12717  0.26120  Biso   1.000  O 
  O18      1.0000 0.54167  0.11836  0.74951  Biso   1.000  O 
  O19      1.0000 0.55290  0.62190  0.25009  Biso   1.000  O 
  O20      1.0000 0.54423  0.61637  0.74885  Biso   1.000  O 
  O21      1.0000 0.53749  0.13378  0.50515  Biso   1.000  O 
  O22      1.0000 0.54843  0.13259  0.99722  Biso   1.000  O 
  O23      1.0000 0.54591  0.63054  0.50067  Biso   1.000  O 
  O24      1.0000 0.53587  0.62342  0.99627  Biso   1.000  O 
  O25      1.0000 0.45968  0.38290  0.50109  Biso   1.000  O 
  O26      1.0000 0.45399  0.38162  0.00114  Biso   1.000  O 
  O27      1.0000 0.45702  0.88245  0.48975  Biso   1.000  O 
  O28      1.0000 0.48551  0.86435  0.99132  Biso   1.000  O 
  O29      1.0000 0.45556  0.37295  0.25152  Biso   1.000  O 
  O30      1.0000 0.46268  0.36805  0.75015  Biso   1.000  O 
  O31      1.0000 0.45802  0.86749  0.74277  Biso   1.000  O 
