data_image0
_cell_length_a       10.1173
_cell_length_b       10.3616
_cell_length_c       5.21501
_cell_angle_alpha    90.1726
_cell_angle_beta     81.1877
_cell_angle_gamma    90.3136

_symmetry_space_group_name_H-M    "P 1"
_symmetry_int_tables_number       1

loop_
  _symmetry_equiv_pos_as_xyz
  'x, y, z'

loop_
  _atom_site_label
  _atom_site_occupancy
  _atom_site_fract_x
  _atom_site_fract_y
  _atom_site_fract_z
  _atom_site_thermal_displace_type
  _atom_site_B_iso_or_equiv
  _atom_site_type_symbol
  La1      1.0000 0.11798  0.00628  0.27198  Biso   1.000  La
  Hf1      1.0000 0.13861  0.52210  0.28828  Biso   1.000  Hf
  Hf2      1.0000 0.63863  0.02390  0.29774  Biso   1.000  Hf
  Hf3      1.0000 0.63384  0.51645  0.29280  Biso   1.000  Hf
  Hf4      1.0000 0.13706  0.23037  0.78490  Biso   1.000  Hf
  Hf5      1.0000 0.14255  0.72814  0.78758  Biso   1.000  Hf
  Hf6      1.0000 0.63618  0.23173  0.79508  Biso   1.000  Hf
  Hf7      1.0000 0.63849  0.72714  0.78765  Biso   1.000  Hf
  Hf8      1.0000 0.35520  0.26580  0.20602  Biso   1.000  Hf
  Hf9      1.0000 0.36656  0.76868  0.20290  Biso   1.000  Hf
  Hf10     1.0000 0.86092  0.27615  0.20901  Biso   1.000  Hf
  Hf11     1.0000 0.85446  0.76145  0.20737  Biso   1.000  Hf
  Hf12     1.0000 0.35897  0.47614  0.70562  Biso   1.000  Hf
  Hf13     1.0000 0.36268  0.97936  0.70031  Biso   1.000  Hf
  Hf14     1.0000 0.86142  0.47932  0.70563  Biso   1.000  Hf
  Hf15     1.0000 0.85282  0.98398  0.74187  Biso   1.000  Hf
  O1       1.0000 0.03870  0.19684  0.16880  Biso   1.000  O 
  O2       1.0000 0.04119  0.68710  0.18282  Biso   1.000  O 
  O3       1.0000 0.53467  0.16997  0.16476  Biso   1.000  O 
  O4       1.0000 0.53971  0.66716  0.15578  Biso   1.000  O 
  O5       1.0000 0.02855  0.07510  0.70258  Biso   1.000  O 
  O6       1.0000 0.03696  0.57840  0.66968  Biso   1.000  O 
  O7       1.0000 0.54178  0.07737  0.66368  Biso   1.000  O 
  O8       1.0000 0.53405  0.57862  0.66038  Biso   1.000  O 
  O9       1.0000 0.46073  0.41662  0.33783  Biso   1.000  O 
  O10      1.0000 0.46818  0.91844  0.33686  Biso   1.000  O 
  O11      1.0000 0.95619  0.43539  0.32543  Biso   1.000  O 
  O12      1.0000 0.46284  0.32903  0.83663  Biso   1.000  O 
  O13      1.0000 0.47401  0.83258  0.83423  Biso   1.000  O 
  O14      1.0000 0.95741  0.32765  0.82329  Biso   1.000  O 
  O15      1.0000 0.96766  0.83737  0.85404  Biso   1.000  O 
  O16      1.0000 0.27654  0.13054  0.48302  Biso   1.000  O 
  O17      1.0000 0.27817  0.62520  0.47611  Biso   1.000  O 
  O18      1.0000 0.78164  0.12959  0.48769  Biso   1.000  O 
  O19      1.0000 0.77205  0.62703  0.48171  Biso   1.000  O 
  O20      1.0000 0.27982  0.12394  0.96342  Biso   1.000  O 
  O21      1.0000 0.27447  0.61793  0.97847  Biso   1.000  O 
  O22      1.0000 0.77169  0.12476  0.99491  Biso   1.000  O 
  O23      1.0000 0.77957  0.62185  0.98014  Biso   1.000  O 
  O24      1.0000 0.22263  0.38099  0.01211  Biso   1.000  O 
  O25      1.0000 0.24107  0.86801  0.99051  Biso   1.000  O 
  O26      1.0000 0.72130  0.38236  0.01625  Biso   1.000  O 
  O27      1.0000 0.72135  0.87801  0.02813  Biso   1.000  O 
  O28      1.0000 0.21864  0.37169  0.51103  Biso   1.000  O 
  O29      1.0000 0.23263  0.85996  0.51384  Biso   1.000  O 
  O30      1.0000 0.72167  0.36990  0.51801  Biso   1.000  O 
  O31      1.0000 0.73927  0.86882  0.51771  Biso   1.000  O 
