data_image0
_cell_length_a       10.1288
_cell_length_b       5.16552
_cell_length_c       10.4053
_cell_angle_alpha    89.5712
_cell_angle_beta     90.0943
_cell_angle_gamma    90.1844

_symmetry_space_group_name_H-M    "P 1"
_symmetry_int_tables_number       1

loop_
  _symmetry_equiv_pos_as_xyz
  'x, y, z'

loop_
  _atom_site_label
  _atom_site_occupancy
  _atom_site_fract_x
  _atom_site_fract_y
  _atom_site_fract_z
  _atom_site_thermal_displace_type
  _atom_site_B_iso_or_equiv
  _atom_site_type_symbol
  La1      1.0000 0.13452  0.01171  0.15488  Biso   1.000  La
  Hf1      1.0000 0.13787  0.03766  0.67087  Biso   1.000  Hf
  Hf2      1.0000 0.13746  0.45211  0.42041  Biso   1.000  Hf
  Hf3      1.0000 0.12981  0.46621  0.90988  Biso   1.000  Hf
  Hf4      1.0000 0.37354  0.54629  0.18245  Biso   1.000  Hf
  Hf5      1.0000 0.36071  0.53612  0.66912  Biso   1.000  Hf
  Hf6      1.0000 0.36066  0.96030  0.42231  Biso   1.000  Hf
  Hf7      1.0000 0.37112  0.94133  0.91307  Biso   1.000  Hf
  Hf8      1.0000 0.64019  0.04105  0.08249  Biso   1.000  Hf
  Hf9      1.0000 0.63695  0.04210  0.57932  Biso   1.000  Hf
  Hf10     1.0000 0.64213  0.46210  0.33316  Biso   1.000  Hf
  Hf11     1.0000 0.64098  0.45578  0.82774  Biso   1.000  Hf
  Hf12     1.0000 0.85693  0.54122  0.07826  Biso   1.000  Hf
  Hf13     1.0000 0.86419  0.54482  0.57931  Biso   1.000  Hf
  Hf14     1.0000 0.85823  0.96401  0.33230  Biso   1.000  Hf
  Hf15     1.0000 0.85774  0.96169  0.82786  Biso   1.000  Hf
  O1       1.0000 0.04050  0.39484  0.08543  Biso   1.000  O 
  O2       1.0000 0.03827  0.35201  0.59508  Biso   1.000  O 
  O3       1.0000 0.02897  0.16068  0.34783  Biso   1.000  O 
  O4       1.0000 0.03614  0.14355  0.84229  Biso   1.000  O 
  O5       1.0000 0.46089  0.86507  0.09184  Biso   1.000  O 
  O6       1.0000 0.46521  0.83466  0.58830  Biso   1.000  O 
  O7       1.0000 0.47296  0.67363  0.34029  Biso   1.000  O 
  O8       1.0000 0.46810  0.65446  0.83385  Biso   1.000  O 
  O9       1.0000 0.28400  0.24881  0.29432  Biso   1.000  O 
  O10      1.0000 0.27732  0.24587  0.80060  Biso   1.000  O 
  O11      1.0000 0.27516  0.24890  0.54601  Biso   1.000  O 
  O12      1.0000 0.23274  0.73095  0.30201  Biso   1.000  O 
  O13      1.0000 0.22490  0.74803  0.78879  Biso   1.000  O 
  O14      1.0000 0.25374  0.67784  0.02872  Biso   1.000  O 
  O15      1.0000 0.22363  0.75192  0.54502  Biso   1.000  O 
  O16      1.0000 0.53793  0.34109  0.16487  Biso   1.000  O 
  O17      1.0000 0.53396  0.33400  0.66438  Biso   1.000  O 
  O18      1.0000 0.53421  0.16651  0.41618  Biso   1.000  O 
  O19      1.0000 0.53572  0.16177  0.91346  Biso   1.000  O 
  O20      1.0000 0.93154  0.86442  0.15464  Biso   1.000  O 
  O21      1.0000 0.96243  0.85133  0.65869  Biso   1.000  O 
  O22      1.0000 0.96466  0.65914  0.40983  Biso   1.000  O 
  O23      1.0000 0.95662  0.65463  0.90212  Biso   1.000  O 
  O24      1.0000 0.77537  0.24676  0.95545  Biso   1.000  O 
  O25      1.0000 0.77498  0.25213  0.45858  Biso   1.000  O 
  O26      1.0000 0.77513  0.26164  0.20838  Biso   1.000  O 
  O27      1.0000 0.77544  0.25354  0.70545  Biso   1.000  O 
  O28      1.0000 0.71983  0.74830  0.95586  Biso   1.000  O 
  O29      1.0000 0.72560  0.75151  0.45846  Biso   1.000  O 
  O30      1.0000 0.71061  0.75522  0.20961  Biso   1.000  O 
  O31      1.0000 0.72446  0.75101  0.70561  Biso   1.000  O 
