data_image0
_cell_length_a       10.1839
_cell_length_b       5.17766
_cell_length_c       10.437
_cell_angle_alpha    90.5097
_cell_angle_beta     81.3184
_cell_angle_gamma    90.4001

_symmetry_space_group_name_H-M    "P 1"
_symmetry_int_tables_number       1

loop_
  _symmetry_equiv_pos_as_xyz
  'x, y, z'

loop_
  _atom_site_label
  _atom_site_occupancy
  _atom_site_fract_x
  _atom_site_fract_y
  _atom_site_fract_z
  _atom_site_thermal_displace_type
  _atom_site_B_iso_or_equiv
  _atom_site_type_symbol
  La1      1.0000 0.13250  0.01894  0.14090  Biso   1.000  La
  Hf1      1.0000 0.13788  0.03994  0.64508  Biso   1.000  Hf
  Hf2      1.0000 0.64059  0.03806  0.14689  Biso   1.000  Hf
  Hf3      1.0000 0.63825  0.04460  0.64679  Biso   1.000  Hf
  Hf4      1.0000 0.12963  0.45681  0.40495  Biso   1.000  Hf
  Hf5      1.0000 0.13872  0.46493  0.89308  Biso   1.000  Hf
  Hf6      1.0000 0.63656  0.45568  0.39802  Biso   1.000  Hf
  Hf7      1.0000 0.64572  0.45887  0.89396  Biso   1.000  Hf
  Hf8      1.0000 0.37476  0.54542  0.08933  Biso   1.000  Hf
  Hf9      1.0000 0.35976  0.53794  0.60368  Biso   1.000  Hf
  Hf10     1.0000 0.85780  0.53906  0.10517  Biso   1.000  Hf
  Hf11     1.0000 0.86037  0.54504  0.60725  Biso   1.000  Hf
  Hf12     1.0000 0.36591  0.93866  0.35702  Biso   1.000  Hf
  Hf13     1.0000 0.36545  0.96155  0.84893  Biso   1.000  Hf
  Hf14     1.0000 0.85342  0.95935  0.35995  Biso   1.000  Hf
  Hf15     1.0000 0.86373  0.95925  0.85529  Biso   1.000  Hf
  O1       1.0000 0.04205  0.40136  0.08387  Biso   1.000  O 
  O2       1.0000 0.03826  0.35727  0.59395  Biso   1.000  O 
  O3       1.0000 0.54276  0.34365  0.07989  Biso   1.000  O 
  O4       1.0000 0.53369  0.33724  0.58234  Biso   1.000  O 
  O5       1.0000 0.02983  0.15254  0.34959  Biso   1.000  O 
  O6       1.0000 0.04257  0.14386  0.83850  Biso   1.000  O 
  O7       1.0000 0.53284  0.15654  0.33224  Biso   1.000  O 
  O8       1.0000 0.53994  0.16399  0.82886  Biso   1.000  O 
  O9       1.0000 0.45798  0.86277  0.16512  Biso   1.000  O 
  O10      1.0000 0.46440  0.83784  0.66670  Biso   1.000  O 
  O11      1.0000 0.92689  0.86868  0.17031  Biso   1.000  O 
  O12      1.0000 0.96101  0.85432  0.66622  Biso   1.000  O 
  O13      1.0000 0.46116  0.64855  0.42043  Biso   1.000  O 
  O14      1.0000 0.47880  0.67386  0.91543  Biso   1.000  O 
  O15      1.0000 0.95762  0.65582  0.41882  Biso   1.000  O 
  O16      1.0000 0.96037  0.65242  0.91253  Biso   1.000  O 
  O17      1.0000 0.27664  0.25736  0.73667  Biso   1.000  O 
  O18      1.0000 0.77117  0.26595  0.24554  Biso   1.000  O 
  O19      1.0000 0.77910  0.26053  0.74167  Biso   1.000  O 
  O20      1.0000 0.27439  0.23659  0.48221  Biso   1.000  O 
  O21      1.0000 0.28714  0.25020  0.98334  Biso   1.000  O 
  O22      1.0000 0.77225  0.24419  0.49489  Biso   1.000  O 
  O23      1.0000 0.77812  0.23824  0.99186  Biso   1.000  O 
  O24      1.0000 0.24341  0.74257  0.98955  Biso   1.000  O 
  O25      1.0000 0.22276  0.75872  0.50945  Biso   1.000  O 
  O26      1.0000 0.72494  0.75896  0.00921  Biso   1.000  O 
  O27      1.0000 0.72162  0.75868  0.51220  Biso   1.000  O 
  O28      1.0000 0.24203  0.66964  0.25917  Biso   1.000  O 
  O29      1.0000 0.22373  0.74156  0.75345  Biso   1.000  O 
  O30      1.0000 0.70662  0.74101  0.26579  Biso   1.000  O 
  O31      1.0000 0.72665  0.74255  0.75868  Biso   1.000  O 
