data_image0
_cell_length_a       10.0316
_cell_length_b       10.4172
_cell_length_c       5.0303
_cell_angle_alpha    90.4496
_cell_angle_beta     89.8137
_cell_angle_gamma    89.5879

_symmetry_space_group_name_H-M    "P 1"
_symmetry_int_tables_number       1

loop_
  _symmetry_equiv_pos_as_xyz
  'x, y, z'

loop_
  _atom_site_label
  _atom_site_occupancy
  _atom_site_fract_x
  _atom_site_fract_y
  _atom_site_fract_z
  _atom_site_thermal_displace_type
  _atom_site_B_iso_or_equiv
  _atom_site_type_symbol
  La1      1.0000 0.12689  0.00216  0.23887  Biso   1.000  La
  Hf1      1.0000 0.13225  0.51452  0.24796  Biso   1.000  Hf
  Hf2      1.0000 0.63607  0.01881  0.25702  Biso   1.000  Hf
  Hf3      1.0000 0.63429  0.51309  0.25751  Biso   1.000  Hf
  Hf4      1.0000 0.13629  0.23409  0.73948  Biso   1.000  Hf
  Hf5      1.0000 0.12753  0.72612  0.74128  Biso   1.000  Hf
  Hf6      1.0000 0.63692  0.23460  0.75208  Biso   1.000  Hf
  Hf7      1.0000 0.63037  0.73334  0.76769  Biso   1.000  Hf
  Hf8      1.0000 0.36560  0.26490  0.24703  Biso   1.000  Hf
  Hf9      1.0000 0.37441  0.75848  0.25998  Biso   1.000  Hf
  Hf10     1.0000 0.86803  0.26896  0.25004  Biso   1.000  Hf
  Hf11     1.0000 0.85762  0.76361  0.26416  Biso   1.000  Hf
  Hf12     1.0000 0.36721  0.48248  0.74903  Biso   1.000  Hf
  Hf13     1.0000 0.37770  0.99195  0.73475  Biso   1.000  Hf
  Hf14     1.0000 0.86554  0.48211  0.75355  Biso   1.000  Hf
  Hf15     1.0000 0.86066  0.98232  0.75798  Biso   1.000  Hf
  O1       1.0000 0.03685  0.19800  0.37790  Biso   1.000  O 
  O2       1.0000 0.03345  0.68382  0.39084  Biso   1.000  O 
  O3       1.0000 0.53835  0.18470  0.38742  Biso   1.000  O 
  O4       1.0000 0.53500  0.67984  0.41061  Biso   1.000  O 
  O5       1.0000 0.03445  0.06975  0.82814  Biso   1.000  O 
  O6       1.0000 0.03306  0.56521  0.88932  Biso   1.000  O 
  O7       1.0000 0.54580  0.06493  0.88330  Biso   1.000  O 
  O8       1.0000 0.52818  0.57025  0.91197  Biso   1.000  O 
  O9       1.0000 0.46668  0.43168  0.39589  Biso   1.000  O 
  O10      1.0000 0.46314  0.93565  0.37245  Biso   1.000  O 
  O11      1.0000 0.96071  0.44055  0.38802  Biso   1.000  O 
  O12      1.0000 0.94131  0.92379  0.41322  Biso   1.000  O 
  O13      1.0000 0.46769  0.31759  0.88780  Biso   1.000  O 
  O14      1.0000 0.45865  0.81940  0.89848  Biso   1.000  O 
  O15      1.0000 0.96522  0.31885  0.88903  Biso   1.000  O 
  O16      1.0000 0.97811  0.82514  0.92636  Biso   1.000  O 
  O17      1.0000 0.28148  0.12614  0.49696  Biso   1.000  O 
  O18      1.0000 0.26877  0.61029  0.49511  Biso   1.000  O 
  O19      1.0000 0.77139  0.11858  0.50456  Biso   1.000  O 
  O20      1.0000 0.76655  0.61814  0.50847  Biso   1.000  O 
  O21      1.0000 0.27773  0.13413  0.98141  Biso   1.000  O 
  O22      1.0000 0.26346  0.64309  0.00070  Biso   1.000  O 
  O23      1.0000 0.77243  0.13305  0.00634  Biso   1.000  O 
  O24      1.0000 0.76741  0.63049  0.00414  Biso   1.000  O 
  O25      1.0000 0.23286  0.38598  0.99427  Biso   1.000  O 
  O26      1.0000 0.72873  0.38332  0.99909  Biso   1.000  O 
  O27      1.0000 0.73008  0.87775  0.01200  Biso   1.000  O 
  O28      1.0000 0.22938  0.36917  0.49215  Biso   1.000  O 
  O29      1.0000 0.24484  0.85556  0.53172  Biso   1.000  O 
  O30      1.0000 0.73052  0.36816  0.50107  Biso   1.000  O 
  O31      1.0000 0.71523  0.86684  0.51394  Biso   1.000  O 
