data_image0
_cell_length_a       10.1449
_cell_length_b       5.14963
_cell_length_c       10.4628
_cell_angle_alpha    90.4883
_cell_angle_beta     91.0355
_cell_angle_gamma    90.4133

_symmetry_space_group_name_H-M    "P 1"
_symmetry_int_tables_number       1

loop_
  _symmetry_equiv_pos_as_xyz
  'x, y, z'

loop_
  _atom_site_label
  _atom_site_occupancy
  _atom_site_fract_x
  _atom_site_fract_y
  _atom_site_fract_z
  _atom_site_thermal_displace_type
  _atom_site_B_iso_or_equiv
  _atom_site_type_symbol
  La1      1.0000 0.13110  0.01895  0.16107  Biso   1.000  La
  Hf1      1.0000 0.13673  0.04142  0.66986  Biso   1.000  Hf
  Hf2      1.0000 0.12865  0.45946  0.42749  Biso   1.000  Hf
  Hf3      1.0000 0.13953  0.46766  0.91750  Biso   1.000  Hf
  Hf4      1.0000 0.37386  0.54658  0.16143  Biso   1.000  Hf
  Hf5      1.0000 0.35967  0.53485  0.67168  Biso   1.000  Hf
  Hf6      1.0000 0.36581  0.93239  0.42751  Biso   1.000  Hf
  Hf7      1.0000 0.36648  0.96436  0.91659  Biso   1.000  Hf
  Hf8      1.0000 0.64572  0.03895  0.07966  Biso   1.000  Hf
  Hf9      1.0000 0.63835  0.04287  0.58006  Biso   1.000  Hf
  Hf10     1.0000 0.63793  0.45608  0.33031  Biso   1.000  Hf
  Hf11     1.0000 0.63858  0.45874  0.82837  Biso   1.000  Hf
  Hf12     1.0000 0.85946  0.54128  0.07828  Biso   1.000  Hf
  Hf13     1.0000 0.85924  0.54563  0.58227  Biso   1.000  Hf
  Hf14     1.0000 0.85429  0.96210  0.33340  Biso   1.000  Hf
  Hf15     1.0000 0.86264  0.96121  0.83005  Biso   1.000  Hf
  O1       1.0000 0.04163  0.40364  0.08957  Biso   1.000  O 
  O2       1.0000 0.03493  0.35484  0.59835  Biso   1.000  O 
  O3       1.0000 0.03033  0.15616  0.35282  Biso   1.000  O 
  O4       1.0000 0.03971  0.15117  0.84323  Biso   1.000  O 
  O5       1.0000 0.47589  0.82749  0.07806  Biso   1.000  O 
  O6       1.0000 0.47006  0.81547  0.58246  Biso   1.000  O 
  O7       1.0000 0.47208  0.66878  0.32968  Biso   1.000  O 
  O8       1.0000 0.46915  0.67141  0.82897  Biso   1.000  O 
  O9       1.0000 0.27566  0.24947  0.78966  Biso   1.000  O 
  O10      1.0000 0.28696  0.25752  0.03797  Biso   1.000  O 
  O11      1.0000 0.27298  0.24665  0.53578  Biso   1.000  O 
  O12      1.0000 0.23505  0.69276  0.29791  Biso   1.000  O 
  O13      1.0000 0.22457  0.74989  0.78943  Biso   1.000  O 
  O14      1.0000 0.24580  0.73567  0.02944  Biso   1.000  O 
  O15      1.0000 0.22368  0.75204  0.54714  Biso   1.000  O 
  O16      1.0000 0.53360  0.31644  0.16848  Biso   1.000  O 
  O17      1.0000 0.52991  0.32139  0.66835  Biso   1.000  O 
  O18      1.0000 0.52796  0.16730  0.41953  Biso   1.000  O 
  O19      1.0000 0.53830  0.17233  0.91735  Biso   1.000  O 
  O20      1.0000 0.92767  0.87201  0.15642  Biso   1.000  O 
  O21      1.0000 0.96145  0.85225  0.66061  Biso   1.000  O 
  O22      1.0000 0.95923  0.66094  0.41324  Biso   1.000  O 
  O23      1.0000 0.96408  0.66198  0.90709  Biso   1.000  O 
  O24      1.0000 0.77885  0.24642  0.95545  Biso   1.000  O 
  O25      1.0000 0.77154  0.24943  0.45900  Biso   1.000  O 
  O26      1.0000 0.77569  0.26409  0.20932  Biso   1.000  O 
  O27      1.0000 0.77499  0.25646  0.70661  Biso   1.000  O 
  O28      1.0000 0.72526  0.74824  0.95441  Biso   1.000  O 
  O29      1.0000 0.72278  0.74989  0.45884  Biso   1.000  O 
  O30      1.0000 0.70998  0.75216  0.21116  Biso   1.000  O 
  O31      1.0000 0.72437  0.75301  0.70598  Biso   1.000  O 
