data_image0
_cell_length_a       10.1871
_cell_length_b       5.16778
_cell_length_c       10.4439
_cell_angle_alpha    90.0077
_cell_angle_beta     81.206
_cell_angle_gamma    90.2797

_symmetry_space_group_name_H-M    "P 1"
_symmetry_int_tables_number       1

loop_
  _symmetry_equiv_pos_as_xyz
  'x, y, z'

loop_
  _atom_site_label
  _atom_site_occupancy
  _atom_site_fract_x
  _atom_site_fract_y
  _atom_site_fract_z
  _atom_site_thermal_displace_type
  _atom_site_B_iso_or_equiv
  _atom_site_type_symbol
  La1      1.0000 0.13397  0.02315  0.14203  Biso   1.000  La
  Hf1      1.0000 0.13966  0.03798  0.64692  Biso   1.000  Hf
  Hf2      1.0000 0.63963  0.03043  0.14629  Biso   1.000  Hf
  Hf3      1.0000 0.63908  0.04337  0.64591  Biso   1.000  Hf
  Hf4      1.0000 0.13239  0.44636  0.40422  Biso   1.000  Hf
  Hf5      1.0000 0.14081  0.46096  0.89289  Biso   1.000  Hf
  Hf6      1.0000 0.63567  0.45897  0.39785  Biso   1.000  Hf
  Hf7      1.0000 0.64668  0.45477  0.89197  Biso   1.000  Hf
  Hf8      1.0000 0.37391  0.52254  0.09282  Biso   1.000  Hf
  Hf9      1.0000 0.36045  0.53951  0.60335  Biso   1.000  Hf
  Hf10     1.0000 0.85850  0.53640  0.10413  Biso   1.000  Hf
  Hf11     1.0000 0.86218  0.54444  0.60452  Biso   1.000  Hf
  Hf12     1.0000 0.36627  0.96433  0.35931  Biso   1.000  Hf
  Hf13     1.0000 0.36776  0.95366  0.85054  Biso   1.000  Hf
  Hf14     1.0000 0.85325  0.95877  0.35836  Biso   1.000  Hf
  Hf15     1.0000 0.86405  0.95582  0.85413  Biso   1.000  Hf
  O1       1.0000 0.04281  0.39676  0.08392  Biso   1.000  O 
  O2       1.0000 0.03866  0.35069  0.58999  Biso   1.000  O 
  O3       1.0000 0.54384  0.33308  0.07768  Biso   1.000  O 
  O4       1.0000 0.53346  0.33798  0.58172  Biso   1.000  O 
  O5       1.0000 0.02641  0.15140  0.35017  Biso   1.000  O 
  O6       1.0000 0.04176  0.14475  0.83723  Biso   1.000  O 
  O7       1.0000 0.53584  0.16032  0.33048  Biso   1.000  O 
  O8       1.0000 0.54180  0.15803  0.82855  Biso   1.000  O 
  O9       1.0000 0.44830  0.84747  0.17128  Biso   1.000  O 
  O10      1.0000 0.46503  0.83893  0.66657  Biso   1.000  O 
  O11      1.0000 0.92769  0.86437  0.16955  Biso   1.000  O 
  O12      1.0000 0.96312  0.84876  0.66615  Biso   1.000  O 
  O13      1.0000 0.46082  0.65943  0.42054  Biso   1.000  O 
  O14      1.0000 0.47924  0.66432  0.91458  Biso   1.000  O 
  O15      1.0000 0.96130  0.65566  0.41625  Biso   1.000  O 
  O16      1.0000 0.96121  0.65016  0.91282  Biso   1.000  O 
  O17      1.0000 0.27584  0.30781  0.25081  Biso   1.000  O 
  O18      1.0000 0.27693  0.25740  0.73915  Biso   1.000  O 
  O19      1.0000 0.77011  0.26192  0.24313  Biso   1.000  O 
  O20      1.0000 0.78033  0.25845  0.73960  Biso   1.000  O 
  O21      1.0000 0.27469  0.23710  0.49462  Biso   1.000  O 
  O22      1.0000 0.28833  0.24278  0.97991  Biso   1.000  O 
  O23      1.0000 0.77176  0.24458  0.49316  Biso   1.000  O 
  O24      1.0000 0.77867  0.23247  0.99120  Biso   1.000  O 
  O25      1.0000 0.24346  0.73366  0.99505  Biso   1.000  O 
  O26      1.0000 0.22272  0.75889  0.50278  Biso   1.000  O 
  O27      1.0000 0.72353  0.75352  0.00857  Biso   1.000  O 
  O28      1.0000 0.72288  0.75825  0.51078  Biso   1.000  O 
  O29      1.0000 0.22479  0.74049  0.75392  Biso   1.000  O 
  O30      1.0000 0.70616  0.73884  0.26429  Biso   1.000  O 
  O31      1.0000 0.72781  0.74056  0.75697  Biso   1.000  O 
