data_image0
_cell_length_a       10.0732
_cell_length_b       5.18899
_cell_length_c       10.0103
_cell_angle_alpha    89.9812
_cell_angle_beta     90.2688
_cell_angle_gamma    90.3508

_symmetry_space_group_name_H-M    "P 1"
_symmetry_int_tables_number       1

loop_
  _symmetry_equiv_pos_as_xyz
  'x, y, z'

loop_
  _atom_site_label
  _atom_site_occupancy
  _atom_site_fract_x
  _atom_site_fract_y
  _atom_site_fract_z
  _atom_site_thermal_displace_type
  _atom_site_B_iso_or_equiv
  _atom_site_type_symbol
  La1      1.0000 0.12443  0.00759  0.12822  Biso   1.000  La
  Hf1      1.0000 0.13514  0.02900  0.62373  Biso   1.000  Hf
  Hf2      1.0000 0.63367  0.02900  0.12743  Biso   1.000  Hf
  Hf3      1.0000 0.63605  0.03054  0.63082  Biso   1.000  Hf
  Hf4      1.0000 0.13041  0.45910  0.38136  Biso   1.000  Hf
  Hf5      1.0000 0.13769  0.46478  0.87179  Biso   1.000  Hf
  Hf6      1.0000 0.63333  0.46664  0.38111  Biso   1.000  Hf
  Hf7      1.0000 0.63821  0.46222  0.87726  Biso   1.000  Hf
  Hf8      1.0000 0.37438  0.51062  0.11898  Biso   1.000  Hf
  Hf9      1.0000 0.36951  0.52791  0.62410  Biso   1.000  Hf
  Hf10     1.0000 0.86023  0.53738  0.13093  Biso   1.000  Hf
  Hf11     1.0000 0.86829  0.53351  0.62644  Biso   1.000  Hf
  Hf12     1.0000 0.37241  0.97556  0.37712  Biso   1.000  Hf
  Hf13     1.0000 0.36918  0.96094  0.87464  Biso   1.000  Hf
  Hf14     1.0000 0.85752  0.96712  0.37984  Biso   1.000  Hf
  Hf15     1.0000 0.86592  0.96231  0.87700  Biso   1.000  Hf
  O1       1.0000 0.04226  0.43607  0.19648  Biso   1.000  O 
  O2       1.0000 0.04186  0.37205  0.68085  Biso   1.000  O 
  O3       1.0000 0.53947  0.35920  0.19594  Biso   1.000  O 
  O4       1.0000 0.53730  0.36579  0.69464  Biso   1.000  O 
  O5       1.0000 0.03637  0.12537  0.43491  Biso   1.000  O 
  O6       1.0000 0.03241  0.14876  0.92365  Biso   1.000  O 
  O7       1.0000 0.53808  0.12878  0.44814  Biso   1.000  O 
  O8       1.0000 0.53840  0.12732  0.94491  Biso   1.000  O 
  O9       1.0000 0.45062  0.86716  0.19122  Biso   1.000  O 
  O10      1.0000 0.46536  0.86561  0.69250  Biso   1.000  O 
  O11      1.0000 0.92487  0.89226  0.19410  Biso   1.000  O 
  O12      1.0000 0.96376  0.86884  0.69280  Biso   1.000  O 
  O13      1.0000 0.46285  0.63113  0.44434  Biso   1.000  O 
  O14      1.0000 0.47326  0.62996  0.94185  Biso   1.000  O 
  O15      1.0000 0.95934  0.63407  0.44322  Biso   1.000  O 
  O16      1.0000 0.97112  0.64509  0.95132  Biso   1.000  O 
  O17      1.0000 0.27838  0.26247  0.25837  Biso   1.000  O 
  O18      1.0000 0.27153  0.23064  0.74746  Biso   1.000  O 
  O19      1.0000 0.76712  0.24856  0.25562  Biso   1.000  O 
  O20      1.0000 0.77296  0.23596  0.75176  Biso   1.000  O 
  O21      1.0000 0.27075  0.25877  0.50252  Biso   1.000  O 
  O22      1.0000 0.27749  0.25602  0.99163  Biso   1.000  O 
  O23      1.0000 0.76953  0.26200  0.50390  Biso   1.000  O 
  O24      1.0000 0.77092  0.25776  0.00348  Biso   1.000  O 
  O25      1.0000 0.22774  0.76644  0.48435  Biso   1.000  O 
  O26      1.0000 0.24233  0.73662  0.99387  Biso   1.000  O 
  O27      1.0000 0.72678  0.75979  0.50487  Biso   1.000  O 
  O28      1.0000 0.72998  0.75700  0.00214  Biso   1.000  O 
  O29      1.0000 0.23132  0.73419  0.74131  Biso   1.000  O 
  O30      1.0000 0.71131  0.74082  0.25556  Biso   1.000  O 
  O31      1.0000 0.73180  0.73406  0.75217  Biso   1.000  O 
