data_image0
_cell_length_a       5.03208
_cell_length_b       10.4138
_cell_length_c       10.0873
_cell_angle_alpha    89.2573
_cell_angle_beta     90.8969
_cell_angle_gamma    90.4049

_symmetry_space_group_name_H-M    "P 1"
_symmetry_int_tables_number       1

loop_
  _symmetry_equiv_pos_as_xyz
  'x, y, z'

loop_
  _atom_site_label
  _atom_site_occupancy
  _atom_site_fract_x
  _atom_site_fract_y
  _atom_site_fract_z
  _atom_site_thermal_displace_type
  _atom_site_B_iso_or_equiv
  _atom_site_type_symbol
  La1      1.0000 0.24874  0.01166  0.11271  Biso   1.000  La
  Hf1      1.0000 0.28148  0.01538  0.62503  Biso   1.000  Hf
  Hf2      1.0000 0.26082  0.51736  0.12759  Biso   1.000  Hf
  Hf3      1.0000 0.27317  0.51587  0.62854  Biso   1.000  Hf
  Hf4      1.0000 0.25676  0.23190  0.37792  Biso   1.000  Hf
  Hf5      1.0000 0.21666  0.25781  0.84897  Biso   1.000  Hf
  Hf6      1.0000 0.26063  0.73277  0.37788  Biso   1.000  Hf
  Hf7      1.0000 0.28083  0.73131  0.87524  Biso   1.000  Hf
  Hf8      1.0000 0.72243  0.27641  0.13909  Biso   1.000  Hf
  Hf9      1.0000 0.72992  0.26477  0.62134  Biso   1.000  Hf
  Hf10     1.0000 0.72797  0.76492  0.13011  Biso   1.000  Hf
  Hf11     1.0000 0.73845  0.76109  0.62008  Biso   1.000  Hf
  Hf12     1.0000 0.72382  0.48628  0.37739  Biso   1.000  Hf
  Hf13     1.0000 0.72829  0.48063  0.88463  Biso   1.000  Hf
  Hf14     1.0000 0.72491  0.98287  0.37441  Biso   1.000  Hf
  Hf15     1.0000 0.75914  0.97354  0.85854  Biso   1.000  Hf
  O1       1.0000 0.05332  0.19706  0.20613  Biso   1.000  O 
  O2       1.0000 0.08585  0.18612  0.66673  Biso   1.000  O 
  O3       1.0000 0.06538  0.68229  0.20000  Biso   1.000  O 
  O4       1.0000 0.07438  0.67880  0.69782  Biso   1.000  O 
  O5       1.0000 0.07434  0.06091  0.44108  Biso   1.000  O 
  O6       1.0000 0.07935  0.08172  0.90340  Biso   1.000  O 
  O7       1.0000 0.05934  0.56519  0.45551  Biso   1.000  O 
  O8       1.0000 0.06583  0.57024  0.94854  Biso   1.000  O 
  O9       1.0000 0.91185  0.44249  0.19613  Biso   1.000  O 
  O10      1.0000 0.97952  0.41392  0.72530  Biso   1.000  O 
  O11      1.0000 0.88533  0.93220  0.20041  Biso   1.000  O 
  O12      1.0000 0.93988  0.92758  0.68637  Biso   1.000  O 
  O13      1.0000 0.92193  0.32018  0.44563  Biso   1.000  O 
  O14      1.0000 0.90549  0.31282  0.95751  Biso   1.000  O 
  O15      1.0000 0.92516  0.81333  0.44494  Biso   1.000  O 
  O16      1.0000 0.98038  0.82750  0.95742  Biso   1.000  O 
  O17      1.0000 0.54634  0.12958  0.25417  Biso   1.000  O 
  O18      1.0000 0.54692  0.12094  0.75934  Biso   1.000  O 
  O19      1.0000 0.53126  0.61683  0.25099  Biso   1.000  O 
  O20      1.0000 0.55176  0.61405  0.74995  Biso   1.000  O 
  O21      1.0000 0.54204  0.12985  0.50393  Biso   1.000  O 
  O22      1.0000 0.53448  0.63057  0.50020  Biso   1.000  O 
  O23      1.0000 0.54111  0.62849  0.00174  Biso   1.000  O 
  O24      1.0000 0.45945  0.38274  0.50193  Biso   1.000  O 
  O25      1.0000 0.43773  0.38063  0.99856  Biso   1.000  O 
  O26      1.0000 0.45874  0.88144  0.49979  Biso   1.000  O 
  O27      1.0000 0.50612  0.87448  0.98550  Biso   1.000  O 
  O28      1.0000 0.44288  0.37399  0.25404  Biso   1.000  O 
  O29      1.0000 0.49012  0.37181  0.74578  Biso   1.000  O 
  O30      1.0000 0.45800  0.85566  0.25545  Biso   1.000  O 
  O31      1.0000 0.47281  0.86284  0.74262  Biso   1.000  O 
