data_image0
_cell_length_a       5.05913
_cell_length_b       10.24
_cell_length_c       10.0867
_cell_angle_alpha    90.5283
_cell_angle_beta     91.0375
_cell_angle_gamma    88.1663

_symmetry_space_group_name_H-M    "P 1"
_symmetry_int_tables_number       1

loop_
  _symmetry_equiv_pos_as_xyz
  'x, y, z'

loop_
  _atom_site_label
  _atom_site_occupancy
  _atom_site_fract_x
  _atom_site_fract_y
  _atom_site_fract_z
  _atom_site_thermal_displace_type
  _atom_site_B_iso_or_equiv
  _atom_site_type_symbol
  La1      1.0000 0.28506  0.98100  0.13200  Biso   1.000  La
  Hf1      1.0000 0.25544  0.01136  0.60846  Biso   1.000  Hf
  Hf2      1.0000 0.24220  0.49812  0.12415  Biso   1.000  Hf
  Hf3      1.0000 0.30587  0.50755  0.61601  Biso   1.000  Hf
  Hf4      1.0000 0.26493  0.26442  0.37322  Biso   1.000  Hf
  Hf5      1.0000 0.27648  0.24914  0.89380  Biso   1.000  Hf
  Hf6      1.0000 0.19516  0.76025  0.37807  Biso   1.000  Hf
  Hf7      1.0000 0.24880  0.73014  0.86781  Biso   1.000  Hf
  Hf8      1.0000 0.79258  0.23284  0.11354  Biso   1.000  Hf
  Hf9      1.0000 0.72999  0.23468  0.64737  Biso   1.000  Hf
  Hf10     1.0000 0.76056  0.73932  0.10883  Biso   1.000  Hf
  Hf11     1.0000 0.71462  0.76447  0.60416  Biso   1.000  Hf
  Hf12     1.0000 0.78306  0.02932  0.37962  Biso   1.000  Hf
  Hf13     1.0000 0.75589  0.97143  0.86714  Biso   1.000  Hf
  Hf14     1.0000 0.78574  0.49409  0.38966  Biso   1.000  Hf
  Hf15     1.0000 0.78128  0.49113  0.86712  Biso   1.000  Hf
  O1       1.0000 0.03460  0.12793  0.98894  Biso   1.000  O 
  O2       1.0000 0.00094  0.15724  0.49976  Biso   1.000  O 
  O3       1.0000 0.01511  0.62616  0.99688  Biso   1.000  O 
  O4       1.0000 0.99327  0.64073  0.51234  Biso   1.000  O 
  O5       1.0000 0.03550  0.12832  0.25688  Biso   1.000  O 
  O6       1.0000 0.93857  0.06885  0.72484  Biso   1.000  O 
  O7       1.0000 0.96404  0.61590  0.25257  Biso   1.000  O 
  O8       1.0000 0.07147  0.56843  0.76485  Biso   1.000  O 
  O9       1.0000 0.97421  0.36485  0.25380  Biso   1.000  O 
  O10      1.0000 0.97785  0.32476  0.77095  Biso   1.000  O 
  O11      1.0000 0.88400  0.87489  0.25284  Biso   1.000  O 
  O12      1.0000 0.96904  0.81736  0.75450  Biso   1.000  O 
  O13      1.0000 0.99793  0.38232  0.00868  Biso   1.000  O 
  O14      1.0000 0.07207  0.39882  0.49920  Biso   1.000  O 
  O15      1.0000 0.00129  0.86644  0.99501  Biso   1.000  O 
  O16      1.0000 0.97780  0.89478  0.51012  Biso   1.000  O 
  O17      1.0000 0.54430  0.15856  0.25503  Biso   1.000  O 
  O18      1.0000 0.44284  0.13995  0.74472  Biso   1.000  O 
  O19      1.0000 0.41287  0.74308  0.21615  Biso   1.000  O 
  O20      1.0000 0.54911  0.63682  0.74230  Biso   1.000  O 
  O21      1.0000 0.55465  0.10455  0.98982  Biso   1.000  O 
  O22      1.0000 0.49816  0.12402  0.49978  Biso   1.000  O 
  O23      1.0000 0.52072  0.58908  0.00587  Biso   1.000  O 
  O24      1.0000 0.49030  0.62664  0.48063  Biso   1.000  O 
  O25      1.0000 0.48279  0.34631  0.03585  Biso   1.000  O 
  O26      1.0000 0.56935  0.37052  0.51517  Biso   1.000  O 
  O27      1.0000 0.51967  0.84033  0.97414  Biso   1.000  O 
  O28      1.0000 0.48119  0.87758  0.47592  Biso   1.000  O 
  O29      1.0000 0.45381  0.43678  0.28355  Biso   1.000  O 
  O30      1.0000 0.49200  0.38639  0.76551  Biso   1.000  O 
  O31      1.0000 0.47601  0.88925  0.73154  Biso   1.000  O 
