data_image0
_cell_length_a       10.1752
_cell_length_b       10.3737
_cell_length_c       10.4629
_cell_angle_alpha    90.0788
_cell_angle_beta     80.8509
_cell_angle_gamma    90.2875

_symmetry_space_group_name_H-M    "P 1"
_symmetry_int_tables_number       1

loop_
  _symmetry_equiv_pos_as_xyz
  'x, y, z'

loop_
  _atom_site_label
  _atom_site_occupancy
  _atom_site_fract_x
  _atom_site_fract_y
  _atom_site_fract_z
  _atom_site_thermal_displace_type
  _atom_site_B_iso_or_equiv
  _atom_site_type_symbol
  La1      1.0000 0.13041  0.01286  0.13911  Biso   1.000  La
  La2      1.0000 0.13039  0.01285  0.63909  Biso   1.000  La
  Hf1      1.0000 0.13930  0.52044  0.14386  Biso   1.000  Hf
  Hf2      1.0000 0.13928  0.52044  0.64386  Biso   1.000  Hf
  Hf3      1.0000 0.64091  0.02207  0.14806  Biso   1.000  Hf
  Hf4      1.0000 0.64089  0.02205  0.64808  Biso   1.000  Hf
  Hf5      1.0000 0.63804  0.51782  0.14605  Biso   1.000  Hf
  Hf6      1.0000 0.63804  0.51781  0.64605  Biso   1.000  Hf
  Hf7      1.0000 0.13748  0.23300  0.39488  Biso   1.000  Hf
  Hf8      1.0000 0.13748  0.23299  0.89487  Biso   1.000  Hf
  Hf9      1.0000 0.14226  0.72558  0.39382  Biso   1.000  Hf
  Hf10     1.0000 0.14225  0.72559  0.89382  Biso   1.000  Hf
  Hf11     1.0000 0.63877  0.23019  0.39713  Biso   1.000  Hf
  Hf12     1.0000 0.63876  0.23019  0.89712  Biso   1.000  Hf
  Hf13     1.0000 0.63884  0.72600  0.39550  Biso   1.000  Hf
  Hf14     1.0000 0.63883  0.72599  0.89549  Biso   1.000  Hf
  Hf15     1.0000 0.36060  0.26892  0.10319  Biso   1.000  Hf
  Hf16     1.0000 0.36061  0.26891  0.60318  Biso   1.000  Hf
  Hf17     1.0000 0.36602  0.76755  0.10324  Biso   1.000  Hf
  Hf18     1.0000 0.36601  0.76753  0.60323  Biso   1.000  Hf
  Hf19     1.0000 0.85982  0.27469  0.10421  Biso   1.000  Hf
  Hf20     1.0000 0.85980  0.27467  0.60420  Biso   1.000  Hf
  Hf21     1.0000 0.85915  0.76431  0.10249  Biso   1.000  Hf
  Hf22     1.0000 0.85914  0.76431  0.60249  Biso   1.000  Hf
  Hf23     1.0000 0.36064  0.47678  0.35262  Biso   1.000  Hf
  Hf24     1.0000 0.36063  0.47677  0.85263  Biso   1.000  Hf
  Hf25     1.0000 0.36504  0.97891  0.35082  Biso   1.000  Hf
  Hf26     1.0000 0.36500  0.97891  0.85082  Biso   1.000  Hf
  Hf27     1.0000 0.86172  0.47946  0.35276  Biso   1.000  Hf
  Hf28     1.0000 0.86170  0.47947  0.85274  Biso   1.000  Hf
  Hf29     1.0000 0.85529  0.97875  0.36407  Biso   1.000  Hf
  Hf30     1.0000 0.85528  0.97877  0.86405  Biso   1.000  Hf
  O1       1.0000 0.03929  0.19932  0.08435  Biso   1.000  O 
  O2       1.0000 0.03930  0.19933  0.58436  Biso   1.000  O 
  O3       1.0000 0.04088  0.67782  0.08452  Biso   1.000  O 
  O4       1.0000 0.04088  0.67781  0.58451  Biso   1.000  O 
  O5       1.0000 0.53590  0.16878  0.08051  Biso   1.000  O 
  O6       1.0000 0.53591  0.16877  0.58051  Biso   1.000  O 
  O7       1.0000 0.53816  0.66630  0.07934  Biso   1.000  O 
  O8       1.0000 0.53817  0.66629  0.57931  Biso   1.000  O 
  O9       1.0000 0.03064  0.07639  0.35447  Biso   1.000  O 
  O10      1.0000 0.03061  0.07641  0.85445  Biso   1.000  O 
  O11      1.0000 0.03775  0.57738  0.33136  Biso   1.000  O 
  O12      1.0000 0.03775  0.57737  0.83135  Biso   1.000  O 
  O13      1.0000 0.53907  0.08079  0.33013  Biso   1.000  O 
  O14      1.0000 0.53905  0.08079  0.83012  Biso   1.000  O 
  O15      1.0000 0.53456  0.58028  0.32893  Biso   1.000  O 
  O16      1.0000 0.53454  0.58028  0.82890  Biso   1.000  O 
  O17      1.0000 0.46467  0.41673  0.16986  Biso   1.000  O 
  O18      1.0000 0.46468  0.41673  0.66985  Biso   1.000  O 
  O19      1.0000 0.46717  0.91954  0.16784  Biso   1.000  O 
  O20      1.0000 0.46716  0.91952  0.66784  Biso   1.000  O 
  O21      1.0000 0.95755  0.43197  0.16343  Biso   1.000  O 
  O22      1.0000 0.95756  0.43195  0.66342  Biso   1.000  O 
  O23      1.0000 0.92973  0.92336  0.17607  Biso   1.000  O 
  O24      1.0000 0.92973  0.92336  0.67605  Biso   1.000  O 
  O25      1.0000 0.46623  0.33204  0.41953  Biso   1.000  O 
  O26      1.0000 0.46623  0.33204  0.91953  Biso   1.000  O 
  O27      1.0000 0.47305  0.83336  0.41960  Biso   1.000  O 
  O28      1.0000 0.47304  0.83336  0.91961  Biso   1.000  O 
  O29      1.0000 0.95907  0.32931  0.41219  Biso   1.000  O 
  O30      1.0000 0.95906  0.32933  0.91218  Biso   1.000  O 
  O31      1.0000 0.96613  0.82888  0.42003  Biso   1.000  O 
  O32      1.0000 0.96612  0.82890  0.92002  Biso   1.000  O 
  O33      1.0000 0.28184  0.13457  0.24500  Biso   1.000  O 
  O34      1.0000 0.28185  0.13456  0.74500  Biso   1.000  O 
  O35      1.0000 0.27799  0.62380  0.23786  Biso   1.000  O 
  O36      1.0000 0.27801  0.62379  0.73785  Biso   1.000  O 
  O37      1.0000 0.77690  0.13254  0.24470  Biso   1.000  O 
  O38      1.0000 0.77690  0.13253  0.74469  Biso   1.000  O 
  O39      1.0000 0.77440  0.62938  0.24041  Biso   1.000  O 
  O40      1.0000 0.77441  0.62937  0.74041  Biso   1.000  O 
  O41      1.0000 0.28410  0.12683  0.48155  Biso   1.000  O 
  O42      1.0000 0.28408  0.12683  0.98155  Biso   1.000  O 
  O43      1.0000 0.27680  0.61742  0.48918  Biso   1.000  O 
  O44      1.0000 0.27679  0.61743  0.98917  Biso   1.000  O 
  O45      1.0000 0.77378  0.12201  0.49536  Biso   1.000  O 
  O46      1.0000 0.77378  0.12202  0.99535  Biso   1.000  O 
  O47      1.0000 0.77655  0.61877  0.48974  Biso   1.000  O 
  O48      1.0000 0.77655  0.61879  0.98973  Biso   1.000  O 
  O49      1.0000 0.22565  0.38065  0.00655  Biso   1.000  O 
  O50      1.0000 0.22565  0.38066  0.50654  Biso   1.000  O 
  O51      1.0000 0.24118  0.86645  0.99667  Biso   1.000  O 
  O52      1.0000 0.24120  0.86645  0.49669  Biso   1.000  O 
  O53      1.0000 0.72248  0.38014  0.00887  Biso   1.000  O 
  O54      1.0000 0.72247  0.38013  0.50886  Biso   1.000  O 
  O55      1.0000 0.72456  0.87725  0.01223  Biso   1.000  O 
  O56      1.0000 0.72454  0.87724  0.51224  Biso   1.000  O 
  O57      1.0000 0.22156  0.37224  0.25635  Biso   1.000  O 
  O58      1.0000 0.22156  0.37222  0.75633  Biso   1.000  O 
  O59      1.0000 0.23603  0.85858  0.25950  Biso   1.000  O 
  O60      1.0000 0.23602  0.85857  0.75949  Biso   1.000  O 
  O61      1.0000 0.72277  0.37218  0.25959  Biso   1.000  O 
  O62      1.0000 0.72277  0.37216  0.75957  Biso   1.000  O 
  O63      1.0000 0.71326  0.87040  0.26534  Biso   1.000  O 
  O64      1.0000 0.71327  0.87036  0.76532  Biso   1.000  O 
