data_image0
_cell_length_a       10.1805
_cell_length_b       10.3791
_cell_length_c       10.4206
_cell_angle_alpha    89.9363
_cell_angle_beta     80.6441
_cell_angle_gamma    89.7669

_symmetry_space_group_name_H-M    "P 1"
_symmetry_int_tables_number       1

loop_
  _symmetry_equiv_pos_as_xyz
  'x, y, z'

loop_
  _atom_site_label
  _atom_site_occupancy
  _atom_site_fract_x
  _atom_site_fract_y
  _atom_site_fract_z
  _atom_site_thermal_displace_type
  _atom_site_B_iso_or_equiv
  _atom_site_type_symbol
  Hf1      1.0000 0.11643  0.00342  0.13309  Biso   1.000  Hf
  Hf2      1.0000 0.13912  0.02125  0.64574  Biso   1.000  Hf
  Hf3      1.0000 0.14029  0.52401  0.14515  Biso   1.000  Hf
  Hf4      1.0000 0.13857  0.52129  0.64693  Biso   1.000  Hf
  Hf5      1.0000 0.64761  0.01900  0.14493  Biso   1.000  Hf
  Hf6      1.0000 0.63651  0.02068  0.64708  Biso   1.000  Hf
  Hf7      1.0000 0.63990  0.52268  0.14527  Biso   1.000  Hf
  Hf8      1.0000 0.63563  0.52111  0.64810  Biso   1.000  Hf
  La1      1.0000 0.13010  0.23775  0.39017  Biso   1.000  La
  Hf9      1.0000 0.13840  0.22910  0.89570  Biso   1.000  Hf
  Hf10     1.0000 0.13664  0.73199  0.39625  Biso   1.000  Hf
  Hf11     1.0000 0.13871  0.72547  0.89543  Biso   1.000  Hf
  Hf12     1.0000 0.63889  0.23176  0.39581  Biso   1.000  Hf
  Hf13     1.0000 0.64406  0.22704  0.89467  Biso   1.000  Hf
  Hf14     1.0000 0.64428  0.72766  0.39873  Biso   1.000  Hf
  Hf15     1.0000 0.63725  0.72889  0.89384  Biso   1.000  Hf
  La2      1.0000 0.36532  0.26009  0.11275  Biso   1.000  La
  Hf16     1.0000 0.36263  0.27144  0.60366  Biso   1.000  Hf
  Hf17     1.0000 0.36385  0.77486  0.10359  Biso   1.000  Hf
  Hf18     1.0000 0.35940  0.76753  0.60825  Biso   1.000  Hf
  Hf19     1.0000 0.86183  0.27233  0.10464  Biso   1.000  Hf
  Hf20     1.0000 0.85471  0.27146  0.60926  Biso   1.000  Hf
  Hf21     1.0000 0.85604  0.76356  0.09877  Biso   1.000  Hf
  Hf22     1.0000 0.86155  0.77094  0.60572  Biso   1.000  Hf
  Hf23     1.0000 0.36631  0.48796  0.35616  Biso   1.000  Hf
  Hf24     1.0000 0.36058  0.47530  0.85633  Biso   1.000  Hf
  Hf25     1.0000 0.37187  0.96705  0.36201  Biso   1.000  Hf
  Hf26     1.0000 0.36029  0.97699  0.85175  Biso   1.000  Hf
  Hf27     1.0000 0.85857  0.48320  0.35346  Biso   1.000  Hf
  Hf28     1.0000 0.86284  0.47768  0.85304  Biso   1.000  Hf
  Hf29     1.0000 0.85784  0.97853  0.35512  Biso   1.000  Hf
  Hf30     1.0000 0.86459  0.97639  0.85335  Biso   1.000  Hf
  O1       1.0000 0.04101  0.17719  0.08877  Biso   1.000  O 
  O2       1.0000 0.02809  0.16844  0.59475  Biso   1.000  O 
  O3       1.0000 0.03521  0.67467  0.08235  Biso   1.000  O 
  O4       1.0000 0.03669  0.67093  0.58087  Biso   1.000  O 
  O5       1.0000 0.56596  0.17463  0.08051  Biso   1.000  O 
  O6       1.0000 0.53803  0.17157  0.58057  Biso   1.000  O 
  O7       1.0000 0.54154  0.68064  0.08424  Biso   1.000  O 
  O8       1.0000 0.53709  0.67190  0.58464  Biso   1.000  O 
  O9       1.0000 0.04154  0.05709  0.31754  Biso   1.000  O 
  O10      1.0000 0.04129  0.07175  0.83672  Biso   1.000  O 
  O11      1.0000 0.03462  0.58125  0.33269  Biso   1.000  O 
  O12      1.0000 0.03732  0.57502  0.83353  Biso   1.000  O 
  O13      1.0000 0.53551  0.08120  0.32957  Biso   1.000  O 
  O14      1.0000 0.53412  0.07924  0.83331  Biso   1.000  O 
  O15      1.0000 0.54320  0.58140  0.33593  Biso   1.000  O 
  O16      1.0000 0.53527  0.57895  0.83417  Biso   1.000  O 
  O17      1.0000 0.46687  0.43987  0.16906  Biso   1.000  O 
  O18      1.0000 0.46196  0.42097  0.66894  Biso   1.000  O 
  O19      1.0000 0.46124  0.93258  0.16712  Biso   1.000  O 
  O20      1.0000 0.46213  0.92143  0.66584  Biso   1.000  O 
  O21      1.0000 0.96501  0.42168  0.16973  Biso   1.000  O 
  O22      1.0000 0.96395  0.42028  0.66726  Biso   1.000  O 
  O23      1.0000 0.94343  0.92508  0.15336  Biso   1.000  O 
  O24      1.0000 0.96500  0.91951  0.66696  Biso   1.000  O 
  O25      1.0000 0.46072  0.32620  0.41146  Biso   1.000  O 
  O26      1.0000 0.47054  0.32910  0.91297  Biso   1.000  O 
  O27      1.0000 0.46639  0.82415  0.42157  Biso   1.000  O 
  O28      1.0000 0.46305  0.82979  0.91670  Biso   1.000  O 
  O29      1.0000 0.93667  0.32924  0.42551  Biso   1.000  O 
  O30      1.0000 0.96269  0.32535  0.91709  Biso   1.000  O 
  O31      1.0000 0.95955  0.82687  0.41556  Biso   1.000  O 
  O32      1.0000 0.96197  0.82230  0.91351  Biso   1.000  O 
  O33      1.0000 0.27629  0.12940  0.73943  Biso   1.000  O 
  O34      1.0000 0.27472  0.64416  0.24310  Biso   1.000  O 
  O35      1.0000 0.27567  0.62695  0.74241  Biso   1.000  O 
  O36      1.0000 0.77721  0.13032  0.24310  Biso   1.000  O 
  O37      1.0000 0.77337  0.12666  0.74228  Biso   1.000  O 
  O38      1.0000 0.77728  0.63052  0.24060  Biso   1.000  O 
  O39      1.0000 0.77593  0.62875  0.74075  Biso   1.000  O 
  O40      1.0000 0.28382  0.11198  0.48815  Biso   1.000  O 
  O41      1.0000 0.26422  0.10518  0.99120  Biso   1.000  O 
  O42      1.0000 0.27602  0.62646  0.49173  Biso   1.000  O 
  O43      1.0000 0.27833  0.62062  0.99274  Biso   1.000  O 
  O44      1.0000 0.77545  0.11854  0.49171  Biso   1.000  O 
  O45      1.0000 0.79053  0.11757  0.98882  Biso   1.000  O 
  O46      1.0000 0.77662  0.62086  0.49278  Biso   1.000  O 
  O47      1.0000 0.77546  0.62023  0.98809  Biso   1.000  O 
  O48      1.0000 0.21701  0.38346  0.00342  Biso   1.000  O 
  O49      1.0000 0.23499  0.38977  0.51504  Biso   1.000  O 
  O50      1.0000 0.22165  0.86924  0.00712  Biso   1.000  O 
  O51      1.0000 0.22425  0.87544  0.51035  Biso   1.000  O 
  O52      1.0000 0.72790  0.38120  0.00795  Biso   1.000  O 
  O53      1.0000 0.71030  0.38098  0.51271  Biso   1.000  O 
  O54      1.0000 0.72341  0.87872  0.00673  Biso   1.000  O 
  O55      1.0000 0.72360  0.87934  0.51107  Biso   1.000  O 
  O56      1.0000 0.22871  0.39886  0.25986  Biso   1.000  O 
  O57      1.0000 0.22440  0.36825  0.75919  Biso   1.000  O 
  O58      1.0000 0.22744  0.88636  0.25640  Biso   1.000  O 
  O59      1.0000 0.22424  0.86784  0.75900  Biso   1.000  O 
  O60      1.0000 0.72443  0.37240  0.25798  Biso   1.000  O 
  O61      1.0000 0.72528  0.37083  0.76002  Biso   1.000  O 
  O62      1.0000 0.72209  0.86896  0.26194  Biso   1.000  O 
  O63      1.0000 0.72419  0.86998  0.75862  Biso   1.000  O 
