data_image0
_cell_length_a       10.1088
_cell_length_b       10.3111
_cell_length_c       10.477
_cell_angle_alpha    89.915
_cell_angle_beta     89.9646
_cell_angle_gamma    89.8019

_symmetry_space_group_name_H-M    "P 1"
_symmetry_int_tables_number       1

loop_
  _symmetry_equiv_pos_as_xyz
  'x, y, z'

loop_
  _atom_site_label
  _atom_site_occupancy
  _atom_site_fract_x
  _atom_site_fract_y
  _atom_site_fract_z
  _atom_site_thermal_displace_type
  _atom_site_B_iso_or_equiv
  _atom_site_type_symbol
  Hf1      1.0000 0.11954  0.00109  0.15196  Biso   1.000  Hf
  Hf2      1.0000 0.13662  0.02387  0.67781  Biso   1.000  Hf
  Hf3      1.0000 0.13819  0.52352  0.16965  Biso   1.000  Hf
  Hf4      1.0000 0.13876  0.52293  0.66938  Biso   1.000  Hf
  La1      1.0000 0.12815  0.23931  0.41420  Biso   1.000  La
  Hf5      1.0000 0.13869  0.23090  0.92753  Biso   1.000  Hf
  Hf6      1.0000 0.14042  0.73116  0.41950  Biso   1.000  Hf
  Hf7      1.0000 0.13747  0.72844  0.91663  Biso   1.000  Hf
  Hf8      1.0000 0.37538  0.28357  0.16116  Biso   1.000  Hf
  Hf9      1.0000 0.36183  0.27400  0.67526  Biso   1.000  Hf
  Hf10     1.0000 0.36280  0.76603  0.16791  Biso   1.000  Hf
  Hf11     1.0000 0.35999  0.77599  0.66763  Biso   1.000  Hf
  Hf12     1.0000 0.36492  0.48206  0.42136  Biso   1.000  Hf
  Hf13     1.0000 0.35985  0.48313  0.91514  Biso   1.000  Hf
  La2      1.0000 0.36051  0.99397  0.41086  Biso   1.000  La
  Hf14     1.0000 0.36424  0.97846  0.92343  Biso   1.000  Hf
  Hf15     1.0000 0.63990  0.02001  0.08140  Biso   1.000  Hf
  Hf16     1.0000 0.64177  0.01953  0.58308  Biso   1.000  Hf
  Hf17     1.0000 0.64266  0.52337  0.07400  Biso   1.000  Hf
  Hf18     1.0000 0.63777  0.52064  0.57909  Biso   1.000  Hf
  Hf19     1.0000 0.64615  0.23132  0.33204  Biso   1.000  Hf
  Hf20     1.0000 0.63692  0.22833  0.83142  Biso   1.000  Hf
  Hf21     1.0000 0.63770  0.72908  0.32767  Biso   1.000  Hf
  Hf22     1.0000 0.63646  0.72943  0.82429  Biso   1.000  Hf
  Hf23     1.0000 0.86076  0.27183  0.07870  Biso   1.000  Hf
  Hf24     1.0000 0.85588  0.27067  0.58621  Biso   1.000  Hf
  Hf25     1.0000 0.85585  0.76588  0.07315  Biso   1.000  Hf
  Hf26     1.0000 0.86303  0.77063  0.57826  Biso   1.000  Hf
  Hf27     1.0000 0.85820  0.48480  0.32791  Biso   1.000  Hf
  Hf28     1.0000 0.86306  0.47845  0.82629  Biso   1.000  Hf
  Hf29     1.0000 0.86067  0.97736  0.32988  Biso   1.000  Hf
  Hf30     1.0000 0.86169  0.97792  0.83012  Biso   1.000  Hf
  O1       1.0000 0.03194  0.16840  0.08689  Biso   1.000  O 
  O2       1.0000 0.02142  0.16481  0.60013  Biso   1.000  O 
  O3       1.0000 0.03245  0.66896  0.08228  Biso   1.000  O 
  O4       1.0000 0.03347  0.66523  0.58124  Biso   1.000  O 
  O5       1.0000 0.05075  0.05589  0.32346  Biso   1.000  O 
  O6       1.0000 0.03476  0.07809  0.84571  Biso   1.000  O 
  O7       1.0000 0.03472  0.58261  0.33260  Biso   1.000  O 
  O8       1.0000 0.03367  0.58259  0.83389  Biso   1.000  O 
  O9       1.0000 0.47162  0.42033  0.07879  Biso   1.000  O 
  O10      1.0000 0.46873  0.41644  0.58610  Biso   1.000  O 
  O11      1.0000 0.46636  0.91656  0.08779  Biso   1.000  O 
  O12      1.0000 0.47316  0.91517  0.58893  Biso   1.000  O 
  O13      1.0000 0.46112  0.31973  0.33866  Biso   1.000  O 
  O14      1.0000 0.46675  0.33468  0.83843  Biso   1.000  O 
  O15      1.0000 0.46433  0.81798  0.33209  Biso   1.000  O 
  O16      1.0000 0.46639  0.83588  0.83480  Biso   1.000  O 
  O17      1.0000 0.27596  0.12683  0.81073  Biso   1.000  O 
  O18      1.0000 0.27559  0.62438  0.29347  Biso   1.000  O 
  O19      1.0000 0.27538  0.62564  0.79134  Biso   1.000  O 
  O20      1.0000 0.27575  0.12438  0.07067  Biso   1.000  O 
  O21      1.0000 0.27231  0.13276  0.56671  Biso   1.000  O 
  O22      1.0000 0.27473  0.62451  0.04186  Biso   1.000  O 
  O23      1.0000 0.27910  0.63130  0.54137  Biso   1.000  O 
  O24      1.0000 0.24250  0.38305  0.27950  Biso   1.000  O 
  O25      1.0000 0.22343  0.37564  0.79441  Biso   1.000  O 
  O26      1.0000 0.21496  0.86643  0.27648  Biso   1.000  O 
  O27      1.0000 0.22553  0.87490  0.79443  Biso   1.000  O 
  O28      1.0000 0.22804  0.37776  0.03888  Biso   1.000  O 
  O29      1.0000 0.23154  0.38933  0.54816  Biso   1.000  O 
  O30      1.0000 0.22592  0.87198  0.03598  Biso   1.000  O 
  O31      1.0000 0.21569  0.87491  0.54802  Biso   1.000  O 
  O32      1.0000 0.53382  0.16290  0.17150  Biso   1.000  O 
  O33      1.0000 0.53314  0.16571  0.67023  Biso   1.000  O 
  O34      1.0000 0.53605  0.66364  0.16170  Biso   1.000  O 
  O35      1.0000 0.53221  0.66729  0.66417  Biso   1.000  O 
  O36      1.0000 0.55867  0.08483  0.41931  Biso   1.000  O 
  O37      1.0000 0.53249  0.08624  0.92228  Biso   1.000  O 
  O38      1.0000 0.53718  0.57777  0.41228  Biso   1.000  O 
  O39      1.0000 0.53346  0.58471  0.91287  Biso   1.000  O 
  O40      1.0000 0.97000  0.41288  0.17000  Biso   1.000  O 
  O41      1.0000 0.96701  0.41683  0.66755  Biso   1.000  O 
  O42      1.0000 0.94705  0.92080  0.14869  Biso   1.000  O 
  O43      1.0000 0.96559  0.91622  0.66654  Biso   1.000  O 
  O44      1.0000 0.94581  0.34489  0.42634  Biso   1.000  O 
  O45      1.0000 0.96745  0.33349  0.91659  Biso   1.000  O 
  O46      1.0000 0.96390  0.82888  0.41076  Biso   1.000  O 
  O47      1.0000 0.96409  0.82850  0.91131  Biso   1.000  O 
  O48      1.0000 0.77502  0.12372  0.95855  Biso   1.000  O 
  O49      1.0000 0.79230  0.12260  0.45736  Biso   1.000  O 
  O50      1.0000 0.77492  0.62370  0.95077  Biso   1.000  O 
  O51      1.0000 0.77534  0.62395  0.45424  Biso   1.000  O 
  O52      1.0000 0.77850  0.12756  0.20737  Biso   1.000  O 
  O53      1.0000 0.77227  0.12422  0.71106  Biso   1.000  O 
  O54      1.0000 0.77619  0.62695  0.20105  Biso   1.000  O 
  O55      1.0000 0.77602  0.62511  0.70317  Biso   1.000  O 
  O56      1.0000 0.72610  0.37421  0.95492  Biso   1.000  O 
  O57      1.0000 0.71284  0.37283  0.45773  Biso   1.000  O 
  O58      1.0000 0.72169  0.87375  0.95486  Biso   1.000  O 
  O59      1.0000 0.72565  0.87333  0.45624  Biso   1.000  O 
  O60      1.0000 0.72469  0.37899  0.20400  Biso   1.000  O 
  O61      1.0000 0.72293  0.37624  0.70836  Biso   1.000  O 
  O62      1.0000 0.72107  0.87551  0.20787  Biso   1.000  O 
  O63      1.0000 0.72667  0.87365  0.70627  Biso   1.000  O 
