data_image0
_cell_length_a       10.1371
_cell_length_b       10.3018
_cell_length_c       10.5105
_cell_angle_alpha    90.0007
_cell_angle_beta     89.9965
_cell_angle_gamma    90.241

_symmetry_space_group_name_H-M    "P 1"
_symmetry_int_tables_number       1

loop_
  _symmetry_equiv_pos_as_xyz
  'x, y, z'

loop_
  _atom_site_label
  _atom_site_occupancy
  _atom_site_fract_x
  _atom_site_fract_y
  _atom_site_fract_z
  _atom_site_thermal_displace_type
  _atom_site_B_iso_or_equiv
  _atom_site_type_symbol
  La1      1.0000 0.13362  0.01159  0.16588  Biso   1.000  La
  Hf1      1.0000 0.13861  0.01858  0.67368  Biso   1.000  Hf
  Hf2      1.0000 0.13881  0.52038  0.16874  Biso   1.000  Hf
  Hf3      1.0000 0.13973  0.52124  0.66935  Biso   1.000  Hf
  Hf4      1.0000 0.14029  0.22665  0.42283  Biso   1.000  Hf
  Hf5      1.0000 0.13777  0.23314  0.92074  Biso   1.000  Hf
  Hf6      1.0000 0.13873  0.72867  0.42238  Biso   1.000  Hf
  Hf7      1.0000 0.14120  0.72744  0.92050  Biso   1.000  Hf
  Hf8      1.0000 0.36137  0.27015  0.17022  Biso   1.000  Hf
  Hf9      1.0000 0.35761  0.26559  0.67345  Biso   1.000  Hf
  Hf10     1.0000 0.36670  0.76686  0.17057  Biso   1.000  Hf
  Hf11     1.0000 0.35868  0.77367  0.67366  Biso   1.000  Hf
  Hf12     1.0000 0.35303  0.47872  0.41481  Biso   1.000  Hf
  Hf13     1.0000 0.36189  0.47845  0.91986  Biso   1.000  Hf
  Hf14     1.0000 0.36254  0.97944  0.42313  Biso   1.000  Hf
  Hf15     1.0000 0.36398  0.98075  0.92169  Biso   1.000  Hf
  Hf16     1.0000 0.63971  0.02120  0.08066  Biso   1.000  Hf
  Hf17     1.0000 0.63880  0.02035  0.58128  Biso   1.000  Hf
  Hf18     1.0000 0.63859  0.51858  0.07631  Biso   1.000  Hf
  La2      1.0000 0.63362  0.51159  0.58412  Biso   1.000  La
  Hf19     1.0000 0.63872  0.22864  0.32762  Biso   1.000  Hf
  Hf20     1.0000 0.64117  0.22742  0.82951  Biso   1.000  Hf
  Hf21     1.0000 0.64030  0.72666  0.32717  Biso   1.000  Hf
  Hf22     1.0000 0.63778  0.73315  0.82927  Biso   1.000  Hf
  Hf23     1.0000 0.85866  0.27365  0.07634  Biso   1.000  Hf
  Hf24     1.0000 0.86669  0.26685  0.57943  Biso   1.000  Hf
  Hf25     1.0000 0.85763  0.76560  0.07653  Biso   1.000  Hf
  Hf26     1.0000 0.86137  0.77018  0.57978  Biso   1.000  Hf
  Hf27     1.0000 0.86253  0.47942  0.32687  Biso   1.000  Hf
  Hf28     1.0000 0.86398  0.48072  0.82829  Biso   1.000  Hf
  Hf29     1.0000 0.85299  0.97874  0.33519  Biso   1.000  Hf
  Hf30     1.0000 0.86188  0.97847  0.83014  Biso   1.000  Hf
  O1       1.0000 0.03043  0.18318  0.07927  Biso   1.000  O 
  O2       1.0000 0.03579  0.16600  0.58952  Biso   1.000  O 
  O3       1.0000 0.03401  0.66731  0.08355  Biso   1.000  O 
  O4       1.0000 0.03329  0.66618  0.58413  Biso   1.000  O 
  O5       1.0000 0.01985  0.08926  0.34798  Biso   1.000  O 
  O6       1.0000 0.03292  0.08395  0.83683  Biso   1.000  O 
  O7       1.0000 0.03404  0.58484  0.33293  Biso   1.000  O 
  O8       1.0000 0.03641  0.58314  0.83346  Biso   1.000  O 
  O9       1.0000 0.46699  0.41362  0.08059  Biso   1.000  O 
  O10      1.0000 0.44000  0.41008  0.57718  Biso   1.000  O 
  O11      1.0000 0.46848  0.91940  0.08705  Biso   1.000  O 
  O12      1.0000 0.46446  0.91956  0.58557  Biso   1.000  O 
  O13      1.0000 0.46932  0.33802  0.33166  Biso   1.000  O 
  O14      1.0000 0.47104  0.33660  0.82909  Biso   1.000  O 
  O15      1.0000 0.47411  0.83840  0.33220  Biso   1.000  O 
  O16      1.0000 0.46691  0.83871  0.83650  Biso   1.000  O 
  O17      1.0000 0.28247  0.12890  0.30443  Biso   1.000  O 
  O18      1.0000 0.27342  0.12196  0.79523  Biso   1.000  O 
  O19      1.0000 0.27288  0.62184  0.29027  Biso   1.000  O 
  O20      1.0000 0.27729  0.62447  0.79387  Biso   1.000  O 
  O21      1.0000 0.28491  0.13567  0.03634  Biso   1.000  O 
  O22      1.0000 0.27519  0.12457  0.54784  Biso   1.000  O 
  O23      1.0000 0.27584  0.62037  0.04385  Biso   1.000  O 
  O24      1.0000 0.27458  0.62701  0.54252  Biso   1.000  O 
  O25      1.0000 0.22295  0.37223  0.29114  Biso   1.000  O 
  O26      1.0000 0.22605  0.37428  0.79362  Biso   1.000  O 
  O27      1.0000 0.23703  0.86306  0.30332  Biso   1.000  O 
  O28      1.0000 0.22302  0.87437  0.79510  Biso   1.000  O 
  O29      1.0000 0.22402  0.37763  0.04348  Biso   1.000  O 
  O30      1.0000 0.21163  0.37641  0.54224  Biso   1.000  O 
  O31      1.0000 0.24318  0.86054  0.03585  Biso   1.000  O 
  O32      1.0000 0.22299  0.87723  0.54681  Biso   1.000  O 
  O33      1.0000 0.53329  0.16618  0.16584  Biso   1.000  O 
  O34      1.0000 0.53402  0.16731  0.66643  Biso   1.000  O 
  O35      1.0000 0.53579  0.66602  0.16048  Biso   1.000  O 
  O36      1.0000 0.53046  0.68322  0.67072  Biso   1.000  O 
  O37      1.0000 0.53405  0.08478  0.41706  Biso   1.000  O 
  O38      1.0000 0.53641  0.08311  0.91653  Biso   1.000  O 
  O39      1.0000 0.51988  0.58924  0.40200  Biso   1.000  O 
  O40      1.0000 0.53294  0.58394  0.91316  Biso   1.000  O 
  O41      1.0000 0.96449  0.41954  0.16444  Biso   1.000  O 
  O42      1.0000 0.96850  0.41936  0.66296  Biso   1.000  O 
  O43      1.0000 0.93999  0.91007  0.17285  Biso   1.000  O 
  O44      1.0000 0.96700  0.91362  0.66942  Biso   1.000  O 
  O45      1.0000 0.97414  0.33840  0.41780  Biso   1.000  O 
  O46      1.0000 0.96691  0.33870  0.91352  Biso   1.000  O 
  O47      1.0000 0.96932  0.83806  0.41835  Biso   1.000  O 
  O48      1.0000 0.97104  0.83663  0.92093  Biso   1.000  O 
  O49      1.0000 0.77730  0.12445  0.95615  Biso   1.000  O 
  O50      1.0000 0.77288  0.12184  0.45976  Biso   1.000  O 
  O51      1.0000 0.77342  0.62196  0.95478  Biso   1.000  O 
  O52      1.0000 0.78247  0.62892  0.44556  Biso   1.000  O 
  O53      1.0000 0.77458  0.12699  0.20749  Biso   1.000  O 
  O54      1.0000 0.77583  0.12037  0.70614  Biso   1.000  O 
  O55      1.0000 0.77519  0.62457  0.20216  Biso   1.000  O 
  O56      1.0000 0.78490  0.63569  0.71366  Biso   1.000  O 
  O57      1.0000 0.72301  0.37436  0.95490  Biso   1.000  O 
  O58      1.0000 0.73701  0.36303  0.44666  Biso   1.000  O 
  O59      1.0000 0.72605  0.87429  0.95637  Biso   1.000  O 
  O60      1.0000 0.72293  0.87222  0.45885  Biso   1.000  O 
  O61      1.0000 0.72300  0.37722  0.20320  Biso   1.000  O 
  O62      1.0000 0.74317  0.36052  0.71414  Biso   1.000  O 
  O63      1.0000 0.71160  0.87644  0.20776  Biso   1.000  O 
  O64      1.0000 0.72400  0.87764  0.70651  Biso   1.000  O 
