data_image0
_cell_length_a       10.0476
_cell_length_b       10.4091
_cell_length_c       10.1014
_cell_angle_alpha    90.251
_cell_angle_beta     90.0574
_cell_angle_gamma    90.0153

_symmetry_space_group_name_H-M    "P 1"
_symmetry_int_tables_number       1

loop_
  _symmetry_equiv_pos_as_xyz
  'x, y, z'

loop_
  _atom_site_label
  _atom_site_occupancy
  _atom_site_fract_x
  _atom_site_fract_y
  _atom_site_fract_z
  _atom_site_thermal_displace_type
  _atom_site_B_iso_or_equiv
  _atom_site_type_symbol
  La1      1.0000 0.11939  0.00317  0.11829  Biso   1.000  La
  Hf1      1.0000 0.13271  0.01557  0.62429  Biso   1.000  Hf
  Hf2      1.0000 0.13550  0.51527  0.12559  Biso   1.000  Hf
  Hf3      1.0000 0.13406  0.51597  0.62473  Biso   1.000  Hf
  Hf4      1.0000 0.63888  0.01182  0.12750  Biso   1.000  Hf
  Hf5      1.0000 0.63268  0.01579  0.62497  Biso   1.000  Hf
  Hf6      1.0000 0.63568  0.51718  0.12694  Biso   1.000  Hf
  Hf7      1.0000 0.63337  0.51696  0.62534  Biso   1.000  Hf
  Hf8      1.0000 0.13402  0.23526  0.37761  Biso   1.000  Hf
  Hf9      1.0000 0.12830  0.23921  0.86526  Biso   1.000  Hf
  Hf10     1.0000 0.13555  0.73179  0.37662  Biso   1.000  Hf
  Hf11     1.0000 0.13604  0.73227  0.87575  Biso   1.000  Hf
  Hf12     1.0000 0.63777  0.23338  0.38167  Biso   1.000  Hf
  Hf13     1.0000 0.63747  0.23243  0.87276  Biso   1.000  Hf
  Hf14     1.0000 0.63253  0.73204  0.38018  Biso   1.000  Hf
  Hf15     1.0000 0.63514  0.73142  0.87536  Biso   1.000  Hf
  La2      1.0000 0.37426  0.25364  0.11988  Biso   1.000  La
  Hf16     1.0000 0.36821  0.26677  0.62404  Biso   1.000  Hf
  Hf17     1.0000 0.37038  0.76310  0.12359  Biso   1.000  Hf
  Hf18     1.0000 0.36577  0.76627  0.62488  Biso   1.000  Hf
  Hf19     1.0000 0.86098  0.26818  0.12699  Biso   1.000  Hf
  Hf20     1.0000 0.86676  0.26885  0.62503  Biso   1.000  Hf
  Hf21     1.0000 0.86175  0.76176  0.12893  Biso   1.000  Hf
  Hf22     1.0000 0.86708  0.76372  0.62637  Biso   1.000  Hf
  Hf23     1.0000 0.36427  0.48335  0.37588  Biso   1.000  Hf
  Hf24     1.0000 0.36633  0.48554  0.87096  Biso   1.000  Hf
  Hf25     1.0000 0.36575  0.98171  0.37607  Biso   1.000  Hf
  Hf26     1.0000 0.36875  0.98258  0.87115  Biso   1.000  Hf
  Hf27     1.0000 0.86668  0.48399  0.37639  Biso   1.000  Hf
  Hf28     1.0000 0.86539  0.48329  0.87707  Biso   1.000  Hf
  Hf29     1.0000 0.86403  0.98153  0.38607  Biso   1.000  Hf
  Hf30     1.0000 0.86157  0.98109  0.87168  Biso   1.000  Hf
  O1       1.0000 0.02744  0.19852  0.20364  Biso   1.000  O 
  O2       1.0000 0.03868  0.18801  0.68248  Biso   1.000  O 
  O3       1.0000 0.03625  0.68572  0.19656  Biso   1.000  O 
  O4       1.0000 0.03461  0.68254  0.69745  Biso   1.000  O 
  O5       1.0000 0.56500  0.18138  0.20154  Biso   1.000  O 
  O6       1.0000 0.53792  0.18320  0.69248  Biso   1.000  O 
  O7       1.0000 0.53865  0.68574  0.19758  Biso   1.000  O 
  O8       1.0000 0.53422  0.68332  0.69753  Biso   1.000  O 
  O9       1.0000 0.03368  0.06556  0.44528  Biso   1.000  O 
  O10      1.0000 0.02241  0.07896  0.91728  Biso   1.000  O 
  O11      1.0000 0.03585  0.56575  0.44675  Biso   1.000  O 
  O12      1.0000 0.03189  0.57133  0.94619  Biso   1.000  O 
  O13      1.0000 0.53663  0.06509  0.44664  Biso   1.000  O 
  O14      1.0000 0.53003  0.07396  0.95326  Biso   1.000  O 
  O15      1.0000 0.53480  0.56669  0.44707  Biso   1.000  O 
  O16      1.0000 0.53320  0.56988  0.94943  Biso   1.000  O 
  O17      1.0000 0.47097  0.44405  0.20311  Biso   1.000  O 
  O18      1.0000 0.46227  0.43801  0.68499  Biso   1.000  O 
  O19      1.0000 0.46234  0.93975  0.19245  Biso   1.000  O 
  O20      1.0000 0.46562  0.93265  0.69475  Biso   1.000  O 
  O21      1.0000 0.95985  0.44007  0.19243  Biso   1.000  O 
  O22      1.0000 0.96742  0.43324  0.70000  Biso   1.000  O 
  O23      1.0000 0.93837  0.92466  0.20973  Biso   1.000  O 
  O24      1.0000 0.96231  0.93228  0.69306  Biso   1.000  O 
  O25      1.0000 0.46408  0.31364  0.44057  Biso   1.000  O 
  O26      1.0000 0.47046  0.32493  0.91754  Biso   1.000  O 
  O27      1.0000 0.46626  0.81579  0.44929  Biso   1.000  O 
  O28      1.0000 0.47510  0.82141  0.94671  Biso   1.000  O 
  O29      1.0000 0.96331  0.31959  0.44793  Biso   1.000  O 
  O30      1.0000 0.96196  0.31958  0.94695  Biso   1.000  O 
  O31      1.0000 0.96626  0.81415  0.44984  Biso   1.000  O 
  O32      1.0000 0.97584  0.82660  0.95817  Biso   1.000  O 
  O33      1.0000 0.26368  0.11372  0.26604  Biso   1.000  O 
  O34      1.0000 0.27275  0.11760  0.74146  Biso   1.000  O 
  O35      1.0000 0.27158  0.61447  0.24821  Biso   1.000  O 
  O36      1.0000 0.26911  0.61869  0.74765  Biso   1.000  O 
  O37      1.0000 0.77892  0.11510  0.25424  Biso   1.000  O 
  O38      1.0000 0.76947  0.11681  0.74943  Biso   1.000  O 
  O39      1.0000 0.77022  0.61785  0.25118  Biso   1.000  O 
  O40      1.0000 0.77033  0.61622  0.74938  Biso   1.000  O 
  O41      1.0000 0.27036  0.13126  0.50324  Biso   1.000  O 
  O42      1.0000 0.25985  0.12701  0.97341  Biso   1.000  O 
  O43      1.0000 0.26994  0.63264  0.49932  Biso   1.000  O 
  O44      1.0000 0.27047  0.63061  0.99911  Biso   1.000  O 
  O45      1.0000 0.76990  0.13236  0.50405  Biso   1.000  O 
  O46      1.0000 0.77040  0.12939  0.00123  Biso   1.000  O 
  O47      1.0000 0.77041  0.63155  0.50011  Biso   1.000  O 
  O48      1.0000 0.77037  0.63110  0.99864  Biso   1.000  O 
  O49      1.0000 0.23152  0.38201  0.50052  Biso   1.000  O 
  O50      1.0000 0.22430  0.38856  0.98968  Biso   1.000  O 
  O51      1.0000 0.22946  0.88258  0.49931  Biso   1.000  O 
  O52      1.0000 0.24558  0.86993  0.98889  Biso   1.000  O 
  O53      1.0000 0.73088  0.38384  0.50149  Biso   1.000  O 
  O54      1.0000 0.72658  0.38227  0.00022  Biso   1.000  O 
  O55      1.0000 0.72928  0.87969  0.50301  Biso   1.000  O 
  O56      1.0000 0.73323  0.87840  0.00008  Biso   1.000  O 
  O57      1.0000 0.21834  0.37610  0.25513  Biso   1.000  O 
  O58      1.0000 0.23162  0.36918  0.74423  Biso   1.000  O 
  O59      1.0000 0.24411  0.85277  0.25544  Biso   1.000  O 
  O60      1.0000 0.22901  0.86746  0.74606  Biso   1.000  O 
  O61      1.0000 0.73188  0.36874  0.25359  Biso   1.000  O 
  O62      1.0000 0.73088  0.36821  0.74961  Biso   1.000  O 
  O63      1.0000 0.71783  0.86434  0.25190  Biso   1.000  O 
  O64      1.0000 0.72954  0.86525  0.74958  Biso   1.000  O 
