data_image0
_cell_length_a       10.2191
_cell_length_b       10.3005
_cell_length_c       10.5375
_cell_angle_alpha    89.7782
_cell_angle_beta     81.4193
_cell_angle_gamma    90.1867

_symmetry_space_group_name_H-M    "P 1"
_symmetry_int_tables_number       1

loop_
  _symmetry_equiv_pos_as_xyz
  'x, y, z'

loop_
  _atom_site_label
  _atom_site_occupancy
  _atom_site_fract_x
  _atom_site_fract_y
  _atom_site_fract_z
  _atom_site_thermal_displace_type
  _atom_site_B_iso_or_equiv
  _atom_site_type_symbol
  La1      1.0000 0.12924  0.01882  0.13538  Biso   1.000  La
  Hf1      1.0000 0.13975  0.01871  0.64191  Biso   1.000  Hf
  Hf2      1.0000 0.13424  0.51801  0.14284  Biso   1.000  Hf
  Hf3      1.0000 0.14507  0.52218  0.63927  Biso   1.000  Hf
  Hf4      1.0000 0.63375  0.01719  0.14793  Biso   1.000  Hf
  Hf5      1.0000 0.64344  0.02131  0.64831  Biso   1.000  Hf
  Hf6      1.0000 0.63032  0.52581  0.15103  Biso   1.000  Hf
  Hf7      1.0000 0.64036  0.52030  0.64643  Biso   1.000  Hf
  Hf8      1.0000 0.13627  0.22824  0.39542  Biso   1.000  Hf
  Hf9      1.0000 0.16776  0.22560  0.87543  Biso   1.000  Hf
  Hf10     1.0000 0.13675  0.72793  0.39434  Biso   1.000  Hf
  Hf11     1.0000 0.14390  0.73209  0.89322  Biso   1.000  Hf
  Hf12     1.0000 0.63364  0.22728  0.40193  Biso   1.000  Hf
  Hf13     1.0000 0.63697  0.22826  0.89603  Biso   1.000  Hf
  Hf14     1.0000 0.63515  0.72833  0.39851  Biso   1.000  Hf
  Hf15     1.0000 0.63883  0.73185  0.89555  Biso   1.000  Hf
  Hf16     1.0000 0.36302  0.27174  0.10399  Biso   1.000  Hf
  Hf17     1.0000 0.36636  0.27273  0.59808  Biso   1.000  Hf
  Hf18     1.0000 0.36117  0.76815  0.10444  Biso   1.000  Hf
  Hf19     1.0000 0.36486  0.77166  0.60148  Biso   1.000  Hf
  Hf20     1.0000 0.83225  0.27439  0.12459  Biso   1.000  Hf
  Hf21     1.0000 0.86374  0.27177  0.60460  Biso   1.000  Hf
  Hf22     1.0000 0.85609  0.76791  0.10677  Biso   1.000  Hf
  Hf23     1.0000 0.86324  0.77207  0.60565  Biso   1.000  Hf
  Hf24     1.0000 0.35657  0.47871  0.35170  Biso   1.000  Hf
  Hf25     1.0000 0.36625  0.48283  0.85208  Biso   1.000  Hf
  Hf26     1.0000 0.35964  0.97968  0.35357  Biso   1.000  Hf
  Hf27     1.0000 0.36967  0.97417  0.84896  Biso   1.000  Hf
  Hf28     1.0000 0.86027  0.48130  0.35810  Biso   1.000  Hf
  La2      1.0000 0.87078  0.48120  0.86464  Biso   1.000  La
  Hf29     1.0000 0.85492  0.97781  0.36071  Biso   1.000  Hf
  Hf30     1.0000 0.86576  0.98196  0.85715  Biso   1.000  Hf
  O1       1.0000 0.02102  0.20426  0.04599  Biso   1.000  O 
  O2       1.0000 0.03487  0.16250  0.57603  Biso   1.000  O 
  O3       1.0000 0.03129  0.66470  0.07342  Biso   1.000  O 
  O4       1.0000 0.03360  0.66329  0.57560  Biso   1.000  O 
  O5       1.0000 0.53318  0.16537  0.07801  Biso   1.000  O 
  O6       1.0000 0.53464  0.16518  0.57875  Biso   1.000  O 
  O7       1.0000 0.52746  0.66437  0.07678  Biso   1.000  O 
  O8       1.0000 0.53564  0.66538  0.57693  Biso   1.000  O 
  O9       1.0000 0.01857  0.09573  0.33086  Biso   1.000  O 
  O10      1.0000 0.04659  0.08115  0.82775  Biso   1.000  O 
  O11      1.0000 0.03239  0.58542  0.32339  Biso   1.000  O 
  O12      1.0000 0.06216  0.58247  0.81874  Biso   1.000  O 
  O13      1.0000 0.53204  0.08322  0.32895  Biso   1.000  O 
  O14      1.0000 0.53886  0.08349  0.82549  Biso   1.000  O 
  O15      1.0000 0.52829  0.58633  0.32747  Biso   1.000  O 
  O16      1.0000 0.53860  0.58227  0.82869  Biso   1.000  O 
  O17      1.0000 0.46114  0.41652  0.17450  Biso   1.000  O 
  O18      1.0000 0.46798  0.41678  0.67106  Biso   1.000  O 
  O19      1.0000 0.46139  0.91773  0.17131  Biso   1.000  O 
  O20      1.0000 0.47170  0.91367  0.67252  Biso   1.000  O 
  O21      1.0000 0.95342  0.41886  0.17225  Biso   1.000  O 
  O22      1.0000 0.98144  0.40428  0.66914  Biso   1.000  O 
  O23      1.0000 0.93784  0.91752  0.18124  Biso   1.000  O 
  O24      1.0000 0.96760  0.91459  0.67660  Biso   1.000  O 
  O25      1.0000 0.46536  0.33482  0.42127  Biso   1.000  O 
  O26      1.0000 0.46680  0.33464  0.92202  Biso   1.000  O 
  O27      1.0000 0.46438  0.83461  0.42305  Biso   1.000  O 
  O28      1.0000 0.47254  0.83563  0.92319  Biso   1.000  O 
  O29      1.0000 0.96512  0.33751  0.42400  Biso   1.000  O 
  O30      1.0000 0.97897  0.29576  0.95401  Biso   1.000  O 
  O31      1.0000 0.96640  0.83672  0.42438  Biso   1.000  O 
  O32      1.0000 0.96871  0.83527  0.92655  Biso   1.000  O 
  O33      1.0000 0.27936  0.13624  0.24446  Biso   1.000  O 
  O34      1.0000 0.28485  0.12574  0.72946  Biso   1.000  O 
  O35      1.0000 0.27121  0.62469  0.23651  Biso   1.000  O 
  O36      1.0000 0.29001  0.62869  0.73313  Biso   1.000  O 
  O37      1.0000 0.76722  0.12919  0.24781  Biso   1.000  O 
  O38      1.0000 0.78198  0.12768  0.74307  Biso   1.000  O 
  O39      1.0000 0.77088  0.62947  0.24484  Biso   1.000  O 
  O40      1.0000 0.77131  0.63651  0.73850  Biso   1.000  O 
  O41      1.0000 0.27411  0.12032  0.48835  Biso   1.000  O 
  O42      1.0000 0.28843  0.12635  0.97489  Biso   1.000  O 
  O43      1.0000 0.27508  0.62223  0.48566  Biso   1.000  O 
  O44      1.0000 0.27388  0.61853  0.98872  Biso   1.000  O 
  O45      1.0000 0.77263  0.12104  0.49498  Biso   1.000  O 
  O46      1.0000 0.77432  0.12290  0.99518  Biso   1.000  O 
  O47      1.0000 0.77615  0.62178  0.49117  Biso   1.000  O 
  O48      1.0000 0.76050  0.63011  0.00291  Biso   1.000  O 
  O49      1.0000 0.22567  0.37710  0.00485  Biso   1.000  O 
  O50      1.0000 0.22737  0.37897  0.50504  Biso   1.000  O 
  O51      1.0000 0.23949  0.86987  0.99707  Biso   1.000  O 
  O52      1.0000 0.22387  0.87820  0.50881  Biso   1.000  O 
  O53      1.0000 0.71156  0.37366  0.02513  Biso   1.000  O 
  O54      1.0000 0.72588  0.37968  0.51168  Biso   1.000  O 
  O55      1.0000 0.72613  0.88145  0.01126  Biso   1.000  O 
  O56      1.0000 0.72492  0.87777  0.51431  Biso   1.000  O 
  O57      1.0000 0.21802  0.37232  0.25695  Biso   1.000  O 
  O58      1.0000 0.23279  0.37081  0.75221  Biso   1.000  O 
  O59      1.0000 0.22868  0.86350  0.26148  Biso   1.000  O 
  O60      1.0000 0.22911  0.87053  0.75513  Biso   1.000  O 
  O61      1.0000 0.71517  0.37425  0.27056  Biso   1.000  O 
  O62      1.0000 0.72065  0.36375  0.75558  Biso   1.000  O 
  O63      1.0000 0.70999  0.87132  0.26685  Biso   1.000  O 
  O64      1.0000 0.72878  0.87531  0.76346  Biso   1.000  O 
