data_image0
_cell_length_a       10.1222
_cell_length_b       10.3165
_cell_length_c       10.47
_cell_angle_alpha    89.9388
_cell_angle_beta     90.3789
_cell_angle_gamma    90.3243

_symmetry_space_group_name_H-M    "P 1"
_symmetry_int_tables_number       1

loop_
  _symmetry_equiv_pos_as_xyz
  'x, y, z'

loop_
  _atom_site_label
  _atom_site_occupancy
  _atom_site_fract_x
  _atom_site_fract_y
  _atom_site_fract_z
  _atom_site_thermal_displace_type
  _atom_site_B_iso_or_equiv
  _atom_site_type_symbol
  La1      1.0000 0.13128  0.01028  0.15962  Biso   1.000  La
  Hf1      1.0000 0.14701  0.01785  0.66617  Biso   1.000  Hf
  Hf2      1.0000 0.13964  0.51933  0.17339  Biso   1.000  Hf
  Hf3      1.0000 0.13833  0.52057  0.67051  Biso   1.000  Hf
  Hf4      1.0000 0.13679  0.22675  0.42183  Biso   1.000  Hf
  Hf5      1.0000 0.13931  0.23852  0.92141  Biso   1.000  Hf
  Hf6      1.0000 0.13917  0.72717  0.42101  Biso   1.000  Hf
  Hf7      1.0000 0.14364  0.72360  0.92122  Biso   1.000  Hf
  Hf8      1.0000 0.35984  0.26926  0.17187  Biso   1.000  Hf
  Hf9      1.0000 0.35972  0.27196  0.66937  Biso   1.000  Hf
  Hf10     1.0000 0.36586  0.76615  0.17047  Biso   1.000  Hf
  Hf11     1.0000 0.36258  0.76892  0.66984  Biso   1.000  Hf
  Hf12     1.0000 0.36020  0.47798  0.42138  Biso   1.000  Hf
  Hf13     1.0000 0.36224  0.47980  0.92189  Biso   1.000  Hf
  Hf14     1.0000 0.36206  0.97900  0.41916  Biso   1.000  Hf
  Hf15     1.0000 0.36361  0.97875  0.91650  Biso   1.000  Hf
  Hf16     1.0000 0.63639  0.02125  0.08350  Biso   1.000  Hf
  Hf17     1.0000 0.63794  0.02100  0.58083  Biso   1.000  Hf
  Hf18     1.0000 0.63775  0.52020  0.07811  Biso   1.000  Hf
  Hf19     1.0000 0.63980  0.52202  0.57862  Biso   1.000  Hf
  Hf20     1.0000 0.63742  0.23108  0.33016  Biso   1.000  Hf
  Hf21     1.0000 0.63414  0.23385  0.82953  Biso   1.000  Hf
  Hf22     1.0000 0.64028  0.72804  0.33063  Biso   1.000  Hf
  Hf23     1.0000 0.64016  0.73074  0.82813  Biso   1.000  Hf
  Hf24     1.0000 0.85636  0.27640  0.07878  Biso   1.000  Hf
  Hf25     1.0000 0.86084  0.27283  0.57899  Biso   1.000  Hf
  Hf26     1.0000 0.86068  0.76148  0.07859  Biso   1.000  Hf
  Hf27     1.0000 0.86321  0.77325  0.57817  Biso   1.000  Hf
  Hf28     1.0000 0.86167  0.47943  0.32949  Biso   1.000  Hf
  Hf29     1.0000 0.86036  0.48067  0.82661  Biso   1.000  Hf
  Hf30     1.0000 0.85299  0.98215  0.33383  Biso   1.000  Hf
  La2      1.0000 0.86872  0.98971  0.84038  Biso   1.000  La
  O1       1.0000 0.03006  0.18920  0.08113  Biso   1.000  O 
  O2       1.0000 0.03518  0.17158  0.59475  Biso   1.000  O 
  O3       1.0000 0.04234  0.67549  0.09798  Biso   1.000  O 
  O4       1.0000 0.03529  0.66880  0.58691  Biso   1.000  O 
  O5       1.0000 0.02462  0.08224  0.34950  Biso   1.000  O 
  O6       1.0000 0.07446  0.07035  0.84682  Biso   1.000  O 
  O7       1.0000 0.03611  0.57770  0.34036  Biso   1.000  O 
  O8       1.0000 0.03895  0.57236  0.83909  Biso   1.000  O 
  O9       1.0000 0.46881  0.41194  0.08153  Biso   1.000  O 
  O10      1.0000 0.46902  0.41364  0.58153  Biso   1.000  O 
  O11      1.0000 0.46630  0.91766  0.08580  Biso   1.000  O 
  O12      1.0000 0.46702  0.91436  0.58205  Biso   1.000  O 
  O13      1.0000 0.46756  0.33806  0.33258  Biso   1.000  O 
  O14      1.0000 0.46590  0.33795  0.83104  Biso   1.000  O 
  O15      1.0000 0.47348  0.83698  0.33270  Biso   1.000  O 
  O16      1.0000 0.46980  0.83542  0.83006  Biso   1.000  O 
  O17      1.0000 0.27934  0.12788  0.30065  Biso   1.000  O 
  O18      1.0000 0.28913  0.12193  0.78638  Biso   1.000  O 
  O19      1.0000 0.27739  0.62002  0.29557  Biso   1.000  O 
  O20      1.0000 0.27821  0.62176  0.79390  Biso   1.000  O 
  O21      1.0000 0.28509  0.13490  0.03374  Biso   1.000  O 
  O22      1.0000 0.27501  0.12522  0.54232  Biso   1.000  O 
  O23      1.0000 0.27716  0.61856  0.04724  Biso   1.000  O 
  O24      1.0000 0.27540  0.62438  0.54486  Biso   1.000  O 
  O25      1.0000 0.22234  0.37171  0.29511  Biso   1.000  O 
  O26      1.0000 0.22454  0.37372  0.79316  Biso   1.000  O 
  O27      1.0000 0.23508  0.86178  0.29875  Biso   1.000  O 
  O28      1.0000 0.22673  0.86884  0.78837  Biso   1.000  O 
  O29      1.0000 0.22437  0.37865  0.04568  Biso   1.000  O 
  O30      1.0000 0.22367  0.37622  0.54444  Biso   1.000  O 
  O31      1.0000 0.24310  0.85974  0.03200  Biso   1.000  O 
  O32      1.0000 0.22739  0.87477  0.54177  Biso   1.000  O 
  O33      1.0000 0.53020  0.16458  0.16994  Biso   1.000  O 
  O34      1.0000 0.52653  0.16302  0.66730  Biso   1.000  O 
  O35      1.0000 0.53410  0.66205  0.16896  Biso   1.000  O 
  O36      1.0000 0.53244  0.66194  0.66742  Biso   1.000  O 
  O37      1.0000 0.53298  0.08564  0.41795  Biso   1.000  O 
  O38      1.0000 0.53370  0.08234  0.91420  Biso   1.000  O 
  O39      1.0000 0.53098  0.58636  0.41847  Biso   1.000  O 
  O40      1.0000 0.53119  0.58806  0.91847  Biso   1.000  O 
  O41      1.0000 0.96105  0.42764  0.16091  Biso   1.000  O 
  O42      1.0000 0.96389  0.42230  0.65964  Biso   1.000  O 
  O43      1.0000 0.92554  0.92964  0.15318  Biso   1.000  O 
  O44      1.0000 0.97538  0.91776  0.65050  Biso   1.000  O 
  O45      1.0000 0.96471  0.33120  0.41309  Biso   1.000  O 
  O46      1.0000 0.95765  0.32451  0.90202  Biso   1.000  O 
  O47      1.0000 0.96482  0.82842  0.40525  Biso   1.000  O 
  O48      1.0000 0.96995  0.81080  0.91887  Biso   1.000  O 
  O49      1.0000 0.75690  0.14026  0.96800  Biso   1.000  O 
  O50      1.0000 0.77261  0.12523  0.45823  Biso   1.000  O 
  O51      1.0000 0.77564  0.62135  0.95432  Biso   1.000  O 
  O52      1.0000 0.77633  0.62378  0.45556  Biso   1.000  O 
  O53      1.0000 0.77327  0.13116  0.21164  Biso   1.000  O 
  O54      1.0000 0.76492  0.13822  0.70125  Biso   1.000  O 
  O55      1.0000 0.77546  0.62628  0.20684  Biso   1.000  O 
  O56      1.0000 0.77766  0.62829  0.70489  Biso   1.000  O 
  O57      1.0000 0.72284  0.38144  0.95276  Biso   1.000  O 
  O58      1.0000 0.72460  0.37562  0.45514  Biso   1.000  O 
  O59      1.0000 0.71491  0.86510  0.96626  Biso   1.000  O 
  O60      1.0000 0.72499  0.87478  0.45768  Biso   1.000  O 
  O61      1.0000 0.72179  0.37824  0.20610  Biso   1.000  O 
  O62      1.0000 0.72261  0.37998  0.70443  Biso   1.000  O 
  O63      1.0000 0.71087  0.87807  0.21362  Biso   1.000  O 
  O64      1.0000 0.72066  0.87212  0.69935  Biso   1.000  O 
