data_image0
_cell_length_a       10.0919
_cell_length_b       10.2505
_cell_length_c       10.092
_cell_angle_alpha    89.992
_cell_angle_beta     89.9993
_cell_angle_gamma    90.0141

_symmetry_space_group_name_H-M    "P 1"
_symmetry_int_tables_number       1

loop_
  _symmetry_equiv_pos_as_xyz
  'x, y, z'

loop_
  _atom_site_label
  _atom_site_occupancy
  _atom_site_fract_x
  _atom_site_fract_y
  _atom_site_fract_z
  _atom_site_thermal_displace_type
  _atom_site_B_iso_or_equiv
  _atom_site_type_symbol
  La1      1.0000 0.12586  0.99980  0.12587  Biso   1.000  La
  Hf1      1.0000 0.12583  0.99980  0.62588  Biso   1.000  Hf
  La2      1.0000 0.12583  0.49982  0.12584  Biso   1.000  La
  Hf2      1.0000 0.12583  0.49979  0.62587  Biso   1.000  Hf
  Hf3      1.0000 0.62582  0.99982  0.12587  Biso   1.000  Hf
  Hf4      1.0000 0.62582  0.99982  0.62585  Biso   1.000  Hf
  Hf5      1.0000 0.62581  0.49981  0.12587  Biso   1.000  Hf
  Hf6      1.0000 0.62584  0.49979  0.62585  Biso   1.000  Hf
  Hf7      1.0000 0.12584  0.24983  0.38076  Biso   1.000  Hf
  Hf8      1.0000 0.12583  0.24979  0.87087  Biso   1.000  Hf
  Hf9      1.0000 0.12584  0.74981  0.38077  Biso   1.000  Hf
  Hf10     1.0000 0.12588  0.74980  0.87086  Biso   1.000  Hf
  Hf11     1.0000 0.62585  0.24981  0.37574  Biso   1.000  Hf
  Hf12     1.0000 0.62586  0.24982  0.87585  Biso   1.000  Hf
  Hf13     1.0000 0.62584  0.74979  0.37574  Biso   1.000  Hf
  Hf14     1.0000 0.62586  0.74981  0.87584  Biso   1.000  Hf
  Hf15     1.0000 0.38077  0.24982  0.12580  Biso   1.000  Hf
  Hf16     1.0000 0.37579  0.24979  0.62579  Biso   1.000  Hf
  Hf17     1.0000 0.38079  0.74980  0.12582  Biso   1.000  Hf
  Hf18     1.0000 0.37581  0.74982  0.62580  Biso   1.000  Hf
  Hf19     1.0000 0.87090  0.24980  0.12579  Biso   1.000  Hf
  Hf20     1.0000 0.87589  0.24975  0.62581  Biso   1.000  Hf
  Hf21     1.0000 0.87092  0.74980  0.12582  Biso   1.000  Hf
  Hf22     1.0000 0.87589  0.74981  0.62577  Biso   1.000  Hf
  Hf23     1.0000 0.37814  0.00173  0.37823  Biso   1.000  Hf
  Hf24     1.0000 0.37816  0.99789  0.87352  Biso   1.000  Hf
  Hf25     1.0000 0.37811  0.50173  0.37823  Biso   1.000  Hf
  Hf26     1.0000 0.37815  0.49789  0.87348  Biso   1.000  Hf
  Hf27     1.0000 0.87348  0.99787  0.37816  Biso   1.000  Hf
  Hf28     1.0000 0.87345  0.00169  0.87357  Biso   1.000  Hf
  Hf29     1.0000 0.87348  0.49786  0.37818  Biso   1.000  Hf
  Hf30     1.0000 0.87346  0.50176  0.87354  Biso   1.000  Hf
  O1       1.0000 0.99849  0.14939  0.99851  Biso   1.000  O 
  O2       1.0000 0.00720  0.14763  0.51228  Biso   1.000  O 
  O3       1.0000 0.99847  0.64940  0.99848  Biso   1.000  O 
  O4       1.0000 0.00717  0.64763  0.51228  Biso   1.000  O 
  O5       1.0000 0.51227  0.14767  0.00719  Biso   1.000  O 
  O6       1.0000 0.50411  0.14836  0.50410  Biso   1.000  O 
  O7       1.0000 0.51229  0.64768  0.00720  Biso   1.000  O 
  O8       1.0000 0.50406  0.64835  0.50408  Biso   1.000  O 
  O9       1.0000 0.98647  0.11602  0.26535  Biso   1.000  O 
  O10      1.0000 0.99938  0.10159  0.75511  Biso   1.000  O 
  O11      1.0000 0.98642  0.61602  0.26532  Biso   1.000  O 
  O12      1.0000 0.99941  0.60159  0.75508  Biso   1.000  O 
  O13      1.0000 0.49673  0.10164  0.25246  Biso   1.000  O 
  O14      1.0000 0.49964  0.10189  0.75219  Biso   1.000  O 
  O15      1.0000 0.49667  0.60163  0.25242  Biso   1.000  O 
  O16      1.0000 0.49966  0.60188  0.75218  Biso   1.000  O 
  O17      1.0000 0.99844  0.35021  0.25321  Biso   1.000  O 
  O18      1.0000 0.00719  0.35192  0.73938  Biso   1.000  O 
  O19      1.0000 0.99843  0.85023  0.25325  Biso   1.000  O 
  O20      1.0000 0.00713  0.85193  0.73944  Biso   1.000  O 
  O21      1.0000 0.51225  0.35195  0.24451  Biso   1.000  O 
  O22      1.0000 0.50405  0.35123  0.74762  Biso   1.000  O 
  O23      1.0000 0.51221  0.85197  0.24457  Biso   1.000  O 
  O24      1.0000 0.50401  0.85124  0.74766  Biso   1.000  O 
  O25      1.0000 0.98639  0.38358  0.98633  Biso   1.000  O 
  O26      1.0000 0.99936  0.39796  0.49661  Biso   1.000  O 
  O27      1.0000 0.98646  0.88359  0.98637  Biso   1.000  O 
  O28      1.0000 0.99934  0.89796  0.49665  Biso   1.000  O 
  O29      1.0000 0.49665  0.39798  0.99928  Biso   1.000  O 
  O30      1.0000 0.49958  0.39772  0.49950  Biso   1.000  O 
  O31      1.0000 0.49671  0.89797  0.99930  Biso   1.000  O 
  O32      1.0000 0.49957  0.89772  0.49955  Biso   1.000  O 
  O33      1.0000 0.25327  0.14936  0.25327  Biso   1.000  O 
  O34      1.0000 0.24464  0.14759  0.73952  Biso   1.000  O 
  O35      1.0000 0.25324  0.64938  0.25324  Biso   1.000  O 
  O36      1.0000 0.24465  0.64760  0.73948  Biso   1.000  O 
  O37      1.0000 0.73955  0.14758  0.24465  Biso   1.000  O 
  O38      1.0000 0.74772  0.14836  0.74774  Biso   1.000  O 
  O39      1.0000 0.73949  0.64761  0.24459  Biso   1.000  O 
  O40      1.0000 0.74775  0.64836  0.74771  Biso   1.000  O 
  O41      1.0000 0.26534  0.11603  0.98642  Biso   1.000  O 
  O42      1.0000 0.25244  0.10171  0.49673  Biso   1.000  O 
  O43      1.0000 0.26534  0.61603  0.98639  Biso   1.000  O 
  O44      1.0000 0.25238  0.60171  0.49667  Biso   1.000  O 
  O45      1.0000 0.75506  0.10168  0.99938  Biso   1.000  O 
  O46      1.0000 0.75221  0.10187  0.49963  Biso   1.000  O 
  O47      1.0000 0.75505  0.60168  0.99936  Biso   1.000  O 
  O48      1.0000 0.75217  0.60187  0.49959  Biso   1.000  O 
  O49      1.0000 0.25323  0.35024  0.99845  Biso   1.000  O 
  O50      1.0000 0.24462  0.35203  0.51219  Biso   1.000  O 
  O51      1.0000 0.25327  0.85024  0.99847  Biso   1.000  O 
  O52      1.0000 0.24459  0.85203  0.51222  Biso   1.000  O 
  O53      1.0000 0.73945  0.35200  0.00714  Biso   1.000  O 
  O54      1.0000 0.74768  0.35122  0.50403  Biso   1.000  O 
  O55      1.0000 0.73953  0.85203  0.00705  Biso   1.000  O 
  O56      1.0000 0.74766  0.85122  0.50399  Biso   1.000  O 
  O57      1.0000 0.26531  0.38358  0.26527  Biso   1.000  O 
  O58      1.0000 0.25241  0.39792  0.75500  Biso   1.000  O 
  O59      1.0000 0.26529  0.88358  0.26532  Biso   1.000  O 
  O60      1.0000 0.25235  0.89793  0.75505  Biso   1.000  O 
  O61      1.0000 0.75502  0.39792  0.25238  Biso   1.000  O 
  O62      1.0000 0.75216  0.39771  0.75213  Biso   1.000  O 
  O63      1.0000 0.75501  0.89792  0.25233  Biso   1.000  O 
  O64      1.0000 0.75213  0.89773  0.75209  Biso   1.000  O 
