data_image0
_cell_length_a       10.0627
_cell_length_b       10.3978
_cell_length_c       10.1056
_cell_angle_alpha    90.3038
_cell_angle_beta     90.5399
_cell_angle_gamma    89.9923

_symmetry_space_group_name_H-M    "P 1"
_symmetry_int_tables_number       1

loop_
  _symmetry_equiv_pos_as_xyz
  'x, y, z'

loop_
  _atom_site_label
  _atom_site_occupancy
  _atom_site_fract_x
  _atom_site_fract_y
  _atom_site_fract_z
  _atom_site_thermal_displace_type
  _atom_site_B_iso_or_equiv
  _atom_site_type_symbol
  La1      1.0000 0.12383  0.00673  0.11894  Biso   1.000  La
  Hf1      1.0000 0.13343  0.01620  0.62400  Biso   1.000  Hf
  Hf2      1.0000 0.13342  0.51620  0.12401  Biso   1.000  Hf
  La2      1.0000 0.12385  0.50674  0.61894  Biso   1.000  La
  Hf3      1.0000 0.63401  0.01450  0.12554  Biso   1.000  Hf
  Hf4      1.0000 0.63228  0.01613  0.62557  Biso   1.000  Hf
  Hf5      1.0000 0.63228  0.51613  0.12557  Biso   1.000  Hf
  Hf6      1.0000 0.63399  0.51448  0.62554  Biso   1.000  Hf
  Hf7      1.0000 0.13779  0.23369  0.37622  Biso   1.000  Hf
  Hf8      1.0000 0.13629  0.23617  0.87104  Biso   1.000  Hf
  Hf9      1.0000 0.13631  0.73617  0.37103  Biso   1.000  Hf
  Hf10     1.0000 0.13780  0.73368  0.87623  Biso   1.000  Hf
  Hf11     1.0000 0.63536  0.23221  0.37329  Biso   1.000  Hf
  Hf12     1.0000 0.63337  0.23267  0.87827  Biso   1.000  Hf
  Hf13     1.0000 0.63336  0.73267  0.37825  Biso   1.000  Hf
  Hf14     1.0000 0.63536  0.73220  0.87330  Biso   1.000  Hf
  Hf15     1.0000 0.36462  0.26569  0.12506  Biso   1.000  Hf
  Hf16     1.0000 0.37073  0.26203  0.62248  Biso   1.000  Hf
  Hf17     1.0000 0.37073  0.76203  0.12246  Biso   1.000  Hf
  Hf18     1.0000 0.36462  0.76571  0.62507  Biso   1.000  Hf
  Hf19     1.0000 0.86328  0.26725  0.12659  Biso   1.000  Hf
  Hf20     1.0000 0.86169  0.26581  0.62752  Biso   1.000  Hf
  Hf21     1.0000 0.86169  0.76579  0.12749  Biso   1.000  Hf
  Hf22     1.0000 0.86329  0.76727  0.62659  Biso   1.000  Hf
  Hf23     1.0000 0.36885  0.48398  0.37126  Biso   1.000  Hf
  Hf24     1.0000 0.36666  0.48344  0.87419  Biso   1.000  Hf
  Hf25     1.0000 0.36665  0.98344  0.37419  Biso   1.000  Hf
  Hf26     1.0000 0.36884  0.98399  0.87127  Biso   1.000  Hf
  Hf27     1.0000 0.86310  0.48344  0.37285  Biso   1.000  Hf
  Hf28     1.0000 0.86206  0.48233  0.88252  Biso   1.000  Hf
  Hf29     1.0000 0.86205  0.98234  0.38253  Biso   1.000  Hf
  Hf30     1.0000 0.86309  0.98342  0.87284  Biso   1.000  Hf
  O1       1.0000 0.02658  0.19602  0.20708  Biso   1.000  O 
  O2       1.0000 0.04016  0.19108  0.68496  Biso   1.000  O 
  O3       1.0000 0.04015  0.69110  0.18496  Biso   1.000  O 
  O4       1.0000 0.02656  0.69601  0.70711  Biso   1.000  O 
  O5       1.0000 0.53777  0.18372  0.19199  Biso   1.000  O 
  O6       1.0000 0.53510  0.18011  0.69878  Biso   1.000  O 
  O7       1.0000 0.53509  0.68010  0.19877  Biso   1.000  O 
  O8       1.0000 0.53777  0.68372  0.69200  Biso   1.000  O 
  O9       1.0000 0.03354  0.06890  0.44272  Biso   1.000  O 
  O10      1.0000 0.03089  0.07551  0.91647  Biso   1.000  O 
  O11      1.0000 0.03089  0.57553  0.41648  Biso   1.000  O 
  O12      1.0000 0.03353  0.56890  0.94276  Biso   1.000  O 
  O13      1.0000 0.53440  0.06779  0.44742  Biso   1.000  O 
  O14      1.0000 0.53794  0.06517  0.94409  Biso   1.000  O 
  O15      1.0000 0.53792  0.56519  0.44411  Biso   1.000  O 
  O16      1.0000 0.53441  0.56778  0.94743  Biso   1.000  O 
  O17      1.0000 0.46637  0.43157  0.19548  Biso   1.000  O 
  O18      1.0000 0.46594  0.43437  0.69362  Biso   1.000  O 
  O19      1.0000 0.46594  0.93435  0.19361  Biso   1.000  O 
  O20      1.0000 0.46635  0.93159  0.69548  Biso   1.000  O 
  O21      1.0000 0.95937  0.43898  0.19122  Biso   1.000  O 
  O22      1.0000 0.94391  0.42588  0.71129  Biso   1.000  O 
  O23      1.0000 0.94385  0.92591  0.21125  Biso   1.000  O 
  O24      1.0000 0.95937  0.93897  0.69120  Biso   1.000  O 
  O25      1.0000 0.47440  0.31789  0.44654  Biso   1.000  O 
  O26      1.0000 0.46911  0.31910  0.94781  Biso   1.000  O 
  O27      1.0000 0.46911  0.81911  0.44781  Biso   1.000  O 
  O28      1.0000 0.47440  0.81789  0.94654  Biso   1.000  O 
  O29      1.0000 0.97464  0.32895  0.45723  Biso   1.000  O 
  O30      1.0000 0.96751  0.31822  0.95212  Biso   1.000  O 
  O31      1.0000 0.96751  0.81822  0.45210  Biso   1.000  O 
  O32      1.0000 0.97467  0.82895  0.95725  Biso   1.000  O 
  O33      1.0000 0.28045  0.12719  0.25515  Biso   1.000  O 
  O34      1.0000 0.27055  0.11330  0.74528  Biso   1.000  O 
  O35      1.0000 0.27055  0.61330  0.24527  Biso   1.000  O 
  O36      1.0000 0.28044  0.62718  0.75515  Biso   1.000  O 
  O37      1.0000 0.76823  0.11526  0.25086  Biso   1.000  O 
  O38      1.0000 0.76950  0.11815  0.74879  Biso   1.000  O 
  O39      1.0000 0.76950  0.61814  0.24877  Biso   1.000  O 
  O40      1.0000 0.76822  0.61526  0.75085  Biso   1.000  O 
  O41      1.0000 0.27033  0.12813  0.50047  Biso   1.000  O 
  O42      1.0000 0.27656  0.13816  0.98964  Biso   1.000  O 
  O43      1.0000 0.27657  0.63817  0.48964  Biso   1.000  O 
  O44      1.0000 0.27032  0.62812  0.00048  Biso   1.000  O 
  O45      1.0000 0.76762  0.13273  0.49981  Biso   1.000  O 
  O46      1.0000 0.77248  0.13144  0.99975  Biso   1.000  O 
  O47      1.0000 0.77247  0.63149  0.49972  Biso   1.000  O 
  O48      1.0000 0.76762  0.63270  0.99984  Biso   1.000  O 
  O49      1.0000 0.24665  0.37234  0.48800  Biso   1.000  O 
  O50      1.0000 0.23072  0.38447  0.99748  Biso   1.000  O 
  O51      1.0000 0.23070  0.88447  0.49746  Biso   1.000  O 
  O52      1.0000 0.24664  0.87235  0.98800  Biso   1.000  O 
  O53      1.0000 0.73298  0.38104  0.50040  Biso   1.000  O 
  O54      1.0000 0.72819  0.38172  0.00191  Biso   1.000  O 
  O55      1.0000 0.72819  0.88173  0.50191  Biso   1.000  O 
  O56      1.0000 0.73296  0.88103  0.00036  Biso   1.000  O 
  O57      1.0000 0.22732  0.36906  0.24462  Biso   1.000  O 
  O58      1.0000 0.24616  0.35647  0.75279  Biso   1.000  O 
  O59      1.0000 0.24617  0.85648  0.25278  Biso   1.000  O 
  O60      1.0000 0.22729  0.86906  0.74462  Biso   1.000  O 
  O61      1.0000 0.72965  0.36748  0.25061  Biso   1.000  O 
  O62      1.0000 0.71922  0.36560  0.75167  Biso   1.000  O 
  O63      1.0000 0.71921  0.86560  0.25167  Biso   1.000  O 
  O64      1.0000 0.72963  0.86749  0.75061  Biso   1.000  O 
