data_image0
_cell_length_a       10.057
_cell_length_b       10.4216
_cell_length_c       10.0704
_cell_angle_alpha    90.2424
_cell_angle_beta     90.4252
_cell_angle_gamma    90.0039

_symmetry_space_group_name_H-M    "P 1"
_symmetry_int_tables_number       1

loop_
  _symmetry_equiv_pos_as_xyz
  'x, y, z'

loop_
  _atom_site_label
  _atom_site_occupancy
  _atom_site_fract_x
  _atom_site_fract_y
  _atom_site_fract_z
  _atom_site_thermal_displace_type
  _atom_site_B_iso_or_equiv
  _atom_site_type_symbol
  La1      1.0000 0.12200  0.00634  0.12098  Biso   1.000  La
  La2      1.0000 0.12201  0.00634  0.62099  Biso   1.000  La
  Hf1      1.0000 0.13473  0.51655  0.12510  Biso   1.000  Hf
  Hf2      1.0000 0.13472  0.51657  0.62511  Biso   1.000  Hf
  Hf3      1.0000 0.63422  0.01634  0.12563  Biso   1.000  Hf
  Hf4      1.0000 0.63423  0.01634  0.62564  Biso   1.000  Hf
  Hf5      1.0000 0.63236  0.51448  0.12611  Biso   1.000  Hf
  Hf6      1.0000 0.63237  0.51449  0.62612  Biso   1.000  Hf
  Hf7      1.0000 0.13484  0.23815  0.37203  Biso   1.000  Hf
  Hf8      1.0000 0.13483  0.23814  0.87203  Biso   1.000  Hf
  Hf9      1.0000 0.13744  0.73172  0.37705  Biso   1.000  Hf
  Hf10     1.0000 0.13743  0.73172  0.87706  Biso   1.000  Hf
  Hf11     1.0000 0.63385  0.23348  0.37445  Biso   1.000  Hf
  Hf12     1.0000 0.63384  0.23347  0.87447  Biso   1.000  Hf
  Hf13     1.0000 0.63390  0.73079  0.37746  Biso   1.000  Hf
  Hf14     1.0000 0.63390  0.73080  0.87748  Biso   1.000  Hf
  Hf15     1.0000 0.36644  0.26586  0.12538  Biso   1.000  Hf
  Hf16     1.0000 0.36645  0.26586  0.62539  Biso   1.000  Hf
  Hf17     1.0000 0.37060  0.76298  0.12370  Biso   1.000  Hf
  Hf18     1.0000 0.37061  0.76298  0.62372  Biso   1.000  Hf
  Hf19     1.0000 0.86138  0.27038  0.12506  Biso   1.000  Hf
  Hf20     1.0000 0.86138  0.27038  0.62508  Biso   1.000  Hf
  Hf21     1.0000 0.86185  0.76167  0.12769  Biso   1.000  Hf
  Hf22     1.0000 0.86182  0.76167  0.62769  Biso   1.000  Hf
  Hf23     1.0000 0.36605  0.48199  0.37557  Biso   1.000  Hf
  Hf24     1.0000 0.36606  0.48198  0.87557  Biso   1.000  Hf
  Hf25     1.0000 0.37079  0.98340  0.37197  Biso   1.000  Hf
  Hf26     1.0000 0.37078  0.98339  0.87196  Biso   1.000  Hf
  Hf27     1.0000 0.86668  0.48375  0.37720  Biso   1.000  Hf
  Hf28     1.0000 0.86669  0.48374  0.87720  Biso   1.000  Hf
  Hf29     1.0000 0.85822  0.98169  0.37762  Biso   1.000  Hf
  Hf30     1.0000 0.85823  0.98169  0.87759  Biso   1.000  Hf
  O1       1.0000 0.03407  0.20510  0.19150  Biso   1.000  O 
  O2       1.0000 0.03409  0.20511  0.69149  Biso   1.000  O 
  O3       1.0000 0.03683  0.68669  0.19625  Biso   1.000  O 
  O4       1.0000 0.03683  0.68670  0.69624  Biso   1.000  O 
  O5       1.0000 0.53906  0.18498  0.19144  Biso   1.000  O 
  O6       1.0000 0.53906  0.18497  0.69147  Biso   1.000  O 
  O7       1.0000 0.53665  0.68033  0.19722  Biso   1.000  O 
  O8       1.0000 0.53665  0.68033  0.69724  Biso   1.000  O 
  O9       1.0000 0.03272  0.07158  0.40996  Biso   1.000  O 
  O10      1.0000 0.03274  0.07156  0.90996  Biso   1.000  O 
  O11      1.0000 0.03480  0.56897  0.44603  Biso   1.000  O 
  O12      1.0000 0.03482  0.56895  0.94603  Biso   1.000  O 
  O13      1.0000 0.54043  0.06543  0.44207  Biso   1.000  O 
  O14      1.0000 0.54042  0.06543  0.94207  Biso   1.000  O 
  O15      1.0000 0.53370  0.56584  0.44783  Biso   1.000  O 
  O16      1.0000 0.53370  0.56584  0.94784  Biso   1.000  O 
  O17      1.0000 0.46578  0.43235  0.19624  Biso   1.000  O 
  O18      1.0000 0.46581  0.43235  0.69624  Biso   1.000  O 
  O19      1.0000 0.46493  0.93517  0.19166  Biso   1.000  O 
  O20      1.0000 0.46495  0.93518  0.69167  Biso   1.000  O 
  O21      1.0000 0.96236  0.44061  0.19521  Biso   1.000  O 
  O22      1.0000 0.96237  0.44060  0.69524  Biso   1.000  O 
  O23      1.0000 0.93644  0.92725  0.20234  Biso   1.000  O 
  O24      1.0000 0.93647  0.92723  0.70233  Biso   1.000  O 
  O25      1.0000 0.46654  0.31668  0.44428  Biso   1.000  O 
  O26      1.0000 0.46652  0.31666  0.94430  Biso   1.000  O 
  O27      1.0000 0.47353  0.81800  0.44780  Biso   1.000  O 
  O28      1.0000 0.47351  0.81799  0.94780  Biso   1.000  O 
  O29      1.0000 0.96495  0.32052  0.44640  Biso   1.000  O 
  O30      1.0000 0.96494  0.32051  0.94643  Biso   1.000  O 
  O31      1.0000 0.97392  0.82361  0.45700  Biso   1.000  O 
  O32      1.0000 0.97390  0.82359  0.95703  Biso   1.000  O 
  O33      1.0000 0.28238  0.12751  0.25390  Biso   1.000  O 
  O34      1.0000 0.28237  0.12752  0.75390  Biso   1.000  O 
  O35      1.0000 0.27023  0.61325  0.24916  Biso   1.000  O 
  O36      1.0000 0.27023  0.61326  0.74916  Biso   1.000  O 
  O37      1.0000 0.76896  0.11875  0.25052  Biso   1.000  O 
  O38      1.0000 0.76897  0.11875  0.75053  Biso   1.000  O 
  O39      1.0000 0.77034  0.61625  0.24933  Biso   1.000  O 
  O40      1.0000 0.77035  0.61626  0.74935  Biso   1.000  O 
  O41      1.0000 0.27599  0.13601  0.49356  Biso   1.000  O 
  O42      1.0000 0.27599  0.13601  0.99355  Biso   1.000  O 
  O43      1.0000 0.27136  0.62925  0.49991  Biso   1.000  O 
  O44      1.0000 0.27137  0.62923  0.99992  Biso   1.000  O 
  O45      1.0000 0.77122  0.13313  0.50089  Biso   1.000  O 
  O46      1.0000 0.77123  0.13312  0.00086  Biso   1.000  O 
  O47      1.0000 0.76976  0.62988  0.49850  Biso   1.000  O 
  O48      1.0000 0.76976  0.62988  0.99850  Biso   1.000  O 
  O49      1.0000 0.23125  0.38376  0.49888  Biso   1.000  O 
  O50      1.0000 0.23125  0.38376  0.99885  Biso   1.000  O 
  O51      1.0000 0.24468  0.87247  0.49083  Biso   1.000  O 
  O52      1.0000 0.24466  0.87249  0.99082  Biso   1.000  O 
  O53      1.0000 0.72903  0.38321  0.49895  Biso   1.000  O 
  O54      1.0000 0.72903  0.38320  0.99895  Biso   1.000  O 
  O55      1.0000 0.73097  0.87841  0.50369  Biso   1.000  O 
  O56      1.0000 0.73099  0.87841  0.00367  Biso   1.000  O 
  O57      1.0000 0.22987  0.37022  0.24742  Biso   1.000  O 
  O58      1.0000 0.22986  0.37022  0.74741  Biso   1.000  O 
  O59      1.0000 0.24366  0.85525  0.25292  Biso   1.000  O 
  O60      1.0000 0.24366  0.85524  0.75293  Biso   1.000  O 
  O61      1.0000 0.72972  0.36883  0.25043  Biso   1.000  O 
  O62      1.0000 0.72973  0.36883  0.75044  Biso   1.000  O 
  O63      1.0000 0.71815  0.86598  0.25320  Biso   1.000  O 
  O64      1.0000 0.71817  0.86597  0.75320  Biso   1.000  O 
