data_image0
_cell_length_a       10.026
_cell_length_b       10.4232
_cell_length_c       10.1084
_cell_angle_alpha    89.7036
_cell_angle_beta     90.0201
_cell_angle_gamma    90.1439

_symmetry_space_group_name_H-M    "P 1"
_symmetry_int_tables_number       1

loop_
  _symmetry_equiv_pos_as_xyz
  'x, y, z'

loop_
  _atom_site_label
  _atom_site_occupancy
  _atom_site_fract_x
  _atom_site_fract_y
  _atom_site_fract_z
  _atom_site_thermal_displace_type
  _atom_site_B_iso_or_equiv
  _atom_site_type_symbol
  La1      1.0000 0.11747  0.00481  0.12474  Biso   1.000  La
  Hf1      1.0000 0.13316  0.01867  0.63111  Biso   1.000  Hf
  Hf2      1.0000 0.13777  0.51549  0.13007  Biso   1.000  Hf
  Hf3      1.0000 0.13436  0.51714  0.62351  Biso   1.000  Hf
  Hf4      1.0000 0.63474  0.01936  0.11969  Biso   1.000  Hf
  Hf5      1.0000 0.63009  0.01836  0.62809  Biso   1.000  Hf
  Hf6      1.0000 0.62979  0.50819  0.11862  Biso   1.000  Hf
  Hf7      1.0000 0.63381  0.51759  0.62318  Biso   1.000  Hf
  Hf8      1.0000 0.13575  0.23646  0.37932  Biso   1.000  Hf
  Hf9      1.0000 0.13321  0.23606  0.87269  Biso   1.000  Hf
  Hf10     1.0000 0.13647  0.73498  0.38198  Biso   1.000  Hf
  Hf11     1.0000 0.13950  0.73188  0.87429  Biso   1.000  Hf
  Hf12     1.0000 0.63073  0.23425  0.37386  Biso   1.000  Hf
  Hf13     1.0000 0.63343  0.23491  0.87475  Biso   1.000  Hf
  La2      1.0000 0.62843  0.74414  0.36341  Biso   1.000  La
  Hf14     1.0000 0.62886  0.73278  0.87097  Biso   1.000  Hf
  Hf15     1.0000 0.36267  0.26352  0.12718  Biso   1.000  Hf
  Hf16     1.0000 0.36656  0.26629  0.62621  Biso   1.000  Hf
  Hf17     1.0000 0.36707  0.76257  0.12234  Biso   1.000  Hf
  Hf18     1.0000 0.36356  0.76951  0.62969  Biso   1.000  Hf
  Hf19     1.0000 0.86621  0.27019  0.12599  Biso   1.000  Hf
  Hf20     1.0000 0.86720  0.27126  0.62495  Biso   1.000  Hf
  Hf21     1.0000 0.88136  0.73400  0.09677  Biso   1.000  Hf
  Hf22     1.0000 0.86714  0.76566  0.62241  Biso   1.000  Hf
  Hf23     1.0000 0.36646  0.48111  0.37696  Biso   1.000  Hf
  Hf24     1.0000 0.36658  0.47950  0.87351  Biso   1.000  Hf
  Hf25     1.0000 0.36342  0.98567  0.38125  Biso   1.000  Hf
  Hf26     1.0000 0.36624  0.98527  0.87614  Biso   1.000  Hf
  Hf27     1.0000 0.86541  0.48487  0.37486  Biso   1.000  Hf
  Hf28     1.0000 0.86394  0.48249  0.87178  Biso   1.000  Hf
  Hf29     1.0000 0.86677  0.99867  0.39332  Biso   1.000  Hf
  Hf30     1.0000 0.86044  0.98290  0.87035  Biso   1.000  Hf
  O1       1.0000 0.02024  0.18711  0.21372  Biso   1.000  O 
  O2       1.0000 0.03734  0.18968  0.68816  Biso   1.000  O 
  O3       1.0000 0.04571  0.69277  0.19853  Biso   1.000  O 
  O4       1.0000 0.03533  0.68394  0.69818  Biso   1.000  O 
  O5       1.0000 0.53421  0.17985  0.19170  Biso   1.000  O 
  O6       1.0000 0.53422  0.18434  0.69816  Biso   1.000  O 
  O7       1.0000 0.53345  0.67127  0.16695  Biso   1.000  O 
  O8       1.0000 0.53326  0.68385  0.69257  Biso   1.000  O 
  O9       1.0000 0.03925  0.06910  0.44846  Biso   1.000  O 
  O10      1.0000 0.02656  0.07682  0.92318  Biso   1.000  O 
  O11      1.0000 0.03751  0.56777  0.44432  Biso   1.000  O 
  O12      1.0000 0.01554  0.58590  0.96661  Biso   1.000  O 
  O13      1.0000 0.53642  0.06739  0.44878  Biso   1.000  O 
  O14      1.0000 0.53683  0.06670  0.94647  Biso   1.000  O 
  O15      1.0000 0.52925  0.55999  0.45117  Biso   1.000  O 
  O16      1.0000 0.53483  0.56088  0.93431  Biso   1.000  O 
  O17      1.0000 0.46511  0.42686  0.19921  Biso   1.000  O 
  O18      1.0000 0.46535  0.43132  0.69520  Biso   1.000  O 
  O19      1.0000 0.48805  0.91844  0.21140  Biso   1.000  O 
  O20      1.0000 0.46508  0.93513  0.70297  Biso   1.000  O 
  O21      1.0000 0.96728  0.43580  0.19613  Biso   1.000  O 
  O22      1.0000 0.96711  0.43608  0.69963  Biso   1.000  O 
  O23      1.0000 0.90747  0.92294  0.19279  Biso   1.000  O 
  O24      1.0000 0.96194  0.93483  0.69259  Biso   1.000  O 
  O25      1.0000 0.46148  0.31193  0.44497  Biso   1.000  O 
  O26      1.0000 0.46521  0.31500  0.94737  Biso   1.000  O 
  O27      1.0000 0.45258  0.82794  0.46407  Biso   1.000  O 
  O28      1.0000 0.46807  0.81865  0.94552  Biso   1.000  O 
  O29      1.0000 0.96649  0.32198  0.44976  Biso   1.000  O 
  O30      1.0000 0.96835  0.32458  0.94897  Biso   1.000  O 
  O31      1.0000 0.96580  0.82154  0.44255  Biso   1.000  O 
  O32      1.0000 0.97832  0.82970  0.94645  Biso   1.000  O 
  O33      1.0000 0.27575  0.12374  0.25561  Biso   1.000  O 
  O34      1.0000 0.27038  0.11882  0.75053  Biso   1.000  O 
  O35      1.0000 0.27354  0.61397  0.25140  Biso   1.000  O 
  O36      1.0000 0.26684  0.61541  0.75215  Biso   1.000  O 
  O37      1.0000 0.76297  0.11354  0.25443  Biso   1.000  O 
  O38      1.0000 0.76789  0.11850  0.74909  Biso   1.000  O 
  O39      1.0000 0.77610  0.60599  0.23236  Biso   1.000  O 
  O40      1.0000 0.76987  0.61823  0.74519  Biso   1.000  O 
  O41      1.0000 0.26977  0.13251  0.50366  Biso   1.000  O 
  O42      1.0000 0.26974  0.13474  0.99595  Biso   1.000  O 
  O43      1.0000 0.26995  0.63433  0.50371  Biso   1.000  O 
  O44      1.0000 0.26865  0.62757  0.99956  Biso   1.000  O 
  O45      1.0000 0.76912  0.14056  0.50206  Biso   1.000  O 
  O46      1.0000 0.77160  0.13373  0.99986  Biso   1.000  O 
  O47      1.0000 0.78030  0.62625  0.49996  Biso   1.000  O 
  O48      1.0000 0.76153  0.62505  0.98618  Biso   1.000  O 
  O49      1.0000 0.23058  0.38368  0.50040  Biso   1.000  O 
  O50      1.0000 0.22822  0.38393  0.00002  Biso   1.000  O 
  O51      1.0000 0.22125  0.88614  0.50429  Biso   1.000  O 
  O52      1.0000 0.24110  0.87223  0.99435  Biso   1.000  O 
  O53      1.0000 0.72764  0.38306  0.49722  Biso   1.000  O 
  O54      1.0000 0.73015  0.38039  0.99503  Biso   1.000  O 
  O55      1.0000 0.73954  0.89625  0.50703  Biso   1.000  O 
  O56      1.0000 0.73282  0.87484  0.99862  Biso   1.000  O 
  O57      1.0000 0.22740  0.36679  0.24952  Biso   1.000  O 
  O58      1.0000 0.23035  0.36784  0.74762  Biso   1.000  O 
  O59      1.0000 0.24739  0.85931  0.25902  Biso   1.000  O 
  O60      1.0000 0.22836  0.87019  0.75183  Biso   1.000  O 
  O61      1.0000 0.73081  0.36375  0.24761  Biso   1.000  O 
  O62      1.0000 0.73080  0.36801  0.74816  Biso   1.000  O 
  O63      1.0000 0.77964  0.87557  0.23528  Biso   1.000  O 
  O64      1.0000 0.72921  0.86558  0.74818  Biso   1.000  O 
