data_image0
_cell_length_a       10.0641
_cell_length_b       10.402
_cell_length_c       10.0671
_cell_angle_alpha    90.2683
_cell_angle_beta     90.2834
_cell_angle_gamma    89.9687

_symmetry_space_group_name_H-M    "P 1"
_symmetry_int_tables_number       1

loop_
  _symmetry_equiv_pos_as_xyz
  'x, y, z'

loop_
  _atom_site_label
  _atom_site_occupancy
  _atom_site_fract_x
  _atom_site_fract_y
  _atom_site_fract_z
  _atom_site_thermal_displace_type
  _atom_site_B_iso_or_equiv
  _atom_site_type_symbol
  La1      1.0000 0.11285  0.99642  0.10750  Biso   1.000  La
  Hf1      1.0000 0.12369  0.01052  0.61868  Biso   1.000  Hf
  Hf2      1.0000 0.13547  0.51469  0.12603  Biso   1.000  Hf
  Hf3      1.0000 0.13292  0.51531  0.62584  Biso   1.000  Hf
  Hf4      1.0000 0.63979  0.01722  0.12970  Biso   1.000  Hf
  Hf5      1.0000 0.63367  0.01647  0.62744  Biso   1.000  Hf
  Hf6      1.0000 0.63197  0.51685  0.12631  Biso   1.000  Hf
  Hf7      1.0000 0.63069  0.51658  0.62701  Biso   1.000  Hf
  Hf8      1.0000 0.11914  0.24652  0.37908  Biso   1.000  Hf
  Hf9      1.0000 0.12773  0.23847  0.86120  Biso   1.000  Hf
  Hf10     1.0000 0.13364  0.73293  0.37544  Biso   1.000  Hf
  Hf11     1.0000 0.13497  0.73098  0.87691  Biso   1.000  Hf
  Hf12     1.0000 0.64083  0.23420  0.37962  Biso   1.000  Hf
  Hf13     1.0000 0.63609  0.23308  0.87744  Biso   1.000  Hf
  Hf14     1.0000 0.63469  0.73126  0.37909  Biso   1.000  Hf
  Hf15     1.0000 0.63355  0.73154  0.87754  Biso   1.000  Hf
  La2      1.0000 0.37010  0.25057  0.12096  Biso   1.000  La
  Hf16     1.0000 0.36948  0.26457  0.61464  Biso   1.000  Hf
  Hf17     1.0000 0.36941  0.76438  0.12147  Biso   1.000  Hf
  Hf18     1.0000 0.36300  0.76335  0.62851  Biso   1.000  Hf
  Hf19     1.0000 0.86885  0.26927  0.12954  Biso   1.000  Hf
  Hf20     1.0000 0.86208  0.26952  0.63022  Biso   1.000  Hf
  Hf21     1.0000 0.86055  0.76348  0.13095  Biso   1.000  Hf
  Hf22     1.0000 0.86563  0.76273  0.62882  Biso   1.000  Hf
  Hf23     1.0000 0.36558  0.48408  0.37430  Biso   1.000  Hf
  Hf24     1.0000 0.36551  0.48193  0.87250  Biso   1.000  Hf
  Hf25     1.0000 0.37762  0.97002  0.38080  Biso   1.000  Hf
  Hf26     1.0000 0.36818  0.98395  0.86586  Biso   1.000  Hf
  Hf27     1.0000 0.86399  0.48724  0.37742  Biso   1.000  Hf
  Hf28     1.0000 0.86574  0.48416  0.87974  Biso   1.000  Hf
  Hf29     1.0000 0.86208  0.98061  0.38557  Biso   1.000  Hf
  Hf30     1.0000 0.85897  0.98156  0.87392  Biso   1.000  Hf
  O1       1.0000 0.04748  0.19519  0.19796  Biso   1.000  O 
  O2       1.0000 0.03743  0.18735  0.67728  Biso   1.000  O 
  O3       1.0000 0.03541  0.68361  0.19768  Biso   1.000  O 
  O4       1.0000 0.03334  0.68133  0.69992  Biso   1.000  O 
  O5       1.0000 0.56144  0.18240  0.20385  Biso   1.000  O 
  O6       1.0000 0.53554  0.18218  0.69628  Biso   1.000  O 
  O7       1.0000 0.53773  0.69046  0.19616  Biso   1.000  O 
  O8       1.0000 0.53231  0.68113  0.69986  Biso   1.000  O 
  O9       1.0000 0.03332  0.06846  0.44217  Biso   1.000  O 
  O10      1.0000 0.02125  0.07867  0.91315  Biso   1.000  O 
  O11      1.0000 0.03512  0.56602  0.44795  Biso   1.000  O 
  O12      1.0000 0.03135  0.57222  0.94885  Biso   1.000  O 
  O13      1.0000 0.54088  0.06491  0.44823  Biso   1.000  O 
  O14      1.0000 0.53069  0.07317  0.95277  Biso   1.000  O 
  O15      1.0000 0.53482  0.56842  0.44779  Biso   1.000  O 
  O16      1.0000 0.53325  0.56921  0.94889  Biso   1.000  O 
  O17      1.0000 0.46992  0.44277  0.20187  Biso   1.000  O 
  O18      1.0000 0.46233  0.43179  0.68709  Biso   1.000  O 
  O19      1.0000 0.45247  0.95285  0.19148  Biso   1.000  O 
  O20      1.0000 0.46629  0.93036  0.69202  Biso   1.000  O 
  O21      1.0000 0.96373  0.43711  0.19867  Biso   1.000  O 
  O22      1.0000 0.96815  0.43162  0.70332  Biso   1.000  O 
  O23      1.0000 0.94535  0.91838  0.21695  Biso   1.000  O 
  O24      1.0000 0.96078  0.93139  0.69669  Biso   1.000  O 
  O25      1.0000 0.46870  0.31718  0.44070  Biso   1.000  O 
  O26      1.0000 0.47204  0.32556  0.93083  Biso   1.000  O 
  O27      1.0000 0.46804  0.81383  0.45210  Biso   1.000  O 
  O28      1.0000 0.47468  0.82321  0.94684  Biso   1.000  O 
  O29      1.0000 0.95731  0.32202  0.45250  Biso   1.000  O 
  O30      1.0000 0.96451  0.31929  0.94834  Biso   1.000  O 
  O31      1.0000 0.96932  0.81655  0.45685  Biso   1.000  O 
  O32      1.0000 0.97745  0.82983  0.96327  Biso   1.000  O 
  O33      1.0000 0.27203  0.11214  0.71695  Biso   1.000  O 
  O34      1.0000 0.27083  0.61676  0.24836  Biso   1.000  O 
  O35      1.0000 0.26800  0.61627  0.74903  Biso   1.000  O 
  O36      1.0000 0.78614  0.11868  0.25545  Biso   1.000  O 
  O37      1.0000 0.76886  0.11831  0.75242  Biso   1.000  O 
  O38      1.0000 0.76817  0.61956  0.25166  Biso   1.000  O 
  O39      1.0000 0.76944  0.61577  0.75012  Biso   1.000  O 
  O40      1.0000 0.27811  0.13580  0.44438  Biso   1.000  O 
  O41      1.0000 0.26089  0.12626  0.96559  Biso   1.000  O 
  O42      1.0000 0.26861  0.63330  0.49951  Biso   1.000  O 
  O43      1.0000 0.27119  0.62985  0.99969  Biso   1.000  O 
  O44      1.0000 0.77073  0.13264  0.50650  Biso   1.000  O 
  O45      1.0000 0.77056  0.13043  0.00446  Biso   1.000  O 
  O46      1.0000 0.77060  0.63186  0.50081  Biso   1.000  O 
  O47      1.0000 0.76986  0.63180  0.99954  Biso   1.000  O 
  O48      1.0000 0.23045  0.38283  0.49999  Biso   1.000  O 
  O49      1.0000 0.22372  0.38755  0.98913  Biso   1.000  O 
  O50      1.0000 0.23279  0.88284  0.50014  Biso   1.000  O 
  O51      1.0000 0.24647  0.86936  0.98586  Biso   1.000  O 
  O52      1.0000 0.73054  0.38506  0.50384  Biso   1.000  O 
  O53      1.0000 0.73143  0.38174  0.00438  Biso   1.000  O 
  O54      1.0000 0.72914  0.87854  0.50505  Biso   1.000  O 
  O55      1.0000 0.73350  0.87953  0.00336  Biso   1.000  O 
  O56      1.0000 0.22289  0.37394  0.25561  Biso   1.000  O 
  O57      1.0000 0.23503  0.36513  0.74207  Biso   1.000  O 
  O58      1.0000 0.24283  0.85966  0.25547  Biso   1.000  O 
  O59      1.0000 0.22721  0.86509  0.74554  Biso   1.000  O 
  O60      1.0000 0.73435  0.36958  0.25411  Biso   1.000  O 
  O61      1.0000 0.72858  0.36911  0.75345  Biso   1.000  O 
  O62      1.0000 0.71538  0.87040  0.25514  Biso   1.000  O 
  O63      1.0000 0.72905  0.86544  0.75192  Biso   1.000  O 
