data_image0
_cell_length_a       10.1402
_cell_length_b       10.3037
_cell_length_c       10.5054
_cell_angle_alpha    90.0244
_cell_angle_beta     90.0035
_cell_angle_gamma    89.9758

_symmetry_space_group_name_H-M    "P 1"
_symmetry_int_tables_number       1

loop_
  _symmetry_equiv_pos_as_xyz
  'x, y, z'

loop_
  _atom_site_label
  _atom_site_occupancy
  _atom_site_fract_x
  _atom_site_fract_y
  _atom_site_fract_z
  _atom_site_thermal_displace_type
  _atom_site_B_iso_or_equiv
  _atom_site_type_symbol
  La1      1.0000 0.13418  0.01147  0.16253  Biso   1.000  La
  Hf1      1.0000 0.13413  0.01561  0.67186  Biso   1.000  Hf
  Hf2      1.0000 0.13909  0.51971  0.17092  Biso   1.000  Hf
  Hf3      1.0000 0.14017  0.51953  0.67062  Biso   1.000  Hf
  Hf4      1.0000 0.13465  0.22795  0.41992  Biso   1.000  Hf
  Hf5      1.0000 0.13807  0.23330  0.91966  Biso   1.000  Hf
  Hf6      1.0000 0.13964  0.72708  0.42257  Biso   1.000  Hf
  Hf7      1.0000 0.14177  0.72594  0.91957  Biso   1.000  Hf
  Hf8      1.0000 0.35903  0.26936  0.17186  Biso   1.000  Hf
  La2      1.0000 0.36608  0.26138  0.66302  Biso   1.000  La
  Hf9      1.0000 0.36627  0.76670  0.17052  Biso   1.000  Hf
  Hf10     1.0000 0.36013  0.76999  0.67083  Biso   1.000  Hf
  Hf11     1.0000 0.36021  0.48210  0.41827  Biso   1.000  Hf
  Hf12     1.0000 0.36154  0.47683  0.92319  Biso   1.000  Hf
  Hf13     1.0000 0.35983  0.97730  0.42100  Biso   1.000  Hf
  Hf14     1.0000 0.36468  0.97853  0.91960  Biso   1.000  Hf
  Hf15     1.0000 0.63851  0.02188  0.08108  Biso   1.000  Hf
  Hf16     1.0000 0.64182  0.01626  0.57915  Biso   1.000  Hf
  Hf17     1.0000 0.63816  0.51944  0.07744  Biso   1.000  Hf
  Hf18     1.0000 0.64048  0.52373  0.57461  Biso   1.000  Hf
  Hf19     1.0000 0.63701  0.23041  0.33046  Biso   1.000  Hf
  Hf20     1.0000 0.64621  0.23015  0.83420  Biso   1.000  Hf
  Hf21     1.0000 0.64119  0.72936  0.32657  Biso   1.000  Hf
  Hf22     1.0000 0.63782  0.72908  0.82651  Biso   1.000  Hf
  Hf23     1.0000 0.85979  0.27417  0.07852  Biso   1.000  Hf
  Hf24     1.0000 0.86012  0.27151  0.58033  Biso   1.000  Hf
  Hf25     1.0000 0.85777  0.76597  0.07521  Biso   1.000  Hf
  Hf26     1.0000 0.86313  0.76898  0.57827  Biso   1.000  Hf
  Hf27     1.0000 0.86117  0.47953  0.32792  Biso   1.000  Hf
  Hf28     1.0000 0.86148  0.48106  0.82600  Biso   1.000  Hf
  Hf29     1.0000 0.85507  0.98005  0.33315  Biso   1.000  Hf
  Hf30     1.0000 0.86056  0.97842  0.83107  Biso   1.000  Hf
  O1       1.0000 0.03169  0.18527  0.07993  Biso   1.000  O 
  O2       1.0000 0.03105  0.16969  0.58966  Biso   1.000  O 
  O3       1.0000 0.03335  0.66611  0.08221  Biso   1.000  O 
  O4       1.0000 0.03252  0.66294  0.58309  Biso   1.000  O 
  O5       1.0000 0.01903  0.08896  0.34469  Biso   1.000  O 
  O6       1.0000 0.02899  0.08471  0.83687  Biso   1.000  O 
  O7       1.0000 0.03228  0.58563  0.33249  Biso   1.000  O 
  O8       1.0000 0.03114  0.58731  0.83042  Biso   1.000  O 
  O9       1.0000 0.46701  0.41686  0.08827  Biso   1.000  O 
  O10      1.0000 0.46901  0.43417  0.57787  Biso   1.000  O 
  O11      1.0000 0.46910  0.91747  0.08570  Biso   1.000  O 
  O12      1.0000 0.46603  0.91727  0.58406  Biso   1.000  O 
  O13      1.0000 0.46627  0.33552  0.33607  Biso   1.000  O 
  O14      1.0000 0.47902  0.33774  0.84720  Biso   1.000  O 
  O15      1.0000 0.47327  0.83610  0.33189  Biso   1.000  O 
  O16      1.0000 0.46933  0.83632  0.83078  Biso   1.000  O 
  O17      1.0000 0.28122  0.12860  0.30057  Biso   1.000  O 
  O18      1.0000 0.26439  0.11122  0.79858  Biso   1.000  O 
  O19      1.0000 0.27606  0.62109  0.29305  Biso   1.000  O 
  O20      1.0000 0.27792  0.62269  0.79423  Biso   1.000  O 
  O21      1.0000 0.28669  0.13529  0.03501  Biso   1.000  O 
  O22      1.0000 0.25505  0.10894  0.53560  Biso   1.000  O 
  O23      1.0000 0.27484  0.62016  0.04604  Biso   1.000  O 
  O24      1.0000 0.27623  0.62681  0.54452  Biso   1.000  O 
  O25      1.0000 0.22243  0.37306  0.29175  Biso   1.000  O 
  O26      1.0000 0.21937  0.37984  0.80198  Biso   1.000  O 
  O27      1.0000 0.23487  0.86212  0.30133  Biso   1.000  O 
  O28      1.0000 0.22319  0.86887  0.79179  Biso   1.000  O 
  O29      1.0000 0.22414  0.37654  0.04621  Biso   1.000  O 
  O30      1.0000 0.21425  0.38460  0.53392  Biso   1.000  O 
  O31      1.0000 0.24419  0.85991  0.03328  Biso   1.000  O 
  O32      1.0000 0.22475  0.86993  0.54713  Biso   1.000  O 
  O33      1.0000 0.53319  0.16614  0.16862  Biso   1.000  O 
  O34      1.0000 0.55991  0.16115  0.67252  Biso   1.000  O 
  O35      1.0000 0.53505  0.66448  0.16461  Biso   1.000  O 
  O36      1.0000 0.53540  0.66936  0.66423  Biso   1.000  O 
  O37      1.0000 0.52959  0.08746  0.42141  Biso   1.000  O 
  O38      1.0000 0.53638  0.08421  0.91641  Biso   1.000  O 
  O39      1.0000 0.53407  0.58813  0.41079  Biso   1.000  O 
  O40      1.0000 0.53098  0.58794  0.91793  Biso   1.000  O 
  O41      1.0000 0.96378  0.42066  0.16481  Biso   1.000  O 
  O42      1.0000 0.96673  0.41748  0.66431  Biso   1.000  O 
  O43      1.0000 0.94130  0.90822  0.17313  Biso   1.000  O 
  O44      1.0000 0.96533  0.91116  0.66996  Biso   1.000  O 
  O45      1.0000 0.96342  0.33564  0.41592  Biso   1.000  O 
  O46      1.0000 0.96404  0.33741  0.91140  Biso   1.000  O 
  O47      1.0000 0.96989  0.83705  0.41945  Biso   1.000  O 
  O48      1.0000 0.97235  0.83845  0.92155  Biso   1.000  O 
  O49      1.0000 0.77704  0.12417  0.95927  Biso   1.000  O 
  O50      1.0000 0.77056  0.12517  0.45884  Biso   1.000  O 
  O51      1.0000 0.77350  0.62330  0.95129  Biso   1.000  O 
  O52      1.0000 0.77779  0.62499  0.45231  Biso   1.000  O 
  O53      1.0000 0.77398  0.12761  0.20836  Biso   1.000  O 
  O54      1.0000 0.78917  0.12631  0.70941  Biso   1.000  O 
  O55      1.0000 0.77532  0.62578  0.20242  Biso   1.000  O 
  O56      1.0000 0.77584  0.62776  0.70293  Biso   1.000  O 
  O57      1.0000 0.72678  0.37710  0.95663  Biso   1.000  O 
  O58      1.0000 0.72311  0.37549  0.45492  Biso   1.000  O 
  O59      1.0000 0.72504  0.87330  0.95471  Biso   1.000  O 
  O60      1.0000 0.72633  0.87153  0.45583  Biso   1.000  O 
  O61      1.0000 0.72271  0.37729  0.20664  Biso   1.000  O 
  O62      1.0000 0.72541  0.37748  0.70555  Biso   1.000  O 
  O63      1.0000 0.71242  0.87723  0.20578  Biso   1.000  O 
  O64      1.0000 0.72513  0.87601  0.70545  Biso   1.000  O 
