data_image0
_cell_length_a       10.1707
_cell_length_b       10.3665
_cell_length_c       10.5118
_cell_angle_alpha    89.6397
_cell_angle_beta     80.7133
_cell_angle_gamma    90.0689

_symmetry_space_group_name_H-M    "P 1"
_symmetry_int_tables_number       1

loop_
  _symmetry_equiv_pos_as_xyz
  'x, y, z'

loop_
  _atom_site_label
  _atom_site_occupancy
  _atom_site_fract_x
  _atom_site_fract_y
  _atom_site_fract_z
  _atom_site_thermal_displace_type
  _atom_site_B_iso_or_equiv
  _atom_site_type_symbol
  La1      1.0000 0.12579  0.00809  0.13935  Biso   1.000  La
  Hf1      1.0000 0.13649  0.02270  0.64667  Biso   1.000  Hf
  Hf2      1.0000 0.14137  0.51870  0.14570  Biso   1.000  Hf
  Hf3      1.0000 0.13985  0.52251  0.64573  Biso   1.000  Hf
  Hf4      1.0000 0.63854  0.02754  0.14276  Biso   1.000  Hf
  Hf5      1.0000 0.63678  0.02568  0.65233  Biso   1.000  Hf
  Hf6      1.0000 0.63295  0.51157  0.14519  Biso   1.000  Hf
  Hf7      1.0000 0.63771  0.52339  0.64386  Biso   1.000  Hf
  Hf8      1.0000 0.14014  0.23217  0.39888  Biso   1.000  Hf
  Hf9      1.0000 0.13720  0.23112  0.89314  Biso   1.000  Hf
  Hf10     1.0000 0.13874  0.72810  0.39719  Biso   1.000  Hf
  Hf11     1.0000 0.14691  0.72623  0.89208  Biso   1.000  Hf
  Hf12     1.0000 0.63525  0.23185  0.39675  Biso   1.000  Hf
  Hf13     1.0000 0.63974  0.23044  0.89561  Biso   1.000  Hf
  La2      1.0000 0.63590  0.73790  0.38768  Biso   1.000  La
  Hf14     1.0000 0.63752  0.72869  0.89164  Biso   1.000  Hf
  Hf15     1.0000 0.35613  0.26726  0.10225  Biso   1.000  Hf
  Hf16     1.0000 0.36048  0.27085  0.60502  Biso   1.000  Hf
  Hf17     1.0000 0.36885  0.76703  0.10464  Biso   1.000  Hf
  Hf18     1.0000 0.35722  0.77396  0.60712  Biso   1.000  Hf
  Hf19     1.0000 0.86126  0.27523  0.10366  Biso   1.000  Hf
  Hf20     1.0000 0.86151  0.27605  0.60551  Biso   1.000  Hf
  Hf21     1.0000 0.86215  0.74604  0.08365  Biso   1.000  Hf
  Hf22     1.0000 0.86332  0.77123  0.60509  Biso   1.000  Hf
  Hf23     1.0000 0.35802  0.47648  0.35270  Biso   1.000  Hf
  Hf24     1.0000 0.36375  0.47590  0.85351  Biso   1.000  Hf
  Hf25     1.0000 0.35688  0.98293  0.35524  Biso   1.000  Hf
  Hf26     1.0000 0.36315  0.97864  0.85300  Biso   1.000  Hf
  Hf27     1.0000 0.86169  0.47994  0.35394  Biso   1.000  Hf
  Hf28     1.0000 0.86230  0.47765  0.84832  Biso   1.000  Hf
  Hf29     1.0000 0.86178  0.99622  0.37799  Biso   1.000  Hf
  Hf30     1.0000 0.86110  0.97850  0.85571  Biso   1.000  Hf
  O1       1.0000 0.03473  0.18665  0.07652  Biso   1.000  O 
  O2       1.0000 0.03561  0.17507  0.58634  Biso   1.000  O 
  O3       1.0000 0.04418  0.67547  0.08059  Biso   1.000  O 
  O4       1.0000 0.03760  0.67235  0.58171  Biso   1.000  O 
  O5       1.0000 0.53456  0.16810  0.07920  Biso   1.000  O 
  O6       1.0000 0.53338  0.16841  0.58036  Biso   1.000  O 
  O7       1.0000 0.54202  0.66720  0.07995  Biso   1.000  O 
  O8       1.0000 0.52717  0.66690  0.58980  Biso   1.000  O 
  O9       1.0000 0.03348  0.08283  0.34784  Biso   1.000  O 
  O10      1.0000 0.03682  0.07797  0.83517  Biso   1.000  O 
  O11      1.0000 0.03703  0.58145  0.32878  Biso   1.000  O 
  O12      1.0000 0.03523  0.58157  0.83035  Biso   1.000  O 
  O13      1.0000 0.54280  0.07344  0.33066  Biso   1.000  O 
  O14      1.0000 0.53689  0.08178  0.83252  Biso   1.000  O 
  O15      1.0000 0.53406  0.56158  0.32567  Biso   1.000  O 
  O16      1.0000 0.53683  0.57837  0.83111  Biso   1.000  O 
  O17      1.0000 0.45893  0.41338  0.16641  Biso   1.000  O 
  O18      1.0000 0.46448  0.41677  0.66991  Biso   1.000  O 
  O19      1.0000 0.47556  0.91116  0.17602  Biso   1.000  O 
  O20      1.0000 0.46609  0.91844  0.67362  Biso   1.000  O 
  O21      1.0000 0.96370  0.42348  0.16789  Biso   1.000  O 
  O22      1.0000 0.96407  0.42471  0.66690  Biso   1.000  O 
  O23      1.0000 0.90413  0.92156  0.17865  Biso   1.000  O 
  O24      1.0000 0.96187  0.92189  0.67197  Biso   1.000  O 
  O25      1.0000 0.45832  0.32356  0.41769  Biso   1.000  O 
  O26      1.0000 0.46536  0.32940  0.91924  Biso   1.000  O 
  O27      1.0000 0.44335  0.83767  0.43136  Biso   1.000  O 
  O28      1.0000 0.47240  0.83452  0.92232  Biso   1.000  O 
  O29      1.0000 0.96381  0.33274  0.42120  Biso   1.000  O 
  O30      1.0000 0.96095  0.33116  0.91400  Biso   1.000  O 
  O31      1.0000 0.96353  0.83276  0.41638  Biso   1.000  O 
  O32      1.0000 0.97227  0.83253  0.92046  Biso   1.000  O 
  O33      1.0000 0.27897  0.13279  0.24428  Biso   1.000  O 
  O34      1.0000 0.27517  0.12925  0.73872  Biso   1.000  O 
  O35      1.0000 0.27824  0.62429  0.23882  Biso   1.000  O 
  O36      1.0000 0.27538  0.62801  0.74134  Biso   1.000  O 
  O37      1.0000 0.77694  0.13245  0.24554  Biso   1.000  O 
  O38      1.0000 0.77720  0.13117  0.74371  Biso   1.000  O 
  O39      1.0000 0.78249  0.61863  0.22580  Biso   1.000  O 
  O40      1.0000 0.77483  0.63100  0.73845  Biso   1.000  O 
  O41      1.0000 0.27412  0.12153  0.49238  Biso   1.000  O 
  O42      1.0000 0.28056  0.12355  0.98150  Biso   1.000  O 
  O43      1.0000 0.27483  0.62022  0.49050  Biso   1.000  O 
  O44      1.0000 0.27994  0.61590  0.98989  Biso   1.000  O 
  O45      1.0000 0.77268  0.13187  0.49864  Biso   1.000  O 
  O46      1.0000 0.77609  0.12098  0.99181  Biso   1.000  O 
  O47      1.0000 0.78405  0.61653  0.49481  Biso   1.000  O 
  O48      1.0000 0.77599  0.61622  0.98118  Biso   1.000  O 
  O49      1.0000 0.22395  0.37838  0.00773  Biso   1.000  O 
  O50      1.0000 0.22279  0.37992  0.51044  Biso   1.000  O 
  O51      1.0000 0.23992  0.86481  0.99799  Biso   1.000  O 
  O52      1.0000 0.21145  0.88248  0.51255  Biso   1.000  O 
  O53      1.0000 0.72271  0.37774  0.00748  Biso   1.000  O 
  O54      1.0000 0.72102  0.38023  0.50807  Biso   1.000  O 
  O55      1.0000 0.72703  0.87604  0.00952  Biso   1.000  O 
  O56      1.0000 0.73249  0.89314  0.51913  Biso   1.000  O 
  O57      1.0000 0.21945  0.37020  0.25829  Biso   1.000  O 
  O58      1.0000 0.22346  0.37200  0.75859  Biso   1.000  O 
  O59      1.0000 0.23665  0.86058  0.26203  Biso   1.000  O 
  O60      1.0000 0.22418  0.87151  0.75835  Biso   1.000  O 
  O61      1.0000 0.72346  0.36958  0.25907  Biso   1.000  O 
  O62      1.0000 0.72403  0.37118  0.75754  Biso   1.000  O 
  O63      1.0000 0.77068  0.88583  0.24063  Biso   1.000  O 
  O64      1.0000 0.72544  0.87114  0.76207  Biso   1.000  O 
