data_image0
_cell_length_a       10.1029
_cell_length_b       10.2586
_cell_length_c       10.1028
_cell_angle_alpha    90.0085
_cell_angle_beta     90.0145
_cell_angle_gamma    90.0117

_symmetry_space_group_name_H-M    "P 1"
_symmetry_int_tables_number       1

loop_
  _symmetry_equiv_pos_as_xyz
  'x, y, z'

loop_
  _atom_site_label
  _atom_site_occupancy
  _atom_site_fract_x
  _atom_site_fract_y
  _atom_site_fract_z
  _atom_site_thermal_displace_type
  _atom_site_B_iso_or_equiv
  _atom_site_type_symbol
  La1      1.0000 0.12425  0.99928  0.12429  Biso   1.000  La
  Hf1      1.0000 0.12556  0.00108  0.62516  Biso   1.000  Hf
  Hf2      1.0000 0.12353  0.50074  0.12356  Biso   1.000  Hf
  Hf3      1.0000 0.12513  0.49789  0.62962  Biso   1.000  Hf
  Hf4      1.0000 0.62510  0.00109  0.12560  Biso   1.000  Hf
  Hf5      1.0000 0.62624  0.99790  0.62629  Biso   1.000  Hf
  Hf6      1.0000 0.62958  0.49789  0.12516  Biso   1.000  Hf
  Hf7      1.0000 0.62810  0.50421  0.62814  Biso   1.000  Hf
  Hf8      1.0000 0.12290  0.25082  0.37671  Biso   1.000  Hf
  Hf9      1.0000 0.12828  0.25187  0.87247  Biso   1.000  Hf
  Hf10     1.0000 0.12465  0.75080  0.37842  Biso   1.000  Hf
  Hf11     1.0000 0.12171  0.74729  0.87275  Biso   1.000  Hf
  Hf12     1.0000 0.62858  0.24731  0.37962  Biso   1.000  Hf
  Hf13     1.0000 0.62627  0.24975  0.87587  Biso   1.000  Hf
  Hf14     1.0000 0.62883  0.75193  0.37306  Biso   1.000  Hf
  Hf15     1.0000 0.62546  0.74976  0.87502  Biso   1.000  Hf
  Hf16     1.0000 0.37666  0.25084  0.12295  Biso   1.000  Hf
  Hf17     1.0000 0.37960  0.24731  0.62861  Biso   1.000  Hf
  Hf18     1.0000 0.37838  0.75080  0.12468  Biso   1.000  Hf
  Hf19     1.0000 0.37303  0.75191  0.62887  Biso   1.000  Hf
  Hf20     1.0000 0.87244  0.25190  0.12832  Biso   1.000  Hf
  Hf21     1.0000 0.87585  0.24975  0.62632  Biso   1.000  Hf
  Hf22     1.0000 0.87271  0.74729  0.12176  Biso   1.000  Hf
  Hf23     1.0000 0.87499  0.74975  0.62548  Biso   1.000  Hf
  Hf24     1.0000 0.37782  0.00073  0.37788  Biso   1.000  Hf
  Hf25     1.0000 0.37624  0.99789  0.87184  Biso   1.000  Hf
  La2      1.0000 0.37709  0.49928  0.37712  Biso   1.000  La
  Hf26     1.0000 0.37582  0.50111  0.87627  Biso   1.000  Hf
  Hf27     1.0000 0.87180  0.99789  0.37630  Biso   1.000  Hf
  Hf28     1.0000 0.87330  0.00427  0.87336  Biso   1.000  Hf
  Hf29     1.0000 0.87623  0.50112  0.37585  Biso   1.000  Hf
  Hf30     1.0000 0.87516  0.49787  0.87522  Biso   1.000  Hf
  O1       1.0000 0.99719  0.15568  0.99724  Biso   1.000  O 
  O2       1.0000 0.00788  0.15179  0.51259  Biso   1.000  O 
  O3       1.0000 0.99786  0.64433  0.99790  Biso   1.000  O 
  O4       1.0000 0.98884  0.65178  0.49355  Biso   1.000  O 
  O5       1.0000 0.51254  0.15183  0.00793  Biso   1.000  O 
  O6       1.0000 0.50358  0.14436  0.50361  Biso   1.000  O 
  O7       1.0000 0.49351  0.65181  0.98885  Biso   1.000  O 
  O8       1.0000 0.50417  0.65572  0.50419  Biso   1.000  O 
  O9       1.0000 0.98899  0.11579  0.26621  Biso   1.000  O 
  O10      1.0000 0.00023  0.09990  0.75412  Biso   1.000  O 
  O11      1.0000 0.00146  0.59891  0.24806  Biso   1.000  O 
  O12      1.0000 0.00061  0.60107  0.74970  Biso   1.000  O 
  O13      1.0000 0.49988  0.09895  0.25342  Biso   1.000  O 
  O14      1.0000 0.50084  0.10114  0.75181  Biso   1.000  O 
  O15      1.0000 0.51234  0.61583  0.23521  Biso   1.000  O 
  O16      1.0000 0.50121  0.59994  0.74735  Biso   1.000  O 
  O17      1.0000 0.99535  0.35380  0.25380  Biso   1.000  O 
  O18      1.0000 0.99670  0.35185  0.75204  Biso   1.000  O 
  O19      1.0000 0.99260  0.84559  0.25269  Biso   1.000  O 
  O20      1.0000 0.01005  0.84889  0.73680  Biso   1.000  O 
  O21      1.0000 0.50874  0.34561  0.24873  Biso   1.000  O 
  O22      1.0000 0.49136  0.34896  0.76457  Biso   1.000  O 
  O23      1.0000 0.50600  0.85381  0.24759  Biso   1.000  O 
  O24      1.0000 0.50468  0.85186  0.74935  Biso   1.000  O 
  O25      1.0000 0.00035  0.39934  0.00044  Biso   1.000  O 
  O26      1.0000 0.00676  0.40248  0.49944  Biso   1.000  O 
  O27      1.0000 0.98438  0.88337  0.98442  Biso   1.000  O 
  O28      1.0000 0.00193  0.90247  0.49462  Biso   1.000  O 
  O29      1.0000 0.49937  0.40249  0.00679  Biso   1.000  O 
  O30      1.0000 0.51691  0.38340  0.51696  Biso   1.000  O 
  O31      1.0000 0.49458  0.90248  0.00195  Biso   1.000  O 
  O32      1.0000 0.50094  0.89937  0.50095  Biso   1.000  O 
  O33      1.0000 0.25743  0.15051  0.25748  Biso   1.000  O 
  O34      1.0000 0.24601  0.14820  0.74403  Biso   1.000  O 
  O35      1.0000 0.24391  0.65043  0.24396  Biso   1.000  O 
  O36      1.0000 0.25541  0.64820  0.75742  Biso   1.000  O 
  O37      1.0000 0.74398  0.14821  0.24603  Biso   1.000  O 
  O38      1.0000 0.74838  0.14874  0.74841  Biso   1.000  O 
  O39      1.0000 0.75736  0.64819  0.25544  Biso   1.000  O 
  O40      1.0000 0.75302  0.64875  0.75305  Biso   1.000  O 
  O41      1.0000 0.26618  0.11580  0.98903  Biso   1.000  O 
  O42      1.0000 0.25339  0.09895  0.49994  Biso   1.000  O 
  O43      1.0000 0.24802  0.59892  0.00151  Biso   1.000  O 
  O44      1.0000 0.23517  0.61583  0.51239  Biso   1.000  O 
  O45      1.0000 0.75408  0.09992  0.00026  Biso   1.000  O 
  O46      1.0000 0.75176  0.10114  0.50085  Biso   1.000  O 
  O47      1.0000 0.74965  0.60109  0.00065  Biso   1.000  O 
  O48      1.0000 0.74732  0.59995  0.50125  Biso   1.000  O 
  O49      1.0000 0.25372  0.35379  0.99539  Biso   1.000  O 
  O50      1.0000 0.24871  0.34562  0.50878  Biso   1.000  O 
  O51      1.0000 0.25265  0.84559  0.99263  Biso   1.000  O 
  O52      1.0000 0.24759  0.85382  0.50601  Biso   1.000  O 
  O53      1.0000 0.75197  0.35185  0.99675  Biso   1.000  O 
  O54      1.0000 0.76452  0.34897  0.49142  Biso   1.000  O 
  O55      1.0000 0.73676  0.84890  0.01010  Biso   1.000  O 
  O56      1.0000 0.74933  0.85187  0.50473  Biso   1.000  O 
  O57      1.0000 0.23910  0.38544  0.23916  Biso   1.000  O 
  O58      1.0000 0.24624  0.39911  0.75297  Biso   1.000  O 
  O59      1.0000 0.26223  0.88540  0.26225  Biso   1.000  O 
  O60      1.0000 0.25514  0.89910  0.74845  Biso   1.000  O 
  O61      1.0000 0.75292  0.39912  0.24629  Biso   1.000  O 
  O62      1.0000 0.74820  0.39774  0.74825  Biso   1.000  O 
  O63      1.0000 0.74841  0.89912  0.25516  Biso   1.000  O 
  O64      1.0000 0.75318  0.89775  0.75322  Biso   1.000  O 
