data_image0
_cell_length_a       10.1416
_cell_length_b       10.2991
_cell_length_c       10.5424
_cell_angle_alpha    90.5522
_cell_angle_beta     89.6345
_cell_angle_gamma    89.91

_symmetry_space_group_name_H-M    "P 1"
_symmetry_int_tables_number       1

loop_
  _symmetry_equiv_pos_as_xyz
  'x, y, z'

loop_
  _atom_site_label
  _atom_site_occupancy
  _atom_site_fract_x
  _atom_site_fract_y
  _atom_site_fract_z
  _atom_site_thermal_displace_type
  _atom_site_B_iso_or_equiv
  _atom_site_type_symbol
  Hf1      1.0000 0.12124  0.01441  0.15434  Biso   1.000  Hf
  Hf2      1.0000 0.13820  0.01997  0.66876  Biso   1.000  Hf
  Hf3      1.0000 0.13449  0.53021  0.17102  Biso   1.000  Hf
  Hf4      1.0000 0.13988  0.51571  0.67424  Biso   1.000  Hf
  La1      1.0000 0.14040  0.23262  0.40772  Biso   1.000  La
  Hf5      1.0000 0.13554  0.23096  0.91706  Biso   1.000  Hf
  Hf6      1.0000 0.12345  0.72132  0.43410  Biso   1.000  Hf
  Hf7      1.0000 0.13783  0.72638  0.91992  Biso   1.000  Hf
  La2      1.0000 0.36148  0.26003  0.16884  Biso   1.000  La
  Hf8      1.0000 0.36398  0.26599  0.67529  Biso   1.000  Hf
  Hf9      1.0000 0.37246  0.76885  0.15726  Biso   1.000  Hf
  Hf10     1.0000 0.36215  0.76715  0.67003  Biso   1.000  Hf
  Hf11     1.0000 0.37641  0.47165  0.43853  Biso   1.000  Hf
  Hf12     1.0000 0.36019  0.47769  0.92128  Biso   1.000  Hf
  Hf13     1.0000 0.37517  0.97839  0.43073  Biso   1.000  Hf
  Hf14     1.0000 0.36017  0.97853  0.91724  Biso   1.000  Hf
  Hf15     1.0000 0.64252  0.01814  0.07681  Biso   1.000  Hf
  Hf16     1.0000 0.64323  0.01810  0.58297  Biso   1.000  Hf
  Hf17     1.0000 0.63890  0.51678  0.07422  Biso   1.000  Hf
  Hf18     1.0000 0.64419  0.51842  0.58264  Biso   1.000  Hf
  Hf19     1.0000 0.64553  0.22585  0.33483  Biso   1.000  Hf
  Hf20     1.0000 0.63850  0.22605  0.83069  Biso   1.000  Hf
  Hf21     1.0000 0.63589  0.72800  0.32843  Biso   1.000  Hf
  Hf22     1.0000 0.63607  0.72598  0.82741  Biso   1.000  Hf
  Hf23     1.0000 0.85884  0.27031  0.08127  Biso   1.000  Hf
  Hf24     1.0000 0.86159  0.26759  0.58227  Biso   1.000  Hf
  Hf25     1.0000 0.85617  0.76390  0.07380  Biso   1.000  Hf
  Hf26     1.0000 0.85673  0.76834  0.58077  Biso   1.000  Hf
  Hf27     1.0000 0.85636  0.47820  0.32948  Biso   1.000  Hf
  Hf28     1.0000 0.86347  0.47492  0.82943  Biso   1.000  Hf
  Hf29     1.0000 0.85782  0.97374  0.32622  Biso   1.000  Hf
  Hf30     1.0000 0.86413  0.97568  0.82773  Biso   1.000  Hf
  O1       1.0000 0.03001  0.16693  0.08276  Biso   1.000  O 
  O2       1.0000 0.02685  0.15623  0.58666  Biso   1.000  O 
  O3       1.0000 0.02650  0.66015  0.07378  Biso   1.000  O 
  O4       1.0000 0.02351  0.65263  0.58714  Biso   1.000  O 
  O5       1.0000 0.02721  0.06705  0.31977  Biso   1.000  O 
  O6       1.0000 0.03235  0.08289  0.83173  Biso   1.000  O 
  O7       1.0000 0.02530  0.58128  0.33517  Biso   1.000  O 
  O8       1.0000 0.03284  0.58222  0.83280  Biso   1.000  O 
  O9       1.0000 0.46947  0.42295  0.07675  Biso   1.000  O 
  O10      1.0000 0.47575  0.41408  0.59670  Biso   1.000  O 
  O11      1.0000 0.46733  0.91988  0.07765  Biso   1.000  O 
  O12      1.0000 0.47367  0.90837  0.58849  Biso   1.000  O 
  O13      1.0000 0.47108  0.31953  0.35832  Biso   1.000  O 
  O14      1.0000 0.46621  0.32859  0.83794  Biso   1.000  O 
  O15      1.0000 0.45665  0.82953  0.32823  Biso   1.000  O 
  O16      1.0000 0.46509  0.83019  0.83278  Biso   1.000  O 
  O17      1.0000 0.27466  0.12198  0.79071  Biso   1.000  O 
  O18      1.0000 0.23053  0.70040  0.27339  Biso   1.000  O 
  O19      1.0000 0.27535  0.62173  0.79237  Biso   1.000  O 
  O20      1.0000 0.25582  0.11304  0.02822  Biso   1.000  O 
  O21      1.0000 0.28575  0.11906  0.54966  Biso   1.000  O 
  O22      1.0000 0.27809  0.62533  0.04147  Biso   1.000  O 
  O23      1.0000 0.27274  0.62375  0.54240  Biso   1.000  O 
  O24      1.0000 0.24553  0.42511  0.29802  Biso   1.000  O 
  O25      1.0000 0.22550  0.37129  0.79605  Biso   1.000  O 
  O26      1.0000 0.27328  0.04918  0.27990  Biso   1.000  O 
  O27      1.0000 0.22442  0.87156  0.79098  Biso   1.000  O 
  O28      1.0000 0.21174  0.38452  0.03717  Biso   1.000  O 
  O29      1.0000 0.23662  0.37693  0.55715  Biso   1.000  O 
  O30      1.0000 0.22491  0.86907  0.04568  Biso   1.000  O 
  O31      1.0000 0.22571  0.87285  0.53452  Biso   1.000  O 
  O32      1.0000 0.55579  0.16097  0.17256  Biso   1.000  O 
  O33      1.0000 0.53646  0.16180  0.66864  Biso   1.000  O 
  O34      1.0000 0.53421  0.66227  0.16484  Biso   1.000  O 
  O35      1.0000 0.53342  0.66347  0.66620  Biso   1.000  O 
  O36      1.0000 0.54102  0.07842  0.42106  Biso   1.000  O 
  O37      1.0000 0.53126  0.08475  0.91815  Biso   1.000  O 
  O38      1.0000 0.53336  0.58620  0.41972  Biso   1.000  O 
  O39      1.0000 0.53320  0.58462  0.91413  Biso   1.000  O 
  O40      1.0000 0.96885  0.41122  0.17149  Biso   1.000  O 
  O41      1.0000 0.97120  0.40659  0.67253  Biso   1.000  O 
  O42      1.0000 0.96332  0.89788  0.16696  Biso   1.000  O 
  O43      1.0000 0.96902  0.90720  0.66903  Biso   1.000  O 
  O44      1.0000 0.95048  0.33852  0.42367  Biso   1.000  O 
  O45      1.0000 0.96240  0.33233  0.91913  Biso   1.000  O 
  O46      1.0000 0.96472  0.83404  0.42326  Biso   1.000  O 
  O47      1.0000 0.96906  0.83532  0.91809  Biso   1.000  O 
  O48      1.0000 0.77563  0.12097  0.95606  Biso   1.000  O 
  O49      1.0000 0.77798  0.11935  0.45837  Biso   1.000  O 
  O50      1.0000 0.77436  0.61953  0.95208  Biso   1.000  O 
  O51      1.0000 0.77301  0.62347  0.45492  Biso   1.000  O 
  O52      1.0000 0.78806  0.12200  0.20665  Biso   1.000  O 
  O53      1.0000 0.77564  0.12175  0.70834  Biso   1.000  O 
  O54      1.0000 0.77161  0.62501  0.20471  Biso   1.000  O 
  O55      1.0000 0.77567  0.62309  0.70579  Biso   1.000  O 
  O56      1.0000 0.72360  0.37042  0.95647  Biso   1.000  O 
  O57      1.0000 0.71806  0.37295  0.45980  Biso   1.000  O 
  O58      1.0000 0.72540  0.86927  0.95210  Biso   1.000  O 
  O59      1.0000 0.72129  0.86907  0.45518  Biso   1.000  O 
  O60      1.0000 0.72291  0.37399  0.20731  Biso   1.000  O 
  O61      1.0000 0.72661  0.37384  0.70866  Biso   1.000  O 
  O62      1.0000 0.71913  0.87351  0.20365  Biso   1.000  O 
  O63      1.0000 0.72533  0.87326  0.70518  Biso   1.000  O 
