data_image0
_cell_length_a       10.0969
_cell_length_b       10.285
_cell_length_c       10.4567
_cell_angle_alpha    89.8863
_cell_angle_beta     90.7312
_cell_angle_gamma    89.7516

_symmetry_space_group_name_H-M    "P 1"
_symmetry_int_tables_number       1

loop_
  _symmetry_equiv_pos_as_xyz
  'x, y, z'

loop_
  _atom_site_label
  _atom_site_occupancy
  _atom_site_fract_x
  _atom_site_fract_y
  _atom_site_fract_z
  _atom_site_thermal_displace_type
  _atom_site_B_iso_or_equiv
  _atom_site_type_symbol
  La1      1.0000 0.13307  0.00359  0.15978  Biso   1.000  La
  Hf1      1.0000 0.14003  0.01879  0.66986  Biso   1.000  Hf
  Hf2      1.0000 0.13896  0.52538  0.17276  Biso   1.000  Hf
  Hf3      1.0000 0.13780  0.52333  0.66875  Biso   1.000  Hf
  Hf4      1.0000 0.13689  0.22974  0.41976  Biso   1.000  Hf
  Hf5      1.0000 0.15559  0.24015  0.89903  Biso   1.000  Hf
  Hf6      1.0000 0.13983  0.73051  0.42187  Biso   1.000  Hf
  Hf7      1.0000 0.13980  0.72711  0.91896  Biso   1.000  Hf
  Hf8      1.0000 0.35701  0.27072  0.17014  Biso   1.000  Hf
  Hf9      1.0000 0.36766  0.27055  0.66454  Biso   1.000  Hf
  Hf10     1.0000 0.36796  0.76372  0.17076  Biso   1.000  Hf
  Hf11     1.0000 0.36327  0.77079  0.67086  Biso   1.000  Hf
  Hf12     1.0000 0.36036  0.48031  0.42098  Biso   1.000  Hf
  Hf13     1.0000 0.36678  0.48070  0.92102  Biso   1.000  Hf
  Hf14     1.0000 0.36322  0.97940  0.42087  Biso   1.000  Hf
  Hf15     1.0000 0.36501  0.97666  0.91688  Biso   1.000  Hf
  Hf16     1.0000 0.63337  0.01705  0.08106  Biso   1.000  Hf
  Hf17     1.0000 0.63995  0.02059  0.58175  Biso   1.000  Hf
  Hf18     1.0000 0.64312  0.51434  0.07965  Biso   1.000  Hf
  Hf19     1.0000 0.64072  0.52100  0.57984  Biso   1.000  Hf
  Hf20     1.0000 0.63046  0.23195  0.33296  Biso   1.000  Hf
  Hf21     1.0000 0.64109  0.22827  0.83171  Biso   1.000  Hf
  Hf22     1.0000 0.63882  0.72724  0.33048  Biso   1.000  Hf
  Hf23     1.0000 0.64210  0.72646  0.82875  Biso   1.000  Hf
  La2      1.0000 0.87792  0.25197  0.09668  Biso   1.000  La
  Hf24     1.0000 0.86107  0.27130  0.58006  Biso   1.000  Hf
  Hf25     1.0000 0.85646  0.76906  0.07986  Biso   1.000  Hf
  Hf26     1.0000 0.86248  0.77339  0.58041  Biso   1.000  Hf
  Hf27     1.0000 0.86225  0.48354  0.33270  Biso   1.000  Hf
  Hf28     1.0000 0.86526  0.47368  0.83177  Biso   1.000  Hf
  Hf29     1.0000 0.85053  0.98246  0.33082  Biso   1.000  Hf
  Hf30     1.0000 0.86332  0.97804  0.83276  Biso   1.000  Hf
  O1       1.0000 0.03460  0.16617  0.58509  Biso   1.000  O 
  O2       1.0000 0.04102  0.68568  0.09481  Biso   1.000  O 
  O3       1.0000 0.03526  0.67261  0.58744  Biso   1.000  O 
  O4       1.0000 0.00978  0.10944  0.31872  Biso   1.000  O 
  O5       1.0000 0.04037  0.08055  0.85182  Biso   1.000  O 
  O6       1.0000 0.03622  0.58633  0.34056  Biso   1.000  O 
  O7       1.0000 0.03780  0.57737  0.83766  Biso   1.000  O 
  O8       1.0000 0.46640  0.41463  0.08361  Biso   1.000  O 
  O9       1.0000 0.46923  0.41642  0.58332  Biso   1.000  O 
  O10      1.0000 0.46488  0.91650  0.08547  Biso   1.000  O 
  O11      1.0000 0.46771  0.91591  0.58497  Biso   1.000  O 
  O12      1.0000 0.46041  0.33555  0.33388  Biso   1.000  O 
  O13      1.0000 0.46732  0.33180  0.83334  Biso   1.000  O 
  O14      1.0000 0.47014  0.83354  0.33405  Biso   1.000  O 
  O15      1.0000 0.46975  0.83362  0.83231  Biso   1.000  O 
  O16      1.0000 0.27552  0.12741  0.29960  Biso   1.000  O 
  O17      1.0000 0.27992  0.12296  0.78501  Biso   1.000  O 
  O18      1.0000 0.27818  0.62265  0.29536  Biso   1.000  O 
  O19      1.0000 0.27723  0.62460  0.79350  Biso   1.000  O 
  O20      1.0000 0.26817  0.13568  0.03197  Biso   1.000  O 
  O21      1.0000 0.27487  0.12599  0.54278  Biso   1.000  O 
  O22      1.0000 0.27546  0.61844  0.04490  Biso   1.000  O 
  O23      1.0000 0.27608  0.62739  0.54479  Biso   1.000  O 
  O24      1.0000 0.21876  0.37493  0.29226  Biso   1.000  O 
  O25      1.0000 0.23293  0.37737  0.78529  Biso   1.000  O 
  O26      1.0000 0.23215  0.86449  0.29809  Biso   1.000  O 
  O27      1.0000 0.22439  0.87281  0.79123  Biso   1.000  O 
  O28      1.0000 0.21893  0.37490  0.04030  Biso   1.000  O 
  O29      1.0000 0.22435  0.37769  0.54141  Biso   1.000  O 
  O30      1.0000 0.24372  0.85924  0.03140  Biso   1.000  O 
  O31      1.0000 0.22431  0.87904  0.54485  Biso   1.000  O 
  O32      1.0000 0.52358  0.16561  0.16593  Biso   1.000  O 
  O33      1.0000 0.53727  0.16647  0.66591  Biso   1.000  O 
  O34      1.0000 0.53531  0.65968  0.16684  Biso   1.000  O 
  O35      1.0000 0.53466  0.66501  0.66664  Biso   1.000  O 
  O36      1.0000 0.53144  0.08484  0.42004  Biso   1.000  O 
  O37      1.0000 0.53008  0.08529  0.91682  Biso   1.000  O 
  O38      1.0000 0.53344  0.58269  0.41783  Biso   1.000  O 
  O39      1.0000 0.53530  0.58375  0.91675  Biso   1.000  O 
  O40      1.0000 0.96599  0.43584  0.16745  Biso   1.000  O 
  O41      1.0000 0.96793  0.41758  0.66513  Biso   1.000  O 
  O42      1.0000 0.92419  0.94370  0.14583  Biso   1.000  O 
  O43      1.0000 0.96623  0.92071  0.66668  Biso   1.000  O 
  O44      1.0000 0.96534  0.33839  0.41864  Biso   1.000  O 
  O45      1.0000 0.97956  0.32801  0.90997  Biso   1.000  O 
  O46      1.0000 0.96889  0.84043  0.41113  Biso   1.000  O 
  O47      1.0000 0.96624  0.82863  0.91413  Biso   1.000  O 
  O48      1.0000 0.76953  0.11312  0.95394  Biso   1.000  O 
  O49      1.0000 0.77293  0.12526  0.46080  Biso   1.000  O 
  O50      1.0000 0.77889  0.62028  0.95670  Biso   1.000  O 
  O51      1.0000 0.77759  0.62591  0.45800  Biso   1.000  O 
  O52      1.0000 0.74752  0.11563  0.21902  Biso   1.000  O 
  O53      1.0000 0.77916  0.12614  0.70849  Biso   1.000  O 
  O54      1.0000 0.77694  0.62617  0.20618  Biso   1.000  O 
  O55      1.0000 0.77978  0.62588  0.70681  Biso   1.000  O 
  O56      1.0000 0.72614  0.37281  0.95402  Biso   1.000  O 
  O57      1.0000 0.72357  0.37509  0.45907  Biso   1.000  O 
  O58      1.0000 0.72130  0.86918  0.95577  Biso   1.000  O 
  O59      1.0000 0.72400  0.87433  0.45843  Biso   1.000  O 
  O60      1.0000 0.71981  0.37868  0.21480  Biso   1.000  O 
  O61      1.0000 0.72675  0.37512  0.70717  Biso   1.000  O 
  O62      1.0000 0.71407  0.86844  0.20888  Biso   1.000  O 
  O63      1.0000 0.72684  0.87509  0.70738  Biso   1.000  O 
