data_image0
_cell_length_a       10.2231
_cell_length_b       10.3341
_cell_length_c       10.507
_cell_angle_alpha    90.0514
_cell_angle_beta     80.6175
_cell_angle_gamma    90.3109

_symmetry_space_group_name_H-M    "P 1"
_symmetry_int_tables_number       1

loop_
  _symmetry_equiv_pos_as_xyz
  'x, y, z'

loop_
  _atom_site_label
  _atom_site_occupancy
  _atom_site_fract_x
  _atom_site_fract_y
  _atom_site_fract_z
  _atom_site_thermal_displace_type
  _atom_site_B_iso_or_equiv
  _atom_site_type_symbol
  La1      1.0000 0.13089  0.00848  0.14074  Biso   1.000  La
  Hf1      1.0000 0.13972  0.02114  0.64550  Biso   1.000  Hf
  Hf2      1.0000 0.14009  0.51928  0.14504  Biso   1.000  Hf
  Hf3      1.0000 0.14002  0.52217  0.64701  Biso   1.000  Hf
  Hf4      1.0000 0.64010  0.01926  0.14501  Biso   1.000  Hf
  Hf5      1.0000 0.64002  0.02220  0.64696  Biso   1.000  Hf
  La2      1.0000 0.63087  0.50849  0.14070  Biso   1.000  La
  Hf6      1.0000 0.63969  0.52115  0.64547  Biso   1.000  Hf
  Hf7      1.0000 0.13514  0.22620  0.39813  Biso   1.000  Hf
  Hf8      1.0000 0.14186  0.23266  0.89189  Biso   1.000  Hf
  Hf9      1.0000 0.13805  0.72778  0.39698  Biso   1.000  Hf
  Hf10     1.0000 0.14243  0.72800  0.89460  Biso   1.000  Hf
  Hf11     1.0000 0.63802  0.22777  0.39699  Biso   1.000  Hf
  Hf12     1.0000 0.64243  0.22800  0.89458  Biso   1.000  Hf
  Hf13     1.0000 0.63519  0.72620  0.39808  Biso   1.000  Hf
  Hf14     1.0000 0.64189  0.73268  0.89183  Biso   1.000  Hf
  Hf15     1.0000 0.35667  0.26245  0.10267  Biso   1.000  Hf
  Hf16     1.0000 0.36213  0.27112  0.60334  Biso   1.000  Hf
  Hf17     1.0000 0.36541  0.76929  0.10232  Biso   1.000  Hf
  Hf18     1.0000 0.36037  0.77232  0.60414  Biso   1.000  Hf
  Hf19     1.0000 0.86540  0.26926  0.10231  Biso   1.000  Hf
  Hf20     1.0000 0.86037  0.27230  0.60413  Biso   1.000  Hf
  Hf21     1.0000 0.85668  0.76249  0.10264  Biso   1.000  Hf
  Hf22     1.0000 0.86218  0.77112  0.60326  Biso   1.000  Hf
  Hf23     1.0000 0.35106  0.47733  0.35951  Biso   1.000  Hf
  Hf24     1.0000 0.36449  0.47800  0.85531  Biso   1.000  Hf
  Hf25     1.0000 0.36145  0.97984  0.35501  Biso   1.000  Hf
  Hf26     1.0000 0.36396  0.97887  0.84952  Biso   1.000  Hf
  Hf27     1.0000 0.86143  0.47986  0.35496  Biso   1.000  Hf
  Hf28     1.0000 0.86397  0.47890  0.84951  Biso   1.000  Hf
  Hf29     1.0000 0.85105  0.97738  0.35945  Biso   1.000  Hf
  Hf30     1.0000 0.86446  0.97799  0.85526  Biso   1.000  Hf
  O1       1.0000 0.04017  0.18872  0.07518  Biso   1.000  O 
  O2       1.0000 0.03410  0.16977  0.58474  Biso   1.000  O 
  O3       1.0000 0.03867  0.67222  0.07985  Biso   1.000  O 
  O4       1.0000 0.03374  0.66738  0.58041  Biso   1.000  O 
  O5       1.0000 0.53865  0.17209  0.07976  Biso   1.000  O 
  O6       1.0000 0.53367  0.16731  0.58036  Biso   1.000  O 
  O7       1.0000 0.54015  0.68870  0.07509  Biso   1.000  O 
  O8       1.0000 0.53407  0.66972  0.58468  Biso   1.000  O 
  O9       1.0000 0.02081  0.08422  0.34502  Biso   1.000  O 
  O10      1.0000 0.03836  0.08084  0.83176  Biso   1.000  O 
  O11      1.0000 0.03540  0.58209  0.32961  Biso   1.000  O 
  O12      1.0000 0.03776  0.58228  0.82713  Biso   1.000  O 
  O13      1.0000 0.53537  0.08215  0.32956  Biso   1.000  O 
  O14      1.0000 0.53771  0.08237  0.82704  Biso   1.000  O 
  O15      1.0000 0.52078  0.58434  0.34491  Biso   1.000  O 
  O16      1.0000 0.53835  0.58095  0.83168  Biso   1.000  O 
  O17      1.0000 0.43242  0.41498  0.17894  Biso   1.000  O 
  O18      1.0000 0.46665  0.41693  0.67191  Biso   1.000  O 
  O19      1.0000 0.46082  0.92619  0.16713  Biso   1.000  O 
  O20      1.0000 0.46651  0.91911  0.66805  Biso   1.000  O 
  O21      1.0000 0.96080  0.42622  0.16708  Biso   1.000  O 
  O22      1.0000 0.96646  0.41918  0.66798  Biso   1.000  O 
  O23      1.0000 0.93232  0.91521  0.17875  Biso   1.000  O 
  O24      1.0000 0.96664  0.91704  0.67180  Biso   1.000  O 
  O25      1.0000 0.46477  0.33246  0.42076  Biso   1.000  O 
  O26      1.0000 0.47200  0.33619  0.92374  Biso   1.000  O 
  O27      1.0000 0.46386  0.83406  0.42392  Biso   1.000  O 
  O28      1.0000 0.47325  0.83703  0.91341  Biso   1.000  O 
  O29      1.0000 0.96381  0.33400  0.42388  Biso   1.000  O 
  O30      1.0000 0.97322  0.33691  0.91332  Biso   1.000  O 
  O31      1.0000 0.96473  0.83240  0.42064  Biso   1.000  O 
  O32      1.0000 0.97192  0.83606  0.92361  Biso   1.000  O 
  O33      1.0000 0.27939  0.13426  0.24916  Biso   1.000  O 
  O34      1.0000 0.27659  0.12962  0.73622  Biso   1.000  O 
  O35      1.0000 0.27457  0.62538  0.24061  Biso   1.000  O 
  O36      1.0000 0.27842  0.62939  0.74091  Biso   1.000  O 
  O37      1.0000 0.77454  0.12539  0.24062  Biso   1.000  O 
  O38      1.0000 0.77843  0.12934  0.74090  Biso   1.000  O 
  O39      1.0000 0.77941  0.63423  0.24909  Biso   1.000  O 
  O40      1.0000 0.77660  0.62957  0.73614  Biso   1.000  O 
  O41      1.0000 0.27386  0.12063  0.49201  Biso   1.000  O 
  O42      1.0000 0.28494  0.12506  0.97763  Biso   1.000  O 
  O43      1.0000 0.27124  0.62226  0.49356  Biso   1.000  O 
  O44      1.0000 0.27767  0.61744  0.99040  Biso   1.000  O 
  O45      1.0000 0.77125  0.12230  0.49355  Biso   1.000  O 
  O46      1.0000 0.77768  0.11747  0.99038  Biso   1.000  O 
  O47      1.0000 0.77389  0.62068  0.49199  Biso   1.000  O 
  O48      1.0000 0.78493  0.62510  0.97759  Biso   1.000  O 
  O49      1.0000 0.22813  0.37834  0.00760  Biso   1.000  O 
  O50      1.0000 0.22319  0.37818  0.51191  Biso   1.000  O 
  O51      1.0000 0.24142  0.86579  0.99407  Biso   1.000  O 
  O52      1.0000 0.22338  0.87955  0.51074  Biso   1.000  O 
  O53      1.0000 0.74144  0.36581  0.99406  Biso   1.000  O 
  O54      1.0000 0.72339  0.37960  0.51073  Biso   1.000  O 
  O55      1.0000 0.72810  0.87839  0.00754  Biso   1.000  O 
  O56      1.0000 0.72323  0.87824  0.51185  Biso   1.000  O 
  O57      1.0000 0.20544  0.37035  0.26415  Biso   1.000  O 
  O58      1.0000 0.22820  0.37309  0.75796  Biso   1.000  O 
  O59      1.0000 0.23579  0.85981  0.26545  Biso   1.000  O 
  O60      1.0000 0.22502  0.87130  0.75565  Biso   1.000  O 
  O61      1.0000 0.73577  0.35978  0.26542  Biso   1.000  O 
  O62      1.0000 0.72503  0.37127  0.75564  Biso   1.000  O 
  O63      1.0000 0.70544  0.87025  0.26405  Biso   1.000  O 
  O64      1.0000 0.72819  0.87307  0.75786  Biso   1.000  O 
