data_image0
_cell_length_a       10.2243
_cell_length_b       10.3401
_cell_length_c       10.4705
_cell_angle_alpha    90.0648
_cell_angle_beta     80.5719
_cell_angle_gamma    89.9629

_symmetry_space_group_name_H-M    "P 1"
_symmetry_int_tables_number       1

loop_
  _symmetry_equiv_pos_as_xyz
  'x, y, z'

loop_
  _atom_site_label
  _atom_site_occupancy
  _atom_site_fract_x
  _atom_site_fract_y
  _atom_site_fract_z
  _atom_site_thermal_displace_type
  _atom_site_B_iso_or_equiv
  _atom_site_type_symbol
  La1      1.0000 0.13093  0.01295  0.14356  Biso   1.000  La
  Hf1      1.0000 0.14361  0.01610  0.64666  Biso   1.000  Hf
  Hf2      1.0000 0.13832  0.52088  0.14346  Biso   1.000  Hf
  Hf3      1.0000 0.14044  0.52315  0.64666  Biso   1.000  Hf
  Hf4      1.0000 0.64079  0.02045  0.14676  Biso   1.000  Hf
  Hf5      1.0000 0.63310  0.01777  0.64898  Biso   1.000  Hf
  Hf6      1.0000 0.63846  0.51795  0.14611  Biso   1.000  Hf
  Hf7      1.0000 0.64005  0.51794  0.64541  Biso   1.000  Hf
  Hf8      1.0000 0.14845  0.22961  0.39279  Biso   1.000  Hf
  Hf9      1.0000 0.13627  0.23204  0.89245  Biso   1.000  Hf
  Hf10     1.0000 0.14028  0.72720  0.39610  Biso   1.000  Hf
  Hf11     1.0000 0.14088  0.72855  0.89591  Biso   1.000  Hf
  Hf12     1.0000 0.63575  0.23068  0.39585  Biso   1.000  Hf
  Hf13     1.0000 0.63705  0.22871  0.89872  Biso   1.000  Hf
  Hf14     1.0000 0.63794  0.72517  0.39821  Biso   1.000  Hf
  Hf15     1.0000 0.64051  0.72780  0.89413  Biso   1.000  Hf
  Hf16     1.0000 0.35953  0.26972  0.10240  Biso   1.000  Hf
  Hf17     1.0000 0.35873  0.26967  0.60387  Biso   1.000  Hf
  Hf18     1.0000 0.36635  0.76656  0.10333  Biso   1.000  Hf
  Hf19     1.0000 0.36123  0.76844  0.60360  Biso   1.000  Hf
  Hf20     1.0000 0.85827  0.27303  0.10220  Biso   1.000  Hf
  La2      1.0000 0.86970  0.26021  0.60827  Biso   1.000  La
  Hf21     1.0000 0.85694  0.76628  0.10398  Biso   1.000  Hf
  Hf22     1.0000 0.86246  0.77094  0.60501  Biso   1.000  Hf
  Hf23     1.0000 0.36119  0.47892  0.35172  Biso   1.000  Hf
  Hf24     1.0000 0.36152  0.47804  0.85314  Biso   1.000  Hf
  Hf25     1.0000 0.36587  0.97642  0.35360  Biso   1.000  Hf
  Hf26     1.0000 0.36060  0.97868  0.85396  Biso   1.000  Hf
  Hf27     1.0000 0.86072  0.47900  0.35223  Biso   1.000  Hf
  Hf28     1.0000 0.86213  0.48265  0.85315  Biso   1.000  Hf
  Hf29     1.0000 0.85108  0.97658  0.36035  Biso   1.000  Hf
  Hf30     1.0000 0.86075  0.97780  0.85704  Biso   1.000  Hf
  O1       1.0000 0.03550  0.19239  0.07638  Biso   1.000  O 
  O2       1.0000 0.07543  0.18289  0.58615  Biso   1.000  O 
  O3       1.0000 0.03910  0.67825  0.08536  Biso   1.000  O 
  O4       1.0000 0.04133  0.67813  0.58390  Biso   1.000  O 
  O5       1.0000 0.53433  0.16643  0.07932  Biso   1.000  O 
  O6       1.0000 0.53176  0.16860  0.58232  Biso   1.000  O 
  O7       1.0000 0.53725  0.66479  0.07775  Biso   1.000  O 
  O8       1.0000 0.53408  0.66424  0.57990  Biso   1.000  O 
  O9       1.0000 0.02060  0.08745  0.35455  Biso   1.000  O 
  O10      1.0000 0.03705  0.07610  0.83415  Biso   1.000  O 
  O11      1.0000 0.03528  0.58265  0.32941  Biso   1.000  O 
  O12      1.0000 0.04022  0.57787  0.83760  Biso   1.000  O 
  O13      1.0000 0.53667  0.08039  0.32884  Biso   1.000  O 
  O14      1.0000 0.52734  0.08569  0.82926  Biso   1.000  O 
  O15      1.0000 0.53428  0.58052  0.32881  Biso   1.000  O 
  O16      1.0000 0.53311  0.58388  0.82824  Biso   1.000  O 
  O17      1.0000 0.46623  0.41549  0.16989  Biso   1.000  O 
  O18      1.0000 0.46502  0.41638  0.67040  Biso   1.000  O 
  O19      1.0000 0.46723  0.91750  0.16821  Biso   1.000  O 
  O20      1.0000 0.46329  0.91450  0.67240  Biso   1.000  O 
  O21      1.0000 0.95849  0.42990  0.16140  Biso   1.000  O 
  O22      1.0000 0.96318  0.44423  0.66832  Biso   1.000  O 
  O23      1.0000 0.93043  0.92454  0.17333  Biso   1.000  O 
  O24      1.0000 0.96127  0.92840  0.66602  Biso   1.000  O 
  O25      1.0000 0.46201  0.32980  0.41891  Biso   1.000  O 
  O26      1.0000 0.46535  0.33417  0.92186  Biso   1.000  O 
  O27      1.0000 0.46655  0.83042  0.42352  Biso   1.000  O 
  O28      1.0000 0.47402  0.83554  0.92047  Biso   1.000  O 
  O29      1.0000 0.97845  0.33827  0.40344  Biso   1.000  O 
  O30      1.0000 0.95709  0.32603  0.90671  Biso   1.000  O 
  O31      1.0000 0.96550  0.83136  0.41741  Biso   1.000  O 
  O32      1.0000 0.96539  0.82841  0.92026  Biso   1.000  O 
  O33      1.0000 0.28306  0.13409  0.24723  Biso   1.000  O 
  O34      1.0000 0.27590  0.12722  0.73970  Biso   1.000  O 
  O35      1.0000 0.27646  0.62364  0.23845  Biso   1.000  O 
  O36      1.0000 0.27745  0.62943  0.74090  Biso   1.000  O 
  O37      1.0000 0.77361  0.13214  0.24231  Biso   1.000  O 
  O38      1.0000 0.76082  0.11511  0.75570  Biso   1.000  O 
  O39      1.0000 0.77388  0.62841  0.24143  Biso   1.000  O 
  O40      1.0000 0.77488  0.63000  0.74014  Biso   1.000  O 
  O41      1.0000 0.28818  0.11735  0.48831  Biso   1.000  O 
  O42      1.0000 0.28110  0.12763  0.98136  Biso   1.000  O 
  O43      1.0000 0.27690  0.62186  0.48906  Biso   1.000  O 
  O44      1.0000 0.27623  0.61757  0.99072  Biso   1.000  O 
  O45      1.0000 0.75697  0.11034  0.49004  Biso   1.000  O 
  O46      1.0000 0.77605  0.12040  0.99432  Biso   1.000  O 
  O47      1.0000 0.77884  0.62163  0.49132  Biso   1.000  O 
  O48      1.0000 0.77555  0.62028  0.99060  Biso   1.000  O 
  O49      1.0000 0.22379  0.38003  0.00630  Biso   1.000  O 
  O50      1.0000 0.22710  0.38299  0.50606  Biso   1.000  O 
  O51      1.0000 0.23988  0.86591  0.99804  Biso   1.000  O 
  O52      1.0000 0.22621  0.87844  0.50958  Biso   1.000  O 
  O53      1.0000 0.72255  0.37942  0.01008  Biso   1.000  O 
  O54      1.0000 0.71880  0.38421  0.50064  Biso   1.000  O 
  O55      1.0000 0.72464  0.87750  0.00963  Biso   1.000  O 
  O56      1.0000 0.72320  0.87304  0.51335  Biso   1.000  O 
  O57      1.0000 0.22525  0.37254  0.25462  Biso   1.000  O 
  O58      1.0000 0.22445  0.37198  0.75708  Biso   1.000  O 
  O59      1.0000 0.23757  0.85884  0.26412  Biso   1.000  O 
  O60      1.0000 0.22390  0.86927  0.75775  Biso   1.000  O 
  O61      1.0000 0.72385  0.37135  0.25790  Biso   1.000  O 
  O62      1.0000 0.71602  0.37680  0.76786  Biso   1.000  O 
  O63      1.0000 0.71029  0.86843  0.26522  Biso   1.000  O 
  O64      1.0000 0.72694  0.86742  0.75965  Biso   1.000  O 
