data_image0
_cell_length_a       10.1205
_cell_length_b       10.3283
_cell_length_c       10.4519
_cell_angle_alpha    90.0427
_cell_angle_beta     89.3564
_cell_angle_gamma    90.1848

_symmetry_space_group_name_H-M    "P 1"
_symmetry_int_tables_number       1

loop_
  _symmetry_equiv_pos_as_xyz
  'x, y, z'

loop_
  _atom_site_label
  _atom_site_occupancy
  _atom_site_fract_x
  _atom_site_fract_y
  _atom_site_fract_z
  _atom_site_thermal_displace_type
  _atom_site_B_iso_or_equiv
  _atom_site_type_symbol
  Hf1      1.0000 0.14644  0.99857  0.18357  Biso   1.000  Hf
  Hf2      1.0000 0.14063  0.01480  0.66874  Biso   1.000  Hf
  Hf3      1.0000 0.13981  0.51633  0.17049  Biso   1.000  Hf
  Hf4      1.0000 0.14183  0.52109  0.66935  Biso   1.000  Hf
  Hf5      1.0000 0.14214  0.22866  0.42110  Biso   1.000  Hf
  La1      1.0000 0.12139  0.24962  0.89598  Biso   1.000  La
  Hf6      1.0000 0.13960  0.72232  0.42189  Biso   1.000  Hf
  Hf7      1.0000 0.13694  0.72635  0.92159  Biso   1.000  Hf
  La2      1.0000 0.36866  0.25634  0.15423  Biso   1.000  La
  Hf8      1.0000 0.36753  0.26937  0.66668  Biso   1.000  Hf
  Hf9      1.0000 0.36410  0.76676  0.17006  Biso   1.000  Hf
  Hf10     1.0000 0.36226  0.77163  0.67211  Biso   1.000  Hf
  Hf11     1.0000 0.36398  0.47471  0.41859  Biso   1.000  Hf
  Hf12     1.0000 0.36511  0.48735  0.91856  Biso   1.000  Hf
  Hf13     1.0000 0.36675  0.97598  0.42397  Biso   1.000  Hf
  Hf14     1.0000 0.35223  0.98014  0.92102  Biso   1.000  Hf
  Hf15     1.0000 0.63838  0.01656  0.07904  Biso   1.000  Hf
  Hf16     1.0000 0.64165  0.02007  0.57979  Biso   1.000  Hf
  Hf17     1.0000 0.63407  0.53124  0.07904  Biso   1.000  Hf
  Hf18     1.0000 0.63809  0.52233  0.57747  Biso   1.000  Hf
  Hf19     1.0000 0.64222  0.23091  0.33835  Biso   1.000  Hf
  Hf20     1.0000 0.63499  0.22823  0.83080  Biso   1.000  Hf
  Hf21     1.0000 0.64116  0.73109  0.32976  Biso   1.000  Hf
  Hf22     1.0000 0.63732  0.73333  0.82607  Biso   1.000  Hf
  Hf23     1.0000 0.82126  0.28232  0.08618  Biso   1.000  Hf
  Hf24     1.0000 0.86530  0.26959  0.58302  Biso   1.000  Hf
  Hf25     1.0000 0.86254  0.76917  0.07787  Biso   1.000  Hf
  Hf26     1.0000 0.86245  0.77007  0.57438  Biso   1.000  Hf
  Hf27     1.0000 0.86477  0.47794  0.33127  Biso   1.000  Hf
  Hf28     1.0000 0.85598  0.48368  0.82885  Biso   1.000  Hf
  Hf29     1.0000 0.86341  0.98210  0.32791  Biso   1.000  Hf
  Hf30     1.0000 0.86054  0.97464  0.82538  Biso   1.000  Hf
  O1       1.0000 0.03506  0.16029  0.58318  Biso   1.000  O 
  O2       1.0000 0.03030  0.66025  0.08382  Biso   1.000  O 
  O3       1.0000 0.02984  0.65913  0.57954  Biso   1.000  O 
  O4       1.0000 0.03213  0.09334  0.32065  Biso   1.000  O 
  O5       1.0000 0.03032  0.06529  0.82991  Biso   1.000  O 
  O6       1.0000 0.03234  0.58459  0.33126  Biso   1.000  O 
  O7       1.0000 0.03350  0.57989  0.83229  Biso   1.000  O 
  O8       1.0000 0.46182  0.44524  0.08806  Biso   1.000  O 
  O9       1.0000 0.46841  0.42124  0.58757  Biso   1.000  O 
  O10      1.0000 0.45521  0.93513  0.09664  Biso   1.000  O 
  O11      1.0000 0.46766  0.92089  0.58937  Biso   1.000  O 
  O12      1.0000 0.47230  0.32657  0.35022  Biso   1.000  O 
  O13      1.0000 0.46359  0.32655  0.84190  Biso   1.000  O 
  O14      1.0000 0.46626  0.82763  0.33918  Biso   1.000  O 
  O15      1.0000 0.46363  0.83499  0.83824  Biso   1.000  O 
  O16      1.0000 0.27423  0.10781  0.30224  Biso   1.000  O 
  O17      1.0000 0.28554  0.11529  0.78361  Biso   1.000  O 
  O18      1.0000 0.27773  0.62009  0.29234  Biso   1.000  O 
  O19      1.0000 0.27352  0.62995  0.79385  Biso   1.000  O 
  O20      1.0000 0.22676  0.10744  0.04212  Biso   1.000  O 
  O21      1.0000 0.27789  0.12573  0.54277  Biso   1.000  O 
  O22      1.0000 0.27673  0.62935  0.04404  Biso   1.000  O 
  O23      1.0000 0.27726  0.62455  0.54378  Biso   1.000  O 
  O24      1.0000 0.22058  0.37480  0.29814  Biso   1.000  O 
  O25      1.0000 0.24699  0.39051  0.77844  Biso   1.000  O 
  O26      1.0000 0.22756  0.86381  0.29653  Biso   1.000  O 
  O27      1.0000 0.22159  0.87229  0.79552  Biso   1.000  O 
  O28      1.0000 0.21962  0.39340  0.03534  Biso   1.000  O 
  O29      1.0000 0.22756  0.37348  0.54201  Biso   1.000  O 
  O30      1.0000 0.22700  0.86393  0.04626  Biso   1.000  O 
  O31      1.0000 0.22723  0.87193  0.54451  Biso   1.000  O 
  O32      1.0000 0.57904  0.18410  0.15687  Biso   1.000  O 
  O33      1.0000 0.54135  0.17106  0.66132  Biso   1.000  O 
  O34      1.0000 0.54302  0.68633  0.15764  Biso   1.000  O 
  O35      1.0000 0.53457  0.67166  0.66186  Biso   1.000  O 
  O36      1.0000 0.54005  0.07725  0.41104  Biso   1.000  O 
  O37      1.0000 0.52680  0.08403  0.92009  Biso   1.000  O 
  O38      1.0000 0.53729  0.58095  0.41067  Biso   1.000  O 
  O39      1.0000 0.53632  0.58798  0.90842  Biso   1.000  O 
  O40      1.0000 0.96500  0.39727  0.17350  Biso   1.000  O 
  O41      1.0000 0.97803  0.39959  0.68446  Biso   1.000  O 
  O42      1.0000 0.96714  0.92004  0.15971  Biso   1.000  O 
  O43      1.0000 0.96676  0.90971  0.66204  Biso   1.000  O 
  O44      1.0000 0.97126  0.33907  0.42670  Biso   1.000  O 
  O45      1.0000 0.93076  0.34310  0.93682  Biso   1.000  O 
  O46      1.0000 0.97269  0.83637  0.41275  Biso   1.000  O 
  O47      1.0000 0.96398  0.82730  0.91394  Biso   1.000  O 
  O48      1.0000 0.77352  0.12504  0.95828  Biso   1.000  O 
  O49      1.0000 0.77939  0.12348  0.45966  Biso   1.000  O 
  O50      1.0000 0.77497  0.62704  0.95377  Biso   1.000  O 
  O51      1.0000 0.77626  0.62453  0.45399  Biso   1.000  O 
  O52      1.0000 0.79626  0.13054  0.21196  Biso   1.000  O 
  O53      1.0000 0.77673  0.12348  0.70825  Biso   1.000  O 
  O54      1.0000 0.77872  0.62969  0.20634  Biso   1.000  O 
  O55      1.0000 0.77463  0.62697  0.70299  Biso   1.000  O 
  O56      1.0000 0.69742  0.37661  0.96023  Biso   1.000  O 
  O57      1.0000 0.73011  0.37372  0.46045  Biso   1.000  O 
  O58      1.0000 0.72266  0.87380  0.95474  Biso   1.000  O 
  O59      1.0000 0.72732  0.87396  0.45403  Biso   1.000  O 
  O60      1.0000 0.71506  0.39119  0.21434  Biso   1.000  O 
  O61      1.0000 0.72678  0.37705  0.70776  Biso   1.000  O 
  O62      1.0000 0.72693  0.88090  0.20613  Biso   1.000  O 
  O63      1.0000 0.72381  0.87546  0.70174  Biso   1.000  O 
