data_image0
_cell_length_a       10.1697
_cell_length_b       10.3125
_cell_length_c       10.4718
_cell_angle_alpha    89.8922
_cell_angle_beta     81.139
_cell_angle_gamma    89.7355

_symmetry_space_group_name_H-M    "P 1"
_symmetry_int_tables_number       1

loop_
  _symmetry_equiv_pos_as_xyz
  'x, y, z'

loop_
  _atom_site_label
  _atom_site_occupancy
  _atom_site_fract_x
  _atom_site_fract_y
  _atom_site_fract_z
  _atom_site_thermal_displace_type
  _atom_site_B_iso_or_equiv
  _atom_site_type_symbol
  La1      1.0000 0.13295  0.00398  0.13758  Biso   1.000  La
  Hf1      1.0000 0.13914  0.01979  0.64586  Biso   1.000  Hf
  Hf2      1.0000 0.13979  0.52437  0.14603  Biso   1.000  Hf
  Hf3      1.0000 0.13748  0.52420  0.64353  Biso   1.000  Hf
  Hf4      1.0000 0.63299  0.01525  0.14755  Biso   1.000  Hf
  Hf5      1.0000 0.64007  0.02287  0.64834  Biso   1.000  Hf
  Hf6      1.0000 0.64212  0.51376  0.14688  Biso   1.000  Hf
  Hf7      1.0000 0.64180  0.52130  0.64646  Biso   1.000  Hf
  Hf8      1.0000 0.13612  0.23007  0.39540  Biso   1.000  Hf
  Hf9      1.0000 0.15636  0.23797  0.87388  Biso   1.000  Hf
  Hf10     1.0000 0.13929  0.72962  0.39661  Biso   1.000  Hf
  Hf11     1.0000 0.14092  0.72791  0.89373  Biso   1.000  Hf
  Hf12     1.0000 0.63418  0.22915  0.39863  Biso   1.000  Hf
  Hf13     1.0000 0.63921  0.22886  0.89858  Biso   1.000  Hf
  Hf14     1.0000 0.63376  0.72611  0.39735  Biso   1.000  Hf
  Hf15     1.0000 0.64614  0.72639  0.89495  Biso   1.000  Hf
  Hf16     1.0000 0.36006  0.26986  0.10529  Biso   1.000  Hf
  Hf17     1.0000 0.36408  0.27346  0.59784  Biso   1.000  Hf
  Hf18     1.0000 0.37057  0.76383  0.10115  Biso   1.000  Hf
  Hf19     1.0000 0.36193  0.77147  0.60393  Biso   1.000  Hf
  La2      1.0000 0.87810  0.25416  0.11536  Biso   1.000  La
  Hf20     1.0000 0.86095  0.27235  0.60590  Biso   1.000  Hf
  Hf21     1.0000 0.85721  0.76738  0.10652  Biso   1.000  Hf
  Hf22     1.0000 0.86155  0.77390  0.60466  Biso   1.000  Hf
  Hf23     1.0000 0.35930  0.48021  0.35198  Biso   1.000  Hf
  Hf24     1.0000 0.36826  0.48078  0.85156  Biso   1.000  Hf
  Hf25     1.0000 0.35916  0.97997  0.35513  Biso   1.000  Hf
  Hf26     1.0000 0.36783  0.97558  0.85092  Biso   1.000  Hf
  Hf27     1.0000 0.86215  0.48362  0.35752  Biso   1.000  Hf
  Hf28     1.0000 0.86597  0.47395  0.85629  Biso   1.000  Hf
  Hf29     1.0000 0.84963  0.98107  0.35795  Biso   1.000  Hf
  Hf30     1.0000 0.86323  0.97699  0.85724  Biso   1.000  Hf
  O1       1.0000 0.03535  0.16917  0.58192  Biso   1.000  O 
  O2       1.0000 0.04423  0.68553  0.08695  Biso   1.000  O 
  O3       1.0000 0.03628  0.67415  0.58161  Biso   1.000  O 
  O4       1.0000 0.53192  0.16594  0.07929  Biso   1.000  O 
  O5       1.0000 0.53386  0.16771  0.57949  Biso   1.000  O 
  O6       1.0000 0.54176  0.66290  0.07703  Biso   1.000  O 
  O7       1.0000 0.53521  0.66791  0.58160  Biso   1.000  O 
  O8       1.0000 0.01226  0.10526  0.32087  Biso   1.000  O 
  O9       1.0000 0.04045  0.07979  0.84720  Biso   1.000  O 
  O10      1.0000 0.03858  0.58403  0.33389  Biso   1.000  O 
  O11      1.0000 0.03978  0.57758  0.83137  Biso   1.000  O 
  O12      1.0000 0.52518  0.08307  0.33132  Biso   1.000  O 
  O13      1.0000 0.53565  0.08344  0.82805  Biso   1.000  O 
  O14      1.0000 0.53361  0.58017  0.32878  Biso   1.000  O 
  O15      1.0000 0.53943  0.58007  0.82922  Biso   1.000  O 
  O16      1.0000 0.46412  0.41639  0.17043  Biso   1.000  O 
  O17      1.0000 0.46869  0.41844  0.66875  Biso   1.000  O 
  O18      1.0000 0.46008  0.91740  0.16967  Biso   1.000  O 
  O19      1.0000 0.46636  0.91797  0.67078  Biso   1.000  O 
  O20      1.0000 0.96414  0.43825  0.17280  Biso   1.000  O 
  O21      1.0000 0.96531  0.42085  0.66957  Biso   1.000  O 
  O22      1.0000 0.92346  0.93974  0.16244  Biso   1.000  O 
  O23      1.0000 0.96461  0.92231  0.67252  Biso   1.000  O 
  O24      1.0000 0.46155  0.33173  0.41893  Biso   1.000  O 
  O25      1.0000 0.46265  0.33121  0.92119  Biso   1.000  O 
  O26      1.0000 0.46097  0.83027  0.42253  Biso   1.000  O 
  O27      1.0000 0.47690  0.83177  0.91847  Biso   1.000  O 
  O28      1.0000 0.96341  0.33666  0.42366  Biso   1.000  O 
  O29      1.0000 0.97898  0.32758  0.91136  Biso   1.000  O 
  O30      1.0000 0.96633  0.83832  0.41690  Biso   1.000  O 
  O31      1.0000 0.96582  0.82810  0.92074  Biso   1.000  O 
  O32      1.0000 0.27525  0.13427  0.24551  Biso   1.000  O 
  O33      1.0000 0.27888  0.12980  0.73197  Biso   1.000  O 
  O34      1.0000 0.27896  0.62671  0.23882  Biso   1.000  O 
  O35      1.0000 0.27710  0.62967  0.73889  Biso   1.000  O 
  O36      1.0000 0.75259  0.11998  0.25593  Biso   1.000  O 
  O37      1.0000 0.77738  0.12986  0.74317  Biso   1.000  O 
  O38      1.0000 0.77377  0.62864  0.24259  Biso   1.000  O 
  O39      1.0000 0.78038  0.62940  0.74080  Biso   1.000  O 
  O40      1.0000 0.27134  0.12102  0.49024  Biso   1.000  O 
  O41      1.0000 0.27250  0.12838  0.98021  Biso   1.000  O 
  O42      1.0000 0.27575  0.62222  0.49021  Biso   1.000  O 
  O43      1.0000 0.27797  0.61428  0.98905  Biso   1.000  O 
  O44      1.0000 0.77340  0.12280  0.49613  Biso   1.000  O 
  O45      1.0000 0.76589  0.10917  0.99021  Biso   1.000  O 
  O46      1.0000 0.77688  0.62407  0.49243  Biso   1.000  O 
  O47      1.0000 0.78228  0.61660  0.99192  Biso   1.000  O 
  O48      1.0000 0.21681  0.37370  0.00865  Biso   1.000  O 
  O49      1.0000 0.22210  0.38177  0.50670  Biso   1.000  O 
  O50      1.0000 0.24453  0.86403  0.99394  Biso   1.000  O 
  O51      1.0000 0.22215  0.88153  0.51117  Biso   1.000  O 
  O52      1.0000 0.72532  0.37709  0.00754  Biso   1.000  O 
  O53      1.0000 0.72349  0.38037  0.51270  Biso   1.000  O 
  O54      1.0000 0.72349  0.87199  0.01033  Biso   1.000  O 
  O55      1.0000 0.72237  0.88020  0.51226  Biso   1.000  O 
  O56      1.0000 0.22097  0.37272  0.25767  Biso   1.000  O 
  O57      1.0000 0.23271  0.37530  0.74985  Biso   1.000  O 
  O58      1.0000 0.23097  0.86107  0.26151  Biso   1.000  O 
  O59      1.0000 0.22506  0.87150  0.75723  Biso   1.000  O 
  O60      1.0000 0.72136  0.37368  0.26889  Biso   1.000  O 
  O61      1.0000 0.72675  0.37061  0.76090  Biso   1.000  O 
  O62      1.0000 0.71068  0.86553  0.26575  Biso   1.000  O 
  O63      1.0000 0.72775  0.87102  0.75994  Biso   1.000  O 
