data_image0
_cell_length_a       10.1139
_cell_length_b       10.2308
_cell_length_c       10.1076
_cell_angle_alpha    89.9821
_cell_angle_beta     89.9878
_cell_angle_gamma    89.9729

_symmetry_space_group_name_H-M    "P 1"
_symmetry_int_tables_number       1

loop_
  _symmetry_equiv_pos_as_xyz
  'x, y, z'

loop_
  _atom_site_label
  _atom_site_occupancy
  _atom_site_fract_x
  _atom_site_fract_y
  _atom_site_fract_z
  _atom_site_thermal_displace_type
  _atom_site_B_iso_or_equiv
  _atom_site_type_symbol
  La1      1.0000 0.12570  0.99981  0.12517  Biso   1.000  La
  Hf1      1.0000 0.12572  0.99981  0.62523  Biso   1.000  Hf
  Hf2      1.0000 0.12576  0.49983  0.12521  Biso   1.000  Hf
  La2      1.0000 0.12570  0.49979  0.62520  Biso   1.000  La
  Hf3      1.0000 0.62564  0.99981  0.12511  Biso   1.000  Hf
  Hf4      1.0000 0.62566  0.99982  0.62512  Biso   1.000  Hf
  Hf5      1.0000 0.62571  0.49980  0.12514  Biso   1.000  Hf
  Hf6      1.0000 0.62567  0.49977  0.62514  Biso   1.000  Hf
  Hf7      1.0000 0.12289  0.24964  0.37551  Biso   1.000  Hf
  Hf8      1.0000 0.12868  0.24963  0.87479  Biso   1.000  Hf
  Hf9      1.0000 0.12866  0.74998  0.37549  Biso   1.000  Hf
  Hf10     1.0000 0.12287  0.74997  0.87475  Biso   1.000  Hf
  Hf11     1.0000 0.62631  0.24979  0.37528  Biso   1.000  Hf
  Hf12     1.0000 0.62519  0.24983  0.87524  Biso   1.000  Hf
  Hf13     1.0000 0.62519  0.74980  0.37527  Biso   1.000  Hf
  Hf14     1.0000 0.62629  0.74977  0.87517  Biso   1.000  Hf
  Hf15     1.0000 0.37806  0.25298  0.12337  Biso   1.000  Hf
  Hf16     1.0000 0.37787  0.24667  0.62717  Biso   1.000  Hf
  Hf17     1.0000 0.37804  0.74661  0.12720  Biso   1.000  Hf
  Hf18     1.0000 0.37786  0.75289  0.62343  Biso   1.000  Hf
  Hf19     1.0000 0.87342  0.25301  0.12724  Biso   1.000  Hf
  Hf20     1.0000 0.87358  0.24669  0.62345  Biso   1.000  Hf
  Hf21     1.0000 0.87338  0.74666  0.12332  Biso   1.000  Hf
  Hf22     1.0000 0.87360  0.75297  0.62711  Biso   1.000  Hf
  Hf23     1.0000 0.37993  0.00299  0.37489  Biso   1.000  Hf
  Hf24     1.0000 0.37985  0.99645  0.87526  Biso   1.000  Hf
  Hf25     1.0000 0.37998  0.49667  0.37563  Biso   1.000  Hf
  Hf26     1.0000 0.37997  0.50281  0.87454  Biso   1.000  Hf
  Hf27     1.0000 0.87137  0.99652  0.37482  Biso   1.000  Hf
  Hf28     1.0000 0.87138  0.00309  0.87527  Biso   1.000  Hf
  Hf29     1.0000 0.87140  0.50293  0.37562  Biso   1.000  Hf
  Hf30     1.0000 0.87136  0.49673  0.87451  Biso   1.000  Hf
  O1       1.0000 0.99578  0.15372  0.99811  Biso   1.000  O 
  O2       1.0000 0.01385  0.14765  0.51452  Biso   1.000  O 
  O3       1.0000 0.01412  0.64810  0.01430  Biso   1.000  O 
  O4       1.0000 0.99552  0.65321  0.49787  Biso   1.000  O 
  O5       1.0000 0.50976  0.14816  0.00612  Biso   1.000  O 
  O6       1.0000 0.50932  0.14623  0.50425  Biso   1.000  O 
  O7       1.0000 0.50946  0.64625  0.00422  Biso   1.000  O 
  O8       1.0000 0.50952  0.64811  0.50605  Biso   1.000  O 
  O9       1.0000 0.98691  0.11688  0.26710  Biso   1.000  O 
  O10      1.0000 0.99419  0.09876  0.75347  Biso   1.000  O 
  O11      1.0000 0.99379  0.59823  0.25306  Biso   1.000  O 
  O12      1.0000 0.98698  0.61715  0.76697  Biso   1.000  O 
  O13      1.0000 0.49925  0.10255  0.25172  Biso   1.000  O 
  O14      1.0000 0.49453  0.10280  0.75031  Biso   1.000  O 
  O15      1.0000 0.49441  0.60282  0.25025  Biso   1.000  O 
  O16      1.0000 0.49944  0.60255  0.75173  Biso   1.000  O 
  O17      1.0000 0.01403  0.35172  0.23618  Biso   1.000  O 
  O18      1.0000 0.99552  0.34667  0.75258  Biso   1.000  O 
  O19      1.0000 0.99570  0.84614  0.25235  Biso   1.000  O 
  O20      1.0000 0.01374  0.85218  0.73594  Biso   1.000  O 
  O21      1.0000 0.50945  0.35336  0.24620  Biso   1.000  O 
  O22      1.0000 0.50955  0.35150  0.74436  Biso   1.000  O 
  O23      1.0000 0.50969  0.85149  0.24435  Biso   1.000  O 
  O24      1.0000 0.50925  0.85334  0.74620  Biso   1.000  O 
  O25      1.0000 0.99376  0.40171  0.99740  Biso   1.000  O 
  O26      1.0000 0.98695  0.38262  0.48349  Biso   1.000  O 
  O27      1.0000 0.98688  0.88292  0.98335  Biso   1.000  O 
  O28      1.0000 0.99418  0.90114  0.49698  Biso   1.000  O 
  O29      1.0000 0.49440  0.39683  0.00018  Biso   1.000  O 
  O30      1.0000 0.49940  0.39705  0.49867  Biso   1.000  O 
  O31      1.0000 0.49919  0.89711  0.99871  Biso   1.000  O 
  O32      1.0000 0.49452  0.89681  0.50018  Biso   1.000  O 
  O33      1.0000 0.25568  0.15337  0.25233  Biso   1.000  O 
  O34      1.0000 0.23767  0.14736  0.73595  Biso   1.000  O 
  O35      1.0000 0.23740  0.64786  0.23615  Biso   1.000  O 
  O36      1.0000 0.25588  0.65284  0.75253  Biso   1.000  O 
  O37      1.0000 0.74175  0.14805  0.24440  Biso   1.000  O 
  O38      1.0000 0.74214  0.14621  0.74625  Biso   1.000  O 
  O39      1.0000 0.74198  0.64620  0.24617  Biso   1.000  O 
  O40      1.0000 0.74191  0.64804  0.74434  Biso   1.000  O 
  O41      1.0000 0.26460  0.11678  0.98335  Biso   1.000  O 
  O42      1.0000 0.25729  0.09857  0.49696  Biso   1.000  O 
  O43      1.0000 0.25768  0.59801  0.99733  Biso   1.000  O 
  O44      1.0000 0.26447  0.61703  0.48343  Biso   1.000  O 
  O45      1.0000 0.75229  0.10253  0.99876  Biso   1.000  O 
  O46      1.0000 0.75695  0.10279  0.50021  Biso   1.000  O 
  O47      1.0000 0.75707  0.60281  0.00016  Biso   1.000  O 
  O48      1.0000 0.75203  0.60256  0.49866  Biso   1.000  O 
  O49      1.0000 0.23736  0.35157  0.01428  Biso   1.000  O 
  O50      1.0000 0.25590  0.34645  0.49789  Biso   1.000  O 
  O51      1.0000 0.25569  0.84596  0.99805  Biso   1.000  O 
  O52      1.0000 0.23767  0.85202  0.51439  Biso   1.000  O 
  O53      1.0000 0.74197  0.35336  0.00425  Biso   1.000  O 
  O54      1.0000 0.74186  0.35146  0.50605  Biso   1.000  O 
  O55      1.0000 0.74170  0.85146  0.00599  Biso   1.000  O 
  O56      1.0000 0.74214  0.85335  0.50416  Biso   1.000  O 
  O57      1.0000 0.25766  0.40132  0.25311  Biso   1.000  O 
  O58      1.0000 0.26448  0.38238  0.76697  Biso   1.000  O 
  O59      1.0000 0.26455  0.88274  0.26702  Biso   1.000  O 
  O60      1.0000 0.25722  0.90069  0.75343  Biso   1.000  O 
  O61      1.0000 0.75703  0.39677  0.25027  Biso   1.000  O 
  O62      1.0000 0.75197  0.39698  0.75172  Biso   1.000  O 
  O63      1.0000 0.75219  0.89699  0.25161  Biso   1.000  O 
  O64      1.0000 0.75685  0.89678  0.75025  Biso   1.000  O 
