data_image0
_cell_length_a       10.0551
_cell_length_b       10.404
_cell_length_c       10.1025
_cell_angle_alpha    90.0591
_cell_angle_beta     89.9983
_cell_angle_gamma    89.9876

_symmetry_space_group_name_H-M    "P 1"
_symmetry_int_tables_number       1

loop_
  _symmetry_equiv_pos_as_xyz
  'x, y, z'

loop_
  _atom_site_label
  _atom_site_occupancy
  _atom_site_fract_x
  _atom_site_fract_y
  _atom_site_fract_z
  _atom_site_thermal_displace_type
  _atom_site_B_iso_or_equiv
  _atom_site_type_symbol
  La1      1.0000 0.12326  0.00833  0.12204  Biso   1.000  La
  Hf1      1.0000 0.13429  0.01577  0.62612  Biso   1.000  Hf
  Hf2      1.0000 0.13604  0.51757  0.12127  Biso   1.000  Hf
  Hf3      1.0000 0.13957  0.51712  0.63198  Biso   1.000  Hf
  Hf4      1.0000 0.63339  0.01617  0.12572  Biso   1.000  Hf
  Hf5      1.0000 0.63463  0.01779  0.62523  Biso   1.000  Hf
  Hf6      1.0000 0.62910  0.51394  0.12294  Biso   1.000  Hf
  Hf7      1.0000 0.63460  0.51490  0.62497  Biso   1.000  Hf
  Hf8      1.0000 0.13812  0.23320  0.37844  Biso   1.000  Hf
  Hf9      1.0000 0.13575  0.23454  0.86916  Biso   1.000  Hf
  Hf10     1.0000 0.13957  0.73471  0.37976  Biso   1.000  Hf
  Hf11     1.0000 0.13644  0.73491  0.87522  Biso   1.000  Hf
  Hf12     1.0000 0.63461  0.23429  0.37580  Biso   1.000  Hf
  Hf13     1.0000 0.63462  0.23432  0.87456  Biso   1.000  Hf
  Hf14     1.0000 0.62824  0.73503  0.37765  Biso   1.000  Hf
  Hf15     1.0000 0.63622  0.73173  0.87416  Biso   1.000  Hf
  Hf16     1.0000 0.36315  0.26595  0.12634  Biso   1.000  Hf
  Hf17     1.0000 0.36824  0.26568  0.62299  Biso   1.000  Hf
  Hf18     1.0000 0.36802  0.76436  0.12362  Biso   1.000  Hf
  Hf19     1.0000 0.36860  0.76799  0.62794  Biso   1.000  Hf
  Hf20     1.0000 0.86085  0.26576  0.12077  Biso   1.000  Hf
  Hf21     1.0000 0.86546  0.26685  0.62700  Biso   1.000  Hf
  Hf22     1.0000 0.85814  0.76475  0.12838  Biso   1.000  Hf
  Hf23     1.0000 0.86639  0.76574  0.62675  Biso   1.000  Hf
  Hf24     1.0000 0.36476  0.48428  0.37503  Biso   1.000  Hf
  Hf25     1.0000 0.36770  0.48185  0.87581  Biso   1.000  Hf
  Hf26     1.0000 0.36665  0.98539  0.37500  Biso   1.000  Hf
  Hf27     1.0000 0.37021  0.98541  0.87333  Biso   1.000  Hf
  La2      1.0000 0.87666  0.49277  0.37045  Biso   1.000  La
  Hf28     1.0000 0.86750  0.48314  0.87679  Biso   1.000  Hf
  Hf29     1.0000 0.86123  0.98302  0.38099  Biso   1.000  Hf
  Hf30     1.0000 0.86339  0.98191  0.87247  Biso   1.000  Hf
  O1       1.0000 0.02375  0.19647  0.20838  Biso   1.000  O 
  O2       1.0000 0.03969  0.18551  0.68684  Biso   1.000  O 
  O3       1.0000 0.02691  0.67792  0.20599  Biso   1.000  O 
  O4       1.0000 0.03622  0.68506  0.69855  Biso   1.000  O 
  O5       1.0000 0.53449  0.18295  0.19189  Biso   1.000  O 
  O6       1.0000 0.53634  0.18446  0.69552  Biso   1.000  O 
  O7       1.0000 0.52635  0.67823  0.19998  Biso   1.000  O 
  O8       1.0000 0.53467  0.68221  0.69825  Biso   1.000  O 
  O9       1.0000 0.03738  0.06060  0.44169  Biso   1.000  O 
  O10      1.0000 0.03133  0.07270  0.91833  Biso   1.000  O 
  O11      1.0000 0.06080  0.57089  0.45742  Biso   1.000  O 
  O12      1.0000 0.03792  0.56951  0.94049  Biso   1.000  O 
  O13      1.0000 0.53505  0.06780  0.44700  Biso   1.000  O 
  O14      1.0000 0.53825  0.06694  0.94328  Biso   1.000  O 
  O15      1.0000 0.53474  0.56357  0.44499  Biso   1.000  O 
  O16      1.0000 0.53345  0.56791  0.94658  Biso   1.000  O 
  O17      1.0000 0.46043  0.43284  0.19379  Biso   1.000  O 
  O18      1.0000 0.46649  0.43267  0.69643  Biso   1.000  O 
  O19      1.0000 0.46411  0.93508  0.19445  Biso   1.000  O 
  O20      1.0000 0.46776  0.93415  0.69653  Biso   1.000  O 
  O21      1.0000 0.96138  0.43358  0.15906  Biso   1.000  O 
  O22      1.0000 0.96737  0.43546  0.69479  Biso   1.000  O 
  O23      1.0000 0.94054  0.92513  0.20731  Biso   1.000  O 
  O24      1.0000 0.96325  0.93343  0.69344  Biso   1.000  O 
  O25      1.0000 0.46201  0.31468  0.44145  Biso   1.000  O 
  O26      1.0000 0.46760  0.31822  0.94604  Biso   1.000  O 
  O27      1.0000 0.46582  0.82053  0.45057  Biso   1.000  O 
  O28      1.0000 0.47409  0.81893  0.94728  Biso   1.000  O 
  O29      1.0000 0.97323  0.30666  0.45802  Biso   1.000  O 
  O30      1.0000 0.96228  0.31270  0.93498  Biso   1.000  O 
  O31      1.0000 0.96419  0.81220  0.44852  Biso   1.000  O 
  O32      1.0000 0.97391  0.82398  0.95700  Biso   1.000  O 
  O33      1.0000 0.27972  0.12704  0.25539  Biso   1.000  O 
  O34      1.0000 0.27238  0.11680  0.74633  Biso   1.000  O 
  O35      1.0000 0.26680  0.61557  0.25001  Biso   1.000  O 
  O36      1.0000 0.27292  0.61891  0.75252  Biso   1.000  O 
  O37      1.0000 0.76571  0.11590  0.25124  Biso   1.000  O 
  O38      1.0000 0.77006  0.11706  0.74888  Biso   1.000  O 
  O39      1.0000 0.75374  0.62690  0.24005  Biso   1.000  O 
  O40      1.0000 0.77200  0.61512  0.74892  Biso   1.000  O 
  O41      1.0000 0.27005  0.13057  0.50170  Biso   1.000  O 
  O42      1.0000 0.27613  0.13809  0.99067  Biso   1.000  O 
  O43      1.0000 0.28258  0.63486  0.50171  Biso   1.000  O 
  O44      1.0000 0.27065  0.63048  0.00018  Biso   1.000  O 
  O45      1.0000 0.77037  0.13256  0.50069  Biso   1.000  O 
  O46      1.0000 0.77072  0.13032  0.99781  Biso   1.000  O 
  O47      1.0000 0.75703  0.64337  0.50638  Biso   1.000  O 
  O48      1.0000 0.77031  0.63066  0.99568  Biso   1.000  O 
  O49      1.0000 0.23428  0.38366  0.50169  Biso   1.000  O 
  O50      1.0000 0.23009  0.38272  0.99766  Biso   1.000  O 
  O51      1.0000 0.23075  0.88386  0.49987  Biso   1.000  O 
  O52      1.0000 0.24427  0.87340  0.98879  Biso   1.000  O 
  O53      1.0000 0.72096  0.37350  0.50529  Biso   1.000  O 
  O54      1.0000 0.72747  0.38259  0.99586  Biso   1.000  O 
  O55      1.0000 0.72936  0.88484  0.50214  Biso   1.000  O 
  O56      1.0000 0.73177  0.88038  0.00044  Biso   1.000  O 
  O57      1.0000 0.22342  0.37020  0.24920  Biso   1.000  O 
  O58      1.0000 0.23486  0.36683  0.74847  Biso   1.000  O 
  O59      1.0000 0.24340  0.85709  0.25543  Biso   1.000  O 
  O60      1.0000 0.23058  0.86845  0.74637  Biso   1.000  O 
  O61      1.0000 0.72191  0.36266  0.24114  Biso   1.000  O 
  O62      1.0000 0.73216  0.36849  0.75120  Biso   1.000  O 
  O63      1.0000 0.71582  0.86853  0.25198  Biso   1.000  O 
  O64      1.0000 0.73103  0.86606  0.75021  Biso   1.000  O 
