data_image0
_cell_length_a       10.0593
_cell_length_b       10.3982
_cell_length_c       10.112
_cell_angle_alpha    90.3483
_cell_angle_beta     90.564
_cell_angle_gamma    90.0003

_symmetry_space_group_name_H-M    "P 1"
_symmetry_int_tables_number       1

loop_
  _symmetry_equiv_pos_as_xyz
  'x, y, z'

loop_
  _atom_site_label
  _atom_site_occupancy
  _atom_site_fract_x
  _atom_site_fract_y
  _atom_site_fract_z
  _atom_site_thermal_displace_type
  _atom_site_B_iso_or_equiv
  _atom_site_type_symbol
  La1      1.0000 0.12235  0.00437  0.11915  Biso   1.000  La
  Hf1      1.0000 0.13267  0.01553  0.62568  Biso   1.000  Hf
  Hf2      1.0000 0.13362  0.51478  0.12503  Biso   1.000  Hf
  Hf3      1.0000 0.13344  0.51761  0.62577  Biso   1.000  Hf
  Hf4      1.0000 0.63362  0.01476  0.12504  Biso   1.000  Hf
  Hf5      1.0000 0.63343  0.01759  0.62577  Biso   1.000  Hf
  La2      1.0000 0.62236  0.50438  0.11917  Biso   1.000  La
  Hf6      1.0000 0.63266  0.51554  0.62570  Biso   1.000  Hf
  Hf7      1.0000 0.13190  0.23293  0.38001  Biso   1.000  Hf
  Hf8      1.0000 0.13769  0.23556  0.86971  Biso   1.000  Hf
  Hf9      1.0000 0.13294  0.73249  0.37579  Biso   1.000  Hf
  Hf10     1.0000 0.13807  0.73316  0.87550  Biso   1.000  Hf
  Hf11     1.0000 0.63293  0.23250  0.37578  Biso   1.000  Hf
  Hf12     1.0000 0.63806  0.23317  0.87551  Biso   1.000  Hf
  Hf13     1.0000 0.63188  0.73294  0.38004  Biso   1.000  Hf
  Hf14     1.0000 0.63769  0.73556  0.86974  Biso   1.000  Hf
  Hf15     1.0000 0.35912  0.26264  0.12945  Biso   1.000  Hf
  Hf16     1.0000 0.36703  0.26431  0.62456  Biso   1.000  Hf
  Hf17     1.0000 0.36701  0.76481  0.12562  Biso   1.000  Hf
  Hf18     1.0000 0.36626  0.76828  0.62385  Biso   1.000  Hf
  Hf19     1.0000 0.86700  0.26482  0.12560  Biso   1.000  Hf
  Hf20     1.0000 0.86626  0.26828  0.62383  Biso   1.000  Hf
  Hf21     1.0000 0.85912  0.76264  0.12946  Biso   1.000  Hf
  Hf22     1.0000 0.86703  0.76429  0.62456  Biso   1.000  Hf
  Hf23     1.0000 0.35952  0.48187  0.38117  Biso   1.000  Hf
  Hf24     1.0000 0.36428  0.48182  0.87262  Biso   1.000  Hf
  Hf25     1.0000 0.36442  0.98445  0.37606  Biso   1.000  Hf
  Hf26     1.0000 0.37046  0.98453  0.87312  Biso   1.000  Hf
  Hf27     1.0000 0.86442  0.48443  0.37605  Biso   1.000  Hf
  Hf28     1.0000 0.87046  0.48452  0.87311  Biso   1.000  Hf
  Hf29     1.0000 0.85952  0.98189  0.38118  Biso   1.000  Hf
  Hf30     1.0000 0.86428  0.98184  0.87260  Biso   1.000  Hf
  O1       1.0000 0.02606  0.19106  0.20866  Biso   1.000  O 
  O2       1.0000 0.03919  0.18809  0.68478  Biso   1.000  O 
  O3       1.0000 0.03723  0.68654  0.19295  Biso   1.000  O 
  O4       1.0000 0.03512  0.68325  0.69780  Biso   1.000  O 
  O5       1.0000 0.53723  0.18653  0.19295  Biso   1.000  O 
  O6       1.0000 0.53511  0.18324  0.69782  Biso   1.000  O 
  O7       1.0000 0.52601  0.69104  0.20872  Biso   1.000  O 
  O8       1.0000 0.53919  0.68809  0.68481  Biso   1.000  O 
  O9       1.0000 0.03193  0.06456  0.44496  Biso   1.000  O 
  O10      1.0000 0.03026  0.07694  0.91766  Biso   1.000  O 
  O11      1.0000 0.03400  0.56678  0.44783  Biso   1.000  O 
  O12      1.0000 0.03843  0.56965  0.94357  Biso   1.000  O 
  O13      1.0000 0.53399  0.06679  0.44782  Biso   1.000  O 
  O14      1.0000 0.53844  0.06964  0.94355  Biso   1.000  O 
  O15      1.0000 0.53192  0.56456  0.44502  Biso   1.000  O 
  O16      1.0000 0.53021  0.57698  0.91775  Biso   1.000  O 
  O17      1.0000 0.44126  0.42422  0.21018  Biso   1.000  O 
  O18      1.0000 0.46404  0.43236  0.69379  Biso   1.000  O 
  O19      1.0000 0.46105  0.94001  0.19389  Biso   1.000  O 
  O20      1.0000 0.46758  0.93368  0.69744  Biso   1.000  O 
  O21      1.0000 0.96104  0.43999  0.19389  Biso   1.000  O 
  O22      1.0000 0.96757  0.43367  0.69745  Biso   1.000  O 
  O23      1.0000 0.94119  0.92426  0.21013  Biso   1.000  O 
  O24      1.0000 0.96402  0.93234  0.69373  Biso   1.000  O 
  O25      1.0000 0.46428  0.31439  0.44944  Biso   1.000  O 
  O26      1.0000 0.47748  0.32720  0.95594  Biso   1.000  O 
  O27      1.0000 0.46533  0.82039  0.44996  Biso   1.000  O 
  O28      1.0000 0.47749  0.82215  0.95063  Biso   1.000  O 
  O29      1.0000 0.96534  0.32038  0.44994  Biso   1.000  O 
  O30      1.0000 0.97747  0.32216  0.95060  Biso   1.000  O 
  O31      1.0000 0.96427  0.81439  0.44943  Biso   1.000  O 
  O32      1.0000 0.97748  0.82720  0.95595  Biso   1.000  O 
  O33      1.0000 0.27730  0.12608  0.25677  Biso   1.000  O 
  O34      1.0000 0.27212  0.11632  0.74582  Biso   1.000  O 
  O35      1.0000 0.26482  0.61178  0.25183  Biso   1.000  O 
  O36      1.0000 0.27115  0.61819  0.74882  Biso   1.000  O 
  O37      1.0000 0.76481  0.11178  0.25183  Biso   1.000  O 
  O38      1.0000 0.77115  0.11820  0.74882  Biso   1.000  O 
  O39      1.0000 0.77728  0.62608  0.25680  Biso   1.000  O 
  O40      1.0000 0.77210  0.61632  0.74585  Biso   1.000  O 
  O41      1.0000 0.26810  0.13063  0.50123  Biso   1.000  O 
  O42      1.0000 0.27657  0.13607  0.98932  Biso   1.000  O 
  O43      1.0000 0.26713  0.63446  0.50114  Biso   1.000  O 
  O44      1.0000 0.27373  0.62856  0.00056  Biso   1.000  O 
  O45      1.0000 0.76714  0.13446  0.50112  Biso   1.000  O 
  O46      1.0000 0.77376  0.12854  0.00055  Biso   1.000  O 
  O47      1.0000 0.76809  0.63064  0.50124  Biso   1.000  O 
  O48      1.0000 0.77657  0.63607  0.98936  Biso   1.000  O 
  O49      1.0000 0.22879  0.38185  0.50239  Biso   1.000  O 
  O50      1.0000 0.23388  0.38140  0.00013  Biso   1.000  O 
  O51      1.0000 0.22859  0.88398  0.49906  Biso   1.000  O 
  O52      1.0000 0.24612  0.87192  0.98767  Biso   1.000  O 
  O53      1.0000 0.72860  0.38400  0.49904  Biso   1.000  O 
  O54      1.0000 0.74611  0.37192  0.98766  Biso   1.000  O 
  O55      1.0000 0.72880  0.88185  0.50239  Biso   1.000  O 
  O56      1.0000 0.73389  0.88140  0.00011  Biso   1.000  O 
  O57      1.0000 0.21459  0.36661  0.25120  Biso   1.000  O 
  O58      1.0000 0.23260  0.36809  0.74775  Biso   1.000  O 
  O59      1.0000 0.24230  0.85531  0.25695  Biso   1.000  O 
  O60      1.0000 0.23089  0.86769  0.74602  Biso   1.000  O 
  O61      1.0000 0.74229  0.35530  0.25692  Biso   1.000  O 
  O62      1.0000 0.73091  0.36769  0.74600  Biso   1.000  O 
  O63      1.0000 0.71456  0.86659  0.25118  Biso   1.000  O 
  O64      1.0000 0.73259  0.86811  0.74775  Biso   1.000  O 
