data_image0
_cell_length_a       10.1108
_cell_length_b       10.2781
_cell_length_c       10.4945
_cell_angle_alpha    90.2735
_cell_angle_beta     90.7937
_cell_angle_gamma    90.1024

_symmetry_space_group_name_H-M    "P 1"
_symmetry_int_tables_number       1

loop_
  _symmetry_equiv_pos_as_xyz
  'x, y, z'

loop_
  _atom_site_label
  _atom_site_occupancy
  _atom_site_fract_x
  _atom_site_fract_y
  _atom_site_fract_z
  _atom_site_thermal_displace_type
  _atom_site_B_iso_or_equiv
  _atom_site_type_symbol
  La1      1.0000 0.11768  0.00296  0.15319  Biso   1.000  La
  La2      1.0000 0.11766  0.00294  0.65315  Biso   1.000  La
  Hf1      1.0000 0.13950  0.52210  0.16667  Biso   1.000  Hf
  Hf2      1.0000 0.13951  0.52210  0.66668  Biso   1.000  Hf
  Hf3      1.0000 0.13974  0.23217  0.41463  Biso   1.000  Hf
  Hf4      1.0000 0.13974  0.23215  0.91462  Biso   1.000  Hf
  Hf5      1.0000 0.13727  0.73258  0.41767  Biso   1.000  Hf
  Hf6      1.0000 0.13721  0.73263  0.91767  Biso   1.000  Hf
  Hf7      1.0000 0.35691  0.26682  0.16822  Biso   1.000  Hf
  Hf8      1.0000 0.35691  0.26682  0.66823  Biso   1.000  Hf
  Hf9      1.0000 0.36567  0.76919  0.16823  Biso   1.000  Hf
  Hf10     1.0000 0.36567  0.76919  0.66824  Biso   1.000  Hf
  Hf11     1.0000 0.35949  0.47834  0.41860  Biso   1.000  Hf
  Hf12     1.0000 0.35946  0.47834  0.91860  Biso   1.000  Hf
  Hf13     1.0000 0.36424  0.98146  0.41495  Biso   1.000  Hf
  Hf14     1.0000 0.36422  0.98145  0.91494  Biso   1.000  Hf
  Hf15     1.0000 0.63854  0.02211  0.08105  Biso   1.000  Hf
  Hf16     1.0000 0.63855  0.02210  0.58107  Biso   1.000  Hf
  Hf17     1.0000 0.63630  0.51874  0.07598  Biso   1.000  Hf
  Hf18     1.0000 0.63631  0.51874  0.57599  Biso   1.000  Hf
  Hf19     1.0000 0.63848  0.23014  0.32710  Biso   1.000  Hf
  Hf20     1.0000 0.63848  0.23013  0.82710  Biso   1.000  Hf
  Hf21     1.0000 0.63867  0.72829  0.32802  Biso   1.000  Hf
  Hf22     1.0000 0.63868  0.72828  0.82802  Biso   1.000  Hf
  Hf23     1.0000 0.85853  0.27515  0.07598  Biso   1.000  Hf
  Hf24     1.0000 0.85854  0.27516  0.57597  Biso   1.000  Hf
  Hf25     1.0000 0.85904  0.76721  0.08661  Biso   1.000  Hf
  Hf26     1.0000 0.85905  0.76720  0.58659  Biso   1.000  Hf
  Hf27     1.0000 0.86060  0.48199  0.32689  Biso   1.000  Hf
  Hf28     1.0000 0.86061  0.48199  0.82690  Biso   1.000  Hf
  Hf29     1.0000 0.85691  0.97694  0.34104  Biso   1.000  Hf
  Hf30     1.0000 0.85691  0.97695  0.84105  Biso   1.000  Hf
  O1       1.0000 0.03428  0.19084  0.08144  Biso   1.000  O 
  O2       1.0000 0.03428  0.19085  0.58147  Biso   1.000  O 
  O3       1.0000 0.02886  0.65641  0.07123  Biso   1.000  O 
  O4       1.0000 0.02888  0.65642  0.57124  Biso   1.000  O 
  O5       1.0000 0.02074  0.09174  0.34309  Biso   1.000  O 
  O6       1.0000 0.02076  0.09172  0.84306  Biso   1.000  O 
  O7       1.0000 0.02816  0.59466  0.32407  Biso   1.000  O 
  O8       1.0000 0.02818  0.59465  0.82408  Biso   1.000  O 
  O9       1.0000 0.46700  0.41231  0.07950  Biso   1.000  O 
  O10      1.0000 0.46702  0.41231  0.57951  Biso   1.000  O 
  O11      1.0000 0.47236  0.91550  0.08075  Biso   1.000  O 
  O12      1.0000 0.47237  0.91550  0.58076  Biso   1.000  O 
  O13      1.0000 0.46813  0.33652  0.32956  Biso   1.000  O 
  O14      1.0000 0.46813  0.33652  0.82956  Biso   1.000  O 
  O15      1.0000 0.47503  0.83868  0.32798  Biso   1.000  O 
  O16      1.0000 0.47505  0.83869  0.82798  Biso   1.000  O 
  O17      1.0000 0.27776  0.12675  0.29196  Biso   1.000  O 
  O18      1.0000 0.27777  0.12675  0.79195  Biso   1.000  O 
  O19      1.0000 0.27550  0.62180  0.29049  Biso   1.000  O 
  O20      1.0000 0.27549  0.62181  0.79048  Biso   1.000  O 
  O21      1.0000 0.28286  0.13220  0.03158  Biso   1.000  O 
  O22      1.0000 0.28286  0.13220  0.53158  Biso   1.000  O 
  O23      1.0000 0.27176  0.62326  0.03985  Biso   1.000  O 
  O24      1.0000 0.27179  0.62325  0.53986  Biso   1.000  O 
  O25      1.0000 0.22276  0.37497  0.29080  Biso   1.000  O 
  O26      1.0000 0.22275  0.37497  0.79079  Biso   1.000  O 
  O27      1.0000 0.23491  0.86572  0.29346  Biso   1.000  O 
  O28      1.0000 0.23490  0.86572  0.79344  Biso   1.000  O 
  O29      1.0000 0.22364  0.37830  0.04169  Biso   1.000  O 
  O30      1.0000 0.22366  0.37829  0.54170  Biso   1.000  O 
  O31      1.0000 0.24629  0.86245  0.03194  Biso   1.000  O 
  O32      1.0000 0.24630  0.86244  0.53193  Biso   1.000  O 
  O33      1.0000 0.53377  0.16621  0.16470  Biso   1.000  O 
  O34      1.0000 0.53378  0.16621  0.66471  Biso   1.000  O 
  O35      1.0000 0.53234  0.66097  0.16640  Biso   1.000  O 
  O36      1.0000 0.53235  0.66097  0.66640  Biso   1.000  O 
  O37      1.0000 0.53746  0.08401  0.41292  Biso   1.000  O 
  O38      1.0000 0.53745  0.08401  0.91293  Biso   1.000  O 
  O39      1.0000 0.53017  0.58733  0.41646  Biso   1.000  O 
  O40      1.0000 0.53015  0.58734  0.91646  Biso   1.000  O 
  O41      1.0000 0.96442  0.42031  0.16521  Biso   1.000  O 
  O42      1.0000 0.96442  0.42031  0.66521  Biso   1.000  O 
  O43      1.0000 0.96189  0.85695  0.22743  Biso   1.000  O 
  O44      1.0000 0.96196  0.85685  0.72751  Biso   1.000  O 
  O45      1.0000 0.96621  0.34264  0.41310  Biso   1.000  O 
  O46      1.0000 0.96621  0.34263  0.91309  Biso   1.000  O 
  O47      1.0000 0.98297  0.87179  0.46927  Biso   1.000  O 
  O48      1.0000 0.98294  0.87174  0.96923  Biso   1.000  O 
  O49      1.0000 0.77299  0.12684  0.96080  Biso   1.000  O 
  O50      1.0000 0.77298  0.12683  0.46080  Biso   1.000  O 
  O51      1.0000 0.77547  0.62404  0.95544  Biso   1.000  O 
  O52      1.0000 0.77547  0.62405  0.45542  Biso   1.000  O 
  O53      1.0000 0.78039  0.12459  0.20892  Biso   1.000  O 
  O54      1.0000 0.78041  0.12458  0.70891  Biso   1.000  O 
  O55      1.0000 0.77065  0.62424  0.20521  Biso   1.000  O 
  O56      1.0000 0.77067  0.62423  0.70521  Biso   1.000  O 
  O57      1.0000 0.72268  0.37630  0.95165  Biso   1.000  O 
  O58      1.0000 0.72268  0.37631  0.45164  Biso   1.000  O 
  O59      1.0000 0.72787  0.87035  0.95870  Biso   1.000  O 
  O60      1.0000 0.72785  0.87037  0.45870  Biso   1.000  O 
  O61      1.0000 0.72388  0.37587  0.20294  Biso   1.000  O 
  O62      1.0000 0.72389  0.37586  0.70294  Biso   1.000  O 
  O63      1.0000 0.71911  0.87935  0.20665  Biso   1.000  O 
  O64      1.0000 0.71914  0.87934  0.70665  Biso   1.000  O 
