data_image0
_cell_length_a       10.0449
_cell_length_b       10.4218
_cell_length_c       10.0902
_cell_angle_alpha    90.0202
_cell_angle_beta     89.9819
_cell_angle_gamma    90.0416

_symmetry_space_group_name_H-M    "P 1"
_symmetry_int_tables_number       1

loop_
  _symmetry_equiv_pos_as_xyz
  'x, y, z'

loop_
  _atom_site_label
  _atom_site_occupancy
  _atom_site_fract_x
  _atom_site_fract_y
  _atom_site_fract_z
  _atom_site_thermal_displace_type
  _atom_site_B_iso_or_equiv
  _atom_site_type_symbol
  La1      1.0000 0.12223  0.00632  0.12102  Biso   1.000  La
  Hf1      1.0000 0.13407  0.01604  0.62465  Biso   1.000  Hf
  Hf2      1.0000 0.13295  0.51740  0.12535  Biso   1.000  Hf
  Hf3      1.0000 0.13546  0.51706  0.62613  Biso   1.000  Hf
  Hf4      1.0000 0.63624  0.01675  0.12218  Biso   1.000  Hf
  Hf5      1.0000 0.63834  0.01757  0.63242  Biso   1.000  Hf
  Hf6      1.0000 0.63262  0.51582  0.12736  Biso   1.000  Hf
  Hf7      1.0000 0.63417  0.51490  0.62749  Biso   1.000  Hf
  Hf8      1.0000 0.13148  0.23901  0.37712  Biso   1.000  Hf
  Hf9      1.0000 0.13418  0.23572  0.87098  Biso   1.000  Hf
  Hf10     1.0000 0.13642  0.73194  0.37908  Biso   1.000  Hf
  Hf11     1.0000 0.13531  0.73369  0.87460  Biso   1.000  Hf
  Hf12     1.0000 0.63783  0.23579  0.37822  Biso   1.000  Hf
  Hf13     1.0000 0.63429  0.23486  0.87543  Biso   1.000  Hf
  Hf14     1.0000 0.63471  0.72989  0.38049  Biso   1.000  Hf
  Hf15     1.0000 0.63655  0.73039  0.87335  Biso   1.000  Hf
  Hf16     1.0000 0.36202  0.26834  0.12657  Biso   1.000  Hf
  Hf17     1.0000 0.36600  0.26651  0.62659  Biso   1.000  Hf
  Hf18     1.0000 0.37052  0.75878  0.11763  Biso   1.000  Hf
  Hf19     1.0000 0.36594  0.76594  0.62737  Biso   1.000  Hf
  Hf20     1.0000 0.85999  0.26955  0.12577  Biso   1.000  Hf
  Hf21     1.0000 0.86834  0.26932  0.62821  Biso   1.000  Hf
  Hf22     1.0000 0.85902  0.76398  0.12853  Biso   1.000  Hf
  Hf23     1.0000 0.86820  0.76548  0.62432  Biso   1.000  Hf
  Hf24     1.0000 0.36533  0.48314  0.37561  Biso   1.000  Hf
  Hf25     1.0000 0.36620  0.48258  0.87595  Biso   1.000  Hf
  La2      1.0000 0.37586  0.99307  0.36879  Biso   1.000  La
  Hf26     1.0000 0.37008  0.98395  0.87326  Biso   1.000  Hf
  Hf27     1.0000 0.86588  0.48516  0.37791  Biso   1.000  Hf
  Hf28     1.0000 0.86701  0.48377  0.87731  Biso   1.000  Hf
  Hf29     1.0000 0.86027  0.98449  0.38174  Biso   1.000  Hf
  Hf30     1.0000 0.86436  0.98160  0.87332  Biso   1.000  Hf
  O1       1.0000 0.02021  0.19794  0.20695  Biso   1.000  O 
  O2       1.0000 0.03832  0.18800  0.68765  Biso   1.000  O 
  O3       1.0000 0.03315  0.68610  0.19581  Biso   1.000  O 
  O4       1.0000 0.03702  0.68499  0.69515  Biso   1.000  O 
  O5       1.0000 0.52849  0.17656  0.20223  Biso   1.000  O 
  O6       1.0000 0.53606  0.18498  0.69753  Biso   1.000  O 
  O7       1.0000 0.53476  0.67917  0.20055  Biso   1.000  O 
  O8       1.0000 0.53629  0.67979  0.69632  Biso   1.000  O 
  O9       1.0000 0.03597  0.06338  0.43859  Biso   1.000  O 
  O10      1.0000 0.03053  0.07447  0.91870  Biso   1.000  O 
  O11      1.0000 0.03473  0.56715  0.44798  Biso   1.000  O 
  O12      1.0000 0.03315  0.57037  0.94554  Biso   1.000  O 
  O13      1.0000 0.56074  0.07090  0.45623  Biso   1.000  O 
  O14      1.0000 0.54191  0.06577  0.93837  Biso   1.000  O 
  O15      1.0000 0.53794  0.55899  0.44599  Biso   1.000  O 
  O16      1.0000 0.53250  0.56683  0.95025  Biso   1.000  O 
  O17      1.0000 0.46538  0.43061  0.19657  Biso   1.000  O 
  O18      1.0000 0.46600  0.43290  0.69715  Biso   1.000  O 
  O19      1.0000 0.46426  0.92852  0.15935  Biso   1.000  O 
  O20      1.0000 0.46586  0.93482  0.69125  Biso   1.000  O 
  O21      1.0000 0.96141  0.43989  0.19627  Biso   1.000  O 
  O22      1.0000 0.96746  0.43562  0.69948  Biso   1.000  O 
  O23      1.0000 0.93162  0.93192  0.20050  Biso   1.000  O 
  O24      1.0000 0.96262  0.93377  0.69264  Biso   1.000  O 
  O25      1.0000 0.46256  0.31174  0.44489  Biso   1.000  O 
  O26      1.0000 0.46653  0.31769  0.94569  Biso   1.000  O 
  O27      1.0000 0.47197  0.80375  0.45674  Biso   1.000  O 
  O28      1.0000 0.46800  0.81171  0.93171  Biso   1.000  O 
  O29      1.0000 0.96396  0.32277  0.44984  Biso   1.000  O 
  O30      1.0000 0.96568  0.31959  0.94806  Biso   1.000  O 
  O31      1.0000 0.96198  0.81482  0.44324  Biso   1.000  O 
  O32      1.0000 0.97248  0.82371  0.95561  Biso   1.000  O 
  O33      1.0000 0.26236  0.14179  0.24650  Biso   1.000  O 
  O34      1.0000 0.27204  0.11675  0.74777  Biso   1.000  O 
  O35      1.0000 0.26897  0.61115  0.24828  Biso   1.000  O 
  O36      1.0000 0.27038  0.61687  0.74972  Biso   1.000  O 
  O37      1.0000 0.76472  0.12007  0.25317  Biso   1.000  O 
  O38      1.0000 0.77232  0.11952  0.75254  Biso   1.000  O 
  O39      1.0000 0.76965  0.61702  0.25059  Biso   1.000  O 
  O40      1.0000 0.77198  0.61597  0.74947  Biso   1.000  O 
  O41      1.0000 0.25705  0.14292  0.50750  Biso   1.000  O 
  O42      1.0000 0.27615  0.13754  0.98978  Biso   1.000  O 
  O43      1.0000 0.27291  0.63063  0.49990  Biso   1.000  O 
  O44      1.0000 0.26831  0.62807  0.99730  Biso   1.000  O 
  O45      1.0000 0.78053  0.13571  0.50387  Biso   1.000  O 
  O46      1.0000 0.77108  0.13282  0.00127  Biso   1.000  O 
  O47      1.0000 0.77100  0.63063  0.50137  Biso   1.000  O 
  O48      1.0000 0.76882  0.63079  0.99973  Biso   1.000  O 
  O49      1.0000 0.23164  0.38691  0.50000  Biso   1.000  O 
  O50      1.0000 0.22952  0.38359  0.99927  Biso   1.000  O 
  O51      1.0000 0.21991  0.87350  0.50532  Biso   1.000  O 
  O52      1.0000 0.24230  0.87133  0.98758  Biso   1.000  O 
  O53      1.0000 0.72991  0.38270  0.50084  Biso   1.000  O 
  O54      1.0000 0.72788  0.38414  0.99927  Biso   1.000  O 
  O55      1.0000 0.73133  0.88128  0.50524  Biso   1.000  O 
  O56      1.0000 0.73027  0.87901  0.99972  Biso   1.000  O 
  O57      1.0000 0.22528  0.37448  0.24988  Biso   1.000  O 
  O58      1.0000 0.23174  0.36848  0.74843  Biso   1.000  O 
  O59      1.0000 0.23894  0.84529  0.24722  Biso   1.000  O 
  O60      1.0000 0.23025  0.86938  0.74822  Biso   1.000  O 
  O61      1.0000 0.72871  0.37002  0.25030  Biso   1.000  O 
  O62      1.0000 0.73138  0.36831  0.75063  Biso   1.000  O 
  O63      1.0000 0.71292  0.86708  0.25320  Biso   1.000  O 
  O64      1.0000 0.73290  0.86489  0.75133  Biso   1.000  O 
