data_image0
_cell_length_a       10.0083
_cell_length_b       10.396
_cell_length_c       10.0272
_cell_angle_alpha    89.8517
_cell_angle_beta     90.3487
_cell_angle_gamma    90.1953

_symmetry_space_group_name_H-M    "P 1"
_symmetry_int_tables_number       1

loop_
  _symmetry_equiv_pos_as_xyz
  'x, y, z'

loop_
  _atom_site_label
  _atom_site_occupancy
  _atom_site_fract_x
  _atom_site_fract_y
  _atom_site_fract_z
  _atom_site_thermal_displace_type
  _atom_site_B_iso_or_equiv
  _atom_site_type_symbol
  La1      1.0000 0.12440  0.00925  0.11921  Biso   1.000  La
  Hf1      1.0000 0.13563  0.01629  0.62763  Biso   1.000  Hf
  Hf2      1.0000 0.13156  0.51597  0.12555  Biso   1.000  Hf
  Hf3      1.0000 0.13373  0.51687  0.62585  Biso   1.000  Hf
  Hf4      1.0000 0.63407  0.01511  0.12686  Biso   1.000  Hf
  Hf5      1.0000 0.63707  0.01773  0.62423  Biso   1.000  Hf
  Hf6      1.0000 0.63433  0.51679  0.12649  Biso   1.000  Hf
  Hf7      1.0000 0.63376  0.51565  0.62612  Biso   1.000  Hf
  Hf8      1.0000 0.13275  0.23404  0.37813  Biso   1.000  Hf
  Hf9      1.0000 0.12240  0.24544  0.86284  Biso   1.000  Hf
  Hf10     1.0000 0.13304  0.73367  0.37535  Biso   1.000  Hf
  Hf11     1.0000 0.13656  0.73273  0.87534  Biso   1.000  Hf
  Hf12     1.0000 0.63164  0.23342  0.37544  Biso   1.000  Hf
  Hf13     1.0000 0.63366  0.23357  0.87682  Biso   1.000  Hf
  Hf14     1.0000 0.63188  0.73272  0.37808  Biso   1.000  Hf
  Hf15     1.0000 0.63798  0.73081  0.87424  Biso   1.000  Hf
  Hf16     1.0000 0.36844  0.27298  0.13108  Biso   1.000  Hf
  Hf17     1.0000 0.36731  0.26555  0.62659  Biso   1.000  Hf
  Hf18     1.0000 0.36934  0.76318  0.12453  Biso   1.000  Hf
  Hf19     1.0000 0.36673  0.76358  0.62144  Biso   1.000  Hf
  Hf20     1.0000 0.86100  0.26807  0.12981  Biso   1.000  Hf
  Hf21     1.0000 0.86502  0.26898  0.62402  Biso   1.000  Hf
  Hf22     1.0000 0.86116  0.76627  0.12995  Biso   1.000  Hf
  Hf23     1.0000 0.86753  0.76516  0.62482  Biso   1.000  Hf
  Hf24     1.0000 0.36295  0.48411  0.37708  Biso   1.000  Hf
  Hf25     1.0000 0.36659  0.48161  0.87632  Biso   1.000  Hf
  Hf26     1.0000 0.36577  0.98386  0.37311  Biso   1.000  Hf
  Hf27     1.0000 0.37734  0.97366  0.86485  Biso   1.000  Hf
  Hf28     1.0000 0.86574  0.48486  0.37596  Biso   1.000  Hf
  Hf29     1.0000 0.86440  0.48332  0.87840  Biso   1.000  Hf
  Hf30     1.0000 0.86325  0.98314  0.38047  Biso   1.000  Hf
  Hf31     1.0000 0.86582  0.98285  0.87276  Biso   1.000  Hf
  O1       1.0000 0.02630  0.19622  0.20599  Biso   1.000  O 
  O2       1.0000 0.04123  0.19000  0.67768  Biso   1.000  O 
  O3       1.0000 0.03636  0.68633  0.19394  Biso   1.000  O 
  O4       1.0000 0.03651  0.68373  0.69557  Biso   1.000  O 
  O5       1.0000 0.53911  0.18583  0.19172  Biso   1.000  O 
  O6       1.0000 0.53634  0.18177  0.69532  Biso   1.000  O 
  O7       1.0000 0.53548  0.68060  0.19641  Biso   1.000  O 
  O8       1.0000 0.53724  0.68305  0.69381  Biso   1.000  O 
  O9       1.0000 0.03724  0.06387  0.44231  Biso   1.000  O 
  O10      1.0000 0.03769  0.07540  0.91316  Biso   1.000  O 
  O11      1.0000 0.03506  0.56621  0.44648  Biso   1.000  O 
  O12      1.0000 0.03562  0.56781  0.94346  Biso   1.000  O 
  O13      1.0000 0.53638  0.06531  0.44438  Biso   1.000  O 
  O14      1.0000 0.53337  0.06706  0.94561  Biso   1.000  O 
  O15      1.0000 0.53342  0.56510  0.44684  Biso   1.000  O 
  O16      1.0000 0.53659  0.56378  0.94502  Biso   1.000  O 
  O17      1.0000 0.46351  0.43440  0.19619  Biso   1.000  O 
  O18      1.0000 0.46674  0.43188  0.69700  Biso   1.000  O 
  O19      1.0000 0.46234  0.93548  0.19098  Biso   1.000  O 
  O20      1.0000 0.46764  0.93071  0.68960  Biso   1.000  O 
  O21      1.0000 0.95801  0.44057  0.19253  Biso   1.000  O 
  O22      1.0000 0.96843  0.43148  0.70223  Biso   1.000  O 
  O23      1.0000 0.94259  0.92916  0.20565  Biso   1.000  O 
  O24      1.0000 0.96336  0.93400  0.69121  Biso   1.000  O 
  O25      1.0000 0.46276  0.31534  0.44481  Biso   1.000  O 
  O26      1.0000 0.46057  0.31166  0.94512  Biso   1.000  O 
  O27      1.0000 0.46408  0.81617  0.44417  Biso   1.000  O 
  O28      1.0000 0.47484  0.81287  0.94429  Biso   1.000  O 
  O29      1.0000 0.96340  0.31980  0.44577  Biso   1.000  O 
  O30      1.0000 0.95937  0.31776  0.94893  Biso   1.000  O 
  O31      1.0000 0.96326  0.81415  0.44609  Biso   1.000  O 
  O32      1.0000 0.97464  0.82507  0.95488  Biso   1.000  O 
  O33      1.0000 0.28088  0.12892  0.25051  Biso   1.000  O 
  O34      1.0000 0.27175  0.11936  0.76179  Biso   1.000  O 
  O35      1.0000 0.26882  0.61409  0.24871  Biso   1.000  O 
  O36      1.0000 0.27190  0.61659  0.74895  Biso   1.000  O 
  O37      1.0000 0.76675  0.11751  0.25277  Biso   1.000  O 
  O38      1.0000 0.77184  0.11909  0.74950  Biso   1.000  O 
  O39      1.0000 0.76890  0.61916  0.25083  Biso   1.000  O 
  O40      1.0000 0.77234  0.61596  0.74891  Biso   1.000  O 
  O41      1.0000 0.27127  0.13053  0.50393  Biso   1.000  O 
  O42      1.0000 0.26913  0.63211  0.49851  Biso   1.000  O 
  O43      1.0000 0.27132  0.62831  0.99931  Biso   1.000  O 
  O44      1.0000 0.76889  0.13403  0.50094  Biso   1.000  O 
  O45      1.0000 0.77154  0.13119  0.00002  Biso   1.000  O 
  O46      1.0000 0.76955  0.63180  0.49997  Biso   1.000  O 
  O47      1.0000 0.77129  0.63084  0.99985  Biso   1.000  O 
  O48      1.0000 0.22997  0.38283  0.50044  Biso   1.000  O 
  O49      1.0000 0.22772  0.37762  0.99881  Biso   1.000  O 
  O50      1.0000 0.22921  0.88376  0.49838  Biso   1.000  O 
  O51      1.0000 0.24703  0.87462  0.98684  Biso   1.000  O 
  O52      1.0000 0.72958  0.38308  0.50037  Biso   1.000  O 
  O53      1.0000 0.72518  0.38210  0.00017  Biso   1.000  O 
  O54      1.0000 0.72895  0.88127  0.50225  Biso   1.000  O 
  O55      1.0000 0.73244  0.88103  0.00034  Biso   1.000  O 
  O56      1.0000 0.22661  0.37078  0.25050  Biso   1.000  O 
  O57      1.0000 0.23334  0.37057  0.74605  Biso   1.000  O 
  O58      1.0000 0.24189  0.85611  0.25461  Biso   1.000  O 
  O59      1.0000 0.23173  0.86483  0.74324  Biso   1.000  O 
  O60      1.0000 0.72684  0.36968  0.25168  Biso   1.000  O 
  O61      1.0000 0.73062  0.36757  0.75058  Biso   1.000  O 
  O62      1.0000 0.71779  0.86645  0.25215  Biso   1.000  O 
  O63      1.0000 0.73221  0.86708  0.75035  Biso   1.000  O 
