data_image0
_cell_length_a       10.0068
_cell_length_b       10.3829
_cell_length_c       10.0493
_cell_angle_alpha    90.1389
_cell_angle_beta     90.251
_cell_angle_gamma    89.9963

_symmetry_space_group_name_H-M    "P 1"
_symmetry_int_tables_number       1

loop_
  _symmetry_equiv_pos_as_xyz
  'x, y, z'

loop_
  _atom_site_label
  _atom_site_occupancy
  _atom_site_fract_x
  _atom_site_fract_y
  _atom_site_fract_z
  _atom_site_thermal_displace_type
  _atom_site_B_iso_or_equiv
  _atom_site_type_symbol
  La1      1.0000 0.12385  0.00661  0.12041  Biso   1.000  La
  Hf1      1.0000 0.13324  0.01659  0.62536  Biso   1.000  Hf
  Hf2      1.0000 0.13379  0.51606  0.12500  Biso   1.000  Hf
  Hf3      1.0000 0.13433  0.51668  0.62580  Biso   1.000  Hf
  Hf4      1.0000 0.63428  0.01542  0.12561  Biso   1.000  Hf
  Hf5      1.0000 0.63342  0.01729  0.62577  Biso   1.000  Hf
  Hf6      1.0000 0.63279  0.51490  0.12607  Biso   1.000  Hf
  Hf7      1.0000 0.63356  0.51543  0.62631  Biso   1.000  Hf
  Hf8      1.0000 0.13445  0.23433  0.37742  Biso   1.000  Hf
  Hf9      1.0000 0.13486  0.23652  0.87005  Biso   1.000  Hf
  Hf10     1.0000 0.13421  0.73261  0.37705  Biso   1.000  Hf
  Hf11     1.0000 0.13660  0.73298  0.87546  Biso   1.000  Hf
  Hf12     1.0000 0.63261  0.23343  0.37446  Biso   1.000  Hf
  Hf13     1.0000 0.63537  0.23356  0.87586  Biso   1.000  Hf
  Hf14     1.0000 0.63170  0.73217  0.37899  Biso   1.000  Hf
  Hf15     1.0000 0.63630  0.73222  0.87487  Biso   1.000  Hf
  Hf16     1.0000 0.36430  0.26537  0.12641  Biso   1.000  Hf
  Hf17     1.0000 0.36643  0.26554  0.62449  Biso   1.000  Hf
  Hf18     1.0000 0.37004  0.76277  0.12439  Biso   1.000  Hf
  Hf19     1.0000 0.36597  0.76687  0.62505  Biso   1.000  Hf
  Hf20     1.0000 0.86241  0.26834  0.12675  Biso   1.000  Hf
  Hf21     1.0000 0.86644  0.26793  0.62442  Biso   1.000  Hf
  Hf22     1.0000 0.86042  0.76399  0.12914  Biso   1.000  Hf
  Hf23     1.0000 0.86664  0.76493  0.62534  Biso   1.000  Hf
  Hf24     1.0000 0.36469  0.48278  0.37519  Biso   1.000  Hf
  Hf25     1.0000 0.36686  0.48264  0.87593  Biso   1.000  Hf
  Hf26     1.0000 0.36554  0.98400  0.37453  Biso   1.000  Hf
  Hf27     1.0000 0.36979  0.98462  0.87268  Biso   1.000  Hf
  Hf28     1.0000 0.86534  0.48392  0.37704  Biso   1.000  Hf
  Hf29     1.0000 0.86683  0.48303  0.87654  Biso   1.000  Hf
  Hf30     1.0000 0.86085  0.98288  0.38185  Biso   1.000  Hf
  Hf31     1.0000 0.86375  0.98251  0.87224  Biso   1.000  Hf
  O1       1.0000 0.02840  0.19719  0.20345  Biso   1.000  O 
  O2       1.0000 0.04055  0.18975  0.68245  Biso   1.000  O 
  O3       1.0000 0.03619  0.68679  0.19500  Biso   1.000  O 
  O4       1.0000 0.03627  0.68415  0.69571  Biso   1.000  O 
  O5       1.0000 0.53814  0.18493  0.19108  Biso   1.000  O 
  O6       1.0000 0.53581  0.18391  0.69539  Biso   1.000  O 
  O7       1.0000 0.53581  0.68061  0.19770  Biso   1.000  O 
  O8       1.0000 0.53587  0.68326  0.69497  Biso   1.000  O 
  O9       1.0000 0.03503  0.06469  0.44092  Biso   1.000  O 
  O10      1.0000 0.03309  0.07338  0.91432  Biso   1.000  O 
  O11      1.0000 0.03530  0.56592  0.44625  Biso   1.000  O 
  O12      1.0000 0.03530  0.56906  0.94461  Biso   1.000  O 
  O13      1.0000 0.53582  0.06593  0.44500  Biso   1.000  O 
  O14      1.0000 0.54015  0.06562  0.94204  Biso   1.000  O 
  O15      1.0000 0.53409  0.56477  0.44644  Biso   1.000  O 
  O16      1.0000 0.53519  0.56692  0.94652  Biso   1.000  O 
  O17      1.0000 0.46431  0.43262  0.19590  Biso   1.000  O 
  O18      1.0000 0.46551  0.43302  0.69535  Biso   1.000  O 
  O19      1.0000 0.46301  0.93578  0.19196  Biso   1.000  O 
  O20      1.0000 0.46539  0.93351  0.69417  Biso   1.000  O 
  O21      1.0000 0.96095  0.43947  0.19428  Biso   1.000  O 
  O22      1.0000 0.96573  0.43477  0.69713  Biso   1.000  O 
  O23      1.0000 0.93863  0.92869  0.20591  Biso   1.000  O 
  O24      1.0000 0.96152  0.93380  0.69078  Biso   1.000  O 
  O25      1.0000 0.46323  0.31499  0.44434  Biso   1.000  O 
  O26      1.0000 0.46725  0.31775  0.94482  Biso   1.000  O 
  O27      1.0000 0.46516  0.81680  0.44757  Biso   1.000  O 
  O28      1.0000 0.47344  0.81801  0.94596  Biso   1.000  O 
  O29      1.0000 0.96350  0.31895  0.44586  Biso   1.000  O 
  O30      1.0000 0.96611  0.31859  0.94722  Biso   1.000  O 
  O31      1.0000 0.96363  0.81458  0.44687  Biso   1.000  O 
  O32      1.0000 0.97367  0.82432  0.95534  Biso   1.000  O 
  O33      1.0000 0.27957  0.12707  0.25573  Biso   1.000  O 
  O34      1.0000 0.27201  0.11771  0.74643  Biso   1.000  O 
  O35      1.0000 0.26911  0.61313  0.24885  Biso   1.000  O 
  O36      1.0000 0.27133  0.61760  0.74944  Biso   1.000  O 
  O37      1.0000 0.76727  0.11726  0.25195  Biso   1.000  O 
  O38      1.0000 0.77092  0.11829  0.74867  Biso   1.000  O 
  O39      1.0000 0.76904  0.61708  0.25041  Biso   1.000  O 
  O40      1.0000 0.77135  0.61634  0.74913  Biso   1.000  O 
  O41      1.0000 0.26945  0.13105  0.50087  Biso   1.000  O 
  O42      1.0000 0.27677  0.13784  0.99037  Biso   1.000  O 
  O43      1.0000 0.27024  0.63254  0.49961  Biso   1.000  O 
  O44      1.0000 0.27152  0.62921  0.99955  Biso   1.000  O 
  O45      1.0000 0.76793  0.13407  0.50091  Biso   1.000  O 
  O46      1.0000 0.77339  0.13166  0.99998  Biso   1.000  O 
  O47      1.0000 0.76961  0.63143  0.49998  Biso   1.000  O 
  O48      1.0000 0.77040  0.63078  0.99897  Biso   1.000  O 
  O49      1.0000 0.23014  0.38313  0.49944  Biso   1.000  O 
  O50      1.0000 0.23052  0.38333  0.99876  Biso   1.000  O 
  O51      1.0000 0.22893  0.88333  0.49920  Biso   1.000  O 
  O52      1.0000 0.24513  0.87137  0.98901  Biso   1.000  O 
  O53      1.0000 0.72880  0.38276  0.49955  Biso   1.000  O 
  O54      1.0000 0.72925  0.38280  0.99922  Biso   1.000  O 
  O55      1.0000 0.72795  0.88080  0.50282  Biso   1.000  O 
  O56      1.0000 0.73223  0.88006  0.00068  Biso   1.000  O 
  O57      1.0000 0.22701  0.36893  0.24904  Biso   1.000  O 
  O58      1.0000 0.23202  0.36901  0.74743  Biso   1.000  O 
  O59      1.0000 0.24319  0.85457  0.25608  Biso   1.000  O 
  O60      1.0000 0.22941  0.86803  0.74625  Biso   1.000  O 
  O61      1.0000 0.72856  0.36849  0.25044  Biso   1.000  O 
  O62      1.0000 0.73093  0.36743  0.74984  Biso   1.000  O 
  O63      1.0000 0.71682  0.86571  0.25221  Biso   1.000  O 
  O64      1.0000 0.73043  0.86647  0.75012  Biso   1.000  O 
