data_image0
_cell_length_a       10.1593
_cell_length_b       10.3073
_cell_length_c       10.4546
_cell_angle_alpha    90.0101
_cell_angle_beta     80.542
_cell_angle_gamma    90.0221

_symmetry_space_group_name_H-M    "P 1"
_symmetry_int_tables_number       1

loop_
  _symmetry_equiv_pos_as_xyz
  'x, y, z'

loop_
  _atom_site_label
  _atom_site_occupancy
  _atom_site_fract_x
  _atom_site_fract_y
  _atom_site_fract_z
  _atom_site_thermal_displace_type
  _atom_site_B_iso_or_equiv
  _atom_site_type_symbol
  La1      1.0000 0.13446  0.01113  0.14166  Biso   1.000  La
  Hf1      1.0000 0.13737  0.02187  0.64728  Biso   1.000  Hf
  Hf2      1.0000 0.13647  0.51892  0.14544  Biso   1.000  Hf
  Hf3      1.0000 0.13803  0.52106  0.64547  Biso   1.000  Hf
  Hf4      1.0000 0.65052  0.02386  0.14585  Biso   1.000  Hf
  Hf5      1.0000 0.63934  0.02184  0.64634  Biso   1.000  Hf
  Hf6      1.0000 0.63767  0.51839  0.14712  Biso   1.000  Hf
  Hf7      1.0000 0.63837  0.52230  0.64555  Biso   1.000  Hf
  Hf8      1.0000 0.13638  0.22810  0.39781  Biso   1.000  Hf
  Hf9      1.0000 0.13820  0.23198  0.89427  Biso   1.000  Hf
  Hf10     1.0000 0.14193  0.72675  0.39498  Biso   1.000  Hf
  Hf11     1.0000 0.13858  0.72846  0.89271  Biso   1.000  Hf
  Hf12     1.0000 0.63690  0.22940  0.39629  Biso   1.000  Hf
  Hf13     1.0000 0.63930  0.22811  0.89627  Biso   1.000  Hf
  Hf14     1.0000 0.63444  0.72706  0.39605  Biso   1.000  Hf
  Hf15     1.0000 0.64192  0.73055  0.89488  Biso   1.000  Hf
  Hf16     1.0000 0.36038  0.26806  0.10386  Biso   1.000  Hf
  Hf17     1.0000 0.36046  0.27109  0.60465  Biso   1.000  Hf
  Hf18     1.0000 0.36190  0.75791  0.09752  Biso   1.000  Hf
  Hf19     1.0000 0.35976  0.77143  0.60359  Biso   1.000  Hf
  Hf20     1.0000 0.86182  0.27543  0.10227  Biso   1.000  Hf
  Hf21     1.0000 0.86095  0.27235  0.60457  Biso   1.000  Hf
  Hf22     1.0000 0.85706  0.76697  0.10472  Biso   1.000  Hf
  Hf23     1.0000 0.86305  0.77113  0.60253  Biso   1.000  Hf
  Hf24     1.0000 0.35911  0.47580  0.35296  Biso   1.000  Hf
  Hf25     1.0000 0.36372  0.47657  0.85333  Biso   1.000  Hf
  Hf26     1.0000 0.36108  0.98467  0.36205  Biso   1.000  Hf
  Hf27     1.0000 0.36443  0.97919  0.85175  Biso   1.000  Hf
  Hf28     1.0000 0.86027  0.47976  0.35531  Biso   1.000  Hf
  Hf29     1.0000 0.85984  0.47942  0.85206  Biso   1.000  Hf
  Hf30     1.0000 0.85589  0.97802  0.35953  Biso   1.000  Hf
  Hf31     1.0000 0.86257  0.97872  0.85441  Biso   1.000  Hf
  O1       1.0000 0.03760  0.19142  0.07823  Biso   1.000  O 
  O2       1.0000 0.03692  0.17578  0.58780  Biso   1.000  O 
  O3       1.0000 0.04002  0.67704  0.08326  Biso   1.000  O 
  O4       1.0000 0.03832  0.67164  0.57969  Biso   1.000  O 
  O5       1.0000 0.53391  0.15909  0.07780  Biso   1.000  O 
  O6       1.0000 0.53218  0.16517  0.57734  Biso   1.000  O 
  O7       1.0000 0.53953  0.67198  0.08324  Biso   1.000  O 
  O8       1.0000 0.53295  0.66723  0.57979  Biso   1.000  O 
  O9       1.0000 0.02659  0.08033  0.34892  Biso   1.000  O 
  O10      1.0000 0.03836  0.07674  0.83543  Biso   1.000  O 
  O11      1.0000 0.03619  0.57958  0.33169  Biso   1.000  O 
  O12      1.0000 0.03558  0.57864  0.83029  Biso   1.000  O 
  O13      1.0000 0.53744  0.07774  0.32518  Biso   1.000  O 
  O14      1.0000 0.53715  0.08392  0.82578  Biso   1.000  O 
  O15      1.0000 0.53263  0.57931  0.32977  Biso   1.000  O 
  O16      1.0000 0.53473  0.58520  0.83007  Biso   1.000  O 
  O17      1.0000 0.46434  0.41566  0.17035  Biso   1.000  O 
  O18      1.0000 0.46597  0.41696  0.67118  Biso   1.000  O 
  O19      1.0000 0.46677  0.91522  0.67190  Biso   1.000  O 
  O20      1.0000 0.95789  0.42853  0.16735  Biso   1.000  O 
  O21      1.0000 0.96144  0.42432  0.66619  Biso   1.000  O 
  O22      1.0000 0.93065  0.92522  0.17264  Biso   1.000  O 
  O23      1.0000 0.96286  0.92121  0.66892  Biso   1.000  O 
  O24      1.0000 0.46240  0.32905  0.41997  Biso   1.000  O 
  O25      1.0000 0.46840  0.33362  0.92214  Biso   1.000  O 
  O26      1.0000 0.46322  0.83296  0.42157  Biso   1.000  O 
  O27      1.0000 0.47689  0.84223  0.92991  Biso   1.000  O 
  O28      1.0000 0.96199  0.33093  0.41946  Biso   1.000  O 
  O29      1.0000 0.96068  0.33097  0.91298  Biso   1.000  O 
  O30      1.0000 0.96671  0.82913  0.41522  Biso   1.000  O 
  O31      1.0000 0.96420  0.82907  0.91951  Biso   1.000  O 
  O32      1.0000 0.28491  0.13394  0.24991  Biso   1.000  O 
  O33      1.0000 0.27587  0.12930  0.73877  Biso   1.000  O 
  O34      1.0000 0.27491  0.62136  0.23852  Biso   1.000  O 
  O35      1.0000 0.27591  0.62916  0.74012  Biso   1.000  O 
  O36      1.0000 0.77539  0.13317  0.24220  Biso   1.000  O 
  O37      1.0000 0.77758  0.12931  0.74132  Biso   1.000  O 
  O38      1.0000 0.77364  0.62860  0.24147  Biso   1.000  O 
  O39      1.0000 0.77648  0.63028  0.73860  Biso   1.000  O 
  O40      1.0000 0.27362  0.12099  0.49486  Biso   1.000  O 
  O41      1.0000 0.28541  0.12752  0.97973  Biso   1.000  O 
  O42      1.0000 0.27648  0.62023  0.48940  Biso   1.000  O 
  O43      1.0000 0.27775  0.61748  0.99028  Biso   1.000  O 
  O44      1.0000 0.77201  0.12229  0.49303  Biso   1.000  O 
  O45      1.0000 0.77906  0.12215  0.99097  Biso   1.000  O 
  O46      1.0000 0.77513  0.62141  0.49051  Biso   1.000  O 
  O47      1.0000 0.77521  0.61992  0.98947  Biso   1.000  O 
  O48      1.0000 0.22555  0.38018  0.00758  Biso   1.000  O 
  O49      1.0000 0.22327  0.37933  0.50930  Biso   1.000  O 
  O50      1.0000 0.23963  0.86419  0.99368  Biso   1.000  O 
  O51      1.0000 0.22118  0.87997  0.50969  Biso   1.000  O 
  O52      1.0000 0.72193  0.37955  0.00894  Biso   1.000  O 
  O53      1.0000 0.72151  0.37953  0.50943  Biso   1.000  O 
  O54      1.0000 0.72471  0.87979  0.00933  Biso   1.000  O 
  O55      1.0000 0.72456  0.87796  0.51050  Biso   1.000  O 
  O56      1.0000 0.21981  0.36960  0.25793  Biso   1.000  O 
  O57      1.0000 0.22448  0.37247  0.75824  Biso   1.000  O 
  O58      1.0000 0.25748  0.85909  0.25783  Biso   1.000  O 
  O59      1.0000 0.22359  0.87137  0.75599  Biso   1.000  O 
  O60      1.0000 0.72201  0.37228  0.26061  Biso   1.000  O 
  O61      1.0000 0.72297  0.37089  0.75874  Biso   1.000  O 
  O62      1.0000 0.70644  0.86858  0.26263  Biso   1.000  O 
  O63      1.0000 0.72585  0.87102  0.75898  Biso   1.000  O 
