data_image0
_cell_length_a       10.1437
_cell_length_b       10.3098
_cell_length_c       10.4466
_cell_angle_alpha    89.9133
_cell_angle_beta     80.6749
_cell_angle_gamma    90.1327

_symmetry_space_group_name_H-M    "P 1"
_symmetry_int_tables_number       1

loop_
  _symmetry_equiv_pos_as_xyz
  'x, y, z'

loop_
  _atom_site_label
  _atom_site_occupancy
  _atom_site_fract_x
  _atom_site_fract_y
  _atom_site_fract_z
  _atom_site_thermal_displace_type
  _atom_site_B_iso_or_equiv
  _atom_site_type_symbol
  La1      1.0000 0.13803  0.01033  0.14485  Biso   1.000  La
  Hf1      1.0000 0.13849  0.02153  0.64597  Biso   1.000  Hf
  Hf2      1.0000 0.13757  0.52201  0.14541  Biso   1.000  Hf
  Hf3      1.0000 0.13981  0.51912  0.64731  Biso   1.000  Hf
  Hf4      1.0000 0.63713  0.01902  0.14610  Biso   1.000  Hf
  Hf5      1.0000 0.63934  0.02248  0.64602  Biso   1.000  Hf
  Hf6      1.0000 0.64064  0.51725  0.14581  Biso   1.000  Hf
  Hf7      1.0000 0.63878  0.52095  0.64544  Biso   1.000  Hf
  Hf8      1.0000 0.13746  0.22909  0.39858  Biso   1.000  Hf
  Hf9      1.0000 0.13913  0.23005  0.89531  Biso   1.000  Hf
  Hf10     1.0000 0.13554  0.72403  0.40170  Biso   1.000  Hf
  Hf11     1.0000 0.13957  0.72781  0.89404  Biso   1.000  Hf
  Hf12     1.0000 0.63872  0.23111  0.39707  Biso   1.000  Hf
  Hf13     1.0000 0.63921  0.22829  0.89669  Biso   1.000  Hf
  Hf14     1.0000 0.63626  0.72698  0.39592  Biso   1.000  Hf
  Hf15     1.0000 0.64531  0.72744  0.89104  Biso   1.000  Hf
  Hf16     1.0000 0.36018  0.27037  0.10454  Biso   1.000  Hf
  Hf17     1.0000 0.36088  0.27075  0.60511  Biso   1.000  Hf
  Hf18     1.0000 0.37358  0.76320  0.09391  Biso   1.000  Hf
  Hf19     1.0000 0.36098  0.77069  0.60311  Biso   1.000  Hf
  Hf20     1.0000 0.86156  0.27132  0.10299  Biso   1.000  Hf
  Hf21     1.0000 0.86187  0.27178  0.60499  Biso   1.000  Hf
  Hf22     1.0000 0.85693  0.76819  0.10434  Biso   1.000  Hf
  Hf23     1.0000 0.86157  0.77224  0.60285  Biso   1.000  Hf
  Hf24     1.0000 0.36086  0.47777  0.35392  Biso   1.000  Hf
  Hf25     1.0000 0.36346  0.47723  0.85427  Biso   1.000  Hf
  Hf26     1.0000 0.36644  0.98399  0.36040  Biso   1.000  Hf
  Hf27     1.0000 0.36433  0.97834  0.85077  Biso   1.000  Hf
  Hf28     1.0000 0.86101  0.47901  0.35444  Biso   1.000  Hf
  Hf29     1.0000 0.86180  0.47757  0.85290  Biso   1.000  Hf
  Hf30     1.0000 0.85459  0.97973  0.35749  Biso   1.000  Hf
  Hf31     1.0000 0.86242  0.97884  0.85469  Biso   1.000  Hf
  O1       1.0000 0.03749  0.18566  0.07896  Biso   1.000  O 
  O2       1.0000 0.03821  0.17580  0.58779  Biso   1.000  O 
  O3       1.0000 0.03904  0.67670  0.08310  Biso   1.000  O 
  O4       1.0000 0.03699  0.67048  0.58244  Biso   1.000  O 
  O5       1.0000 0.53572  0.16873  0.08186  Biso   1.000  O 
  O6       1.0000 0.53500  0.17013  0.58086  Biso   1.000  O 
  O7       1.0000 0.54365  0.66789  0.07722  Biso   1.000  O 
  O8       1.0000 0.53507  0.66937  0.58166  Biso   1.000  O 
  O9       1.0000 0.02658  0.08087  0.34926  Biso   1.000  O 
  O10      1.0000 0.03899  0.07601  0.83412  Biso   1.000  O 
  O11      1.0000 0.03670  0.57739  0.33191  Biso   1.000  O 
  O12      1.0000 0.03762  0.57673  0.83178  Biso   1.000  O 
  O13      1.0000 0.53912  0.07834  0.33353  Biso   1.000  O 
  O14      1.0000 0.53874  0.07990  0.82915  Biso   1.000  O 
  O15      1.0000 0.53469  0.57980  0.32897  Biso   1.000  O 
  O16      1.0000 0.53834  0.57963  0.82991  Biso   1.000  O 
  O17      1.0000 0.46231  0.42142  0.16898  Biso   1.000  O 
  O18      1.0000 0.46452  0.41938  0.66930  Biso   1.000  O 
  O19      1.0000 0.44782  0.92243  0.17193  Biso   1.000  O 
  O20      1.0000 0.46441  0.92038  0.66677  Biso   1.000  O 
  O21      1.0000 0.96016  0.42636  0.16613  Biso   1.000  O 
  O22      1.0000 0.96280  0.42337  0.66686  Biso   1.000  O 
  O23      1.0000 0.93503  0.92332  0.17341  Biso   1.000  O 
  O24      1.0000 0.96380  0.92113  0.66790  Biso   1.000  O 
  O25      1.0000 0.46287  0.33038  0.41900  Biso   1.000  O 
  O26      1.0000 0.46693  0.33166  0.92058  Biso   1.000  O 
  O27      1.0000 0.46198  0.82865  0.42047  Biso   1.000  O 
  O28      1.0000 0.47585  0.83144  0.91433  Biso   1.000  O 
  O29      1.0000 0.96237  0.33051  0.41946  Biso   1.000  O 
  O30      1.0000 0.96075  0.32740  0.91368  Biso   1.000  O 
  O31      1.0000 0.96477  0.82906  0.41581  Biso   1.000  O 
  O32      1.0000 0.96416  0.82884  0.91917  Biso   1.000  O 
  O33      1.0000 0.28326  0.13729  0.25235  Biso   1.000  O 
  O34      1.0000 0.27654  0.12873  0.73971  Biso   1.000  O 
  O35      1.0000 0.27297  0.64205  0.24141  Biso   1.000  O 
  O36      1.0000 0.27718  0.62907  0.74084  Biso   1.000  O 
  O37      1.0000 0.77226  0.13027  0.24142  Biso   1.000  O 
  O38      1.0000 0.77814  0.12921  0.74150  Biso   1.000  O 
  O39      1.0000 0.77511  0.62829  0.24107  Biso   1.000  O 
  O40      1.0000 0.77858  0.62937  0.73805  Biso   1.000  O 
  O41      1.0000 0.27554  0.12103  0.49522  Biso   1.000  O 
  O42      1.0000 0.28645  0.12630  0.98123  Biso   1.000  O 
  O43      1.0000 0.27616  0.61875  0.49174  Biso   1.000  O 
  O44      1.0000 0.27781  0.61611  0.99026  Biso   1.000  O 
  O45      1.0000 0.77303  0.12293  0.49311  Biso   1.000  O 
  O46      1.0000 0.77542  0.11877  0.99219  Biso   1.000  O 
  O47      1.0000 0.77609  0.62111  0.49009  Biso   1.000  O 
  O48      1.0000 0.77875  0.61785  0.98909  Biso   1.000  O 
  O49      1.0000 0.22425  0.37958  0.00887  Biso   1.000  O 
  O50      1.0000 0.22390  0.37900  0.50990  Biso   1.000  O 
  O51      1.0000 0.24040  0.86425  0.99586  Biso   1.000  O 
  O52      1.0000 0.22244  0.87994  0.50266  Biso   1.000  O 
  O53      1.0000 0.72307  0.37809  0.00906  Biso   1.000  O 
  O54      1.0000 0.72291  0.37984  0.50927  Biso   1.000  O 
  O55      1.0000 0.72255  0.87800  0.00843  Biso   1.000  O 
  O56      1.0000 0.72361  0.87921  0.50968  Biso   1.000  O 
  O57      1.0000 0.22138  0.37537  0.25926  Biso   1.000  O 
  O58      1.0000 0.22467  0.37116  0.75903  Biso   1.000  O 
  O59      1.0000 0.22329  0.87021  0.75442  Biso   1.000  O 
  O60      1.0000 0.72327  0.37129  0.25995  Biso   1.000  O 
  O61      1.0000 0.72377  0.37016  0.75866  Biso   1.000  O 
  O62      1.0000 0.70745  0.86788  0.26164  Biso   1.000  O 
  O63      1.0000 0.72678  0.87077  0.75711  Biso   1.000  O 
