data_image0
_cell_length_a       10.0571
_cell_length_b       10.2208
_cell_length_c       10.0569
_cell_angle_alpha    89.9864
_cell_angle_beta     90.0022
_cell_angle_gamma    89.992

_symmetry_space_group_name_H-M    "P 1"
_symmetry_int_tables_number       1

loop_
  _symmetry_equiv_pos_as_xyz
  'x, y, z'

loop_
  _atom_site_label
  _atom_site_occupancy
  _atom_site_fract_x
  _atom_site_fract_y
  _atom_site_fract_z
  _atom_site_thermal_displace_type
  _atom_site_B_iso_or_equiv
  _atom_site_type_symbol
  La1      1.0000 0.12562  0.00031  0.12561  Biso   1.000  La
  Hf1      1.0000 0.12559  0.00030  0.62559  Biso   1.000  Hf
  Hf2      1.0000 0.12565  0.50031  0.12564  Biso   1.000  Hf
  Hf3      1.0000 0.12565  0.50035  0.62564  Biso   1.000  Hf
  Hf4      1.0000 0.62561  0.00029  0.12559  Biso   1.000  Hf
  Hf5      1.0000 0.62562  0.00027  0.62562  Biso   1.000  Hf
  Hf6      1.0000 0.62565  0.50036  0.12564  Biso   1.000  Hf
  Hf7      1.0000 0.62563  0.50035  0.62564  Biso   1.000  Hf
  Hf8      1.0000 0.12374  0.25245  0.37838  Biso   1.000  Hf
  Hf9      1.0000 0.12769  0.25246  0.87293  Biso   1.000  Hf
  Hf10     1.0000 0.12763  0.74817  0.37833  Biso   1.000  Hf
  Hf11     1.0000 0.12368  0.74816  0.87291  Biso   1.000  Hf
  Hf12     1.0000 0.62544  0.24999  0.37561  Biso   1.000  Hf
  Hf13     1.0000 0.62594  0.25002  0.87573  Biso   1.000  Hf
  Hf14     1.0000 0.62590  0.75060  0.37557  Biso   1.000  Hf
  Hf15     1.0000 0.62539  0.75060  0.87569  Biso   1.000  Hf
  Hf16     1.0000 0.37840  0.25245  0.12372  Biso   1.000  Hf
  Hf17     1.0000 0.37564  0.25000  0.62541  Biso   1.000  Hf
  Hf18     1.0000 0.37836  0.74817  0.12761  Biso   1.000  Hf
  Hf19     1.0000 0.37559  0.75061  0.62588  Biso   1.000  Hf
  Hf20     1.0000 0.87296  0.25247  0.12764  Biso   1.000  Hf
  Hf21     1.0000 0.87575  0.25002  0.62592  Biso   1.000  Hf
  Hf22     1.0000 0.87294  0.74815  0.12364  Biso   1.000  Hf
  Hf23     1.0000 0.87571  0.75059  0.62536  Biso   1.000  Hf
  Hf24     1.0000 0.37781  0.00244  0.37780  Biso   1.000  Hf
  Hf25     1.0000 0.37779  0.99821  0.87335  Biso   1.000  Hf
  Hf26     1.0000 0.37648  0.49963  0.37648  Biso   1.000  Hf
  Hf27     1.0000 0.37647  0.50090  0.87481  Biso   1.000  Hf
  Hf28     1.0000 0.87334  0.99821  0.37778  Biso   1.000  Hf
  Hf29     1.0000 0.87338  0.00246  0.87339  Biso   1.000  Hf
  Hf30     1.0000 0.87481  0.50090  0.37648  Biso   1.000  Hf
  Hf31     1.0000 0.87478  0.49967  0.87477  Biso   1.000  Hf
  O1       1.0000 0.99685  0.15543  0.99683  Biso   1.000  O 
  O2       1.0000 0.00780  0.14980  0.51108  Biso   1.000  O 
  O3       1.0000 0.00487  0.64506  0.00484  Biso   1.000  O 
  O4       1.0000 0.00135  0.64710  0.50434  Biso   1.000  O 
  O5       1.0000 0.51110  0.14980  0.00779  Biso   1.000  O 
  O6       1.0000 0.50459  0.14846  0.50458  Biso   1.000  O 
  O7       1.0000 0.50436  0.64710  0.00134  Biso   1.000  O 
  O8       1.0000 0.50070  0.64851  0.50069  Biso   1.000  O 
  O9       1.0000 0.98634  0.11761  0.26499  Biso   1.000  O 
  O10      1.0000 0.99835  0.10156  0.75339  Biso   1.000  O 
  O11      1.0000 0.99836  0.60054  0.25273  Biso   1.000  O 
  O12      1.0000 0.00111  0.60221  0.75379  Biso   1.000  O 
  O13      1.0000 0.49794  0.10154  0.25296  Biso   1.000  O 
  O14      1.0000 0.49911  0.10276  0.75222  Biso   1.000  O 
  O15      1.0000 0.49733  0.60217  0.25004  Biso   1.000  O 
  O16      1.0000 0.50051  0.60232  0.75066  Biso   1.000  O 
  O17      1.0000 0.00493  0.35556  0.24639  Biso   1.000  O 
  O18      1.0000 0.00137  0.35355  0.74691  Biso   1.000  O 
  O19      1.0000 0.99682  0.84523  0.25439  Biso   1.000  O 
  O20      1.0000 0.00776  0.85085  0.74016  Biso   1.000  O 
  O21      1.0000 0.50442  0.35354  0.24992  Biso   1.000  O 
  O22      1.0000 0.50074  0.35210  0.75057  Biso   1.000  O 
  O23      1.0000 0.51106  0.85084  0.24345  Biso   1.000  O 
  O24      1.0000 0.50457  0.85216  0.74665  Biso   1.000  O 
  O25      1.0000 0.99848  0.40009  0.99847  Biso   1.000  O 
  O26      1.0000 0.00122  0.39846  0.49743  Biso   1.000  O 
  O27      1.0000 0.98630  0.88301  0.98627  Biso   1.000  O 
  O28      1.0000 0.99825  0.89910  0.49787  Biso   1.000  O 
  O29      1.0000 0.49745  0.39846  0.00121  Biso   1.000  O 
  O30      1.0000 0.50061  0.39829  0.50062  Biso   1.000  O 
  O31      1.0000 0.49789  0.89910  0.99826  Biso   1.000  O 
  O32      1.0000 0.49902  0.89787  0.49903  Biso   1.000  O 
  O33      1.0000 0.25448  0.15532  0.25446  Biso   1.000  O 
  O34      1.0000 0.24357  0.14972  0.74025  Biso   1.000  O 
  O35      1.0000 0.24626  0.64505  0.24625  Biso   1.000  O 
  O36      1.0000 0.24980  0.64707  0.74675  Biso   1.000  O 
  O37      1.0000 0.74027  0.14972  0.24356  Biso   1.000  O 
  O38      1.0000 0.74675  0.14847  0.74674  Biso   1.000  O 
  O39      1.0000 0.74676  0.64707  0.24978  Biso   1.000  O 
  O40      1.0000 0.75045  0.64853  0.75045  Biso   1.000  O 
  O41      1.0000 0.26501  0.11762  0.98632  Biso   1.000  O 
  O42      1.0000 0.25299  0.10155  0.49791  Biso   1.000  O 
  O43      1.0000 0.25275  0.60056  0.99834  Biso   1.000  O 
  O44      1.0000 0.25006  0.60217  0.49731  Biso   1.000  O 
  O45      1.0000 0.75341  0.10157  0.99834  Biso   1.000  O 
  O46      1.0000 0.75224  0.10275  0.49909  Biso   1.000  O 
  O47      1.0000 0.75381  0.60221  0.00108  Biso   1.000  O 
  O48      1.0000 0.75067  0.60232  0.50050  Biso   1.000  O 
  O49      1.0000 0.24641  0.35557  0.00492  Biso   1.000  O 
  O50      1.0000 0.24994  0.35354  0.50440  Biso   1.000  O 
  O51      1.0000 0.25442  0.84526  0.99680  Biso   1.000  O 
  O52      1.0000 0.24345  0.85085  0.51106  Biso   1.000  O 
  O53      1.0000 0.74694  0.35356  0.00134  Biso   1.000  O 
  O54      1.0000 0.75059  0.35210  0.50071  Biso   1.000  O 
  O55      1.0000 0.74020  0.85086  0.00773  Biso   1.000  O 
  O56      1.0000 0.74665  0.85216  0.50457  Biso   1.000  O 
  O57      1.0000 0.25283  0.40003  0.25282  Biso   1.000  O 
  O58      1.0000 0.25009  0.39842  0.75386  Biso   1.000  O 
  O59      1.0000 0.26499  0.88298  0.26497  Biso   1.000  O 
  O60      1.0000 0.25298  0.89905  0.75332  Biso   1.000  O 
  O61      1.0000 0.75388  0.39842  0.25007  Biso   1.000  O 
  O62      1.0000 0.75070  0.39829  0.75066  Biso   1.000  O 
  O63      1.0000 0.75335  0.89903  0.25295  Biso   1.000  O 
  O64      1.0000 0.75223  0.89785  0.75221  Biso   1.000  O 
