data_image0
_cell_length_a       10.0856
_cell_length_b       10.2629
_cell_length_c       10.4794
_cell_angle_alpha    90.021
_cell_angle_beta     90.1113
_cell_angle_gamma    90.0871

_symmetry_space_group_name_H-M    "P 1"
_symmetry_int_tables_number       1

loop_
  _symmetry_equiv_pos_as_xyz
  'x, y, z'

loop_
  _atom_site_label
  _atom_site_occupancy
  _atom_site_fract_x
  _atom_site_fract_y
  _atom_site_fract_z
  _atom_site_thermal_displace_type
  _atom_site_B_iso_or_equiv
  _atom_site_type_symbol
  La1      1.0000 0.13468  0.01231  0.16341  Biso   1.000  La
  Hf1      1.0000 0.13946  0.02080  0.67224  Biso   1.000  Hf
  Hf2      1.0000 0.13902  0.52029  0.17135  Biso   1.000  Hf
  Hf3      1.0000 0.13894  0.52096  0.67108  Biso   1.000  Hf
  Hf4      1.0000 0.13871  0.22732  0.42294  Biso   1.000  Hf
  Hf5      1.0000 0.13882  0.23348  0.91894  Biso   1.000  Hf
  Hf6      1.0000 0.13972  0.72774  0.42243  Biso   1.000  Hf
  Hf7      1.0000 0.14058  0.72749  0.92057  Biso   1.000  Hf
  Hf8      1.0000 0.35991  0.26952  0.17118  Biso   1.000  Hf
  Hf9      1.0000 0.36110  0.27035  0.67129  Biso   1.000  Hf
  Hf10     1.0000 0.36632  0.76671  0.17122  Biso   1.000  Hf
  Hf11     1.0000 0.36047  0.77097  0.67113  Biso   1.000  Hf
  Hf12     1.0000 0.36033  0.47753  0.42080  Biso   1.000  Hf
  Hf13     1.0000 0.36122  0.47838  0.92199  Biso   1.000  Hf
  Hf14     1.0000 0.36192  0.97865  0.42217  Biso   1.000  Hf
  Hf15     1.0000 0.36518  0.97988  0.91876  Biso   1.000  Hf
  Hf16     1.0000 0.64003  0.02085  0.08040  Biso   1.000  Hf
  Hf17     1.0000 0.63845  0.02122  0.58039  Biso   1.000  Hf
  Hf18     1.0000 0.63819  0.51878  0.07748  Biso   1.000  Hf
  Hf19     1.0000 0.63817  0.52075  0.57680  Biso   1.000  Hf
  Hf20     1.0000 0.63778  0.22991  0.32853  Biso   1.000  Hf
  Hf21     1.0000 0.63936  0.22902  0.82810  Biso   1.000  Hf
  Hf22     1.0000 0.63986  0.72861  0.32916  Biso   1.000  Hf
  Hf23     1.0000 0.63827  0.72875  0.82680  Biso   1.000  Hf
  Hf24     1.0000 0.85921  0.27366  0.07607  Biso   1.000  Hf
  Hf25     1.0000 0.86128  0.27157  0.57825  Biso   1.000  Hf
  Hf26     1.0000 0.85700  0.76682  0.07746  Biso   1.000  Hf
  Hf27     1.0000 0.86232  0.77132  0.57918  Biso   1.000  Hf
  Hf28     1.0000 0.86140  0.47935  0.32814  Biso   1.000  Hf
  Hf29     1.0000 0.85999  0.48013  0.82572  Biso   1.000  Hf
  Hf30     1.0000 0.85514  0.97974  0.33387  Biso   1.000  Hf
  Hf31     1.0000 0.86188  0.97930  0.83025  Biso   1.000  Hf
  O1       1.0000 0.03238  0.18625  0.07960  Biso   1.000  O 
  O2       1.0000 0.03402  0.16987  0.59048  Biso   1.000  O 
  O3       1.0000 0.03426  0.66818  0.08419  Biso   1.000  O 
  O4       1.0000 0.03339  0.66622  0.58541  Biso   1.000  O 
  O5       1.0000 0.02243  0.08698  0.34920  Biso   1.000  O 
  O6       1.0000 0.03507  0.08251  0.83789  Biso   1.000  O 
  O7       1.0000 0.03302  0.58502  0.33429  Biso   1.000  O 
  O8       1.0000 0.03223  0.58436  0.83236  Biso   1.000  O 
  O9       1.0000 0.46780  0.41255  0.08183  Biso   1.000  O 
  O10      1.0000 0.46810  0.41325  0.58202  Biso   1.000  O 
  O11      1.0000 0.46961  0.91650  0.08418  Biso   1.000  O 
  O12      1.0000 0.46799  0.91396  0.58346  Biso   1.000  O 
  O13      1.0000 0.46846  0.33757  0.33189  Biso   1.000  O 
  O14      1.0000 0.46796  0.33507  0.83214  Biso   1.000  O 
  O15      1.0000 0.47223  0.83595  0.33335  Biso   1.000  O 
  O16      1.0000 0.46964  0.83609  0.83022  Biso   1.000  O 
  O17      1.0000 0.28248  0.12855  0.30360  Biso   1.000  O 
  O18      1.0000 0.27576  0.12412  0.79220  Biso   1.000  O 
  O19      1.0000 0.27724  0.61945  0.29461  Biso   1.000  O 
  O20      1.0000 0.27621  0.62411  0.79500  Biso   1.000  O 
  O21      1.0000 0.28712  0.13550  0.03347  Biso   1.000  O 
  O22      1.0000 0.27529  0.12475  0.54691  Biso   1.000  O 
  O23      1.0000 0.27545  0.62040  0.04619  Biso   1.000  O 
  O24      1.0000 0.27567  0.62537  0.54512  Biso   1.000  O 
  O25      1.0000 0.22211  0.37257  0.29448  Biso   1.000  O 
  O26      1.0000 0.22503  0.37541  0.79387  Biso   1.000  O 
  O27      1.0000 0.23473  0.86193  0.30177  Biso   1.000  O 
  O28      1.0000 0.22469  0.87387  0.79241  Biso   1.000  O 
  O29      1.0000 0.22302  0.37796  0.04452  Biso   1.000  O 
  O30      1.0000 0.22449  0.37600  0.54525  Biso   1.000  O 
  O31      1.0000 0.24364  0.86086  0.03325  Biso   1.000  O 
  O32      1.0000 0.22403  0.87620  0.54624  Biso   1.000  O 
  O33      1.0000 0.53285  0.16501  0.16708  Biso   1.000  O 
  O34      1.0000 0.53237  0.16446  0.66697  Biso   1.000  O 
  O35      1.0000 0.53370  0.66075  0.16803  Biso   1.000  O 
  O36      1.0000 0.53155  0.66315  0.66685  Biso   1.000  O 
  O37      1.0000 0.53338  0.08487  0.41771  Biso   1.000  O 
  O38      1.0000 0.53746  0.08337  0.91492  Biso   1.000  O 
  O39      1.0000 0.53133  0.58552  0.41748  Biso   1.000  O 
  O40      1.0000 0.53082  0.58677  0.91780  Biso   1.000  O 
  O41      1.0000 0.96329  0.42138  0.16388  Biso   1.000  O 
  O42      1.0000 0.96612  0.41861  0.66312  Biso   1.000  O 
  O43      1.0000 0.94081  0.91111  0.17191  Biso   1.000  O 
  O44      1.0000 0.96664  0.91609  0.66779  Biso   1.000  O 
  O45      1.0000 0.96720  0.33634  0.41677  Biso   1.000  O 
  O46      1.0000 0.96412  0.33684  0.90949  Biso   1.000  O 
  O47      1.0000 0.96767  0.83467  0.41778  Biso   1.000  O 
  O48      1.0000 0.97038  0.83707  0.91995  Biso   1.000  O 
  O49      1.0000 0.77773  0.12423  0.95583  Biso   1.000  O 
  O50      1.0000 0.77201  0.12621  0.45850  Biso   1.000  O 
  O51      1.0000 0.77391  0.62201  0.95246  Biso   1.000  O 
  O52      1.0000 0.77625  0.62420  0.45454  Biso   1.000  O 
  O53      1.0000 0.77548  0.12772  0.20713  Biso   1.000  O 
  O54      1.0000 0.77640  0.12623  0.70652  Biso   1.000  O 
  O55      1.0000 0.77556  0.62592  0.20426  Biso   1.000  O 
  O56      1.0000 0.77479  0.62691  0.70309  Biso   1.000  O 
  O57      1.0000 0.72207  0.37464  0.95269  Biso   1.000  O 
  O58      1.0000 0.72416  0.37517  0.45375  Biso   1.000  O 
  O59      1.0000 0.72495  0.87296  0.95494  Biso   1.000  O 
  O60      1.0000 0.72413  0.87356  0.45809  Biso   1.000  O 
  O61      1.0000 0.72280  0.37698  0.20469  Biso   1.000  O 
  O62      1.0000 0.72411  0.37583  0.70310  Biso   1.000  O 
  O63      1.0000 0.71074  0.87578  0.20735  Biso   1.000  O 
  O64      1.0000 0.72494  0.87611  0.70605  Biso   1.000  O 
