data_image0
_cell_length_a       10.0711
_cell_length_b       10.2805
_cell_length_c       10.4647
_cell_angle_alpha    90.2247
_cell_angle_beta     90.3399
_cell_angle_gamma    90.197

_symmetry_space_group_name_H-M    "P 1"
_symmetry_int_tables_number       1

loop_
  _symmetry_equiv_pos_as_xyz
  'x, y, z'

loop_
  _atom_site_label
  _atom_site_occupancy
  _atom_site_fract_x
  _atom_site_fract_y
  _atom_site_fract_z
  _atom_site_thermal_displace_type
  _atom_site_B_iso_or_equiv
  _atom_site_type_symbol
  La1      1.0000 0.13692  0.01556  0.16410  Biso   1.000  La
  Hf1      1.0000 0.13821  0.02103  0.67050  Biso   1.000  Hf
  Hf2      1.0000 0.13703  0.52033  0.16992  Biso   1.000  Hf
  Hf3      1.0000 0.13703  0.52146  0.67039  Biso   1.000  Hf
  Hf4      1.0000 0.13062  0.23293  0.42697  Biso   1.000  Hf
  Hf5      1.0000 0.13768  0.23388  0.91757  Biso   1.000  Hf
  Hf6      1.0000 0.13891  0.72682  0.42195  Biso   1.000  Hf
  Hf7      1.0000 0.13958  0.72858  0.92102  Biso   1.000  Hf
  Hf8      1.0000 0.36595  0.27797  0.16355  Biso   1.000  Hf
  Hf9      1.0000 0.36126  0.27017  0.66973  Biso   1.000  Hf
  Hf10     1.0000 0.36694  0.76658  0.17114  Biso   1.000  Hf
  Hf11     1.0000 0.35958  0.76891  0.67369  Biso   1.000  Hf
  Hf12     1.0000 0.36083  0.47690  0.42063  Biso   1.000  Hf
  Hf13     1.0000 0.36081  0.48079  0.91848  Biso   1.000  Hf
  Hf14     1.0000 0.36774  0.96887  0.42959  Biso   1.000  Hf
  Hf15     1.0000 0.36496  0.97971  0.91927  Biso   1.000  Hf
  Hf16     1.0000 0.64009  0.01990  0.08109  Biso   1.000  Hf
  Hf17     1.0000 0.64078  0.02168  0.58115  Biso   1.000  Hf
  Hf18     1.0000 0.64148  0.52100  0.07669  Biso   1.000  Hf
  Hf19     1.0000 0.63746  0.52097  0.57744  Biso   1.000  Hf
  Hf20     1.0000 0.63722  0.22875  0.32919  Biso   1.000  Hf
  Hf21     1.0000 0.63792  0.22874  0.82915  Biso   1.000  Hf
  Hf22     1.0000 0.64089  0.72753  0.32934  Biso   1.000  Hf
  Hf23     1.0000 0.63850  0.72923  0.82722  Biso   1.000  Hf
  Hf24     1.0000 0.85971  0.27318  0.07627  Biso   1.000  Hf
  Hf25     1.0000 0.85846  0.27253  0.58128  Biso   1.000  Hf
  Hf26     1.0000 0.85823  0.76906  0.07894  Biso   1.000  Hf
  Hf27     1.0000 0.86254  0.77139  0.57945  Biso   1.000  Hf
  Hf28     1.0000 0.85977  0.47951  0.32856  Biso   1.000  Hf
  Hf29     1.0000 0.86037  0.48056  0.82653  Biso   1.000  Hf
  Hf30     1.0000 0.85789  0.97931  0.33343  Biso   1.000  Hf
  Hf31     1.0000 0.86264  0.97945  0.83148  Biso   1.000  Hf
  O1       1.0000 0.03401  0.18826  0.08009  Biso   1.000  O 
  O2       1.0000 0.03433  0.17479  0.59587  Biso   1.000  O 
  O3       1.0000 0.03616  0.67138  0.08765  Biso   1.000  O 
  O4       1.0000 0.03504  0.66982  0.58692  Biso   1.000  O 
  O5       1.0000 0.02974  0.08403  0.35148  Biso   1.000  O 
  O6       1.0000 0.03755  0.07906  0.83982  Biso   1.000  O 
  O7       1.0000 0.03523  0.57975  0.33695  Biso   1.000  O 
  O8       1.0000 0.03400  0.58185  0.83487  Biso   1.000  O 
  O9       1.0000 0.46896  0.41602  0.07945  Biso   1.000  O 
  O10      1.0000 0.46702  0.41373  0.58205  Biso   1.000  O 
  O11      1.0000 0.46861  0.91724  0.08595  Biso   1.000  O 
  O12      1.0000 0.47018  0.91200  0.58640  Biso   1.000  O 
  O13      1.0000 0.46515  0.33366  0.33118  Biso   1.000  O 
  O14      1.0000 0.46621  0.33395  0.83218  Biso   1.000  O 
  O15      1.0000 0.47245  0.83042  0.33556  Biso   1.000  O 
  O16      1.0000 0.46861  0.83490  0.83230  Biso   1.000  O 
  O17      1.0000 0.27638  0.12387  0.78889  Biso   1.000  O 
  O18      1.0000 0.27682  0.61734  0.29348  Biso   1.000  O 
  O19      1.0000 0.27583  0.62466  0.79458  Biso   1.000  O 
  O20      1.0000 0.28832  0.13755  0.03448  Biso   1.000  O 
  O21      1.0000 0.27486  0.12533  0.53555  Biso   1.000  O 
  O22      1.0000 0.27603  0.62136  0.04523  Biso   1.000  O 
  O23      1.0000 0.27589  0.62486  0.54442  Biso   1.000  O 
  O24      1.0000 0.22212  0.36196  0.29129  Biso   1.000  O 
  O25      1.0000 0.22440  0.37545  0.79174  Biso   1.000  O 
  O26      1.0000 0.23612  0.86476  0.30379  Biso   1.000  O 
  O27      1.0000 0.22345  0.87425  0.79322  Biso   1.000  O 
  O28      1.0000 0.22357  0.38070  0.04143  Biso   1.000  O 
  O29      1.0000 0.22333  0.37800  0.54482  Biso   1.000  O 
  O30      1.0000 0.24219  0.86233  0.03460  Biso   1.000  O 
  O31      1.0000 0.22486  0.87433  0.54894  Biso   1.000  O 
  O32      1.0000 0.53135  0.16455  0.16708  Biso   1.000  O 
  O33      1.0000 0.53258  0.16463  0.66599  Biso   1.000  O 
  O34      1.0000 0.53524  0.66188  0.16638  Biso   1.000  O 
  O35      1.0000 0.53157  0.66377  0.66666  Biso   1.000  O 
  O36      1.0000 0.53184  0.08344  0.41748  Biso   1.000  O 
  O37      1.0000 0.53752  0.08244  0.91526  Biso   1.000  O 
  O38      1.0000 0.53233  0.58233  0.41603  Biso   1.000  O 
  O39      1.0000 0.53275  0.58587  0.91615  Biso   1.000  O 
  O40      1.0000 0.96100  0.42338  0.16271  Biso   1.000  O 
  O41      1.0000 0.96283  0.42276  0.66100  Biso   1.000  O 
  O42      1.0000 0.94231  0.91855  0.16722  Biso   1.000  O 
  O43      1.0000 0.96511  0.91940  0.66560  Biso   1.000  O 
  O44      1.0000 0.96144  0.33436  0.41719  Biso   1.000  O 
  O45      1.0000 0.96236  0.33389  0.90692  Biso   1.000  O 
  O46      1.0000 0.96666  0.83139  0.41471  Biso   1.000  O 
  O47      1.0000 0.96812  0.83403  0.91806  Biso   1.000  O 
  O48      1.0000 0.77761  0.12389  0.95643  Biso   1.000  O 
  O49      1.0000 0.77306  0.12541  0.45871  Biso   1.000  O 
  O50      1.0000 0.77553  0.62312  0.95339  Biso   1.000  O 
  O51      1.0000 0.77647  0.62360  0.45524  Biso   1.000  O 
  O52      1.0000 0.77529  0.12826  0.20822  Biso   1.000  O 
  O53      1.0000 0.77631  0.12677  0.70767  Biso   1.000  O 
  O54      1.0000 0.77747  0.62631  0.20467  Biso   1.000  O 
  O55      1.0000 0.77530  0.62773  0.70376  Biso   1.000  O 
  O56      1.0000 0.72219  0.37489  0.95344  Biso   1.000  O 
  O57      1.0000 0.72166  0.37436  0.45485  Biso   1.000  O 
  O58      1.0000 0.72456  0.87339  0.95602  Biso   1.000  O 
  O59      1.0000 0.72496  0.87408  0.45816  Biso   1.000  O 
  O60      1.0000 0.72097  0.37698  0.20541  Biso   1.000  O 
  O61      1.0000 0.72236  0.37606  0.70443  Biso   1.000  O 
  O62      1.0000 0.71313  0.87481  0.20834  Biso   1.000  O 
  O63      1.0000 0.72493  0.87666  0.70664  Biso   1.000  O 
