data_image0
_cell_length_a       10.2082
_cell_length_b       10.3831
_cell_length_c       5.15353
_cell_angle_alpha    84.1419
_cell_angle_beta     89.7976
_cell_angle_gamma    91.1417

_symmetry_space_group_name_H-M    "P 1"
_symmetry_int_tables_number       1

loop_
  _symmetry_equiv_pos_as_xyz
  'x, y, z'

loop_
  _atom_site_label
  _atom_site_occupancy
  _atom_site_fract_x
  _atom_site_fract_y
  _atom_site_fract_z
  _atom_site_thermal_displace_type
  _atom_site_B_iso_or_equiv
  _atom_site_type_symbol
  Hf1      1.0000 0.11136  0.97169  0.21857  Biso   1.000  Hf
  Hf2      1.0000 0.10593  0.22649  0.60806  Biso   1.000  Hf
  Hf3      1.0000 0.40357  0.24762  0.15080  Biso   1.000  Hf
  Hf4      1.0000 0.39393  0.48356  0.68998  Biso   1.000  Hf
  O1       1.0000 0.97925  0.11898  0.36939  Biso   1.000  O
  O2       1.0000 0.04683  0.06128  0.86329  Biso   1.000  O
  O3       1.0000 0.49090  0.38112  0.40792  Biso   1.000  O
  O4       1.0000 0.52092  0.35000  0.89734  Biso   1.000  O
  O5       1.0000 0.23868  0.11388  0.38730  Biso   1.000  O
  O6       1.0000 0.28383  0.18655  0.83404  Biso   1.000  O
  O7       1.0000 0.29379  0.42941  0.03425  Biso   1.000  O
  O8       1.0000 0.22922  0.38895  0.52488  Biso   1.000  O
  Hf5      1.0000 0.15182  0.53402  0.26248  Biso   1.000  Hf
  Hf6      1.0000 0.11077  0.72780  0.73776  Biso   1.000  Hf
  Hf7      1.0000 0.36840  0.77623  0.27781  Biso   1.000  Hf
  Hf8      1.0000 0.35121  0.01837  0.69318  Biso   1.000  Hf
  O9       1.0000 0.00268  0.63259  0.44961  Biso   1.000  O
  O10      1.0000 0.03513  0.54895  0.92074  Biso   1.000  O
  O11      1.0000 0.48666  0.88966  0.52422  Biso   1.000  O
  O12      1.0000 0.53231  0.84107  0.04587  Biso   1.000  O
  O13      1.0000 0.26208  0.62840  0.53679  Biso   1.000  O
  O14      1.0000 0.24201  0.68628  0.04043  Biso   1.000  O
  O15      1.0000 0.28053  0.92894  0.03617  Biso   1.000  O
  O16      1.0000 0.23671  0.86754  0.52556  Biso   1.000  O
  Hf9      1.0000 0.62296  0.99612  0.22253  Biso   1.000  Hf
  Hf10     1.0000 0.60955  0.22833  0.67757  Biso   1.000  Hf
  Hf11     1.0000 0.83526  0.26364  0.21816  Biso   1.000  Hf
  Hf12     1.0000 0.89083  0.47465  0.68285  Biso   1.000  Hf
  O17      1.0000 0.49561  0.12920  0.43710  Biso   1.000  O
  O18      1.0000 0.49409  0.09085  0.94673  Biso   1.000  O
  O19      1.0000 0.99082  0.38533  0.38437  Biso   1.000  O
  O20      1.0000 0.93731  0.28819  0.83595  Biso   1.000  O
  O21      1.0000 0.74159  0.10746  0.49818  Biso   1.000  O
  O22      1.0000 0.71383  0.16532  0.00624  Biso   1.000  O
  O23      1.0000 0.77229  0.43406  0.01245  Biso   1.000  O
  O24      1.0000 0.73671  0.36420  0.49229  Biso   1.000  O
  Hf13     1.0000 0.63754  0.51918  0.23307  Biso   1.000  Hf
  Hf14     1.0000 0.60284  0.74166  0.74238  Biso   1.000  Hf
  Hf15     1.0000 0.85560  0.76060  0.27110  Biso   1.000  Hf
  Hf16     1.0000 0.87992  0.99339  0.69708  Biso   1.000  Hf
  O25      1.0000 0.50577  0.63858  0.45387  Biso   1.000  O
  O26      1.0000 0.50838  0.58861  0.94476  Biso   1.000  O
  O27      1.0000 0.98817  0.87025  0.50531  Biso   1.000  O
  O28      1.0000 0.01353  0.81799  0.01876  Biso   1.000  O
  O29      1.0000 0.75358  0.60795  0.50911  Biso   1.000  O
  O30      1.0000 0.73961  0.68044  0.01705  Biso   1.000  O
  O31      1.0000 0.78812  0.93258  0.03937  Biso   1.000  O
  O32      1.0000 0.73942  0.86000  0.51521  Biso   1.000  O
  La1      1.0000 0.12338  0.27323  0.09552  Biso   1.000  La
