data_image0
_cell_length_a       10.1084
_cell_length_b       10.3681
_cell_length_c       5.25119
_cell_angle_alpha    90.7077
_cell_angle_beta     91.6397
_cell_angle_gamma    89.1094

_symmetry_space_group_name_H-M    "P 1"
_symmetry_int_tables_number       1

loop_
  _symmetry_equiv_pos_as_xyz
  'x, y, z'

loop_
  _atom_site_label
  _atom_site_occupancy
  _atom_site_fract_x
  _atom_site_fract_y
  _atom_site_fract_z
  _atom_site_thermal_displace_type
  _atom_site_B_iso_or_equiv
  _atom_site_type_symbol
  Hf1      1.0000 0.13443  0.01679  0.35512  Biso   1.000  Hf
  Hf2      1.0000 0.13747  0.22746  0.86514  Biso   1.000  Hf
  Hf3      1.0000 0.34112  0.25557  0.38020  Biso   1.000  Hf
  Hf4      1.0000 0.36564  0.48610  0.84149  Biso   1.000  Hf
  Hf5      1.0000 0.64228  0.01379  0.16370  Biso   1.000  Hf
  Hf6      1.0000 0.64375  0.23097  0.63600  Biso   1.000  Hf
  Hf7      1.0000 0.85929  0.27268  0.15056  Biso   1.000  Hf
  Hf8      1.0000 0.86946  0.48094  0.65364  Biso   1.000  Hf
  O1       1.0000 0.03168  0.16700  0.17969  Biso   1.000  O
  O2       1.0000 0.03348  0.08238  0.67824  Biso   1.000  O
  O3       1.0000 0.47791  0.44470  0.16442  Biso   1.000  O
  O4       1.0000 0.47419  0.34189  0.63325  Biso   1.000  O
  O5       1.0000 0.26975  0.12053  0.61600  Biso   1.000  O
  O6       1.0000 0.26687  0.11251  0.11256  Biso   1.000  O
  O7       1.0000 0.22220  0.37457  0.61494  Biso   1.000  O
  O8       1.0000 0.22867  0.37288  0.11255  Biso   1.000  O
  O9       1.0000 0.51965  0.11783  0.40181  Biso   1.000  O
  O10      1.0000 0.52587  0.08380  0.86417  Biso   1.000  O
  O11      1.0000 0.97005  0.41629  0.33003  Biso   1.000  O
  O12      1.0000 0.97071  0.33301  0.83444  Biso   1.000  O
  O13      1.0000 0.77675  0.12508  0.89742  Biso   1.000  O
  O14      1.0000 0.77923  0.12608  0.39986  Biso   1.000  O
  O15      1.0000 0.73994  0.39041  0.89969  Biso   1.000  O
  O16      1.0000 0.73059  0.38024  0.40837  Biso   1.000  O
  Hf9      1.0000 0.14052  0.51921  0.34302  Biso   1.000  Hf
  Hf10     1.0000 0.14074  0.72881  0.84353  Biso   1.000  Hf
  Hf11     1.0000 0.36496  0.76938  0.34578  Biso   1.000  Hf
  Hf12     1.0000 0.36083  0.97145  0.85891  Biso   1.000  Hf
  Hf13     1.0000 0.65281  0.53354  0.14488  Biso   1.000  Hf
  Hf14     1.0000 0.64311  0.73231  0.65157  Biso   1.000  Hf
  Hf15     1.0000 0.86732  0.77193  0.15747  Biso   1.000  Hf
  Hf16     1.0000 0.86368  0.98069  0.66324  Biso   1.000  Hf
  O17      1.0000 0.03821  0.66586  0.16806  Biso   1.000  O
  O18      1.0000 0.03982  0.58375  0.66868  Biso   1.000  O
  O19      1.0000 0.47268  0.90151  0.15851  Biso   1.000  O
  O20      1.0000 0.47063  0.83756  0.66201  Biso   1.000  O
  O21      1.0000 0.28019  0.62356  0.58556  Biso   1.000  O
  O22      1.0000 0.27729  0.62287  0.08586  Biso   1.000  O
  O23      1.0000 0.22499  0.87100  0.59791  Biso   1.000  O
  O24      1.0000 0.22543  0.87084  0.10019  Biso   1.000  O
  O25      1.0000 0.54112  0.67153  0.32711  Biso   1.000  O
  O26      1.0000 0.53796  0.59003  0.81863  Biso   1.000  O
  O27      1.0000 0.96688  0.91695  0.33493  Biso   1.000  O
  O28      1.0000 0.97003  0.83502  0.83575  Biso   1.000  O
  O29      1.0000 0.78281  0.63219  0.90093  Biso   1.000  O
  O30      1.0000 0.78488  0.62998  0.40520  Biso   1.000  O
  O31      1.0000 0.72906  0.87683  0.91257  Biso   1.000  O
  O32      1.0000 0.73012  0.87483  0.41481  Biso   1.000  O
  As1      1.0000 0.52183  0.26516  0.07223  Biso   1.000  As
