data_image0
_cell_length_a       10.0215
_cell_length_b       10.2475
_cell_length_c       10.4366
_cell_angle_alpha    89.8099
_cell_angle_beta     90.4411
_cell_angle_gamma    89.8379

_symmetry_space_group_name_H-M    "P 1"
_symmetry_int_tables_number       1

loop_
  _symmetry_equiv_pos_as_xyz
  'x, y, z'

loop_
  _atom_site_label
  _atom_site_occupancy
  _atom_site_fract_x
  _atom_site_fract_y
  _atom_site_fract_z
  _atom_site_thermal_displace_type
  _atom_site_B_iso_or_equiv
  _atom_site_type_symbol
  Au1      1.0000 0.12495  0.01620  0.19102  Biso   1.000  Au
  Hf1      1.0000 0.13887  0.23442  0.42170  Biso   1.000  Hf
  Hf2      1.0000 0.35978  0.27045  0.16608  Biso   1.000  Hf
  Hf3      1.0000 0.36095  0.47978  0.42026  Biso   1.000  Hf
  Hf4      1.0000 0.64016  0.02149  0.07814  Biso   1.000  Hf
  Hf5      1.0000 0.63665  0.23003  0.32887  Biso   1.000  Hf
  Hf6      1.0000 0.86454  0.26833  0.08237  Biso   1.000  Hf
  Hf7      1.0000 0.85996  0.47957  0.32924  Biso   1.000  Hf
  O1       1.0000 0.04355  0.16493  0.09224  Biso   1.000  O
  O2       1.0000 0.02362  0.08416  0.36031  Biso   1.000  O
  O3       1.0000 0.46700  0.41684  0.08429  Biso   1.000  O
  O4       1.0000 0.46318  0.33055  0.33575  Biso   1.000  O
  O5       1.0000 0.27128  0.12073  0.28676  Biso   1.000  O
  O6       1.0000 0.29649  0.14051  0.02833  Biso   1.000  O
  O7       1.0000 0.22312  0.37433  0.29403  Biso   1.000  O
  O8       1.0000 0.22135  0.37992  0.04419  Biso   1.000  O
  O9       1.0000 0.53582  0.16838  0.16369  Biso   1.000  O
  O10      1.0000 0.53260  0.08178  0.41367  Biso   1.000  O
  O11      1.0000 0.96535  0.41820  0.16568  Biso   1.000  O
  O12      1.0000 0.96496  0.33516  0.41750  Biso   1.000  O
  O13      1.0000 0.77323  0.12409  0.45832  Biso   1.000  O
  O14      1.0000 0.77720  0.12619  0.20841  Biso   1.000  O
  O15      1.0000 0.72251  0.37445  0.45594  Biso   1.000  O
  O16      1.0000 0.72402  0.37507  0.20602  Biso   1.000  O
  Hf8      1.0000 0.13824  0.02083  0.66781  Biso   1.000  Hf
  Hf9      1.0000 0.14462  0.22492  0.92122  Biso   1.000  Hf
  Hf10     1.0000 0.36173  0.27115  0.67053  Biso   1.000  Hf
  Hf11     1.0000 0.36136  0.47841  0.92080  Biso   1.000  Hf
  Hf12     1.0000 0.63705  0.02136  0.58083  Biso   1.000  Hf
  Hf13     1.0000 0.64021  0.22910  0.82988  Biso   1.000  Hf
  Hf14     1.0000 0.86045  0.27164  0.58060  Biso   1.000  Hf
  Hf15     1.0000 0.86432  0.47677  0.83154  Biso   1.000  Hf
  O17      1.0000 0.03608  0.17311  0.58937  Biso   1.000  O
  O18      1.0000 0.03670  0.08041  0.83551  Biso   1.000  O
  O19      1.0000 0.46592  0.41813  0.58457  Biso   1.000  O
  O20      1.0000 0.46767  0.33307  0.83398  Biso   1.000  O
  O21      1.0000 0.27677  0.12182  0.78730  Biso   1.000  O
  O22      1.0000 0.27723  0.12788  0.53908  Biso   1.000  O
  O23      1.0000 0.22477  0.37223  0.79475  Biso   1.000  O
  O24      1.0000 0.22294  0.37752  0.54475  Biso   1.000  O
  O25      1.0000 0.53460  0.16835  0.66400  Biso   1.000  O
  O26      1.0000 0.53942  0.08005  0.91158  Biso   1.000  O
  O27      1.0000 0.96628  0.41693  0.66759  Biso   1.000  O
  O28      1.0000 0.96878  0.32889  0.92029  Biso   1.000  O
  O29      1.0000 0.78036  0.12347  0.95719  Biso   1.000  O
  O30      1.0000 0.77709  0.12655  0.70668  Biso   1.000  O
  O31      1.0000 0.72604  0.37250  0.95731  Biso   1.000  O
  O32      1.0000 0.72451  0.37633  0.70651  Biso   1.000  O
  Hf16     1.0000 0.13867  0.52169  0.17042  Biso   1.000  Hf
  Hf17     1.0000 0.13547  0.72716  0.42154  Biso   1.000  Hf
  Hf18     1.0000 0.36098  0.77222  0.16616  Biso   1.000  Hf
  Hf19     1.0000 0.36116  0.97899  0.41983  Biso   1.000  Hf
  Hf20     1.0000 0.63921  0.51997  0.07813  Biso   1.000  Hf
  Hf21     1.0000 0.63659  0.72808  0.32756  Biso   1.000  Hf
  Hf22     1.0000 0.86126  0.76891  0.07707  Biso   1.000  Hf
  Hf23     1.0000 0.85318  0.97847  0.33426  Biso   1.000  Hf
  O33      1.0000 0.03624  0.67126  0.08689  Biso   1.000  O
  O34      1.0000 0.03339  0.58130  0.33592  Biso   1.000  O
  O35      1.0000 0.46988  0.91728  0.08404  Biso   1.000  O
  O36      1.0000 0.46201  0.83176  0.33372  Biso   1.000  O
  O37      1.0000 0.27518  0.62649  0.29410  Biso   1.000  O
  O38      1.0000 0.27752  0.62502  0.04393  Biso   1.000  O
  O39      1.0000 0.21761  0.87319  0.29018  Biso   1.000  O
  O40      1.0000 0.23161  0.87282  0.03708  Biso   1.000  O
  O41      1.0000 0.53361  0.66689  0.16324  Biso   1.000  O
  O42      1.0000 0.53338  0.58204  0.41349  Biso   1.000  O
  O43      1.0000 0.95568  0.92404  0.16252  Biso   1.000  O
  O44      1.0000 0.96206  0.83002  0.41309  Biso   1.000  O
  O45      1.0000 0.77524  0.62418  0.45560  Biso   1.000  O
  O46      1.0000 0.77567  0.62594  0.20523  Biso   1.000  O
  O47      1.0000 0.71951  0.87346  0.45620  Biso   1.000  O
  O48      1.0000 0.72409  0.87492  0.20564  Biso   1.000  O
  Hf24     1.0000 0.13886  0.52066  0.67268  Biso   1.000  Hf
  Hf25     1.0000 0.14103  0.73111  0.92014  Biso   1.000  Hf
  Hf26     1.0000 0.36086  0.77092  0.67014  Biso   1.000  Hf
  Hf27     1.0000 0.36205  0.98057  0.92012  Biso   1.000  Hf
  Hf28     1.0000 0.63884  0.52086  0.57946  Biso   1.000  Hf
  Hf29     1.0000 0.63897  0.72907  0.82836  Biso   1.000  Hf
  Hf30     1.0000 0.85985  0.77033  0.57996  Biso   1.000  Hf
  Hf31     1.0000 0.86301  0.97956  0.82958  Biso   1.000  Hf
  O49      1.0000 0.03325  0.66729  0.58626  Biso   1.000  O
  O50      1.0000 0.03618  0.58026  0.83772  Biso   1.000  O
  O51      1.0000 0.46465  0.91779  0.58417  Biso   1.000  O
  O52      1.0000 0.46690  0.83280  0.83293  Biso   1.000  O
  O53      1.0000 0.27741  0.62361  0.79383  Biso   1.000  O
  O54      1.0000 0.27527  0.62564  0.54436  Biso   1.000  O
  O55      1.0000 0.22308  0.87311  0.79054  Biso   1.000  O
  O56      1.0000 0.22283  0.87641  0.54095  Biso   1.000  O
  O57      1.0000 0.53450  0.66772  0.66341  Biso   1.000  O
  O58      1.0000 0.53481  0.58224  0.91398  Biso   1.000  O
  O59      1.0000 0.96450  0.91885  0.66250  Biso   1.000  O
  O60      1.0000 0.96593  0.83047  0.91330  Biso   1.000  O
  O61      1.0000 0.77799  0.62271  0.95613  Biso   1.000  O
  O62      1.0000 0.77758  0.62547  0.70658  Biso   1.000  O
  O63      1.0000 0.72451  0.87323  0.95502  Biso   1.000  O
  O64      1.0000 0.72366  0.87623  0.70555  Biso   1.000  O
