data_image0
_cell_length_a       10.0625
_cell_length_b       10.2589
_cell_length_c       10.5001
_cell_angle_alpha    89.8471
_cell_angle_beta     90.39
_cell_angle_gamma    89.9175

_symmetry_space_group_name_H-M    "P 1"
_symmetry_int_tables_number       1

loop_
  _symmetry_equiv_pos_as_xyz
  'x, y, z'

loop_
  _atom_site_label
  _atom_site_occupancy
  _atom_site_fract_x
  _atom_site_fract_y
  _atom_site_fract_z
  _atom_site_thermal_displace_type
  _atom_site_B_iso_or_equiv
  _atom_site_type_symbol
  Hf1      1.0000 0.13670  0.01911  0.17208  Biso   1.000  Hf
  Hf2      1.0000 0.13534  0.22749  0.42619  Biso   1.000  Hf
  Hf3      1.0000 0.34610  0.26597  0.18440  Biso   1.000  Hf
  Hf4      1.0000 0.36329  0.47880  0.42119  Biso   1.000  Hf
  Hf5      1.0000 0.63911  0.02029  0.07362  Biso   1.000  Hf
  Hf6      1.0000 0.63833  0.22475  0.33098  Biso   1.000  Hf
  Hf7      1.0000 0.86368  0.27125  0.07700  Biso   1.000  Hf
  Hf8      1.0000 0.86275  0.47949  0.32973  Biso   1.000  Hf
  O1       1.0000 0.03466  0.16513  0.08374  Biso   1.000  O
  O2       1.0000 0.02995  0.08579  0.33320  Biso   1.000  O
  O3       1.0000 0.44801  0.44712  0.10646  Biso   1.000  O
  O4       1.0000 0.46602  0.33188  0.33345  Biso   1.000  O
  O5       1.0000 0.26828  0.12399  0.30088  Biso   1.000  O
  O6       1.0000 0.27645  0.12255  0.04744  Biso   1.000  O
  O7       1.0000 0.21918  0.37452  0.29966  Biso   1.000  O
  O8       1.0000 0.22361  0.37383  0.04706  Biso   1.000  O
  O9       1.0000 0.51328  0.12889  0.19685  Biso   1.000  O
  O10      1.0000 0.53088  0.08856  0.42852  Biso   1.000  O
  O11      1.0000 0.96833  0.41444  0.16818  Biso   1.000  O
  O12      1.0000 0.96703  0.33589  0.41923  Biso   1.000  O
  O13      1.0000 0.77582  0.12332  0.45421  Biso   1.000  O
  O14      1.0000 0.77369  0.12829  0.20419  Biso   1.000  O
  O15      1.0000 0.72403  0.37298  0.45610  Biso   1.000  O
  O16      1.0000 0.72668  0.38122  0.20996  Biso   1.000  O
  Hf9      1.0000 0.14040  0.01995  0.67289  Biso   1.000  Hf
  Hf10     1.0000 0.14105  0.22749  0.92201  Biso   1.000  Hf
  Hf11     1.0000 0.36233  0.27149  0.67229  Biso   1.000  Hf
  Hf12     1.0000 0.36074  0.48207  0.92358  Biso   1.000  Hf
  Hf13     1.0000 0.64010  0.01932  0.58012  Biso   1.000  Hf
  Hf14     1.0000 0.64388  0.22580  0.82017  Biso   1.000  Hf
  Hf15     1.0000 0.86181  0.27144  0.57850  Biso   1.000  Hf
  Hf16     1.0000 0.86692  0.48093  0.82701  Biso   1.000  Hf
  O17      1.0000 0.03210  0.16336  0.58453  Biso   1.000  O
  O18      1.0000 0.03679  0.08252  0.83328  Biso   1.000  O
  O19      1.0000 0.46925  0.41366  0.58055  Biso   1.000  O
  O20      1.0000 0.47139  0.34075  0.82771  Biso   1.000  O
  O21      1.0000 0.27897  0.12384  0.79571  Biso   1.000  O
  O22      1.0000 0.27562  0.12496  0.54752  Biso   1.000  O
  O23      1.0000 0.22629  0.37332  0.79662  Biso   1.000  O
  O24      1.0000 0.22549  0.37532  0.54664  Biso   1.000  O
  O25      1.0000 0.53392  0.16445  0.66691  Biso   1.000  O
  O26      1.0000 0.53799  0.06938  0.90254  Biso   1.000  O
  O27      1.0000 0.96998  0.41421  0.66661  Biso   1.000  O
  O28      1.0000 0.97312  0.33458  0.91577  Biso   1.000  O
  O29      1.0000 0.78626  0.12117  0.94880  Biso   1.000  O
  O30      1.0000 0.77965  0.12320  0.70110  Biso   1.000  O
  O31      1.0000 0.74081  0.38452  0.95325  Biso   1.000  O
  O32      1.0000 0.72734  0.37485  0.70409  Biso   1.000  O
  Hf17     1.0000 0.13858  0.52199  0.17115  Biso   1.000  Hf
  Hf18     1.0000 0.13961  0.72875  0.42125  Biso   1.000  Hf
  Hf19     1.0000 0.36182  0.77306  0.17207  Biso   1.000  Hf
  Hf20     1.0000 0.36282  0.97851  0.42481  Biso   1.000  Hf
  Hf21     1.0000 0.64112  0.53080  0.08176  Biso   1.000  Hf
  Hf22     1.0000 0.64002  0.73199  0.32944  Biso   1.000  Hf
  Hf23     1.0000 0.86203  0.77232  0.07869  Biso   1.000  Hf
  Hf24     1.0000 0.86117  0.97917  0.32841  Biso   1.000  Hf
  O33      1.0000 0.03269  0.66449  0.08249  Biso   1.000  O
  O34      1.0000 0.03427  0.58584  0.33215  Biso   1.000  O
  O35      1.0000 0.46843  0.91080  0.07796  Biso   1.000  O
  O36      1.0000 0.46830  0.83758  0.33385  Biso   1.000  O
  O37      1.0000 0.27704  0.62439  0.29436  Biso   1.000  O
  O38      1.0000 0.27463  0.62853  0.04379  Biso   1.000  O
  O39      1.0000 0.22501  0.87458  0.29618  Biso   1.000  O
  O40      1.0000 0.22284  0.87564  0.04651  Biso   1.000  O
  O41      1.0000 0.53817  0.67539  0.16611  Biso   1.000  O
  O42      1.0000 0.53387  0.58543  0.41510  Biso   1.000  O
  O43      1.0000 0.96697  0.91552  0.16739  Biso   1.000  O
  O44      1.0000 0.96746  0.83441  0.41654  Biso   1.000  O
  O45      1.0000 0.77699  0.62381  0.45506  Biso   1.000  O
  O46      1.0000 0.77865  0.62920  0.20596  Biso   1.000  O
  O47      1.0000 0.72511  0.87453  0.45613  Biso   1.000  O
  O48      1.0000 0.72530  0.87790  0.20533  Biso   1.000  O
  Hf25     1.0000 0.14109  0.51991  0.67127  Biso   1.000  Hf
  Hf26     1.0000 0.13952  0.72985  0.92189  Biso   1.000  Hf
  Hf27     1.0000 0.36293  0.76858  0.67175  Biso   1.000  Hf
  Hf28     1.0000 0.36239  0.97600  0.92045  Biso   1.000  Hf
  Hf29     1.0000 0.63995  0.52034  0.57725  Biso   1.000  Hf
  Hf30     1.0000 0.64003  0.72813  0.82784  Biso   1.000  Hf
  Hf31     1.0000 0.86371  0.77026  0.57867  Biso   1.000  Hf
  Hf32     1.0000 0.86437  0.97736  0.82837  Biso   1.000  Hf
  O49      1.0000 0.03485  0.66386  0.58233  Biso   1.000  O
  O50      1.0000 0.03636  0.58608  0.83217  Biso   1.000  O
  O51      1.0000 0.46902  0.91214  0.58484  Biso   1.000  O
  O52      1.0000 0.46607  0.82831  0.83340  Biso   1.000  O
  O53      1.0000 0.27811  0.62224  0.79551  Biso   1.000  O
  O54      1.0000 0.27735  0.62444  0.54456  Biso   1.000  O
  O55      1.0000 0.22522  0.87241  0.79513  Biso   1.000  O
  O56      1.0000 0.22569  0.87501  0.54550  Biso   1.000  O
  O57      1.0000 0.53407  0.66244  0.66674  Biso   1.000  O
  O58      1.0000 0.53521  0.58242  0.91832  Biso   1.000  O
  O59      1.0000 0.96987  0.91317  0.66638  Biso   1.000  O
  O60      1.0000 0.96899  0.83541  0.91838  Biso   1.000  O
  O61      1.0000 0.77739  0.62842  0.95474  Biso   1.000  O
  O62      1.0000 0.77775  0.62492  0.70414  Biso   1.000  O
  O63      1.0000 0.72551  0.87365  0.95523  Biso   1.000  O
  O64      1.0000 0.72636  0.87351  0.70599  Biso   1.000  O
  Au1      1.0000 0.56069  0.27873  0.04942  Biso   1.000  Au
