data_image0
_cell_length_a       10.0723
_cell_length_b       10.2361
_cell_length_c       10.4575
_cell_angle_alpha    89.9733
_cell_angle_beta     89.9136
_cell_angle_gamma    90.044

_symmetry_space_group_name_H-M    "P 1"
_symmetry_int_tables_number       1

loop_
  _symmetry_equiv_pos_as_xyz
  'x, y, z'

loop_
  _atom_site_label
  _atom_site_occupancy
  _atom_site_fract_x
  _atom_site_fract_y
  _atom_site_fract_z
  _atom_site_thermal_displace_type
  _atom_site_B_iso_or_equiv
  _atom_site_type_symbol
  Ca1      1.0000 0.14074  0.01609  0.17056  Biso   1.000  Ca
  Hf1      1.0000 0.13956  0.02091  0.67230  Biso   1.000  Hf
  Hf2      1.0000 0.14011  0.52031  0.17204  Biso   1.000  Hf
  Hf3      1.0000 0.13951  0.52091  0.67232  Biso   1.000  Hf
  Hf4      1.0000 0.14034  0.22709  0.42142  Biso   1.000  Hf
  Hf5      1.0000 0.13915  0.22889  0.92388  Biso   1.000  Hf
  Hf6      1.0000 0.14176  0.72920  0.42173  Biso   1.000  Hf
  Hf7      1.0000 0.14108  0.72974  0.92260  Biso   1.000  Hf
  Hf8      1.0000 0.35801  0.26667  0.17199  Biso   1.000  Hf
  Hf9      1.0000 0.36024  0.27028  0.67232  Biso   1.000  Hf
  Hf10     1.0000 0.36149  0.77073  0.17176  Biso   1.000  Hf
  Hf11     1.0000 0.36077  0.77179  0.67197  Biso   1.000  Hf
  Hf12     1.0000 0.36083  0.47789  0.42133  Biso   1.000  Hf
  Hf13     1.0000 0.36012  0.47796  0.92286  Biso   1.000  Hf
  Hf14     1.0000 0.35953  0.97970  0.42045  Biso   1.000  Hf
  Hf15     1.0000 0.36061  0.98008  0.92291  Biso   1.000  Hf
  Hf16     1.0000 0.63940  0.02086  0.07885  Biso   1.000  Hf
  Hf17     1.0000 0.63877  0.02087  0.57761  Biso   1.000  Hf
  Hf18     1.0000 0.63742  0.51940  0.07784  Biso   1.000  Hf
  Hf19     1.0000 0.63852  0.52091  0.57732  Biso   1.000  Hf
  Hf20     1.0000 0.63872  0.22944  0.32780  Biso   1.000  Hf
  Hf21     1.0000 0.63864  0.22861  0.82795  Biso   1.000  Hf
  Hf22     1.0000 0.63946  0.73006  0.32745  Biso   1.000  Hf
  Hf23     1.0000 0.63782  0.72910  0.82768  Biso   1.000  Hf
  Hf24     1.0000 0.86097  0.27105  0.07627  Biso   1.000  Hf
  Hf25     1.0000 0.86044  0.27092  0.57739  Biso   1.000  Hf
  Hf26     1.0000 0.85863  0.77019  0.07810  Biso   1.000  Hf
  Hf27     1.0000 0.86126  0.77105  0.57801  Biso   1.000  Hf
  Hf28     1.0000 0.86047  0.47989  0.32765  Biso   1.000  Hf
  Hf29     1.0000 0.85961  0.47992  0.82703  Biso   1.000  Hf
  Hf30     1.0000 0.86213  0.97950  0.32730  Biso   1.000  Hf
  Hf31     1.0000 0.86039  0.97897  0.82858  Biso   1.000  Hf
  O1       1.0000 0.03080  0.17622  0.08099  Biso   1.000  O
  O2       1.0000 0.03343  0.16918  0.58916  Biso   1.000  O
  O3       1.0000 0.03234  0.66512  0.08407  Biso   1.000  O
  O4       1.0000 0.03320  0.66624  0.58599  Biso   1.000  O
  O5       1.0000 0.02537  0.08818  0.34715  Biso   1.000  O
  O6       1.0000 0.03255  0.08322  0.83588  Biso   1.000  O
  O7       1.0000 0.03250  0.58571  0.33462  Biso   1.000  O
  O8       1.0000 0.03221  0.58389  0.83421  Biso   1.000  O
  O9       1.0000 0.46691  0.41245  0.08298  Biso   1.000  O
  O10      1.0000 0.46800  0.41388  0.58314  Biso   1.000  O
  O11      1.0000 0.46958  0.91541  0.08409  Biso   1.000  O
  O12      1.0000 0.46794  0.91396  0.58265  Biso   1.000  O
  O13      1.0000 0.46900  0.33729  0.33300  Biso   1.000  O
  O14      1.0000 0.46752  0.33483  0.83294  Biso   1.000  O
  O15      1.0000 0.47191  0.83790  0.33246  Biso   1.000  O
  O16      1.0000 0.46809  0.83595  0.83207  Biso   1.000  O
  O17      1.0000 0.28348  0.12911  0.30409  Biso   1.000  O
  O18      1.0000 0.27480  0.12359  0.79393  Biso   1.000  O
  O19      1.0000 0.27720  0.62042  0.29545  Biso   1.000  O
  O20      1.0000 0.27582  0.62442  0.79621  Biso   1.000  O
  O21      1.0000 0.28580  0.13350  0.03751  Biso   1.000  O
  O22      1.0000 0.27526  0.12504  0.54778  Biso   1.000  O
  O23      1.0000 0.27548  0.62187  0.04698  Biso   1.000  O
  O24      1.0000 0.27633  0.62600  0.54592  Biso   1.000  O
  O25      1.0000 0.22264  0.37361  0.29550  Biso   1.000  O
  O26      1.0000 0.22441  0.37462  0.79557  Biso   1.000  O
  O27      1.0000 0.23195  0.86533  0.30109  Biso   1.000  O
  O28      1.0000 0.22365  0.87427  0.79369  Biso   1.000  O
  O29      1.0000 0.22198  0.37727  0.04601  Biso   1.000  O
  O30      1.0000 0.22466  0.37625  0.54605  Biso   1.000  O
  O31      1.0000 0.23616  0.86560  0.03811  Biso   1.000  O
  O32      1.0000 0.22359  0.87642  0.54679  Biso   1.000  O
  O33      1.0000 0.53322  0.16510  0.16663  Biso   1.000  O
  O34      1.0000 0.53218  0.16459  0.66597  Biso   1.000  O
  O35      1.0000 0.53218  0.66245  0.16739  Biso   1.000  O
  O36      1.0000 0.53169  0.66386  0.66671  Biso   1.000  O
  O37      1.0000 0.53312  0.08495  0.41636  Biso   1.000  O
  O38      1.0000 0.53525  0.08351  0.91500  Biso   1.000  O
  O39      1.0000 0.53172  0.58630  0.41722  Biso   1.000  O
  O40      1.0000 0.53053  0.58571  0.91703  Biso   1.000  O
  O41      1.0000 0.96554  0.41837  0.16461  Biso   1.000  O
  O42      1.0000 0.96650  0.41778  0.66336  Biso   1.000  O
  O43      1.0000 0.95444  0.90985  0.16880  Biso   1.000  O
  O44      1.0000 0.96643  0.91651  0.66531  Biso   1.000  O
  O45      1.0000 0.96786  0.33682  0.41586  Biso   1.000  O
  O46      1.0000 0.96574  0.33628  0.91145  Biso   1.000  O
  O47      1.0000 0.96903  0.83433  0.41683  Biso   1.000  O
  O48      1.0000 0.96769  0.83403  0.91529  Biso   1.000  O
  O49      1.0000 0.77673  0.12395  0.95421  Biso   1.000  O
  O50      1.0000 0.77329  0.12657  0.45608  Biso   1.000  O
  O51      1.0000 0.77353  0.62231  0.95287  Biso   1.000  O
  O52      1.0000 0.77606  0.62467  0.45418  Biso   1.000  O
  O53      1.0000 0.77567  0.12676  0.20503  Biso   1.000  O
  O54      1.0000 0.77578  0.12578  0.70487  Biso   1.000  O
  O55      1.0000 0.77562  0.62601  0.20397  Biso   1.000  O
  O56      1.0000 0.77496  0.62641  0.70333  Biso   1.000  O
  O57      1.0000 0.72226  0.37392  0.95278  Biso   1.000  O
  O58      1.0000 0.72420  0.37564  0.45354  Biso   1.000  O
  O59      1.0000 0.72414  0.87355  0.95362  Biso   1.000  O
  O60      1.0000 0.72589  0.87453  0.45474  Biso   1.000  O
  O61      1.0000 0.72357  0.37690  0.20444  Biso   1.000  O
  O62      1.0000 0.72407  0.37571  0.70305  Biso   1.000  O
  O63      1.0000 0.71589  0.87554  0.20390  Biso   1.000  O
  O64      1.0000 0.72415  0.87556  0.70425  Biso   1.000  O
