data_image0
_cell_length_a       10.0006
_cell_length_b       10.2342
_cell_length_c       10.4197
_cell_angle_alpha    89.7827
_cell_angle_beta     90.5846
_cell_angle_gamma    89.8903

_symmetry_space_group_name_H-M    "P 1"
_symmetry_int_tables_number       1

loop_
  _symmetry_equiv_pos_as_xyz
  'x, y, z'

loop_
  _atom_site_label
  _atom_site_occupancy
  _atom_site_fract_x
  _atom_site_fract_y
  _atom_site_fract_z
  _atom_site_thermal_displace_type
  _atom_site_B_iso_or_equiv
  _atom_site_type_symbol
  Cu1      1.0000 0.12066  0.01936  0.19931  Biso   1.000  Cu
  Hf1      1.0000 0.13819  0.23411  0.41881  Biso   1.000  Hf
  Hf2      1.0000 0.35852  0.26894  0.16642  Biso   1.000  Hf
  Hf3      1.0000 0.36013  0.48032  0.42030  Biso   1.000  Hf
  Hf4      1.0000 0.64053  0.02208  0.07774  Biso   1.000  Hf
  Hf5      1.0000 0.63626  0.22984  0.32878  Biso   1.000  Hf
  Hf6      1.0000 0.86724  0.26644  0.08412  Biso   1.000  Hf
  Hf7      1.0000 0.85943  0.48028  0.32936  Biso   1.000  Hf
  O1       1.0000 0.04679  0.16075  0.09834  Biso   1.000  O
  O2       1.0000 0.02934  0.07879  0.35738  Biso   1.000  O
  O3       1.0000 0.46681  0.41683  0.08553  Biso   1.000  O
  O4       1.0000 0.46153  0.32880  0.33729  Biso   1.000  O
  O5       1.0000 0.26162  0.11973  0.28316  Biso   1.000  O
  O6       1.0000 0.29830  0.13916  0.02861  Biso   1.000  O
  O7       1.0000 0.22308  0.37555  0.29408  Biso   1.000  O
  O8       1.0000 0.22113  0.37891  0.04475  Biso   1.000  O
  O9       1.0000 0.53538  0.16835  0.16350  Biso   1.000  O
  O10      1.0000 0.53096  0.08135  0.41199  Biso   1.000  O
  O11      1.0000 0.96541  0.41885  0.16525  Biso   1.000  O
  O12      1.0000 0.96315  0.33315  0.41538  Biso   1.000  O
  O13      1.0000 0.77296  0.12390  0.45748  Biso   1.000  O
  O14      1.0000 0.77736  0.12611  0.20845  Biso   1.000  O
  O15      1.0000 0.72147  0.37445  0.45656  Biso   1.000  O
  O16      1.0000 0.72416  0.37504  0.20661  Biso   1.000  O
  Hf8      1.0000 0.13860  0.02005  0.66707  Biso   1.000  Hf
  Hf9      1.0000 0.14544  0.22256  0.92389  Biso   1.000  Hf
  Hf10     1.0000 0.36116  0.27108  0.67049  Biso   1.000  Hf
  Hf11     1.0000 0.36155  0.47773  0.92118  Biso   1.000  Hf
  Hf12     1.0000 0.63533  0.02082  0.57956  Biso   1.000  Hf
  Hf13     1.0000 0.64059  0.22946  0.83004  Biso   1.000  Hf
  Hf14     1.0000 0.85873  0.27155  0.58007  Biso   1.000  Hf
  Hf15     1.0000 0.86491  0.47643  0.83309  Biso   1.000  Hf
  O17      1.0000 0.03337  0.16929  0.58451  Biso   1.000  O
  O18      1.0000 0.03625  0.08160  0.83362  Biso   1.000  O
  O19      1.0000 0.46473  0.41940  0.58537  Biso   1.000  O
  O20      1.0000 0.46782  0.33252  0.83438  Biso   1.000  O
  O21      1.0000 0.27682  0.12104  0.78704  Biso   1.000  O
  O22      1.0000 0.27649  0.12855  0.53786  Biso   1.000  O
  O23      1.0000 0.22438  0.37103  0.79561  Biso   1.000  O
  O24      1.0000 0.22166  0.37711  0.54444  Biso   1.000  O
  O25      1.0000 0.53459  0.16918  0.66300  Biso   1.000  O
  O26      1.0000 0.54027  0.07964  0.91092  Biso   1.000  O
  O27      1.0000 0.96699  0.41438  0.66863  Biso   1.000  O
  O28      1.0000 0.97024  0.32735  0.92203  Biso   1.000  O
  O29      1.0000 0.78164  0.12371  0.95721  Biso   1.000  O
  O30      1.0000 0.77674  0.12660  0.70606  Biso   1.000  O
  O31      1.0000 0.72726  0.37267  0.95815  Biso   1.000  O
  O32      1.0000 0.72438  0.37665  0.70697  Biso   1.000  O
  Hf16     1.0000 0.13907  0.52172  0.17010  Biso   1.000  Hf
  Hf17     1.0000 0.13509  0.72890  0.41986  Biso   1.000  Hf
  Hf18     1.0000 0.35785  0.77473  0.16555  Biso   1.000  Hf
  Hf19     1.0000 0.35706  0.98028  0.41668  Biso   1.000  Hf
  Hf20     1.0000 0.63961  0.52068  0.07896  Biso   1.000  Hf
  Hf21     1.0000 0.63554  0.72870  0.32700  Biso   1.000  Hf
  Hf22     1.0000 0.86530  0.77225  0.07861  Biso   1.000  Hf
  Hf23     1.0000 0.85565  0.97897  0.33418  Biso   1.000  Hf
  O33      1.0000 0.03755  0.67204  0.08745  Biso   1.000  O
  O34      1.0000 0.03359  0.58084  0.33615  Biso   1.000  O
  O35      1.0000 0.47122  0.91713  0.08411  Biso   1.000  O
  O36      1.0000 0.46024  0.83276  0.33339  Biso   1.000  O
  O37      1.0000 0.27457  0.62844  0.29361  Biso   1.000  O
  O38      1.0000 0.27782  0.62441  0.04359  Biso   1.000  O
  O39      1.0000 0.21390  0.87857  0.28704  Biso   1.000  O
  O40      1.0000 0.23187  0.87329  0.03589  Biso   1.000  O
  O41      1.0000 0.53297  0.66851  0.16242  Biso   1.000  O
  O42      1.0000 0.53321  0.58186  0.41262  Biso   1.000  O
  O43      1.0000 0.96648  0.92768  0.16829  Biso   1.000  O
  O44      1.0000 0.96032  0.82839  0.41394  Biso   1.000  O
  O45      1.0000 0.77459  0.62385  0.45610  Biso   1.000  O
  O46      1.0000 0.77606  0.62714  0.20583  Biso   1.000  O
  O47      1.0000 0.71867  0.87342  0.45575  Biso   1.000  O
  O48      1.0000 0.72838  0.87575  0.20495  Biso   1.000  O
  Hf24     1.0000 0.13918  0.52046  0.67266  Biso   1.000  Hf
  Hf25     1.0000 0.14268  0.73184  0.92014  Biso   1.000  Hf
  Hf26     1.0000 0.36127  0.77091  0.66914  Biso   1.000  Hf
  Hf27     1.0000 0.36186  0.97967  0.92042  Biso   1.000  Hf
  Hf28     1.0000 0.63855  0.52097  0.58013  Biso   1.000  Hf
  Hf29     1.0000 0.63971  0.72927  0.82943  Biso   1.000  Hf
  Hf30     1.0000 0.85918  0.76966  0.58025  Biso   1.000  Hf
  Hf31     1.0000 0.86238  0.97995  0.82894  Biso   1.000  Hf
  O49      1.0000 0.03319  0.66664  0.58617  Biso   1.000  O
  O50      1.0000 0.03666  0.57995  0.83831  Biso   1.000  O
  O51      1.0000 0.46249  0.91870  0.58299  Biso   1.000  O
  O52      1.0000 0.46716  0.83215  0.83298  Biso   1.000  O
  O53      1.0000 0.27827  0.62303  0.79342  Biso   1.000  O
  O54      1.0000 0.27513  0.62611  0.54360  Biso   1.000  O
  O55      1.0000 0.22305  0.87259  0.78914  Biso   1.000  O
  O56      1.0000 0.22155  0.87672  0.53962  Biso   1.000  O
  O57      1.0000 0.53551  0.66885  0.66276  Biso   1.000  O
  O58      1.0000 0.53611  0.58105  0.91336  Biso   1.000  O
  O59      1.0000 0.96458  0.91800  0.66276  Biso   1.000  O
  O60      1.0000 0.96737  0.83247  0.91442  Biso   1.000  O
  O61      1.0000 0.77998  0.62434  0.95809  Biso   1.000  O
  O62      1.0000 0.77820  0.62477  0.70796  Biso   1.000  O
  O63      1.0000 0.72591  0.87391  0.95537  Biso   1.000  O
  O64      1.0000 0.72307  0.87619  0.70546  Biso   1.000  O
