data_image0
_cell_length_a       10.0024
_cell_length_b       10.1595
_cell_length_c       5.22015
_cell_angle_alpha    90.1748
_cell_angle_beta     90.9671
_cell_angle_gamma    89.4501

_symmetry_space_group_name_H-M    "P 1"
_symmetry_int_tables_number       1

loop_
  _symmetry_equiv_pos_as_xyz
  'x, y, z'

loop_
  _atom_site_label
  _atom_site_occupancy
  _atom_site_fract_x
  _atom_site_fract_y
  _atom_site_fract_z
  _atom_site_thermal_displace_type
  _atom_site_B_iso_or_equiv
  _atom_site_type_symbol
  Ge1      1.0000 0.12036  0.01044  0.36928  Biso   1.000  Ge
  Hf1      1.0000 0.14273  0.22583  0.83028  Biso   1.000  Hf
  Hf2      1.0000 0.35858  0.27059  0.33132  Biso   1.000  Hf
  Hf3      1.0000 0.36065  0.47924  0.84240  Biso   1.000  Hf
  Hf4      1.0000 0.63739  0.02128  0.15538  Biso   1.000  Hf
  Hf5      1.0000 0.63864  0.22961  0.65750  Biso   1.000  Hf
  Hf6      1.0000 0.86959  0.26472  0.16808  Biso   1.000  Hf
  Hf7      1.0000 0.86319  0.47615  0.66664  Biso   1.000  Hf
  O1       1.0000 0.05137  0.14974  0.16958  Biso   1.000  O
  O2       1.0000 0.03257  0.08082  0.66000  Biso   1.000  O
  O3       1.0000 0.46640  0.41729  0.16741  Biso   1.000  O
  O4       1.0000 0.46746  0.33477  0.66448  Biso   1.000  O
  O5       1.0000 0.26495  0.11243  0.53451  Biso   1.000  O
  O6       1.0000 0.30389  0.15191  0.02556  Biso   1.000  O
  O7       1.0000 0.22498  0.37160  0.58936  Biso   1.000  O
  O8       1.0000 0.21943  0.38455  0.08741  Biso   1.000  O
  O9       1.0000 0.53489  0.16801  0.32650  Biso   1.000  O
  O10      1.0000 0.53778  0.07916  0.81835  Biso   1.000  O
  O11      1.0000 0.97144  0.40999  0.34734  Biso   1.000  O
  O12      1.0000 0.96972  0.33065  0.84883  Biso   1.000  O
  O13      1.0000 0.77935  0.12176  0.91583  Biso   1.000  O
  O14      1.0000 0.77819  0.12480  0.41202  Biso   1.000  O
  O15      1.0000 0.72761  0.37086  0.91906  Biso   1.000  O
  O16      1.0000 0.72779  0.37402  0.41490  Biso   1.000  O
  Hf8      1.0000 0.13986  0.52259  0.34509  Biso   1.000  Hf
  Hf9      1.0000 0.13553  0.73162  0.84643  Biso   1.000  Hf
  Hf10     1.0000 0.35785  0.77775  0.34433  Biso   1.000  Hf
  Hf11     1.0000 0.35823  0.98371  0.84065  Biso   1.000  Hf
  Hf12     1.0000 0.63903  0.51959  0.16026  Biso   1.000  Hf
  Hf13     1.0000 0.63629  0.72724  0.65798  Biso   1.000  Hf
  Hf14     1.0000 0.85916  0.76933  0.16253  Biso   1.000  Hf
  Hf15     1.0000 0.85633  0.97789  0.66496  Biso   1.000  Hf
  O17      1.0000 0.03263  0.66552  0.17175  Biso   1.000  O
  O18      1.0000 0.03388  0.58480  0.67490  Biso   1.000  O
  O19      1.0000 0.46533  0.91629  0.16109  Biso   1.000  O
  O20      1.0000 0.46359  0.83511  0.66650  Biso   1.000  O
  O21      1.0000 0.27558  0.62578  0.58924  Biso   1.000  O
  O22      1.0000 0.27710  0.63580  0.08779  Biso   1.000  O
  O23      1.0000 0.21406  0.87552  0.59348  Biso   1.000  O
  O24      1.0000 0.21399  0.89957  0.10897  Biso   1.000  O
  O25      1.0000 0.53154  0.66738  0.33038  Biso   1.000  O
  O26      1.0000 0.53363  0.58309  0.83146  Biso   1.000  O
  O27      1.0000 0.96678  0.91412  0.34097  Biso   1.000  O
  O28      1.0000 0.96269  0.83417  0.84086  Biso   1.000  O
  O29      1.0000 0.77698  0.62165  0.91536  Biso   1.000  O
  O30      1.0000 0.77666  0.62427  0.41591  Biso   1.000  O
  O31      1.0000 0.72058  0.87132  0.91362  Biso   1.000  O
  O32      1.0000 0.72379  0.87565  0.41347  Biso   1.000  O
