data_image0
_cell_length_a       10.0079
_cell_length_b       5.14847
_cell_length_c       10.4259
_cell_angle_alpha    89.4081
_cell_angle_beta     91.3067
_cell_angle_gamma    89.9273

_symmetry_space_group_name_H-M    "P 1"
_symmetry_int_tables_number       1

loop_
  _symmetry_equiv_pos_as_xyz
  'x, y, z'

loop_
  _atom_site_label
  _atom_site_occupancy
  _atom_site_fract_x
  _atom_site_fract_y
  _atom_site_fract_z
  _atom_site_thermal_displace_type
  _atom_site_B_iso_or_equiv
  _atom_site_type_symbol
  Hg1      1.0000 0.12759  0.03831  0.18059  Biso   1.000  Hg
  Hf1      1.0000 0.13136  0.46018  0.42259  Biso   1.000  Hf
  Hf2      1.0000 0.36127  0.53910  0.15900  Biso   1.000  Hf
  Hf3      1.0000 0.36005  0.95946  0.41752  Biso   1.000  Hf
  Hf4      1.0000 0.64123  0.04062  0.07909  Biso   1.000  Hf
  Hf5      1.0000 0.63600  0.46131  0.32929  Biso   1.000  Hf
  Hf6      1.0000 0.86108  0.53398  0.08015  Biso   1.000  Hf
  Hf7      1.0000 0.85632  0.96632  0.34118  Biso   1.000  Hf
  O1       1.0000 0.04555  0.34974  0.09107  Biso   1.000  O
  O2       1.0000 0.02634  0.14590  0.37944  Biso   1.000  O
  O3       1.0000 0.47208  0.83372  0.08389  Biso   1.000  O
  O4       1.0000 0.45878  0.65814  0.33392  Biso   1.000  O
  O5       1.0000 0.27207  0.25443  0.28970  Biso   1.000  O
  O6       1.0000 0.29168  0.25918  0.03058  Biso   1.000  O
  O7       1.0000 0.21919  0.74637  0.28411  Biso   1.000  O
  O8       1.0000 0.23546  0.73661  0.03002  Biso   1.000  O
  O9       1.0000 0.53814  0.33780  0.16134  Biso   1.000  O
  O10      1.0000 0.53195  0.16251  0.41136  Biso   1.000  O
  O11      1.0000 0.94966  0.85741  0.16352  Biso   1.000  O
  O12      1.0000 0.95562  0.64815  0.41214  Biso   1.000  O
  O13      1.0000 0.77023  0.25359  0.46154  Biso   1.000  O
  O14      1.0000 0.77850  0.25472  0.21097  Biso   1.000  O
  O15      1.0000 0.71861  0.75328  0.45835  Biso   1.000  O
  O16      1.0000 0.72669  0.74947  0.20687  Biso   1.000  O
  Hf8      1.0000 0.13697  0.04241  0.66574  Biso   1.000  Hf
  Hf9      1.0000 0.14814  0.45369  0.91499  Biso   1.000  Hf
  Hf10     1.0000 0.35999  0.54132  0.66677  Biso   1.000  Hf
  Hf11     1.0000 0.36226  0.95666  0.91716  Biso   1.000  Hf
  Hf12     1.0000 0.63667  0.04250  0.58214  Biso   1.000  Hf
  Hf13     1.0000 0.63928  0.45786  0.82925  Biso   1.000  Hf
  Hf14     1.0000 0.85981  0.54177  0.58401  Biso   1.000  Hf
  Hf15     1.0000 0.86601  0.95667  0.83231  Biso   1.000  Hf
  O17      1.0000 0.04096  0.37034  0.60219  Biso   1.000  O
  O18      1.0000 0.04068  0.14738  0.83979  Biso   1.000  O
  O19      1.0000 0.46394  0.83800  0.58329  Biso   1.000  O
  O20      1.0000 0.46718  0.66174  0.83189  Biso   1.000  O
  O21      1.0000 0.27826  0.24370  0.78578  Biso   1.000  O
  O22      1.0000 0.27591  0.25276  0.53855  Biso   1.000  O
  O23      1.0000 0.22351  0.74429  0.78575  Biso   1.000  O
  O24      1.0000 0.22185  0.75588  0.53761  Biso   1.000  O
  O25      1.0000 0.53470  0.33874  0.66164  Biso   1.000  O
  O26      1.0000 0.54026  0.15733  0.91087  Biso   1.000  O
  O27      1.0000 0.95965  0.85375  0.66006  Biso   1.000  O
  O28      1.0000 0.96825  0.65022  0.91747  Biso   1.000  O
  O29      1.0000 0.78175  0.24448  0.95911  Biso   1.000  O
  O30      1.0000 0.77745  0.25248  0.70982  Biso   1.000  O
  O31      1.0000 0.72677  0.74418  0.95764  Biso   1.000  O
  O32      1.0000 0.72431  0.75154  0.70794  Biso   1.000  O
