data_image0
_cell_length_a       10.0272
_cell_length_b       10.2865
_cell_length_c       5.21759
_cell_angle_alpha    89.4403
_cell_angle_beta     91.1609
_cell_angle_gamma    89.9171

_symmetry_space_group_name_H-M    "P 1"
_symmetry_int_tables_number       1

loop_
  _symmetry_equiv_pos_as_xyz
  'x, y, z'

loop_
  _atom_site_label
  _atom_site_occupancy
  _atom_site_fract_x
  _atom_site_fract_y
  _atom_site_fract_z
  _atom_site_thermal_displace_type
  _atom_site_B_iso_or_equiv
  _atom_site_type_symbol
  Hg1      1.0000 0.12637  0.01833  0.36095  Biso   1.000  Hg
  Hf1      1.0000 0.14026  0.22870  0.84312  Biso   1.000  Hf
  Hf2      1.0000 0.36024  0.27092  0.32973  Biso   1.000  Hf
  Hf3      1.0000 0.36011  0.47856  0.83738  Biso   1.000  Hf
  Hf4      1.0000 0.63908  0.02146  0.16391  Biso   1.000  Hf
  Hf5      1.0000 0.63701  0.22983  0.66134  Biso   1.000  Hf
  Hf6      1.0000 0.85981  0.27077  0.16916  Biso   1.000  Hf
  Hf7      1.0000 0.86232  0.47789  0.66327  Biso   1.000  Hf
  O1       1.0000 0.04888  0.18379  0.21144  Biso   1.000  O
  O2       1.0000 0.02527  0.07890  0.75178  Biso   1.000  O
  O3       1.0000 0.46700  0.41691  0.16539  Biso   1.000  O
  O4       1.0000 0.46474  0.33138  0.66670  Biso   1.000  O
  O5       1.0000 0.27270  0.12014  0.56708  Biso   1.000  O
  O6       1.0000 0.29503  0.13935  0.04882  Biso   1.000  O
  O7       1.0000 0.22382  0.37201  0.58572  Biso   1.000  O
  O8       1.0000 0.22129  0.37934  0.08653  Biso   1.000  O
  O9       1.0000 0.53573  0.16866  0.32674  Biso   1.000  O
  O10      1.0000 0.53845  0.07881  0.82283  Biso   1.000  O
  O11      1.0000 0.96281  0.42074  0.33102  Biso   1.000  O
  O12      1.0000 0.96474  0.33095  0.84422  Biso   1.000  O
  O13      1.0000 0.77478  0.12602  0.92631  Biso   1.000  O
  O14      1.0000 0.77780  0.12789  0.42516  Biso   1.000  O
  O15      1.0000 0.72361  0.37439  0.91548  Biso   1.000  O
  O16      1.0000 0.72382  0.37553  0.41416  Biso   1.000  O
  Hf8      1.0000 0.13867  0.51949  0.34108  Biso   1.000  Hf
  Hf9      1.0000 0.13713  0.72771  0.83729  Biso   1.000  Hf
  Hf10     1.0000 0.36173  0.76931  0.32388  Biso   1.000  Hf
  Hf11     1.0000 0.36322  0.97892  0.83562  Biso   1.000  Hf
  Hf12     1.0000 0.63881  0.52022  0.15634  Biso   1.000  Hf
  Hf13     1.0000 0.63786  0.72950  0.65368  Biso   1.000  Hf
  Hf14     1.0000 0.86031  0.76728  0.15632  Biso   1.000  Hf
  Hf15     1.0000 0.85903  0.98335  0.68056  Biso   1.000  Hf
  O17      1.0000 0.03730  0.67372  0.17857  Biso   1.000  O
  O18      1.0000 0.03671  0.57523  0.67720  Biso   1.000  O
  O19      1.0000 0.46962  0.91741  0.16621  Biso   1.000  O
  O20      1.0000 0.46437  0.83223  0.65841  Biso   1.000  O
  O21      1.0000 0.27589  0.62603  0.58385  Biso   1.000  O
  O22      1.0000 0.27520  0.62017  0.08561  Biso   1.000  O
  O23      1.0000 0.21915  0.87089  0.56019  Biso   1.000  O
  O24      1.0000 0.23761  0.86492  0.05202  Biso   1.000  O
  O25      1.0000 0.53535  0.66717  0.32207  Biso   1.000  O
  O26      1.0000 0.53361  0.58232  0.82402  Biso   1.000  O
  O27      1.0000 0.94892  0.93093  0.31792  Biso   1.000  O
  O28      1.0000 0.96128  0.82440  0.81966  Biso   1.000  O
  O29      1.0000 0.77648  0.62332  0.91247  Biso   1.000  O
  O30      1.0000 0.77676  0.62540  0.41252  Biso   1.000  O
  O31      1.0000 0.72205  0.87398  0.91410  Biso   1.000  O
  O32      1.0000 0.72727  0.87485  0.41220  Biso   1.000  O
