data_image0
_cell_length_a       10.0263
_cell_length_b       10.2586
_cell_length_c       10.4638
_cell_angle_alpha    89.8007
_cell_angle_beta     90.0459
_cell_angle_gamma    90.0599

_symmetry_space_group_name_H-M    "P 1"
_symmetry_int_tables_number       1

loop_
  _symmetry_equiv_pos_as_xyz
  'x, y, z'

loop_
  _atom_site_label
  _atom_site_occupancy
  _atom_site_fract_x
  _atom_site_fract_y
  _atom_site_fract_z
  _atom_site_thermal_displace_type
  _atom_site_B_iso_or_equiv
  _atom_site_type_symbol
  Hf1      1.0000 0.13877  0.02080  0.17168  Biso   1.000  Hf
  Hf2      1.0000 0.13773  0.22838  0.42321  Biso   1.000  Hf
  Hf3      1.0000 0.35433  0.27110  0.17498  Biso   1.000  Hf
  Hf4      1.0000 0.36265  0.47884  0.42139  Biso   1.000  Hf
  Hf5      1.0000 0.64236  0.02265  0.07401  Biso   1.000  Hf
  Hf6      1.0000 0.64042  0.22867  0.33184  Biso   1.000  Hf
  Hf7      1.0000 0.86004  0.26895  0.07986  Biso   1.000  Hf
  Hf8      1.0000 0.86304  0.47955  0.33094  Biso   1.000  Hf
  O1       1.0000 0.03394  0.16521  0.08459  Biso   1.000  O
  O2       1.0000 0.03334  0.08386  0.33486  Biso   1.000  O
  O3       1.0000 0.46073  0.42704  0.09320  Biso   1.000  O
  O4       1.0000 0.46639  0.33219  0.33455  Biso   1.000  O
  O5       1.0000 0.27489  0.12433  0.29631  Biso   1.000  O
  O6       1.0000 0.27643  0.12547  0.04463  Biso   1.000  O
  O7       1.0000 0.22178  0.37437  0.29662  Biso   1.000  O
  O8       1.0000 0.22271  0.37597  0.04456  Biso   1.000  O
  O9       1.0000 0.52528  0.15695  0.17031  Biso   1.000  O
  O10      1.0000 0.53390  0.08390  0.41684  Biso   1.000  O
  O11      1.0000 0.96676  0.41521  0.16742  Biso   1.000  O
  O12      1.0000 0.96676  0.33432  0.41828  Biso   1.000  O
  O13      1.0000 0.77690  0.12384  0.45632  Biso   1.000  O
  O14      1.0000 0.77688  0.12620  0.20867  Biso   1.000  O
  O15      1.0000 0.72354  0.37262  0.45805  Biso   1.000  O
  O16      1.0000 0.72521  0.38196  0.21091  Biso   1.000  O
  Hf9      1.0000 0.14032  0.02037  0.67177  Biso   1.000  Hf
  Hf10     1.0000 0.13839  0.22775  0.92155  Biso   1.000  Hf
  Hf11     1.0000 0.36159  0.27087  0.67204  Biso   1.000  Hf
  Hf12     1.0000 0.36068  0.47973  0.92102  Biso   1.000  Hf
  Hf13     1.0000 0.63928  0.02059  0.57960  Biso   1.000  Hf
  Hf14     1.0000 0.63903  0.22465  0.82755  Biso   1.000  Hf
  Hf15     1.0000 0.86154  0.27045  0.58083  Biso   1.000  Hf
  Hf16     1.0000 0.86250  0.47859  0.82963  Biso   1.000  Hf
  O17      1.0000 0.03379  0.16568  0.58540  Biso   1.000  O
  O18      1.0000 0.03556  0.08262  0.83337  Biso   1.000  O
  O19      1.0000 0.46714  0.41628  0.58439  Biso   1.000  O
  O20      1.0000 0.46686  0.33401  0.83451  Biso   1.000  O
  O21      1.0000 0.27792  0.12332  0.79514  Biso   1.000  O
  O22      1.0000 0.27675  0.12573  0.54537  Biso   1.000  O
  O23      1.0000 0.22347  0.37315  0.79539  Biso   1.000  O
  O24      1.0000 0.22430  0.37568  0.54554  Biso   1.000  O
  O25      1.0000 0.53356  0.16653  0.66433  Biso   1.000  O
  O26      1.0000 0.53776  0.07142  0.90592  Biso   1.000  O
  O27      1.0000 0.96701  0.41582  0.66717  Biso   1.000  O
  O28      1.0000 0.96566  0.33358  0.91687  Biso   1.000  O
  O29      1.0000 0.78730  0.11815  0.95101  Biso   1.000  O
  O30      1.0000 0.77754  0.12383  0.70377  Biso   1.000  O
  O31      1.0000 0.71941  0.37185  0.95952  Biso   1.000  O
  O32      1.0000 0.72481  0.37528  0.70759  Biso   1.000  O
  Hf17     1.0000 0.13840  0.52123  0.17147  Biso   1.000  Hf
  Hf18     1.0000 0.13989  0.72871  0.42150  Biso   1.000  Hf
  Hf19     1.0000 0.36133  0.77307  0.17177  Biso   1.000  Hf
  Hf20     1.0000 0.36161  0.97893  0.42248  Biso   1.000  Hf
  Hf21     1.0000 0.64065  0.53050  0.08209  Biso   1.000  Hf
  Hf22     1.0000 0.63962  0.73136  0.33025  Biso   1.000  Hf
  Hf23     1.0000 0.86277  0.77260  0.07953  Biso   1.000  Hf
  Hf24     1.0000 0.86146  0.97883  0.32954  Biso   1.000  Hf
  O33      1.0000 0.03383  0.66566  0.08409  Biso   1.000  O
  O34      1.0000 0.03469  0.58451  0.33388  Biso   1.000  O
  O35      1.0000 0.46721  0.91671  0.08348  Biso   1.000  O
  O36      1.0000 0.46672  0.83458  0.33555  Biso   1.000  O
  O37      1.0000 0.27741  0.62398  0.29471  Biso   1.000  O
  O38      1.0000 0.27722  0.62654  0.04463  Biso   1.000  O
  O39      1.0000 0.22433  0.87445  0.29552  Biso   1.000  O
  O40      1.0000 0.22302  0.87553  0.04555  Biso   1.000  O
  O41      1.0000 0.53506  0.67170  0.16676  Biso   1.000  O
  O42      1.0000 0.53486  0.58353  0.41541  Biso   1.000  O
  O43      1.0000 0.96748  0.91611  0.16692  Biso   1.000  O
  O44      1.0000 0.96717  0.83275  0.41581  Biso   1.000  O
  O45      1.0000 0.77698  0.62369  0.45632  Biso   1.000  O
  O46      1.0000 0.77840  0.62971  0.20706  Biso   1.000  O
  O47      1.0000 0.72431  0.87418  0.45614  Biso   1.000  O
  O48      1.0000 0.72473  0.87787  0.20547  Biso   1.000  O
  Hf25     1.0000 0.13944  0.52009  0.67128  Biso   1.000  Hf
  Hf26     1.0000 0.13955  0.72829  0.92169  Biso   1.000  Hf
  Hf27     1.0000 0.36215  0.76985  0.67144  Biso   1.000  Hf
  Hf28     1.0000 0.36194  0.97699  0.92107  Biso   1.000  Hf
  Hf29     1.0000 0.63959  0.52039  0.57952  Biso   1.000  Hf
  Hf30     1.0000 0.63939  0.72836  0.82850  Biso   1.000  Hf
  Hf31     1.0000 0.86268  0.77029  0.57892  Biso   1.000  Hf
  Hf32     1.0000 0.86330  0.97666  0.82767  Biso   1.000  Hf
  O49      1.0000 0.03431  0.66491  0.58389  Biso   1.000  O
  O50      1.0000 0.03375  0.58373  0.83376  Biso   1.000  O
  O51      1.0000 0.46698  0.91587  0.58532  Biso   1.000  O
  O52      1.0000 0.46530  0.82881  0.83511  Biso   1.000  O
  O53      1.0000 0.27694  0.62223  0.79489  Biso   1.000  O
  O54      1.0000 0.27737  0.62530  0.54480  Biso   1.000  O
  O55      1.0000 0.22435  0.87263  0.79485  Biso   1.000  O
  O56      1.0000 0.22452  0.87534  0.54501  Biso   1.000  O
  O57      1.0000 0.53430  0.66538  0.66560  Biso   1.000  O
  O58      1.0000 0.53504  0.58258  0.91706  Biso   1.000  O
  O59      1.0000 0.96884  0.91468  0.66470  Biso   1.000  O
  O60      1.0000 0.96847  0.83349  0.91663  Biso   1.000  O
  O61      1.0000 0.77851  0.62348  0.95597  Biso   1.000  O
  O62      1.0000 0.77733  0.62518  0.70587  Biso   1.000  O
  O63      1.0000 0.72464  0.87122  0.95540  Biso   1.000  O
  O64      1.0000 0.72445  0.87461  0.70506  Biso   1.000  O
  Ni1      1.0000 0.58960  0.28491  0.06205  Biso   1.000  Ni
