data_image0
_cell_length_a       10.0471
_cell_length_b       10.2355
_cell_length_c       10.5208
_cell_angle_alpha    90.1739
_cell_angle_beta     90.359
_cell_angle_gamma    90.4629

_symmetry_space_group_name_H-M    "P 1"
_symmetry_int_tables_number       1

loop_
  _symmetry_equiv_pos_as_xyz
  'x, y, z'

loop_
  _atom_site_label
  _atom_site_occupancy
  _atom_site_fract_x
  _atom_site_fract_y
  _atom_site_fract_z
  _atom_site_thermal_displace_type
  _atom_site_B_iso_or_equiv
  _atom_site_type_symbol
  Hf1      1.0000 0.13816  0.02152  0.17371  Biso   1.000  Hf
  Hf2      1.0000 0.13848  0.22855  0.42442  Biso   1.000  Hf
  Hf3      1.0000 0.35573  0.27068  0.17743  Biso   1.000  Hf
  Hf4      1.0000 0.36238  0.47784  0.42112  Biso   1.000  Hf
  Hf5      1.0000 0.65040  0.01658  0.07855  Biso   1.000  Hf
  Hf6      1.0000 0.63795  0.22287  0.33026  Biso   1.000  Hf
  Hf7      1.0000 0.85978  0.26255  0.07525  Biso   1.000  Hf
  Hf8      1.0000 0.86155  0.47733  0.32591  Biso   1.000  Hf
  O1       1.0000 0.03139  0.16007  0.08139  Biso   1.000  O
  O2       1.0000 0.03391  0.08367  0.33543  Biso   1.000  O
  O3       1.0000 0.45051  0.43961  0.09406  Biso   1.000  O
  O4       1.0000 0.46755  0.33409  0.33349  Biso   1.000  O
  O5       1.0000 0.27251  0.12551  0.29958  Biso   1.000  O
  O6       1.0000 0.27303  0.12587  0.04751  Biso   1.000  O
  O7       1.0000 0.22069  0.37518  0.29755  Biso   1.000  O
  O8       1.0000 0.21866  0.37628  0.04498  Biso   1.000  O
  O9       1.0000 0.51397  0.13448  0.18905  Biso   1.000  O
  O10      1.0000 0.53012  0.09074  0.42898  Biso   1.000  O
  O11      1.0000 0.96162  0.41194  0.16744  Biso   1.000  O
  O12      1.0000 0.96779  0.33515  0.41724  Biso   1.000  O
  O13      1.0000 0.77596  0.12190  0.45595  Biso   1.000  O
  O14      1.0000 0.78524  0.12127  0.21328  Biso   1.000  O
  O15      1.0000 0.72476  0.37291  0.45216  Biso   1.000  O
  O16      1.0000 0.70724  0.37621  0.19693  Biso   1.000  O
  Hf9      1.0000 0.14188  0.02150  0.67240  Biso   1.000  Hf
  Hf10     1.0000 0.13828  0.22786  0.92237  Biso   1.000  Hf
  Hf11     1.0000 0.36297  0.27224  0.67418  Biso   1.000  Hf
  Hf12     1.0000 0.35911  0.48115  0.92182  Biso   1.000  Hf
  Hf13     1.0000 0.64051  0.01929  0.57963  Biso   1.000  Hf
  Hf14     1.0000 0.64376  0.22923  0.82117  Biso   1.000  Hf
  Hf15     1.0000 0.86329  0.27081  0.57667  Biso   1.000  Hf
  Hf16     1.0000 0.86407  0.47928  0.82782  Biso   1.000  Hf
  O17      1.0000 0.03360  0.16450  0.58402  Biso   1.000  O
  O18      1.0000 0.03640  0.08344  0.83058  Biso   1.000  O
  O19      1.0000 0.47143  0.40899  0.57731  Biso   1.000  O
  O20      1.0000 0.47258  0.34740  0.82440  Biso   1.000  O
  O21      1.0000 0.27849  0.12565  0.79784  Biso   1.000  O
  O22      1.0000 0.27662  0.12543  0.54742  Biso   1.000  O
  O23      1.0000 0.22375  0.37305  0.79584  Biso   1.000  O
  O24      1.0000 0.22570  0.37624  0.54703  Biso   1.000  O
  O25      1.0000 0.52834  0.15359  0.67735  Biso   1.000  O
  O26      1.0000 0.52384  0.11580  0.94235  Biso   1.000  O
  O27      1.0000 0.96860  0.41502  0.66759  Biso   1.000  O
  O28      1.0000 0.96433  0.33300  0.91573  Biso   1.000  O
  O29      1.0000 0.78936  0.11411  0.94327  Biso   1.000  O
  O30      1.0000 0.77855  0.12478  0.70085  Biso   1.000  O
  O31      1.0000 0.71802  0.37684  0.95460  Biso   1.000  O
  O32      1.0000 0.72654  0.37540  0.70193  Biso   1.000  O
  Hf17     1.0000 0.13764  0.51962  0.17107  Biso   1.000  Hf
  Hf18     1.0000 0.14080  0.72705  0.42172  Biso   1.000  Hf
  Hf19     1.0000 0.36182  0.77449  0.17196  Biso   1.000  Hf
  Hf20     1.0000 0.36136  0.97917  0.42364  Biso   1.000  Hf
  Hf21     1.0000 0.63486  0.53436  0.07820  Biso   1.000  Hf
  Hf22     1.0000 0.63940  0.73105  0.33016  Biso   1.000  Hf
  Hf23     1.0000 0.86451  0.77008  0.07888  Biso   1.000  Hf
  Hf24     1.0000 0.86378  0.97645  0.33171  Biso   1.000  Hf
  O33      1.0000 0.03252  0.66213  0.08214  Biso   1.000  O
  O34      1.0000 0.03156  0.58309  0.33285  Biso   1.000  O
  O35      1.0000 0.47315  0.90849  0.07464  Biso   1.000  O
  O36      1.0000 0.47042  0.84177  0.33045  Biso   1.000  O
  O37      1.0000 0.27561  0.62420  0.29403  Biso   1.000  O
  O38      1.0000 0.27388  0.62930  0.04455  Biso   1.000  O
  O39      1.0000 0.22526  0.87378  0.29586  Biso   1.000  O
  O40      1.0000 0.22554  0.87879  0.04552  Biso   1.000  O
  O41      1.0000 0.53373  0.67220  0.17020  Biso   1.000  O
  O42      1.0000 0.53196  0.58813  0.41831  Biso   1.000  O
  O43      1.0000 0.96987  0.91189  0.16953  Biso   1.000  O
  O44      1.0000 0.96983  0.83118  0.41743  Biso   1.000  O
  O45      1.0000 0.77704  0.62248  0.45391  Biso   1.000  O
  O46      1.0000 0.77619  0.62590  0.20504  Biso   1.000  O
  O47      1.0000 0.72604  0.87320  0.45674  Biso   1.000  O
  O48      1.0000 0.72927  0.87305  0.20719  Biso   1.000  O
  Hf25     1.0000 0.14084  0.52061  0.67121  Biso   1.000  Hf
  Hf26     1.0000 0.14031  0.72936  0.92191  Biso   1.000  Hf
  Hf27     1.0000 0.36345  0.77250  0.67244  Biso   1.000  Hf
  Hf28     1.0000 0.36270  0.98080  0.92604  Biso   1.000  Hf
  Hf29     1.0000 0.63944  0.52062  0.57642  Biso   1.000  Hf
  Hf30     1.0000 0.64014  0.72964  0.82601  Biso   1.000  Hf
  Hf31     1.0000 0.86465  0.76852  0.57755  Biso   1.000  Hf
  Hf32     1.0000 0.86612  0.97456  0.82550  Biso   1.000  Hf
  O49      1.0000 0.03508  0.66222  0.58226  Biso   1.000  O
  O50      1.0000 0.03399  0.58547  0.83207  Biso   1.000  O
  O51      1.0000 0.47074  0.90828  0.57810  Biso   1.000  O
  O52      1.0000 0.47528  0.84852  0.82646  Biso   1.000  O
  O53      1.0000 0.27701  0.62482  0.79561  Biso   1.000  O
  O54      1.0000 0.27828  0.62525  0.54501  Biso   1.000  O
  O55      1.0000 0.22727  0.87406  0.79673  Biso   1.000  O
  O56      1.0000 0.22583  0.87512  0.54592  Biso   1.000  O
  O57      1.0000 0.53178  0.66092  0.66934  Biso   1.000  O
  O58      1.0000 0.52911  0.59367  0.91943  Biso   1.000  O
  O59      1.0000 0.97232  0.91200  0.66458  Biso   1.000  O
  O60      1.0000 0.97020  0.83480  0.91881  Biso   1.000  O
  O61      1.0000 0.77703  0.62482  0.95263  Biso   1.000  O
  O62      1.0000 0.77715  0.62507  0.70410  Biso   1.000  O
  O63      1.0000 0.72668  0.87167  0.95472  Biso   1.000  O
  O64      1.0000 0.72755  0.87354  0.70344  Biso   1.000  O
  Os1      1.0000 0.59050  0.26426  0.06741  Biso   1.000  Os
