data_image0
_cell_length_a       10.0706
_cell_length_b       10.2984
_cell_length_c       5.25135
_cell_angle_alpha    89.559
_cell_angle_beta     90.5441
_cell_angle_gamma    90.0027

_symmetry_space_group_name_H-M    "P 1"
_symmetry_int_tables_number       1

loop_
  _symmetry_equiv_pos_as_xyz
  'x, y, z'

loop_
  _atom_site_label
  _atom_site_occupancy
  _atom_site_fract_x
  _atom_site_fract_y
  _atom_site_fract_z
  _atom_site_thermal_displace_type
  _atom_site_B_iso_or_equiv
  _atom_site_type_symbol
  Hf1      1.0000 0.13938  0.01951  0.34595  Biso   1.000  Hf
  Hf2      1.0000 0.13815  0.22683  0.85041  Biso   1.000  Hf
  Hf3      1.0000 0.35203  0.26945  0.36192  Biso   1.000  Hf
  Hf4      1.0000 0.36269  0.48121  0.84769  Biso   1.000  Hf
  Hf5      1.0000 0.64240  0.01763  0.14739  Biso   1.000  Hf
  Hf6      1.0000 0.64316  0.22116  0.63984  Biso   1.000  Hf
  Hf7      1.0000 0.86281  0.27117  0.15713  Biso   1.000  Hf
  Hf8      1.0000 0.86613  0.48052  0.66249  Biso   1.000  Hf
  O1       1.0000 0.03325  0.16333  0.16863  Biso   1.000  O
  O2       1.0000 0.03442  0.08376  0.66613  Biso   1.000  O
  O3       1.0000 0.45118  0.44273  0.20523  Biso   1.000  O
  O4       1.0000 0.47055  0.33316  0.66758  Biso   1.000  O
  O5       1.0000 0.27364  0.12437  0.59890  Biso   1.000  O
  O6       1.0000 0.27585  0.12338  0.09669  Biso   1.000  O
  O7       1.0000 0.22334  0.37424  0.60024  Biso   1.000  O
  O8       1.0000 0.22361  0.37359  0.09532  Biso   1.000  O
  O9       1.0000 0.51944  0.14031  0.36271  Biso   1.000  O
  O10      1.0000 0.53538  0.07454  0.82588  Biso   1.000  O
  O11      1.0000 0.97006  0.41401  0.33797  Biso   1.000  O
  O12      1.0000 0.97018  0.33542  0.83826  Biso   1.000  O
  O13      1.0000 0.78426  0.12087  0.89369  Biso   1.000  O
  O14      1.0000 0.77840  0.12252  0.39917  Biso   1.000  O
  O15      1.0000 0.73090  0.37875  0.91606  Biso   1.000  O
  O16      1.0000 0.73176  0.37973  0.42433  Biso   1.000  O
  Hf9      1.0000 0.14044  0.52031  0.34356  Biso   1.000  Hf
  Hf10     1.0000 0.14040  0.72888  0.84376  Biso   1.000  Hf
  Hf11     1.0000 0.36275  0.77107  0.34571  Biso   1.000  Hf
  Hf12     1.0000 0.36239  0.97624  0.84779  Biso   1.000  Hf
  Hf13     1.0000 0.64066  0.52875  0.16682  Biso   1.000  Hf
  Hf14     1.0000 0.64070  0.73082  0.65973  Biso   1.000  Hf
  Hf15     1.0000 0.86464  0.77053  0.15957  Biso   1.000  Hf
  Hf16     1.0000 0.86483  0.97695  0.65605  Biso   1.000  Hf
  O17      1.0000 0.03453  0.66337  0.16564  Biso   1.000  O
  O18      1.0000 0.03654  0.58611  0.66449  Biso   1.000  O
  O19      1.0000 0.46945  0.91063  0.16344  Biso   1.000  O
  O20      1.0000 0.46703  0.83170  0.67033  Biso   1.000  O
  O21      1.0000 0.27865  0.62291  0.59113  Biso   1.000  O
  O22      1.0000 0.27592  0.62691  0.08801  Biso   1.000  O
  O23      1.0000 0.22597  0.87347  0.59309  Biso   1.000  O
  O24      1.0000 0.22438  0.87491  0.09419  Biso   1.000  O
  O25      1.0000 0.53824  0.67304  0.33374  Biso   1.000  O
  O26      1.0000 0.53631  0.58240  0.83448  Biso   1.000  O
  O27      1.0000 0.97025  0.91336  0.33382  Biso   1.000  O
  O28      1.0000 0.96922  0.83396  0.83598  Biso   1.000  O
  O29      1.0000 0.77801  0.62625  0.91349  Biso   1.000  O
  O30      1.0000 0.77915  0.62744  0.41422  Biso   1.000  O
  O31      1.0000 0.72700  0.87308  0.91197  Biso   1.000  O
  O32      1.0000 0.72745  0.87483  0.41191  Biso   1.000  O
  Pd1      1.0000 0.57095  0.28020  0.09803  Biso   1.000  Pd
