data_image0
_cell_length_a       10.0523
_cell_length_b       10.2715
_cell_length_c       10.5364
_cell_angle_alpha    90.0131
_cell_angle_beta     90.5974
_cell_angle_gamma    90.0986

_symmetry_space_group_name_H-M    "P 1"
_symmetry_int_tables_number       1

loop_
  _symmetry_equiv_pos_as_xyz
  'x, y, z'

loop_
  _atom_site_label
  _atom_site_occupancy
  _atom_site_fract_x
  _atom_site_fract_y
  _atom_site_fract_z
  _atom_site_thermal_displace_type
  _atom_site_B_iso_or_equiv
  _atom_site_type_symbol
  Hf1      1.0000 0.13943  0.02079  0.17228  Biso   1.000  Hf
  Hf2      1.0000 0.13725  0.22734  0.42654  Biso   1.000  Hf
  Hf3      1.0000 0.34620  0.27225  0.18769  Biso   1.000  Hf
  Hf4      1.0000 0.36238  0.47905  0.42329  Biso   1.000  Hf
  Hf5      1.0000 0.63936  0.00767  0.08042  Biso   1.000  Hf
  Hf6      1.0000 0.63533  0.22107  0.33096  Biso   1.000  Hf
  Hf7      1.0000 0.86882  0.27259  0.07511  Biso   1.000  Hf
  Hf8      1.0000 0.85907  0.47756  0.32666  Biso   1.000  Hf
  O1       1.0000 0.03669  0.16431  0.08202  Biso   1.000  O
  O2       1.0000 0.03022  0.08753  0.33142  Biso   1.000  O
  O3       1.0000 0.44744  0.44420  0.10271  Biso   1.000  O
  O4       1.0000 0.46577  0.33288  0.33614  Biso   1.000  O
  O5       1.0000 0.27003  0.12463  0.30211  Biso   1.000  O
  O6       1.0000 0.28255  0.12736  0.04693  Biso   1.000  O
  O7       1.0000 0.21760  0.37567  0.30313  Biso   1.000  O
  O8       1.0000 0.22070  0.37615  0.04842  Biso   1.000  O
  O9       1.0000 0.51632  0.12415  0.20173  Biso   1.000  O
  O10      1.0000 0.52904  0.08994  0.43389  Biso   1.000  O
  O11      1.0000 0.96776  0.41458  0.16911  Biso   1.000  O
  O12      1.0000 0.96812  0.33678  0.41792  Biso   1.000  O
  O13      1.0000 0.77623  0.12234  0.45227  Biso   1.000  O
  O14      1.0000 0.77235  0.12813  0.19972  Biso   1.000  O
  O15      1.0000 0.72437  0.37400  0.45378  Biso   1.000  O
  O16      1.0000 0.71912  0.37612  0.20216  Biso   1.000  O
  Hf9      1.0000 0.14029  0.02066  0.67333  Biso   1.000  Hf
  Hf10     1.0000 0.14361  0.22855  0.92213  Biso   1.000  Hf
  Hf11     1.0000 0.36262  0.27311  0.67380  Biso   1.000  Hf
  Hf12     1.0000 0.35962  0.48477  0.92530  Biso   1.000  Hf
  Hf13     1.0000 0.64078  0.01728  0.57871  Biso   1.000  Hf
  Hf14     1.0000 0.65009  0.22615  0.80832  Biso   1.000  Hf
  Hf15     1.0000 0.86428  0.27293  0.57428  Biso   1.000  Hf
  Hf16     1.0000 0.86627  0.48086  0.82797  Biso   1.000  Hf
  O17      1.0000 0.03192  0.16252  0.58268  Biso   1.000  O
  O18      1.0000 0.03577  0.08507  0.83300  Biso   1.000  O
  O19      1.0000 0.47022  0.41339  0.58122  Biso   1.000  O
  O20      1.0000 0.47206  0.34039  0.82932  Biso   1.000  O
  O21      1.0000 0.27893  0.12436  0.79632  Biso   1.000  O
  O22      1.0000 0.27582  0.12535  0.54906  Biso   1.000  O
  O23      1.0000 0.22642  0.37419  0.79768  Biso   1.000  O
  O24      1.0000 0.22528  0.37575  0.54889  Biso   1.000  O
  O25      1.0000 0.53297  0.16224  0.66692  Biso   1.000  O
  O26      1.0000 0.53949  0.06821  0.90528  Biso   1.000  O
  O27      1.0000 0.97033  0.41381  0.66754  Biso   1.000  O
  O28      1.0000 0.97436  0.33530  0.91630  Biso   1.000  O
  O29      1.0000 0.77755  0.12560  0.94972  Biso   1.000  O
  O30      1.0000 0.78252  0.12276  0.69783  Biso   1.000  O
  O31      1.0000 0.73905  0.38473  0.95129  Biso   1.000  O
  O32      1.0000 0.72835  0.37554  0.70061  Biso   1.000  O
  Hf17     1.0000 0.13906  0.52299  0.17279  Biso   1.000  Hf
  Hf18     1.0000 0.13795  0.72862  0.42206  Biso   1.000  Hf
  Hf19     1.0000 0.35971  0.77246  0.17423  Biso   1.000  Hf
  Hf20     1.0000 0.36233  0.97885  0.42555  Biso   1.000  Hf
  Hf21     1.0000 0.63945  0.53342  0.08070  Biso   1.000  Hf
  Hf22     1.0000 0.63910  0.73055  0.33094  Biso   1.000  Hf
  Hf23     1.0000 0.86440  0.77046  0.07876  Biso   1.000  Hf
  Hf24     1.0000 0.86307  0.97992  0.32786  Biso   1.000  Hf
  O33      1.0000 0.03325  0.66387  0.08215  Biso   1.000  O
  O34      1.0000 0.03112  0.58651  0.33222  Biso   1.000  O
  O35      1.0000 0.46833  0.90571  0.07751  Biso   1.000  O
  O36      1.0000 0.46873  0.83878  0.33417  Biso   1.000  O
  O37      1.0000 0.27475  0.62545  0.29656  Biso   1.000  O
  O38      1.0000 0.27408  0.63079  0.04459  Biso   1.000  O
  O39      1.0000 0.22401  0.87496  0.29679  Biso   1.000  O
  O40      1.0000 0.22285  0.87839  0.04704  Biso   1.000  O
  O41      1.0000 0.53546  0.67338  0.16952  Biso   1.000  O
  O42      1.0000 0.53268  0.58645  0.41690  Biso   1.000  O
  O43      1.0000 0.96802  0.91618  0.16744  Biso   1.000  O
  O44      1.0000 0.96741  0.83656  0.41816  Biso   1.000  O
  O45      1.0000 0.77698  0.62397  0.45458  Biso   1.000  O
  O46      1.0000 0.77824  0.62772  0.20612  Biso   1.000  O
  O47      1.0000 0.72497  0.87421  0.45640  Biso   1.000  O
  O48      1.0000 0.72701  0.87365  0.20646  Biso   1.000  O
  Hf25     1.0000 0.14061  0.52084  0.67229  Biso   1.000  Hf
  Hf26     1.0000 0.14004  0.73121  0.92171  Biso   1.000  Hf
  Hf27     1.0000 0.36260  0.76909  0.67191  Biso   1.000  Hf
  Hf28     1.0000 0.36437  0.97632  0.91999  Biso   1.000  Hf
  Hf29     1.0000 0.64050  0.52138  0.57628  Biso   1.000  Hf
  Hf30     1.0000 0.64043  0.72803  0.82693  Biso   1.000  Hf
  Hf31     1.0000 0.86373  0.77067  0.57936  Biso   1.000  Hf
  Hf32     1.0000 0.86438  0.97880  0.83010  Biso   1.000  Hf
  O49      1.0000 0.03417  0.66419  0.58270  Biso   1.000  O
  O50      1.0000 0.03614  0.58699  0.83281  Biso   1.000  O
  O51      1.0000 0.46986  0.91034  0.58419  Biso   1.000  O
  O52      1.0000 0.46683  0.82910  0.83237  Biso   1.000  O
  O53      1.0000 0.27741  0.62449  0.79553  Biso   1.000  O
  O54      1.0000 0.27638  0.62491  0.54532  Biso   1.000  O
  O55      1.0000 0.22531  0.87359  0.79538  Biso   1.000  O
  O56      1.0000 0.22508  0.87573  0.54623  Biso   1.000  O
  O57      1.0000 0.53389  0.66208  0.66705  Biso   1.000  O
  O58      1.0000 0.53399  0.58562  0.91907  Biso   1.000  O
  O59      1.0000 0.96955  0.91319  0.66901  Biso   1.000  O
  O60      1.0000 0.96942  0.83690  0.91913  Biso   1.000  O
  O61      1.0000 0.77864  0.62872  0.95321  Biso   1.000  O
  O62      1.0000 0.77817  0.62501  0.70364  Biso   1.000  O
  O63      1.0000 0.72710  0.87280  0.95634  Biso   1.000  O
  O64      1.0000 0.72693  0.87388  0.70732  Biso   1.000  O
  Rb1      1.0000 0.55964  0.26193  0.03404  Biso   1.000  Rb
