data_image0
_cell_length_a       9.99391
_cell_length_b       10.1856
_cell_length_c       5.23154
_cell_angle_alpha    89.9241
_cell_angle_beta     89.8713
_cell_angle_gamma    89.9656

_symmetry_space_group_name_H-M    "P 1"
_symmetry_int_tables_number       1

loop_
  _symmetry_equiv_pos_as_xyz
  'x, y, z'

loop_
  _atom_site_label
  _atom_site_occupancy
  _atom_site_fract_x
  _atom_site_fract_y
  _atom_site_fract_z
  _atom_site_thermal_displace_type
  _atom_site_B_iso_or_equiv
  _atom_site_type_symbol
  Re1      1.0000 0.14088  0.02231  0.35257  Biso   1.000  Re
  Hf1      1.0000 0.13893  0.22738  0.84447  Biso   1.000  Hf
  Hf2      1.0000 0.35946  0.27026  0.34611  Biso   1.000  Hf
  Hf3      1.0000 0.36107  0.47927  0.84460  Biso   1.000  Hf
  Hf4      1.0000 0.63845  0.02192  0.15434  Biso   1.000  Hf
  Hf5      1.0000 0.63842  0.22953  0.65678  Biso   1.000  Hf
  Hf6      1.0000 0.86355  0.26935  0.15797  Biso   1.000  Hf
  Hf7      1.0000 0.86093  0.47872  0.65787  Biso   1.000  Hf
  O1       1.0000 0.03247  0.15690  0.15689  Biso   1.000  O
  O2       1.0000 0.03519  0.08726  0.64559  Biso   1.000  O
  O3       1.0000 0.46640  0.41475  0.16881  Biso   1.000  O
  O4       1.0000 0.46639  0.33508  0.66803  Biso   1.000  O
  O5       1.0000 0.27870  0.12092  0.59642  Biso   1.000  O
  O6       1.0000 0.27291  0.12187  0.10303  Biso   1.000  O
  O7       1.0000 0.22342  0.37396  0.59140  Biso   1.000  O
  O8       1.0000 0.22343  0.37461  0.09042  Biso   1.000  O
  O9       1.0000 0.53227  0.16445  0.33581  Biso   1.000  O
  O10      1.0000 0.53090  0.08716  0.83738  Biso   1.000  O
  O11      1.0000 0.96862  0.41225  0.33734  Biso   1.000  O
  O12      1.0000 0.96836  0.33432  0.83572  Biso   1.000  O
  O13      1.0000 0.77698  0.12339  0.90519  Biso   1.000  O
  O14      1.0000 0.77627  0.12615  0.40754  Biso   1.000  O
  O15      1.0000 0.72405  0.37355  0.91156  Biso   1.000  O
  O16      1.0000 0.72379  0.37627  0.41058  Biso   1.000  O
  Hf8      1.0000 0.13909  0.52117  0.34449  Biso   1.000  Hf
  Hf9      1.0000 0.13849  0.72947  0.84353  Biso   1.000  Hf
  Hf10     1.0000 0.35833  0.77489  0.34278  Biso   1.000  Hf
  Hf11     1.0000 0.36004  0.97753  0.84634  Biso   1.000  Hf
  Hf12     1.0000 0.63844  0.52174  0.15904  Biso   1.000  Hf
  Hf13     1.0000 0.63815  0.72883  0.65615  Biso   1.000  Hf
  Hf14     1.0000 0.86316  0.77261  0.15474  Biso   1.000  Hf
  Hf15     1.0000 0.86088  0.97951  0.65301  Biso   1.000  Hf
  O17      1.0000 0.03147  0.66218  0.16259  Biso   1.000  O
  O18      1.0000 0.03195  0.58622  0.66421  Biso   1.000  O
  O19      1.0000 0.46859  0.91353  0.16367  Biso   1.000  O
  O20      1.0000 0.46627  0.83669  0.66429  Biso   1.000  O
  O21      1.0000 0.27656  0.62484  0.59149  Biso   1.000  O
  O22      1.0000 0.27649  0.62749  0.09155  Biso   1.000  O
  O23      1.0000 0.21926  0.87544  0.58730  Biso   1.000  O
  O24      1.0000 0.21820  0.87867  0.08991  Biso   1.000  O
  O25      1.0000 0.53173  0.66612  0.33405  Biso   1.000  O
  O26      1.0000 0.53321  0.58505  0.83412  Biso   1.000  O
  O27      1.0000 0.97601  0.91659  0.33049  Biso   1.000  O
  O28      1.0000 0.96751  0.83738  0.83255  Biso   1.000  O
  O29      1.0000 0.77699  0.62485  0.91133  Biso   1.000  O
  O30      1.0000 0.77650  0.62643  0.41064  Biso   1.000  O
  O31      1.0000 0.72296  0.87433  0.90714  Biso   1.000  O
  O32      1.0000 0.72788  0.87684  0.40820  Biso   1.000  O
