data_image0
_cell_length_a       10.0488
_cell_length_b       10.2391
_cell_length_c       5.24294
_cell_angle_alpha    89.9325
_cell_angle_beta     90.1998
_cell_angle_gamma    89.8803

_symmetry_space_group_name_H-M    "P 1"
_symmetry_int_tables_number       1

loop_
  _symmetry_equiv_pos_as_xyz
  'x, y, z'

loop_
  _atom_site_label
  _atom_site_occupancy
  _atom_site_fract_x
  _atom_site_fract_y
  _atom_site_fract_z
  _atom_site_thermal_displace_type
  _atom_site_B_iso_or_equiv
  _atom_site_type_symbol
  Sb1      1.0000 0.12999  0.01817  0.35160  Biso   1.000  Sb
  Hf1      1.0000 0.14212  0.23038  0.84339  Biso   1.000  Hf
  Hf2      1.0000 0.36113  0.27112  0.34072  Biso   1.000  Hf
  Hf3      1.0000 0.36122  0.47908  0.84247  Biso   1.000  Hf
  Hf4      1.0000 0.63838  0.02155  0.15948  Biso   1.000  Hf
  Hf5      1.0000 0.63814  0.22942  0.65727  Biso   1.000  Hf
  Hf6      1.0000 0.86102  0.27151  0.15771  Biso   1.000  Hf
  Hf7      1.0000 0.86212  0.47801  0.65694  Biso   1.000  Hf
  O1       1.0000 0.03391  0.16595  0.16207  Biso   1.000  O
  O2       1.0000 0.03121  0.08515  0.66836  Biso   1.000  O
  O3       1.0000 0.46725  0.41506  0.16552  Biso   1.000  O
  O4       1.0000 0.46758  0.33539  0.66573  Biso   1.000  O
  O5       1.0000 0.27769  0.12559  0.59226  Biso   1.000  O
  O6       1.0000 0.28345  0.13219  0.07711  Biso   1.000  O
  O7       1.0000 0.22413  0.37467  0.58919  Biso   1.000  O
  O8       1.0000 0.22287  0.37788  0.08986  Biso   1.000  O
  O9       1.0000 0.53374  0.16619  0.33276  Biso   1.000  O
  O10      1.0000 0.53617  0.08341  0.83150  Biso   1.000  O
  O11      1.0000 0.96726  0.41477  0.33478  Biso   1.000  O
  O12      1.0000 0.96762  0.33551  0.83679  Biso   1.000  O
  O13      1.0000 0.77692  0.12366  0.91336  Biso   1.000  O
  O14      1.0000 0.77651  0.12635  0.41283  Biso   1.000  O
  O15      1.0000 0.72401  0.37347  0.91026  Biso   1.000  O
  O16      1.0000 0.72411  0.37605  0.40975  Biso   1.000  O
  Hf8      1.0000 0.13883  0.52143  0.34362  Biso   1.000  Hf
  Hf9      1.0000 0.13829  0.72831  0.84342  Biso   1.000  Hf
  Hf10     1.0000 0.36241  0.77115  0.34001  Biso   1.000  Hf
  Hf11     1.0000 0.36253  0.97977  0.84235  Biso   1.000  Hf
  Hf12     1.0000 0.63841  0.52024  0.15621  Biso   1.000  Hf
  Hf13     1.0000 0.63772  0.72804  0.65595  Biso   1.000  Hf
  Hf14     1.0000 0.85970  0.76860  0.15600  Biso   1.000  Hf
  Hf15     1.0000 0.85602  0.97868  0.66436  Biso   1.000  Hf
  O17      1.0000 0.03277  0.66592  0.16730  Biso   1.000  O
  O18      1.0000 0.03244  0.58485  0.66593  Biso   1.000  O
  O19      1.0000 0.46846  0.91564  0.16698  Biso   1.000  O
  O20      1.0000 0.46821  0.83531  0.66280  Biso   1.000  O
  O21      1.0000 0.27621  0.62419  0.58958  Biso   1.000  O
  O22      1.0000 0.27574  0.62490  0.09050  Biso   1.000  O
  O23      1.0000 0.22448  0.87225  0.58970  Biso   1.000  O
  O24      1.0000 0.22908  0.87258  0.07965  Biso   1.000  O
  O25      1.0000 0.53317  0.66442  0.33216  Biso   1.000  O
  O26      1.0000 0.53255  0.58472  0.83331  Biso   1.000  O
  O27      1.0000 0.95991  0.91521  0.33719  Biso   1.000  O
  O28      1.0000 0.96677  0.83608  0.83638  Biso   1.000  O
  O29      1.0000 0.77612  0.62306  0.90942  Biso   1.000  O
  O30      1.0000 0.77590  0.62558  0.40935  Biso   1.000  O
  O31      1.0000 0.72245  0.87266  0.91287  Biso   1.000  O
  O32      1.0000 0.72326  0.87590  0.41324  Biso   1.000  O
