data_image0
_cell_length_a       9.98845
_cell_length_b       10.1701
_cell_length_c       5.21562
_cell_angle_alpha    89.1975
_cell_angle_beta     91.6419
_cell_angle_gamma    89.3908

_symmetry_space_group_name_H-M    "P 1"
_symmetry_int_tables_number       1

loop_
  _symmetry_equiv_pos_as_xyz
  'x, y, z'

loop_
  _atom_site_label
  _atom_site_occupancy
  _atom_site_fract_x
  _atom_site_fract_y
  _atom_site_fract_z
  _atom_site_thermal_displace_type
  _atom_site_B_iso_or_equiv
  _atom_site_type_symbol
  Si1      1.0000 0.10486  0.02432  0.42131  Biso   1.000  Si
  Hf1      1.0000 0.14561  0.22648  0.84747  Biso   1.000  Hf
  Hf2      1.0000 0.35853  0.26885  0.33584  Biso   1.000  Hf
  Hf3      1.0000 0.36059  0.47908  0.84311  Biso   1.000  Hf
  Hf4      1.0000 0.63631  0.02243  0.15711  Biso   1.000  Hf
  Hf5      1.0000 0.63985  0.23138  0.66021  Biso   1.000  Hf
  Hf6      1.0000 0.86909  0.26503  0.17417  Biso   1.000  Hf
  Hf7      1.0000 0.86405  0.47715  0.67006  Biso   1.000  Hf
  O1       1.0000 0.05627  0.14514  0.19925  Biso   1.000  O
  O2       1.0000 0.02933  0.07951  0.68416  Biso   1.000  O
  O3       1.0000 0.46693  0.41620  0.16846  Biso   1.000  O
  O4       1.0000 0.46751  0.33349  0.66683  Biso   1.000  O
  O5       1.0000 0.25201  0.11736  0.54367  Biso   1.000  O
  O6       1.0000 0.30636  0.14602  0.03480  Biso   1.000  O
  O7       1.0000 0.22527  0.37253  0.59663  Biso   1.000  O
  O8       1.0000 0.21896  0.37933  0.09350  Biso   1.000  O
  O9       1.0000 0.53494  0.16784  0.32934  Biso   1.000  O
  O10      1.0000 0.53999  0.07921  0.81525  Biso   1.000  O
  O11      1.0000 0.97027  0.41028  0.34749  Biso   1.000  O
  O12      1.0000 0.96986  0.32759  0.85531  Biso   1.000  O
  O13      1.0000 0.78093  0.12177  0.92147  Biso   1.000  O
  O14      1.0000 0.77818  0.12614  0.41738  Biso   1.000  O
  O15      1.0000 0.72806  0.37147  0.92302  Biso   1.000  O
  O16      1.0000 0.72830  0.37498  0.41720  Biso   1.000  O
  Hf8      1.0000 0.13966  0.52117  0.34481  Biso   1.000  Hf
  Hf9      1.0000 0.13808  0.73271  0.83393  Biso   1.000  Hf
  Hf10     1.0000 0.35548  0.77712  0.32148  Biso   1.000  Hf
  Hf11     1.0000 0.35908  0.98281  0.82388  Biso   1.000  Hf
  Hf12     1.0000 0.63985  0.52106  0.16043  Biso   1.000  Hf
  Hf13     1.0000 0.63483  0.72803  0.65420  Biso   1.000  Hf
  Hf14     1.0000 0.86409  0.77241  0.16566  Biso   1.000  Hf
  Hf15     1.0000 0.85097  0.97752  0.67100  Biso   1.000  Hf
  O17      1.0000 0.03630  0.66910  0.16989  Biso   1.000  O
  O18      1.0000 0.03485  0.58020  0.67378  Biso   1.000  O
  O19      1.0000 0.46792  0.91812  0.15695  Biso   1.000  O
  O20      1.0000 0.46033  0.83512  0.65316  Biso   1.000  O
  O21      1.0000 0.27460  0.63074  0.58363  Biso   1.000  O
  O22      1.0000 0.27546  0.62463  0.08442  Biso   1.000  O
  O23      1.0000 0.20466  0.88807  0.54207  Biso   1.000  O
  O24      1.0000 0.23223  0.87488  0.04472  Biso   1.000  O
  O25      1.0000 0.53183  0.66817  0.32288  Biso   1.000  O
  O26      1.0000 0.53353  0.58223  0.82636  Biso   1.000  O
  O27      1.0000 0.97138  0.92385  0.34456  Biso   1.000  O
  O28      1.0000 0.96178  0.83202  0.83527  Biso   1.000  O
  O29      1.0000 0.77817  0.62325  0.91816  Biso   1.000  O
  O30      1.0000 0.77736  0.62583  0.41697  Biso   1.000  O
  O31      1.0000 0.71979  0.87152  0.91531  Biso   1.000  O
  O32      1.0000 0.72570  0.87585  0.41341  Biso   1.000  O
