data_image0
_cell_length_a       9.99534
_cell_length_b       10.2141
_cell_length_c       10.4275
_cell_angle_alpha    89.643
_cell_angle_beta     90.8192
_cell_angle_gamma    89.7206

_symmetry_space_group_name_H-M    "P 1"
_symmetry_int_tables_number       1

loop_
  _symmetry_equiv_pos_as_xyz
  'x, y, z'

loop_
  _atom_site_label
  _atom_site_occupancy
  _atom_site_fract_x
  _atom_site_fract_y
  _atom_site_fract_z
  _atom_site_thermal_displace_type
  _atom_site_B_iso_or_equiv
  _atom_site_type_symbol
  Si1      1.0000 0.10600  0.02483  0.21267  Biso   1.000  Si
  Hf1      1.0000 0.13737  0.23520  0.42028  Biso   1.000  Hf
  Hf2      1.0000 0.35816  0.26852  0.16742  Biso   1.000  Hf
  Hf3      1.0000 0.36001  0.48106  0.42068  Biso   1.000  Hf
  Hf4      1.0000 0.64031  0.02217  0.07731  Biso   1.000  Hf
  Hf5      1.0000 0.63668  0.23074  0.32872  Biso   1.000  Hf
  Hf6      1.0000 0.86967  0.26536  0.08471  Biso   1.000  Hf
  Hf7      1.0000 0.85917  0.48049  0.32964  Biso   1.000  Hf
  O1       1.0000 0.05705  0.14616  0.10287  Biso   1.000  O
  O2       1.0000 0.02777  0.07944  0.34407  Biso   1.000  O
  O3       1.0000 0.46748  0.41581  0.08532  Biso   1.000  O
  O4       1.0000 0.46289  0.33056  0.33682  Biso   1.000  O
  O5       1.0000 0.25247  0.12010  0.27855  Biso   1.000  O
  O6       1.0000 0.30442  0.14106  0.02579  Biso   1.000  O
  O7       1.0000 0.22352  0.37659  0.29599  Biso   1.000  O
  O8       1.0000 0.22083  0.37828  0.04580  Biso   1.000  O
  O9       1.0000 0.53533  0.16743  0.16482  Biso   1.000  O
  O10      1.0000 0.53046  0.08249  0.41186  Biso   1.000  O
  O11      1.0000 0.96812  0.41479  0.16777  Biso   1.000  O
  O12      1.0000 0.96269  0.33259  0.41616  Biso   1.000  O
  O13      1.0000 0.77309  0.12283  0.45798  Biso   1.000  O
  O14      1.0000 0.77851  0.12558  0.20792  Biso   1.000  O
  O15      1.0000 0.72191  0.37442  0.45712  Biso   1.000  O
  O16      1.0000 0.72597  0.37440  0.20632  Biso   1.000  O
  Hf8      1.0000 0.13809  0.02035  0.66653  Biso   1.000  Hf
  Hf9      1.0000 0.14777  0.22056  0.92403  Biso   1.000  Hf
  Hf10     1.0000 0.36128  0.27140  0.67075  Biso   1.000  Hf
  Hf11     1.0000 0.36173  0.47700  0.92167  Biso   1.000  Hf
  Hf12     1.0000 0.63448  0.02100  0.58020  Biso   1.000  Hf
  Hf13     1.0000 0.64175  0.22945  0.83044  Biso   1.000  Hf
  Hf14     1.0000 0.86004  0.27100  0.58146  Biso   1.000  Hf
  Hf15     1.0000 0.86614  0.47589  0.83453  Biso   1.000  Hf
  O17      1.0000 0.03430  0.16941  0.58443  Biso   1.000  O
  O18      1.0000 0.03733  0.08092  0.83429  Biso   1.000  O
  O19      1.0000 0.46496  0.41925  0.58504  Biso   1.000  O
  O20      1.0000 0.46891  0.33303  0.83377  Biso   1.000  O
  O21      1.0000 0.27709  0.12047  0.78571  Biso   1.000  O
  O22      1.0000 0.27686  0.12924  0.53638  Biso   1.000  O
  O23      1.0000 0.22461  0.37011  0.79629  Biso   1.000  O
  O24      1.0000 0.22136  0.37775  0.54471  Biso   1.000  O
  O25      1.0000 0.53465  0.16917  0.66340  Biso   1.000  O
  O26      1.0000 0.54219  0.07907  0.91003  Biso   1.000  O
  O27      1.0000 0.96688  0.41463  0.66949  Biso   1.000  O
  O28      1.0000 0.97235  0.32600  0.92479  Biso   1.000  O
  O29      1.0000 0.78413  0.12272  0.95812  Biso   1.000  O
  O30      1.0000 0.77710  0.12664  0.70640  Biso   1.000  O
  O31      1.0000 0.72928  0.37102  0.96010  Biso   1.000  O
  O32      1.0000 0.72495  0.37679  0.70825  Biso   1.000  O
  Hf16     1.0000 0.13958  0.52185  0.17044  Biso   1.000  Hf
  Hf17     1.0000 0.13402  0.73038  0.41888  Biso   1.000  Hf
  Hf18     1.0000 0.35560  0.77650  0.16434  Biso   1.000  Hf
  Hf19     1.0000 0.35649  0.98250  0.41436  Biso   1.000  Hf
  Hf20     1.0000 0.63958  0.52120  0.07880  Biso   1.000  Hf
  Hf21     1.0000 0.63321  0.72844  0.32654  Biso   1.000  Hf
  Hf22     1.0000 0.86693  0.77401  0.08070  Biso   1.000  Hf
  Hf23     1.0000 0.84994  0.97725  0.33482  Biso   1.000  Hf
  O33      1.0000 0.03743  0.67037  0.08650  Biso   1.000  O
  O34      1.0000 0.03242  0.58206  0.33539  Biso   1.000  O
  O35      1.0000 0.47160  0.91677  0.08327  Biso   1.000  O
  O36      1.0000 0.45676  0.83360  0.33229  Biso   1.000  O
  O37      1.0000 0.27281  0.63161  0.29331  Biso   1.000  O
  O38      1.0000 0.27788  0.62417  0.04343  Biso   1.000  O
  O39      1.0000 0.20519  0.89020  0.27933  Biso   1.000  O
  O40      1.0000 0.23244  0.87391  0.03244  Biso   1.000  O
  O41      1.0000 0.53095  0.66819  0.16255  Biso   1.000  O
  O42      1.0000 0.53235  0.58282  0.41344  Biso   1.000  O
  O43      1.0000 0.97407  0.92417  0.17301  Biso   1.000  O
  O44      1.0000 0.95926  0.83087  0.41540  Biso   1.000  O
  O45      1.0000 0.77433  0.62385  0.45610  Biso   1.000  O
  O46      1.0000 0.77541  0.62748  0.20603  Biso   1.000  O
  O47      1.0000 0.71610  0.87240  0.45652  Biso   1.000  O
  O48      1.0000 0.72652  0.87595  0.20609  Biso   1.000  O
  Hf24     1.0000 0.13881  0.52064  0.67270  Biso   1.000  Hf
  Hf25     1.0000 0.14344  0.73177  0.91925  Biso   1.000  Hf
  Hf26     1.0000 0.36162  0.77095  0.66780  Biso   1.000  Hf
  Hf27     1.0000 0.36288  0.97899  0.91889  Biso   1.000  Hf
  Hf28     1.0000 0.63912  0.52082  0.58054  Biso   1.000  Hf
  Hf29     1.0000 0.64089  0.72870  0.82989  Biso   1.000  Hf
  Hf30     1.0000 0.85859  0.76952  0.58100  Biso   1.000  Hf
  Hf31     1.0000 0.86341  0.97962  0.82945  Biso   1.000  Hf
  O49      1.0000 0.03335  0.66671  0.58430  Biso   1.000  O
  O50      1.0000 0.03699  0.58013  0.83774  Biso   1.000  O
  O51      1.0000 0.46156  0.91919  0.58141  Biso   1.000  O
  O52      1.0000 0.46830  0.83246  0.83145  Biso   1.000  O
  O53      1.0000 0.27883  0.62242  0.79276  Biso   1.000  O
  O54      1.0000 0.27466  0.62696  0.54288  Biso   1.000  O
  O55      1.0000 0.22346  0.87146  0.78670  Biso   1.000  O
  O56      1.0000 0.22095  0.87827  0.53587  Biso   1.000  O
  O57      1.0000 0.53597  0.66840  0.66306  Biso   1.000  O
  O58      1.0000 0.53603  0.58104  0.91354  Biso   1.000  O
  O59      1.0000 0.96469  0.91714  0.66358  Biso   1.000  O
  O60      1.0000 0.96786  0.83264  0.91620  Biso   1.000  O
  O61      1.0000 0.78073  0.62350  0.95878  Biso   1.000  O
  O62      1.0000 0.77899  0.62467  0.70839  Biso   1.000  O
  O63      1.0000 0.72678  0.87345  0.95644  Biso   1.000  O
  O64      1.0000 0.72312  0.87627  0.70601  Biso   1.000  O
