data_image0
_cell_length_a       10.0951
_cell_length_b       5.12665
_cell_length_c       10.4766
_cell_angle_alpha    89.889
_cell_angle_beta     90.0811
_cell_angle_gamma    90.0527

_symmetry_space_group_name_H-M    "P 1"
_symmetry_int_tables_number       1

loop_
  _symmetry_equiv_pos_as_xyz
  'x, y, z'

loop_
  _atom_site_label
  _atom_site_occupancy
  _atom_site_fract_x
  _atom_site_fract_y
  _atom_site_fract_z
  _atom_site_thermal_displace_type
  _atom_site_B_iso_or_equiv
  _atom_site_type_symbol
  Tl1      1.0000 0.13532  0.03099  0.16848  Biso   1.000  Tl
  Hf1      1.0000 0.14104  0.45723  0.42212  Biso   1.000  Hf
  Hf2      1.0000 0.36082  0.53566  0.17077  Biso   1.000  Hf
  Hf3      1.0000 0.36111  0.95731  0.42086  Biso   1.000  Hf
  Hf4      1.0000 0.63890  0.03909  0.07880  Biso   1.000  Hf
  Hf5      1.0000 0.63765  0.45918  0.32832  Biso   1.000  Hf
  Hf6      1.0000 0.85868  0.53876  0.07718  Biso   1.000  Hf
  Hf7      1.0000 0.85669  0.96057  0.33055  Biso   1.000  Hf
  O1       1.0000 0.03383  0.35713  0.08163  Biso   1.000  O
  O2       1.0000 0.02453  0.17425  0.34895  Biso   1.000  O
  O3       1.0000 0.46994  0.82528  0.08236  Biso   1.000  O
  O4       1.0000 0.46929  0.67291  0.33298  Biso   1.000  O
  O5       1.0000 0.28209  0.25134  0.30241  Biso   1.000  O
  O6       1.0000 0.28412  0.25781  0.03832  Biso   1.000  O
  O7       1.0000 0.22823  0.73537  0.29765  Biso   1.000  O
  O8       1.0000 0.23328  0.73904  0.03838  Biso   1.000  O
  O9       1.0000 0.53307  0.32533  0.16745  Biso   1.000  O
  O10      1.0000 0.53283  0.16942  0.41758  Biso   1.000  O
  O11      1.0000 0.94808  0.83909  0.16425  Biso   1.000  O
  O12      1.0000 0.96731  0.67105  0.41586  Biso   1.000  O
  O13      1.0000 0.77356  0.25156  0.45656  Biso   1.000  O
  O14      1.0000 0.77488  0.25495  0.20578  Biso   1.000  O
  O15      1.0000 0.72399  0.74950  0.45569  Biso   1.000  O
  O16      1.0000 0.71754  0.75230  0.20607  Biso   1.000  O
  Hf8      1.0000 0.14015  0.04111  0.67170  Biso   1.000  Hf
  Hf9      1.0000 0.14138  0.45924  0.92046  Biso   1.000  Hf
  Hf10     1.0000 0.36137  0.54114  0.67136  Biso   1.000  Hf
  Hf11     1.0000 0.36290  0.95797  0.92089  Biso   1.000  Hf
  Hf12     1.0000 0.63816  0.04184  0.57876  Biso   1.000  Hf
  Hf13     1.0000 0.63919  0.45756  0.82786  Biso   1.000  Hf
  Hf14     1.0000 0.86096  0.54210  0.57837  Biso   1.000  Hf
  Hf15     1.0000 0.86100  0.95869  0.82833  Biso   1.000  Hf
  O17      1.0000 0.03375  0.33805  0.58907  Biso   1.000  O
  O18      1.0000 0.03369  0.16508  0.83445  Biso   1.000  O
  O19      1.0000 0.46810  0.82812  0.58353  Biso   1.000  O
  O20      1.0000 0.46891  0.66961  0.83164  Biso   1.000  O
  O21      1.0000 0.27614  0.24741  0.79361  Biso   1.000  O
  O22      1.0000 0.27566  0.25037  0.54695  Biso   1.000  O
  O23      1.0000 0.22542  0.74849  0.79280  Biso   1.000  O
  O24      1.0000 0.22464  0.75204  0.54555  Biso   1.000  O
  O25      1.0000 0.53271  0.32844  0.66669  Biso   1.000  O
  O26      1.0000 0.53445  0.16917  0.91600  Biso   1.000  O
  O27      1.0000 0.96682  0.83473  0.66406  Biso   1.000  O
  O28      1.0000 0.96698  0.66832  0.91232  Biso   1.000  O
  O29      1.0000 0.77575  0.24510  0.95389  Biso   1.000  O
  O30      1.0000 0.77594  0.25227  0.70475  Biso   1.000  O
  O31      1.0000 0.72387  0.74674  0.95360  Biso   1.000  O
  O32      1.0000 0.72526  0.75132  0.70434  Biso   1.000  O
