data_image0
_cell_length_a       10.0608
_cell_length_b       5.14641
_cell_length_c       10.6256
_cell_angle_alpha    89.9829
_cell_angle_beta     91.3995
_cell_angle_gamma    90.4357

_symmetry_space_group_name_H-M    "P 1"
_symmetry_int_tables_number       1

loop_
  _symmetry_equiv_pos_as_xyz
  'x, y, z'

loop_
  _atom_site_label
  _atom_site_occupancy
  _atom_site_fract_x
  _atom_site_fract_y
  _atom_site_fract_z
  _atom_site_thermal_displace_type
  _atom_site_B_iso_or_equiv
  _atom_site_type_symbol
  Hf1      1.0000 0.13725  0.04268  0.17543  Biso   1.000  Hf
  Hf2      1.0000 0.13855  0.45056  0.42728  Biso   1.000  Hf
  Hf3      1.0000 0.35037  0.54816  0.19148  Biso   1.000  Hf
  Hf4      1.0000 0.36118  0.95429  0.42951  Biso   1.000  Hf
  Hf5      1.0000 0.64687  0.05548  0.08142  Biso   1.000  Hf
  Hf6      1.0000 0.63942  0.45169  0.33099  Biso   1.000  Hf
  Hf7      1.0000 0.86495  0.53819  0.07780  Biso   1.000  Hf
  Hf8      1.0000 0.86098  0.95283  0.32631  Biso   1.000  Hf
  O1       1.0000 0.03381  0.31856  0.08130  Biso   1.000  O
  O2       1.0000 0.03112  0.17108  0.33409  Biso   1.000  O
  O3       1.0000 0.45480  0.86083  0.09871  Biso   1.000  O
  O4       1.0000 0.46785  0.66878  0.34148  Biso   1.000  O
  O5       1.0000 0.27199  0.24771  0.30282  Biso   1.000  O
  O6       1.0000 0.27958  0.26433  0.04777  Biso   1.000  O
  O7       1.0000 0.21879  0.75137  0.30695  Biso   1.000  O
  O8       1.0000 0.21869  0.75825  0.05294  Biso   1.000  O
  O9       1.0000 0.52376  0.31317  0.18314  Biso   1.000  O
  O10      1.0000 0.53093  0.16978  0.42138  Biso   1.000  O
  O11      1.0000 0.96734  0.82408  0.17260  Biso   1.000  O
  O12      1.0000 0.97114  0.67313  0.42182  Biso   1.000  O
  O13      1.0000 0.77710  0.24565  0.45161  Biso   1.000  O
  O14      1.0000 0.78529  0.24979  0.20707  Biso   1.000  O
  O15      1.0000 0.72672  0.74579  0.45329  Biso   1.000  O
  O16      1.0000 0.71952  0.73824  0.20182  Biso   1.000  O
  Hf9      1.0000 0.14218  0.03968  0.67652  Biso   1.000  Hf
  Hf10     1.0000 0.14125  0.46207  0.92563  Biso   1.000  Hf
  Hf11     1.0000 0.36295  0.54246  0.67704  Biso   1.000  Hf
  Hf12     1.0000 0.35964  0.96764  0.92861  Biso   1.000  Hf
  Hf13     1.0000 0.64282  0.03423  0.57160  Biso   1.000  Hf
  Hf14     1.0000 0.65311  0.45056  0.79775  Biso   1.000  Hf
  Hf15     1.0000 0.86960  0.54200  0.57493  Biso   1.000  Hf
  Hf16     1.0000 0.86749  0.95864  0.83061  Biso   1.000  Hf
  O17      1.0000 0.03492  0.31969  0.58308  Biso   1.000  O
  O18      1.0000 0.03630  0.17491  0.83296  Biso   1.000  O
  O19      1.0000 0.47321  0.81655  0.58357  Biso   1.000  O
  O20      1.0000 0.47668  0.67011  0.83166  Biso   1.000  O
  O21      1.0000 0.27800  0.25238  0.79861  Biso   1.000  O
  O22      1.0000 0.27767  0.24722  0.55023  Biso   1.000  O
  O23      1.0000 0.22734  0.74757  0.80220  Biso   1.000  O
  O24      1.0000 0.22632  0.74786  0.55371  Biso   1.000  O
  O25      1.0000 0.53100  0.31177  0.66292  Biso   1.000  O
  O26      1.0000 0.53293  0.17140  0.91996  Biso   1.000  O
  O27      1.0000 0.97400  0.81882  0.67363  Biso   1.000  O
  O28      1.0000 0.97125  0.67392  0.92161  Biso   1.000  O
  O29      1.0000 0.77497  0.26225  0.94395  Biso   1.000  O
  O30      1.0000 0.78619  0.23697  0.69334  Biso   1.000  O
  O31      1.0000 0.73064  0.76106  0.95419  Biso   1.000  O
  O32      1.0000 0.73265  0.74978  0.69926  Biso   1.000  O
  Yb1      1.0000 0.55773  0.54668  0.01869  Biso   1.000  Yb
