data_image0
_cell_length_a       5.05237
_cell_length_b       10.4661
_cell_length_c       10.2218
_cell_angle_alpha    90.112
_cell_angle_beta     90.0764
_cell_angle_gamma    89.938

_symmetry_space_group_name_H-M    "P 1"
_symmetry_int_tables_number       1

loop_
  _symmetry_equiv_pos_as_xyz
  'x, y, z'

loop_
  _atom_site_label
  _atom_site_occupancy
  _atom_site_fract_x
  _atom_site_fract_y
  _atom_site_fract_z
  _atom_site_thermal_displace_type
  _atom_site_B_iso_or_equiv
  _atom_site_type_symbol
  La1      1.0000 0.24497  0.00769  0.11815  Biso   1.000  La
  Hf1      1.0000 0.27071  0.01776  0.62598  Biso   1.000  Hf
  Hf2      1.0000 0.26089  0.51440  0.11600  Biso   1.000  Hf
  Hf3      1.0000 0.28089  0.51649  0.63104  Biso   1.000  Hf
  Hf4      1.0000 0.27736  0.23297  0.37874  Biso   1.000  Hf
  Hf5      1.0000 0.27376  0.23576  0.86636  Biso   1.000  Hf
  Hf6      1.0000 0.26536  0.73656  0.38314  Biso   1.000  Hf
  Hf7      1.0000 0.27928  0.73337  0.87460  Biso   1.000  Hf
  Hf8      1.0000 0.71384  0.26470  0.12109  Biso   1.000  Hf
  Hf9      1.0000 0.73452  0.26687  0.62382  Biso   1.000  Hf
  Hf10     1.0000 0.72162  0.76170  0.12945  Biso   1.000  Hf
  Hf11     1.0000 0.73864  0.76757  0.62979  Biso   1.000  Hf
  La2      1.0000 0.74940  0.49252  0.36656  Biso   1.000  La
  Hf12     1.0000 0.73796  0.48153  0.87748  Biso   1.000  Hf
  Hf13     1.0000 0.72217  0.98373  0.38015  Biso   1.000  Hf
  Hf14     1.0000 0.73600  0.98389  0.86875  Biso   1.000  Hf
  O1       1.0000 0.04534  0.19640  0.20627  Biso   1.000  O 
  O2       1.0000 0.08143  0.18691  0.68586  Biso   1.000  O 
  O3       1.0000 0.03121  0.66923  0.21340  Biso   1.000  O 
  O4       1.0000 0.07342  0.68454  0.70148  Biso   1.000  O 
  O5       1.0000 0.07157  0.06307  0.44408  Biso   1.000  O 
  O6       1.0000 0.07022  0.07391  0.91474  Biso   1.000  O 
  O7       1.0000 0.11323  0.56913  0.45883  Biso   1.000  O 
  O8       1.0000 0.07147  0.57206  0.94152  Biso   1.000  O 
  O9       1.0000 0.91000  0.43289  0.15482  Biso   1.000  O 
  O10      1.0000 0.94163  0.43422  0.69696  Biso   1.000  O 
  O11      1.0000 0.88980  0.92307  0.21021  Biso   1.000  O 
  O12      1.0000 0.93423  0.93371  0.69514  Biso   1.000  O 
  O13      1.0000 0.93951  0.30469  0.45374  Biso   1.000  O 
  O14      1.0000 0.93213  0.31418  0.93621  Biso   1.000  O 
  O15      1.0000 0.92971  0.81734  0.45455  Biso   1.000  O 
  O16      1.0000 0.97196  0.82770  0.96171  Biso   1.000  O 
  O17      1.0000 0.55104  0.12535  0.25659  Biso   1.000  O 
  O18      1.0000 0.54594  0.11701  0.74530  Biso   1.000  O 
  O19      1.0000 0.49586  0.62543  0.23904  Biso   1.000  O 
  O20      1.0000 0.55086  0.61703  0.75233  Biso   1.000  O 
  O21      1.0000 0.53992  0.13079  0.50281  Biso   1.000  O 
  O22      1.0000 0.55386  0.13584  0.98794  Biso   1.000  O 
  O23      1.0000 0.53734  0.64668  0.50793  Biso   1.000  O 
  O24      1.0000 0.54194  0.62749  0.99722  Biso   1.000  O 
  O25      1.0000 0.45020  0.37465  0.50698  Biso   1.000  O 
  O26      1.0000 0.45379  0.38158  0.99341  Biso   1.000  O 
  O27      1.0000 0.45812  0.88673  0.50268  Biso   1.000  O 
  O28      1.0000 0.49900  0.86995  0.98973  Biso   1.000  O 
  O29      1.0000 0.42881  0.36492  0.23987  Biso   1.000  O 
  O30      1.0000 0.47607  0.36889  0.75007  Biso   1.000  O 
  O31      1.0000 0.45964  0.85779  0.25852  Biso   1.000  O 
  O32      1.0000 0.46445  0.86801  0.74771  Biso   1.000  O 
