data_image0
_cell_length_a       10.1148
_cell_length_b       10.541
_cell_length_c       5.05649
_cell_angle_alpha    90.0008
_cell_angle_beta     90.0018
_cell_angle_gamma    89.9746

_symmetry_space_group_name_H-M    "P 1"
_symmetry_int_tables_number       1

loop_
  _symmetry_equiv_pos_as_xyz
  'x, y, z'

loop_
  _atom_site_label
  _atom_site_occupancy
  _atom_site_fract_x
  _atom_site_fract_y
  _atom_site_fract_z
  _atom_site_thermal_displace_type
  _atom_site_B_iso_or_equiv
  _atom_site_type_symbol
  La1      1.0000 0.12078  0.00926  0.24954  Biso   1.000  La
  Hf1      1.0000 0.13454  0.51767  0.25339  Biso   1.000  Hf
  Hf2      1.0000 0.64121  0.01836  0.25637  Biso   1.000  Hf
  Hf3      1.0000 0.63259  0.51516  0.25720  Biso   1.000  Hf
  Hf4      1.0000 0.13181  0.24234  0.74637  Biso   1.000  Hf
  Hf5      1.0000 0.13645  0.72924  0.75814  Biso   1.000  Hf
  Hf6      1.0000 0.63793  0.23749  0.75258  Biso   1.000  Hf
  Hf7      1.0000 0.63862  0.72681  0.75412  Biso   1.000  Hf
  Hf8      1.0000 0.36310  0.27051  0.25816  Biso   1.000  Hf
  Hf9      1.0000 0.36774  0.75742  0.24642  Biso   1.000  Hf
  Hf10     1.0000 0.86090  0.27295  0.25410  Biso   1.000  Hf
  Hf11     1.0000 0.86160  0.76225  0.25259  Biso   1.000  Hf
  Hf12     1.0000 0.36504  0.48208  0.75342  Biso   1.000  Hf
  La2      1.0000 0.37872  0.99054  0.74971  Biso   1.000  La
  Hf13     1.0000 0.86698  0.48459  0.75716  Biso   1.000  Hf
  Hf14     1.0000 0.85834  0.98136  0.75633  Biso   1.000  Hf
  O1       1.0000 0.02797  0.20736  0.39239  Biso   1.000  O 
  O2       1.0000 0.03475  0.68631  0.38988  Biso   1.000  O 
  O3       1.0000 0.53213  0.17933  0.40225  Biso   1.000  O 
  O4       1.0000 0.53655  0.67667  0.39795  Biso   1.000  O 
  O5       1.0000 0.03466  0.06863  0.81239  Biso   1.000  O 
  O6       1.0000 0.03327  0.56841  0.89479  Biso   1.000  O 
  O7       1.0000 0.56966  0.06989  0.89324  Biso   1.000  O 
  O8       1.0000 0.53678  0.55772  0.89532  Biso   1.000  O 
  O9       1.0000 0.46629  0.43133  0.39482  Biso   1.000  O 
  O10      1.0000 0.46487  0.93113  0.31245  Biso   1.000  O 
  O11      1.0000 0.96278  0.44203  0.39530  Biso   1.000  O 
  O12      1.0000 0.92990  0.92983  0.39323  Biso   1.000  O 
  O13      1.0000 0.46480  0.31342  0.88987  Biso   1.000  O 
  O14      1.0000 0.47157  0.79241  0.89244  Biso   1.000  O 
  O15      1.0000 0.96299  0.32308  0.89796  Biso   1.000  O 
  O16      1.0000 0.96744  0.82041  0.90225  Biso   1.000  O 
  O17      1.0000 0.26809  0.14123  0.49882  Biso   1.000  O 
  O18      1.0000 0.26882  0.61195  0.50130  Biso   1.000  O 
  O19      1.0000 0.76942  0.12322  0.51023  Biso   1.000  O 
  O20      1.0000 0.77150  0.61623  0.50042  Biso   1.000  O 
  O21      1.0000 0.26159  0.15039  0.00258  Biso   1.000  O 
  O22      1.0000 0.27190  0.62412  0.00032  Biso   1.000  O 
  O23      1.0000 0.78425  0.13293  0.01257  Biso   1.000  O 
  O24      1.0000 0.76987  0.62812  0.00154  Biso   1.000  O 
  O25      1.0000 0.23074  0.38780  0.00129  Biso   1.000  O 
  O26      1.0000 0.23144  0.85852  0.99885  Biso   1.000  O 
  O27      1.0000 0.72806  0.38352  0.00043  Biso   1.000  O 
  O28      1.0000 0.73012  0.87651  0.01020  Biso   1.000  O 
  O29      1.0000 0.22767  0.37562  0.50031  Biso   1.000  O 
  O30      1.0000 0.23794  0.84939  0.50258  Biso   1.000  O 
  O31      1.0000 0.72967  0.37163  0.50155  Biso   1.000  O 
  O32      1.0000 0.71529  0.86679  0.51255  Biso   1.000  O 
