data_image0
_cell_length_a       10.0465
_cell_length_b       5.20701
_cell_length_c       10.0608
_cell_angle_alpha    90.3279
_cell_angle_beta     89.7634
_cell_angle_gamma    89.648

_symmetry_space_group_name_H-M    "P 1"
_symmetry_int_tables_number       1

loop_
  _symmetry_equiv_pos_as_xyz
  'x, y, z'

loop_
  _atom_site_label
  _atom_site_occupancy
  _atom_site_fract_x
  _atom_site_fract_y
  _atom_site_fract_z
  _atom_site_thermal_displace_type
  _atom_site_B_iso_or_equiv
  _atom_site_type_symbol
  La1      1.0000 0.12814  0.00947  0.11363  Biso   1.000  La
  Hf1      1.0000 0.13196  0.02800  0.62281  Biso   1.000  Hf
  Hf2      1.0000 0.63780  0.02798  0.13124  Biso   1.000  Hf
  Hf3      1.0000 0.63462  0.03455  0.62481  Biso   1.000  Hf
  Hf4      1.0000 0.13653  0.45983  0.37443  Biso   1.000  Hf
  Hf5      1.0000 0.12701  0.46461  0.86157  Biso   1.000  Hf
  Hf6      1.0000 0.63287  0.46479  0.37965  Biso   1.000  Hf
  Hf7      1.0000 0.63389  0.47050  0.87906  Biso   1.000  Hf
  Hf8      1.0000 0.37687  0.51763  0.12676  Biso   1.000  Hf
  Hf9      1.0000 0.36416  0.52924  0.62479  Biso   1.000  Hf
  Hf10     1.0000 0.86189  0.53165  0.13255  Biso   1.000  Hf
  Hf11     1.0000 0.86480  0.53435  0.62246  Biso   1.000  Hf
  Hf12     1.0000 0.36669  0.96263  0.37388  Biso   1.000  Hf
  Hf13     1.0000 0.38059  0.99075  0.86352  Biso   1.000  Hf
  Hf14     1.0000 0.86532  0.96355  0.37929  Biso   1.000  Hf
  Hf15     1.0000 0.86109  0.96525  0.87352  Biso   1.000  Hf
  O1       1.0000 0.03119  0.38802  0.20192  Biso   1.000  O 
  O2       1.0000 0.03795  0.37461  0.68011  Biso   1.000  O 
  O3       1.0000 0.54133  0.36336  0.19808  Biso   1.000  O 
  O4       1.0000 0.52848  0.35654  0.70466  Biso   1.000  O 
  O5       1.0000 0.03716  0.12461  0.44151  Biso   1.000  O 
  O6       1.0000 0.02824  0.14835  0.91449  Biso   1.000  O 
  O7       1.0000 0.53533  0.12822  0.44729  Biso   1.000  O 
  O8       1.0000 0.53621  0.14665  0.95453  Biso   1.000  O 
  O9       1.0000 0.46829  0.86286  0.19505  Biso   1.000  O 
  O10      1.0000 0.46746  0.86097  0.69075  Biso   1.000  O 
  O11      1.0000 0.93956  0.87017  0.20038  Biso   1.000  O 
  O12      1.0000 0.96221  0.86485  0.69427  Biso   1.000  O 
  O13      1.0000 0.46464  0.62749  0.44883  Biso   1.000  O 
  O14      1.0000 0.46290  0.65036  0.94304  Biso   1.000  O 
  O15      1.0000 0.96432  0.63035  0.44573  Biso   1.000  O 
  O16      1.0000 0.97906  0.65876  0.95878  Biso   1.000  O 
  O17      1.0000 0.28178  0.23477  0.25122  Biso   1.000  O 
  O18      1.0000 0.26742  0.23198  0.74208  Biso   1.000  O 
  O19      1.0000 0.76857  0.23554  0.25477  Biso   1.000  O 
  O20      1.0000 0.76800  0.23856  0.75056  Biso   1.000  O 
  O21      1.0000 0.27012  0.25870  0.49923  Biso   1.000  O 
  O22      1.0000 0.26834  0.30814  0.98735  Biso   1.000  O 
  O23      1.0000 0.76782  0.26420  0.50269  Biso   1.000  O 
  O24      1.0000 0.77200  0.26381  0.00076  Biso   1.000  O 
  O25      1.0000 0.22948  0.76064  0.50087  Biso   1.000  O 
  O26      1.0000 0.72936  0.76239  0.50268  Biso   1.000  O 
  O27      1.0000 0.72969  0.76063  0.00085  Biso   1.000  O 
  O28      1.0000 0.24332  0.70986  0.25063  Biso   1.000  O 
  O29      1.0000 0.23350  0.74095  0.75654  Biso   1.000  O 
  O30      1.0000 0.72022  0.73113  0.25497  Biso   1.000  O 
  O31      1.0000 0.72838  0.73516  0.75096  Biso   1.000  O 
