data_image0
_cell_length_a       10.0621
_cell_length_b       10.3996
_cell_length_c       10.103
_cell_angle_alpha    90.3226
_cell_angle_beta     90.5206
_cell_angle_gamma    90.0282

_symmetry_space_group_name_H-M    "P 1"
_symmetry_int_tables_number       1

loop_
  _symmetry_equiv_pos_as_xyz
  'x, y, z'

loop_
  _atom_site_label
  _atom_site_occupancy
  _atom_site_fract_x
  _atom_site_fract_y
  _atom_site_fract_z
  _atom_site_thermal_displace_type
  _atom_site_B_iso_or_equiv
  _atom_site_type_symbol
  La1      1.0000 0.12382  0.00544  0.12052  Biso   1.000  La
  Hf1      1.0000 0.13259  0.01493  0.62519  Biso   1.000  Hf
  Hf2      1.0000 0.13317  0.51697  0.12483  Biso   1.000  Hf
  Hf3      1.0000 0.13440  0.51583  0.62538  Biso   1.000  Hf
  Hf4      1.0000 0.63440  0.01579  0.12537  Biso   1.000  Hf
  Hf5      1.0000 0.63318  0.01692  0.62487  Biso   1.000  Hf
  Hf6      1.0000 0.63257  0.51490  0.12517  Biso   1.000  Hf
  La2      1.0000 0.62384  0.50547  0.62054  Biso   1.000  La
  Hf7      1.0000 0.13717  0.23309  0.37607  Biso   1.000  Hf
  Hf8      1.0000 0.13331  0.23527  0.87322  Biso   1.000  Hf
  Hf9      1.0000 0.13614  0.73278  0.37687  Biso   1.000  Hf
  Hf10     1.0000 0.13566  0.73290  0.87394  Biso   1.000  Hf
  Hf11     1.0000 0.63565  0.23288  0.37394  Biso   1.000  Hf
  Hf12     1.0000 0.63610  0.23279  0.87686  Biso   1.000  Hf
  Hf13     1.0000 0.63330  0.73523  0.37321  Biso   1.000  Hf
  Hf14     1.0000 0.63715  0.73308  0.87609  Biso   1.000  Hf
  Hf15     1.0000 0.36540  0.26424  0.12629  Biso   1.000  Hf
  Hf16     1.0000 0.36154  0.26322  0.62739  Biso   1.000  Hf
  Hf17     1.0000 0.37064  0.76435  0.12308  Biso   1.000  Hf
  Hf18     1.0000 0.36316  0.76894  0.62552  Biso   1.000  Hf
  Hf19     1.0000 0.86318  0.26892  0.12549  Biso   1.000  Hf
  Hf20     1.0000 0.87062  0.26433  0.62310  Biso   1.000  Hf
  Hf21     1.0000 0.86155  0.76322  0.12736  Biso   1.000  Hf
  Hf22     1.0000 0.86538  0.76424  0.62629  Biso   1.000  Hf
  Hf23     1.0000 0.36234  0.48179  0.37177  Biso   1.000  Hf
  Hf24     1.0000 0.36170  0.48213  0.88166  Biso   1.000  Hf
  Hf25     1.0000 0.36676  0.98374  0.37508  Biso   1.000  Hf
  Hf26     1.0000 0.36949  0.98523  0.87333  Biso   1.000  Hf
  Hf27     1.0000 0.86948  0.48519  0.37330  Biso   1.000  Hf
  Hf28     1.0000 0.86679  0.48372  0.87506  Biso   1.000  Hf
  Hf29     1.0000 0.86166  0.98214  0.38166  Biso   1.000  Hf
  Hf30     1.0000 0.86234  0.98182  0.87178  Biso   1.000  Hf
  O1       1.0000 0.02686  0.19521  0.20537  Biso   1.000  O 
  O2       1.0000 0.04028  0.18581  0.68666  Biso   1.000  O 
  O3       1.0000 0.03589  0.68624  0.19628  Biso   1.000  O 
  O4       1.0000 0.03812  0.68457  0.69282  Biso   1.000  O 
  O5       1.0000 0.53814  0.18457  0.19281  Biso   1.000  O 
  O6       1.0000 0.53588  0.18621  0.69631  Biso   1.000  O 
  O7       1.0000 0.54026  0.68578  0.18669  Biso   1.000  O 
  O8       1.0000 0.52684  0.69519  0.70541  Biso   1.000  O 
  O9       1.0000 0.03346  0.06635  0.44384  Biso   1.000  O 
  O10      1.0000 0.02965  0.07412  0.91840  Biso   1.000  O 
  O11      1.0000 0.03888  0.56638  0.44404  Biso   1.000  O 
  O12      1.0000 0.03489  0.56972  0.94547  Biso   1.000  O 
  O13      1.0000 0.53487  0.06971  0.44545  Biso   1.000  O 
  O14      1.0000 0.53889  0.06637  0.94404  Biso   1.000  O 
  O15      1.0000 0.52959  0.57414  0.41840  Biso   1.000  O 
  O16      1.0000 0.53346  0.56634  0.94393  Biso   1.000  O 
  O17      1.0000 0.46295  0.43218  0.19365  Biso   1.000  O 
  O18      1.0000 0.44162  0.42634  0.70789  Biso   1.000  O 
  O19      1.0000 0.46523  0.93620  0.19495  Biso   1.000  O 
  O20      1.0000 0.46291  0.93863  0.69420  Biso   1.000  O 
  O21      1.0000 0.96293  0.43860  0.19421  Biso   1.000  O 
  O22      1.0000 0.96523  0.43618  0.69499  Biso   1.000  O 
  O23      1.0000 0.94152  0.92639  0.20782  Biso   1.000  O 
  O24      1.0000 0.96292  0.93219  0.69363  Biso   1.000  O 
  O25      1.0000 0.47395  0.32397  0.45563  Biso   1.000  O 
  O26      1.0000 0.46796  0.31703  0.94862  Biso   1.000  O 
  O27      1.0000 0.46835  0.82030  0.45050  Biso   1.000  O 
  O28      1.0000 0.47482  0.82209  0.94872  Biso   1.000  O 
  O29      1.0000 0.97483  0.32211  0.44870  Biso   1.000  O 
  O30      1.0000 0.96832  0.32028  0.95047  Biso   1.000  O 
  O31      1.0000 0.96797  0.81704  0.44860  Biso   1.000  O 
  O32      1.0000 0.97396  0.82396  0.95568  Biso   1.000  O 
  O33      1.0000 0.28087  0.12610  0.25523  Biso   1.000  O 
  O34      1.0000 0.27033  0.11715  0.74722  Biso   1.000  O 
  O35      1.0000 0.26932  0.61368  0.24791  Biso   1.000  O 
  O36      1.0000 0.26799  0.61691  0.75156  Biso   1.000  O 
  O37      1.0000 0.76795  0.11689  0.25162  Biso   1.000  O 
  O38      1.0000 0.76932  0.11367  0.74796  Biso   1.000  O 
  O39      1.0000 0.77032  0.61713  0.24721  Biso   1.000  O 
  O40      1.0000 0.78084  0.62609  0.75521  Biso   1.000  O 
  O41      1.0000 0.26889  0.12953  0.50010  Biso   1.000  O 
  O42      1.0000 0.27615  0.13693  0.99077  Biso   1.000  O 
  O43      1.0000 0.27251  0.63221  0.49981  Biso   1.000  O 
  O44      1.0000 0.26893  0.63094  0.00092  Biso   1.000  O 
  O45      1.0000 0.76892  0.13090  0.50098  Biso   1.000  O 
  O46      1.0000 0.77252  0.13219  0.99985  Biso   1.000  O 
  O47      1.0000 0.77613  0.63692  0.49078  Biso   1.000  O 
  O48      1.0000 0.76890  0.62952  0.00008  Biso   1.000  O 
  O49      1.0000 0.23354  0.38098  0.50022  Biso   1.000  O 
  O50      1.0000 0.22958  0.38185  0.00169  Biso   1.000  O 
  O51      1.0000 0.22932  0.88394  0.49820  Biso   1.000  O 
  O52      1.0000 0.24542  0.87175  0.98795  Biso   1.000  O 
  O53      1.0000 0.74543  0.37172  0.48795  Biso   1.000  O 
  O54      1.0000 0.72934  0.38393  0.99820  Biso   1.000  O 
  O55      1.0000 0.72959  0.88185  0.50169  Biso   1.000  O 
  O56      1.0000 0.73351  0.88097  0.00018  Biso   1.000  O 
  O57      1.0000 0.22789  0.36783  0.24904  Biso   1.000  O 
  O58      1.0000 0.21996  0.36735  0.74937  Biso   1.000  O 
  O59      1.0000 0.24495  0.85470  0.25595  Biso   1.000  O 
  O60      1.0000 0.22895  0.86872  0.74636  Biso   1.000  O 
  O61      1.0000 0.72897  0.36868  0.24636  Biso   1.000  O 
  O62      1.0000 0.74493  0.35469  0.75593  Biso   1.000  O 
  O63      1.0000 0.71992  0.86734  0.24937  Biso   1.000  O 
  O64      1.0000 0.72787  0.86784  0.74904  Biso   1.000  O 
