data_image0
_cell_length_a       10.0592
_cell_length_b       10.44
_cell_length_c       10.0667
_cell_angle_alpha    90.7959
_cell_angle_beta     90.5194
_cell_angle_gamma    89.8306

_symmetry_space_group_name_H-M    "P 1"
_symmetry_int_tables_number       1

loop_
  _symmetry_equiv_pos_as_xyz
  'x, y, z'

loop_
  _atom_site_label
  _atom_site_occupancy
  _atom_site_fract_x
  _atom_site_fract_y
  _atom_site_fract_z
  _atom_site_thermal_displace_type
  _atom_site_B_iso_or_equiv
  _atom_site_type_symbol
  La1      1.0000 0.11532  0.99544  0.11102  Biso   1.000  La
  Hf1      1.0000 0.13102  0.01499  0.62618  Biso   1.000  Hf
  Hf2      1.0000 0.13455  0.51519  0.12333  Biso   1.000  Hf
  Hf3      1.0000 0.13310  0.51619  0.62453  Biso   1.000  Hf
  Hf4      1.0000 0.63105  0.01472  0.12654  Biso   1.000  Hf
  Hf5      1.0000 0.63217  0.01671  0.62631  Biso   1.000  Hf
  Hf6      1.0000 0.63743  0.52008  0.12276  Biso   1.000  Hf
  Hf7      1.0000 0.63135  0.51667  0.62731  Biso   1.000  Hf
  La2      1.0000 0.12054  0.24167  0.37284  Biso   1.000  La
  Hf8      1.0000 0.13604  0.23772  0.87018  Biso   1.000  Hf
  Hf9      1.0000 0.13087  0.73073  0.37691  Biso   1.000  Hf
  Hf10     1.0000 0.13554  0.73349  0.87699  Biso   1.000  Hf
  Hf11     1.0000 0.63365  0.23370  0.37602  Biso   1.000  Hf
  Hf12     1.0000 0.63979  0.23325  0.87275  Biso   1.000  Hf
  Hf13     1.0000 0.63540  0.72999  0.37876  Biso   1.000  Hf
  Hf14     1.0000 0.63582  0.73517  0.87604  Biso   1.000  Hf
  Hf15     1.0000 0.38209  0.28124  0.10506  Biso   1.000  Hf
  Hf16     1.0000 0.36717  0.26474  0.61940  Biso   1.000  Hf
  Hf17     1.0000 0.36997  0.76385  0.12455  Biso   1.000  Hf
  Hf18     1.0000 0.36116  0.76398  0.63018  Biso   1.000  Hf
  Hf19     1.0000 0.86302  0.27013  0.12190  Biso   1.000  Hf
  Hf20     1.0000 0.86330  0.26850  0.62858  Biso   1.000  Hf
  Hf21     1.0000 0.86078  0.76627  0.13155  Biso   1.000  Hf
  Hf22     1.0000 0.86701  0.76364  0.62625  Biso   1.000  Hf
  Hf23     1.0000 0.36903  0.48399  0.37241  Biso   1.000  Hf
  Hf24     1.0000 0.36829  0.48879  0.86848  Biso   1.000  Hf
  Hf25     1.0000 0.37637  0.96543  0.38797  Biso   1.000  Hf
  Hf26     1.0000 0.37009  0.98616  0.87392  Biso   1.000  Hf
  Hf27     1.0000 0.86005  0.48408  0.37886  Biso   1.000  Hf
  Hf28     1.0000 0.86816  0.48605  0.87446  Biso   1.000  Hf
  Hf29     1.0000 0.85603  0.97986  0.38411  Biso   1.000  Hf
  Hf30     1.0000 0.86437  0.98274  0.87142  Biso   1.000  Hf
  O1       1.0000 0.02716  0.18556  0.17244  Biso   1.000  O 
  O2       1.0000 0.04133  0.19142  0.67868  Biso   1.000  O 
  O3       1.0000 0.03640  0.68486  0.19346  Biso   1.000  O 
  O4       1.0000 0.03503  0.68359  0.69872  Biso   1.000  O 
  O5       1.0000 0.52571  0.18205  0.19734  Biso   1.000  O 
  O6       1.0000 0.53609  0.18407  0.69487  Biso   1.000  O 
  O7       1.0000 0.53493  0.68387  0.19936  Biso   1.000  O 
  O8       1.0000 0.53154  0.68276  0.70056  Biso   1.000  O 
  O9       1.0000 0.02699  0.05018  0.45135  Biso   1.000  O 
  O10      1.0000 0.03578  0.07274  0.90592  Biso   1.000  O 
  O11      1.0000 0.03531  0.56190  0.44585  Biso   1.000  O 
  O12      1.0000 0.03484  0.57142  0.94650  Biso   1.000  O 
  O13      1.0000 0.54171  0.06258  0.44441  Biso   1.000  O 
  O14      1.0000 0.53697  0.07247  0.94526  Biso   1.000  O 
  O15      1.0000 0.53410  0.56745  0.44686  Biso   1.000  O 
  O16      1.0000 0.53556  0.57128  0.94651  Biso   1.000  O 
  O17      1.0000 0.47555  0.43845  0.19303  Biso   1.000  O 
  O18      1.0000 0.46487  0.43286  0.69188  Biso   1.000  O 
  O19      1.0000 0.45600  0.94192  0.19819  Biso   1.000  O 
  O20      1.0000 0.46462  0.93329  0.69603  Biso   1.000  O 
  O21      1.0000 0.97096  0.43228  0.20447  Biso   1.000  O 
  O22      1.0000 0.96528  0.43618  0.69741  Biso   1.000  O 
  O23      1.0000 0.93985  0.92488  0.21327  Biso   1.000  O 
  O24      1.0000 0.96231  0.93014  0.69347  Biso   1.000  O 
  O25      1.0000 0.46254  0.31306  0.44019  Biso   1.000  O 
  O26      1.0000 0.47327  0.32623  0.93597  Biso   1.000  O 
  O27      1.0000 0.46852  0.81278  0.45613  Biso   1.000  O 
  O28      1.0000 0.47879  0.82467  0.95349  Biso   1.000  O 
  O29      1.0000 0.94058  0.32265  0.45422  Biso   1.000  O 
  O30      1.0000 0.96591  0.32129  0.94267  Biso   1.000  O 
  O31      1.0000 0.95823  0.80680  0.44695  Biso   1.000  O 
  O32      1.0000 0.97846  0.83024  0.96255  Biso   1.000  O 
  O33      1.0000 0.27238  0.11913  0.74747  Biso   1.000  O 
  O34      1.0000 0.26807  0.61260  0.24844  Biso   1.000  O 
  O35      1.0000 0.26854  0.61855  0.74850  Biso   1.000  O 
  O36      1.0000 0.76337  0.11657  0.25101  Biso   1.000  O 
  O37      1.0000 0.77014  0.11752  0.75009  Biso   1.000  O 
  O38      1.0000 0.77027  0.61936  0.25007  Biso   1.000  O 
  O39      1.0000 0.76987  0.61757  0.74893  Biso   1.000  O 
  O40      1.0000 0.28280  0.11776  0.49139  Biso   1.000  O 
  O41      1.0000 0.27616  0.13885  0.00253  Biso   1.000  O 
  O42      1.0000 0.26924  0.63459  0.49877  Biso   1.000  O 
  O43      1.0000 0.27212  0.63188  0.99861  Biso   1.000  O 
  O44      1.0000 0.76620  0.13332  0.50397  Biso   1.000  O 
  O45      1.0000 0.77147  0.13249  0.99943  Biso   1.000  O 
  O46      1.0000 0.76838  0.62910  0.50109  Biso   1.000  O 
  O47      1.0000 0.77160  0.63491  0.99788  Biso   1.000  O 
  O48      1.0000 0.24211  0.39342  0.50261  Biso   1.000  O 
  O49      1.0000 0.23397  0.38952  0.98855  Biso   1.000  O 
  O50      1.0000 0.22765  0.87660  0.50367  Biso   1.000  O 
  O51      1.0000 0.24916  0.87046  0.98775  Biso   1.000  O 
  O52      1.0000 0.71764  0.38302  0.50143  Biso   1.000  O 
  O53      1.0000 0.73206  0.38590  0.99802  Biso   1.000  O 
  O54      1.0000 0.72641  0.87775  0.50487  Biso   1.000  O 
  O55      1.0000 0.73600  0.88382  0.00235  Biso   1.000  O 
  O56      1.0000 0.24802  0.36586  0.23294  Biso   1.000  O 
  O57      1.0000 0.23221  0.36742  0.74415  Biso   1.000  O 
  O58      1.0000 0.24247  0.85747  0.25933  Biso   1.000  O 
  O59      1.0000 0.22907  0.86804  0.74936  Biso   1.000  O 
  O60      1.0000 0.73002  0.36900  0.24984  Biso   1.000  O 
  O61      1.0000 0.73000  0.36926  0.75109  Biso   1.000  O 
  O62      1.0000 0.71211  0.86571  0.25227  Biso   1.000  O 
  O63      1.0000 0.73088  0.86689  0.75155  Biso   1.000  O 
