data_image0
_cell_length_a       10.0676
_cell_length_b       10.4076
_cell_length_c       10.0891
_cell_angle_alpha    89.7679
_cell_angle_beta     90.0773
_cell_angle_gamma    90.2767

_symmetry_space_group_name_H-M    "P 1"
_symmetry_int_tables_number       1

loop_
  _symmetry_equiv_pos_as_xyz
  'x, y, z'

loop_
  _atom_site_label
  _atom_site_occupancy
  _atom_site_fract_x
  _atom_site_fract_y
  _atom_site_fract_z
  _atom_site_thermal_displace_type
  _atom_site_B_iso_or_equiv
  _atom_site_type_symbol
  Hf1      1.0000 0.14810  0.99923  0.11244  Biso   1.000  Hf
  Hf2      1.0000 0.13943  0.01402  0.62635  Biso   1.000  Hf
  Hf3      1.0000 0.13668  0.51526  0.12621  Biso   1.000  Hf
  Hf4      1.0000 0.13561  0.51665  0.62671  Biso   1.000  Hf
  Hf5      1.0000 0.63205  0.01762  0.12386  Biso   1.000  Hf
  Hf6      1.0000 0.63176  0.01462  0.62318  Biso   1.000  Hf
  Hf7      1.0000 0.63273  0.52462  0.12612  Biso   1.000  Hf
  Hf8      1.0000 0.63218  0.51847  0.62838  Biso   1.000  Hf
  La1      1.0000 0.12922  0.25222  0.38061  Biso   1.000  La
  Hf9      1.0000 0.13226  0.23468  0.87394  Biso   1.000  Hf
  Hf10     1.0000 0.13413  0.72953  0.37561  Biso   1.000  Hf
  Hf11     1.0000 0.13379  0.72942  0.87269  Biso   1.000  Hf
  Hf12     1.0000 0.62997  0.23836  0.37477  Biso   1.000  Hf
  Hf13     1.0000 0.62790  0.23227  0.86962  Biso   1.000  Hf
  Hf14     1.0000 0.63579  0.73531  0.37849  Biso   1.000  Hf
  Hf15     1.0000 0.63379  0.73654  0.87429  Biso   1.000  Hf
  Hf16     1.0000 0.36801  0.26620  0.12138  Biso   1.000  Hf
  Hf17     1.0000 0.36713  0.26695  0.62641  Biso   1.000  Hf
  Hf18     1.0000 0.37039  0.76366  0.12503  Biso   1.000  Hf
  Hf19     1.0000 0.36675  0.76600  0.62127  Biso   1.000  Hf
  Hf20     1.0000 0.84382  0.27942  0.11312  Biso   1.000  Hf
  Hf21     1.0000 0.86045  0.26681  0.63252  Biso   1.000  Hf
  Hf22     1.0000 0.86743  0.76917  0.12283  Biso   1.000  Hf
  Hf23     1.0000 0.86644  0.76493  0.62958  Biso   1.000  Hf
  Hf24     1.0000 0.37333  0.48832  0.37228  Biso   1.000  Hf
  Hf25     1.0000 0.36657  0.48357  0.87508  Biso   1.000  Hf
  Hf26     1.0000 0.36486  0.98502  0.37346  Biso   1.000  Hf
  Hf27     1.0000 0.36997  0.98333  0.86987  Biso   1.000  Hf
  Hf28     1.0000 0.85978  0.48383  0.38109  Biso   1.000  Hf
  Hf29     1.0000 0.86870  0.48750  0.87140  Biso   1.000  Hf
  La2      1.0000 0.86820  0.98963  0.38102  Biso   1.000  La
  Hf30     1.0000 0.86711  0.98564  0.87478  Biso   1.000  Hf
  O1       1.0000 0.03202  0.18302  0.69795  Biso   1.000  O 
  O2       1.0000 0.03124  0.67464  0.19640  Biso   1.000  O 
  O3       1.0000 0.03407  0.67823  0.70012  Biso   1.000  O 
  O4       1.0000 0.53063  0.18201  0.19485  Biso   1.000  O 
  O5       1.0000 0.53206  0.18055  0.69706  Biso   1.000  O 
  O6       1.0000 0.53373  0.68280  0.19936  Biso   1.000  O 
  O7       1.0000 0.53504  0.68616  0.69624  Biso   1.000  O 
  O8       1.0000 0.05655  0.06037  0.45610  Biso   1.000  O 
  O9       1.0000 0.03071  0.07527  0.95945  Biso   1.000  O 
  O10      1.0000 0.04090  0.55130  0.44149  Biso   1.000  O 
  O11      1.0000 0.03419  0.56542  0.94909  Biso   1.000  O 
  O12      1.0000 0.54096  0.06196  0.43473  Biso   1.000  O 
  O13      1.0000 0.53391  0.06601  0.94475  Biso   1.000  O 
  O14      1.0000 0.53459  0.57219  0.45001  Biso   1.000  O 
  O15      1.0000 0.53383  0.56923  0.94664  Biso   1.000  O 
  O16      1.0000 0.47340  0.43216  0.19506  Biso   1.000  O 
  O17      1.0000 0.46809  0.43231  0.70112  Biso   1.000  O 
  O18      1.0000 0.46084  0.93512  0.18836  Biso   1.000  O 
  O19      1.0000 0.46293  0.93432  0.69339  Biso   1.000  O 
  O20      1.0000 0.98188  0.39902  0.20337  Biso   1.000  O 
  O21      1.0000 0.96466  0.43431  0.69636  Biso   1.000  O 
  O22      1.0000 0.97399  0.93461  0.17829  Biso   1.000  O 
  O23      1.0000 0.96632  0.93288  0.69699  Biso   1.000  O 
  O24      1.0000 0.46383  0.31710  0.44343  Biso   1.000  O 
  O25      1.0000 0.46376  0.31670  0.94466  Biso   1.000  O 
  O26      1.0000 0.46315  0.81781  0.44069  Biso   1.000  O 
  O27      1.0000 0.46766  0.81719  0.94539  Biso   1.000  O 
  O28      1.0000 0.93268  0.31284  0.45236  Biso   1.000  O 
  O29      1.0000 0.96096  0.31872  0.94407  Biso   1.000  O 
  O30      1.0000 0.97139  0.79830  0.45741  Biso   1.000  O 
  O31      1.0000 0.96844  0.81743  0.94152  Biso   1.000  O 
  O32      1.0000 0.25664  0.11412  0.23827  Biso   1.000  O 
  O33      1.0000 0.26684  0.11857  0.75244  Biso   1.000  O 
  O34      1.0000 0.27168  0.61775  0.24790  Biso   1.000  O 
  O35      1.0000 0.27126  0.61577  0.74867  Biso   1.000  O 
  O36      1.0000 0.76875  0.13588  0.23658  Biso   1.000  O 
  O37      1.0000 0.76627  0.11430  0.74999  Biso   1.000  O 
  O38      1.0000 0.77221  0.61973  0.24941  Biso   1.000  O 
  O39      1.0000 0.76831  0.61814  0.75014  Biso   1.000  O 
  O40      1.0000 0.29232  0.12504  0.50698  Biso   1.000  O 
  O41      1.0000 0.27050  0.13078  0.99496  Biso   1.000  O 
  O42      1.0000 0.26809  0.63559  0.49879  Biso   1.000  O 
  O43      1.0000 0.26940  0.63065  0.99929  Biso   1.000  O 
  O44      1.0000 0.75050  0.14519  0.51067  Biso   1.000  O 
  O45      1.0000 0.76431  0.13647  0.99270  Biso   1.000  O 
  O46      1.0000 0.77304  0.62941  0.50106  Biso   1.000  O 
  O47      1.0000 0.77046  0.63737  0.99800  Biso   1.000  O 
  O48      1.0000 0.24831  0.39601  0.50809  Biso   1.000  O 
  O49      1.0000 0.22750  0.38112  0.99524  Biso   1.000  O 
  O50      1.0000 0.23302  0.88056  0.49789  Biso   1.000  O 
  O51      1.0000 0.23584  0.87706  0.99260  Biso   1.000  O 
  O52      1.0000 0.71619  0.38947  0.50060  Biso   1.000  O 
  O53      1.0000 0.72653  0.38884  0.99810  Biso   1.000  O 
  O54      1.0000 0.71843  0.86901  0.51023  Biso   1.000  O 
  O55      1.0000 0.73373  0.88745  0.99768  Biso   1.000  O 
  O56      1.0000 0.24620  0.37785  0.23791  Biso   1.000  O 
  O57      1.0000 0.22920  0.36709  0.74871  Biso   1.000  O 
  O58      1.0000 0.23179  0.86052  0.24638  Biso   1.000  O 
  O59      1.0000 0.23275  0.86297  0.74806  Biso   1.000  O 
  O60      1.0000 0.72770  0.37823  0.24812  Biso   1.000  O 
  O61      1.0000 0.72904  0.36859  0.75237  Biso   1.000  O 
  O62      1.0000 0.72320  0.86410  0.24088  Biso   1.000  O 
  O63      1.0000 0.73177  0.86884  0.75257  Biso   1.000  O 
