data_image0
_cell_length_a       10.0549
_cell_length_b       10.4038
_cell_length_c       10.1052
_cell_angle_alpha    90.0015
_cell_angle_beta     90.0337
_cell_angle_gamma    90.0034

_symmetry_space_group_name_H-M    "P 1"
_symmetry_int_tables_number       1

loop_
  _symmetry_equiv_pos_as_xyz
  'x, y, z'

loop_
  _atom_site_label
  _atom_site_occupancy
  _atom_site_fract_x
  _atom_site_fract_y
  _atom_site_fract_z
  _atom_site_thermal_displace_type
  _atom_site_B_iso_or_equiv
  _atom_site_type_symbol
  La1      1.0000 0.12261  0.00791  0.11953  Biso   1.000  La
  Hf1      1.0000 0.13453  0.01728  0.62482  Biso   1.000  Hf
  Hf2      1.0000 0.12907  0.51398  0.12099  Biso   1.000  Hf
  Hf3      1.0000 0.13499  0.51639  0.62432  Biso   1.000  Hf
  Hf4      1.0000 0.63315  0.01567  0.12609  Biso   1.000  Hf
  Hf5      1.0000 0.63391  0.01699  0.62693  Biso   1.000  Hf
  Hf6      1.0000 0.63539  0.51639  0.12225  Biso   1.000  Hf
  Hf7      1.0000 0.63867  0.51610  0.63256  Biso   1.000  Hf
  Hf8      1.0000 0.13623  0.23546  0.37761  Biso   1.000  Hf
  Hf9      1.0000 0.13448  0.23775  0.86847  Biso   1.000  Hf
  Hf10     1.0000 0.13008  0.73629  0.37565  Biso   1.000  Hf
  Hf11     1.0000 0.13721  0.73278  0.87477  Biso   1.000  Hf
  Hf12     1.0000 0.63634  0.23122  0.37543  Biso   1.000  Hf
  Hf13     1.0000 0.63509  0.23207  0.87446  Biso   1.000  Hf
  Hf14     1.0000 0.63711  0.73503  0.38181  Biso   1.000  Hf
  Hf15     1.0000 0.63547  0.73379  0.87487  Biso   1.000  Hf
  Hf16     1.0000 0.36335  0.26219  0.12040  Biso   1.000  Hf
  Hf17     1.0000 0.36564  0.26499  0.62583  Biso   1.000  Hf
  Hf18     1.0000 0.36731  0.76304  0.12476  Biso   1.000  Hf
  Hf19     1.0000 0.36567  0.76775  0.62608  Biso   1.000  Hf
  Hf20     1.0000 0.86064  0.26863  0.12699  Biso   1.000  Hf
  Hf21     1.0000 0.86784  0.26830  0.62336  Biso   1.000  Hf
  Hf22     1.0000 0.85864  0.76574  0.12840  Biso   1.000  Hf
  Hf23     1.0000 0.86891  0.76631  0.62887  Biso   1.000  Hf
  La2      1.0000 0.37574  0.49264  0.36866  Biso   1.000  La
  Hf24     1.0000 0.36778  0.48286  0.87523  Biso   1.000  Hf
  Hf25     1.0000 0.36539  0.98440  0.37403  Biso   1.000  Hf
  Hf26     1.0000 0.36958  0.98434  0.87255  Biso   1.000  Hf
  Hf27     1.0000 0.86507  0.48508  0.37680  Biso   1.000  Hf
  Hf28     1.0000 0.86742  0.48239  0.87654  Biso   1.000  Hf
  Hf29     1.0000 0.86260  0.98418  0.38261  Biso   1.000  Hf
  Hf30     1.0000 0.86399  0.98358  0.87255  Biso   1.000  Hf
  O1       1.0000 0.02410  0.19564  0.20558  Biso   1.000  O 
  O2       1.0000 0.04054  0.18991  0.68346  Biso   1.000  O 
  O3       1.0000 0.02669  0.68305  0.19698  Biso   1.000  O 
  O4       1.0000 0.03482  0.68311  0.69924  Biso   1.000  O 
  O5       1.0000 0.53582  0.18144  0.19435  Biso   1.000  O 
  O6       1.0000 0.53559  0.18075  0.69711  Biso   1.000  O 
  O7       1.0000 0.52512  0.67160  0.20934  Biso   1.000  O 
  O8       1.0000 0.53542  0.68414  0.69880  Biso   1.000  O 
  O9       1.0000 0.03404  0.06709  0.44365  Biso   1.000  O 
  O10      1.0000 0.03016  0.07660  0.91647  Biso   1.000  O 
  O11      1.0000 0.03532  0.56507  0.44469  Biso   1.000  O 
  O12      1.0000 0.03350  0.57042  0.94444  Biso   1.000  O 
  O13      1.0000 0.53812  0.06145  0.44530  Biso   1.000  O 
  O14      1.0000 0.53805  0.06534  0.94482  Biso   1.000  O 
  O15      1.0000 0.55814  0.57114  0.45903  Biso   1.000  O 
  O16      1.0000 0.53717  0.56772  0.94387  Biso   1.000  O 
  O17      1.0000 0.46840  0.42413  0.16594  Biso   1.000  O 
  O18      1.0000 0.46718  0.43382  0.69268  Biso   1.000  O 
  O19      1.0000 0.46430  0.93214  0.19317  Biso   1.000  O 
  O20      1.0000 0.46659  0.93305  0.69635  Biso   1.000  O 
  O21      1.0000 0.95684  0.43909  0.19285  Biso   1.000  O 
  O22      1.0000 0.96680  0.43424  0.69863  Biso   1.000  O 
  O23      1.0000 0.94281  0.92472  0.21142  Biso   1.000  O 
  O24      1.0000 0.96415  0.93451  0.69415  Biso   1.000  O 
  O25      1.0000 0.47178  0.30277  0.45380  Biso   1.000  O 
  O26      1.0000 0.46392  0.31287  0.93381  Biso   1.000  O 
  O27      1.0000 0.46536  0.81453  0.44842  Biso   1.000  O 
  O28      1.0000 0.47376  0.81841  0.94872  Biso   1.000  O 
  O29      1.0000 0.96247  0.31887  0.44410  Biso   1.000  O 
  O30      1.0000 0.96742  0.32008  0.94964  Biso   1.000  O 
  O31      1.0000 0.96507  0.81841  0.45209  Biso   1.000  O 
  O32      1.0000 0.97459  0.82601  0.95676  Biso   1.000  O 
  O33      1.0000 0.27865  0.12569  0.25483  Biso   1.000  O 
  O34      1.0000 0.27102  0.11685  0.74598  Biso   1.000  O 
  O35      1.0000 0.25291  0.62363  0.23745  Biso   1.000  O 
  O36      1.0000 0.27163  0.61691  0.74893  Biso   1.000  O 
  O37      1.0000 0.76787  0.11603  0.25131  Biso   1.000  O 
  O38      1.0000 0.77112  0.11779  0.74852  Biso   1.000  O 
  O39      1.0000 0.76623  0.61967  0.25142  Biso   1.000  O 
  O40      1.0000 0.77270  0.61795  0.75232  Biso   1.000  O 
  O41      1.0000 0.27139  0.13049  0.50021  Biso   1.000  O 
  O42      1.0000 0.27442  0.13660  0.98746  Biso   1.000  O 
  O43      1.0000 0.25697  0.64511  0.50572  Biso   1.000  O 
  O44      1.0000 0.27171  0.62895  0.99590  Biso   1.000  O 
  O45      1.0000 0.76870  0.13369  0.50179  Biso   1.000  O 
  O46      1.0000 0.77173  0.13212  0.00018  Biso   1.000  O 
  O47      1.0000 0.78126  0.63398  0.50218  Biso   1.000  O 
  O48      1.0000 0.76965  0.63194  0.99952  Biso   1.000  O 
  O49      1.0000 0.22192  0.37465  0.50489  Biso   1.000  O 
  O50      1.0000 0.22976  0.38314  0.99506  Biso   1.000  O 
  O51      1.0000 0.23045  0.88796  0.49867  Biso   1.000  O 
  O52      1.0000 0.24460  0.87163  0.98895  Biso   1.000  O 
  O53      1.0000 0.73236  0.38371  0.50194  Biso   1.000  O 
  O54      1.0000 0.72889  0.38227  0.99821  Biso   1.000  O 
  O55      1.0000 0.72969  0.88172  0.50323  Biso   1.000  O 
  O56      1.0000 0.73221  0.88162  0.00013  Biso   1.000  O 
  O57      1.0000 0.22063  0.36359  0.23901  Biso   1.000  O 
  O58      1.0000 0.23354  0.37039  0.74838  Biso   1.000  O 
  O59      1.0000 0.24180  0.85829  0.25629  Biso   1.000  O 
  O60      1.0000 0.22999  0.86788  0.74620  Biso   1.000  O 
  O61      1.0000 0.72573  0.36890  0.25089  Biso   1.000  O 
  O62      1.0000 0.73383  0.36582  0.75121  Biso   1.000  O 
  O63      1.0000 0.71694  0.86677  0.25036  Biso   1.000  O 
  O64      1.0000 0.73115  0.86748  0.75036  Biso   1.000  O 
