data_image0
_cell_length_a       10.0193
_cell_length_b       10.2454
_cell_length_c       10.4346
_cell_angle_alpha    89.8294
_cell_angle_beta     90.3988
_cell_angle_gamma    89.8634

_symmetry_space_group_name_H-M    "P 1"
_symmetry_int_tables_number       1

loop_
  _symmetry_equiv_pos_as_xyz
  'x, y, z'

loop_
  _atom_site_label
  _atom_site_occupancy
  _atom_site_fract_x
  _atom_site_fract_y
  _atom_site_fract_z
  _atom_site_thermal_displace_type
  _atom_site_B_iso_or_equiv
  _atom_site_type_symbol
  Ag1      1.0000 0.12587  0.01627  0.18905  Biso   1.000  Ag
  Hf1      1.0000 0.13934  0.23371  0.42082  Biso   1.000  Hf
  Hf2      1.0000 0.35930  0.26989  0.16665  Biso   1.000  Hf
  Hf3      1.0000 0.36079  0.47986  0.42033  Biso   1.000  Hf
  Hf4      1.0000 0.64016  0.02167  0.07808  Biso   1.000  Hf
  Hf5      1.0000 0.63655  0.22986  0.32884  Biso   1.000  Hf
  Hf6      1.0000 0.86409  0.26838  0.08230  Biso   1.000  Hf
  Hf7      1.0000 0.86008  0.47957  0.32915  Biso   1.000  Hf
  O1       1.0000 0.04303  0.16607  0.09131  Biso   1.000  O
  O2       1.0000 0.02595  0.08298  0.35788  Biso   1.000  O
  O3       1.0000 0.46677  0.41678  0.08465  Biso   1.000  O
  O4       1.0000 0.46310  0.33059  0.33601  Biso   1.000  O
  O5       1.0000 0.27198  0.12247  0.28944  Biso   1.000  O
  O6       1.0000 0.29475  0.13872  0.03028  Biso   1.000  O
  O7       1.0000 0.22308  0.37498  0.29397  Biso   1.000  O
  O8       1.0000 0.22152  0.37952  0.04424  Biso   1.000  O
  O9       1.0000 0.53553  0.16829  0.16371  Biso   1.000  O
  O10      1.0000 0.53262  0.08171  0.41358  Biso   1.000  O
  O11      1.0000 0.96522  0.41841  0.16534  Biso   1.000  O
  O12      1.0000 0.96491  0.33468  0.41675  Biso   1.000  O
  O13      1.0000 0.77340  0.12421  0.45789  Biso   1.000  O
  O14      1.0000 0.77694  0.12643  0.20824  Biso   1.000  O
  O15      1.0000 0.72239  0.37440  0.45594  Biso   1.000  O
  O16      1.0000 0.72378  0.37530  0.20609  Biso   1.000  O
  Hf8      1.0000 0.13854  0.02050  0.66809  Biso   1.000  Hf
  Hf9      1.0000 0.14457  0.22479  0.92181  Biso   1.000  Hf
  Hf10     1.0000 0.36169  0.27114  0.67065  Biso   1.000  Hf
  Hf11     1.0000 0.36140  0.47833  0.92097  Biso   1.000  Hf
  Hf12     1.0000 0.63679  0.02112  0.58041  Biso   1.000  Hf
  Hf13     1.0000 0.64012  0.22907  0.82972  Biso   1.000  Hf
  Hf14     1.0000 0.86001  0.27160  0.58000  Biso   1.000  Hf
  Hf15     1.0000 0.86424  0.47674  0.83142  Biso   1.000  Hf
  O17      1.0000 0.03479  0.17081  0.58692  Biso   1.000  O
  O18      1.0000 0.03619  0.08127  0.83453  Biso   1.000  O
  O19      1.0000 0.46572  0.41832  0.58479  Biso   1.000  O
  O20      1.0000 0.46761  0.33293  0.83423  Biso   1.000  O
  O21      1.0000 0.27686  0.12178  0.78809  Biso   1.000  O
  O22      1.0000 0.27698  0.12780  0.54012  Biso   1.000  O
  O23      1.0000 0.22476  0.37223  0.79487  Biso   1.000  O
  O24      1.0000 0.22285  0.37720  0.54468  Biso   1.000  O
  O25      1.0000 0.53461  0.16843  0.66394  Biso   1.000  O
  O26      1.0000 0.53899  0.08033  0.91188  Biso   1.000  O
  O27      1.0000 0.96686  0.41572  0.66781  Biso   1.000  O
  O28      1.0000 0.96883  0.32902  0.92022  Biso   1.000  O
  O29      1.0000 0.78015  0.12357  0.95693  Biso   1.000  O
  O30      1.0000 0.77697  0.12645  0.70634  Biso   1.000  O
  O31      1.0000 0.72595  0.37263  0.95719  Biso   1.000  O
  O32      1.0000 0.72446  0.37635  0.70636  Biso   1.000  O
  Hf16     1.0000 0.13871  0.52163  0.17038  Biso   1.000  Hf
  Hf17     1.0000 0.13566  0.72754  0.42133  Biso   1.000  Hf
  Hf18     1.0000 0.36049  0.77269  0.16639  Biso   1.000  Hf
  Hf19     1.0000 0.36023  0.97951  0.41924  Biso   1.000  Hf
  Hf20     1.0000 0.63890  0.52008  0.07843  Biso   1.000  Hf
  Hf21     1.0000 0.63664  0.72819  0.32765  Biso   1.000  Hf
  Hf22     1.0000 0.86162  0.76902  0.07703  Biso   1.000  Hf
  Hf23     1.0000 0.85464  0.97893  0.33414  Biso   1.000  Hf
  O33      1.0000 0.03624  0.67131  0.08691  Biso   1.000  O
  O34      1.0000 0.03340  0.58150  0.33573  Biso   1.000  O
  O35      1.0000 0.47012  0.91708  0.08407  Biso   1.000  O
  O36      1.0000 0.46246  0.83230  0.33376  Biso   1.000  O
  O37      1.0000 0.27526  0.62658  0.29411  Biso   1.000  O
  O38      1.0000 0.27748  0.62499  0.04401  Biso   1.000  O
  O39      1.0000 0.21907  0.87337  0.29042  Biso   1.000  O
  O40      1.0000 0.23114  0.87301  0.03767  Biso   1.000  O
  O41      1.0000 0.53364  0.66721  0.16337  Biso   1.000  O
  O42      1.0000 0.53341  0.58212  0.41351  Biso   1.000  O
  O43      1.0000 0.95512  0.92458  0.16382  Biso   1.000  O
  O44      1.0000 0.96226  0.83001  0.41363  Biso   1.000  O
  O45      1.0000 0.77524  0.62405  0.45565  Biso   1.000  O
  O46      1.0000 0.77576  0.62609  0.20528  Biso   1.000  O
  O47      1.0000 0.71982  0.87347  0.45608  Biso   1.000  O
  O48      1.0000 0.72494  0.87521  0.20545  Biso   1.000  O
  Hf24     1.0000 0.13908  0.52062  0.67267  Biso   1.000  Hf
  Hf25     1.0000 0.14122  0.73122  0.92040  Biso   1.000  Hf
  Hf26     1.0000 0.36103  0.77101  0.67008  Biso   1.000  Hf
  Hf27     1.0000 0.36180  0.98036  0.92060  Biso   1.000  Hf
  Hf28     1.0000 0.63875  0.52088  0.57951  Biso   1.000  Hf
  Hf29     1.0000 0.63891  0.72912  0.82852  Biso   1.000  Hf
  Hf30     1.0000 0.85988  0.77019  0.57988  Biso   1.000  Hf
  Hf31     1.0000 0.86277  0.97954  0.82927  Biso   1.000  Hf
  O49      1.0000 0.03315  0.66673  0.58605  Biso   1.000  O
  O50      1.0000 0.03596  0.58054  0.83752  Biso   1.000  O
  O51      1.0000 0.46432  0.91799  0.58418  Biso   1.000  O
  O52      1.0000 0.46677  0.83263  0.83321  Biso   1.000  O
  O53      1.0000 0.27747  0.62357  0.79392  Biso   1.000  O
  O54      1.0000 0.27537  0.62575  0.54436  Biso   1.000  O
  O55      1.0000 0.22313  0.87313  0.79079  Biso   1.000  O
  O56      1.0000 0.22264  0.87636  0.54111  Biso   1.000  O
  O57      1.0000 0.53465  0.66791  0.66339  Biso   1.000  O
  O58      1.0000 0.53490  0.58210  0.91401  Biso   1.000  O
  O59      1.0000 0.96483  0.91820  0.66293  Biso   1.000  O
  O60      1.0000 0.96631  0.83118  0.91372  Biso   1.000  O
  O61      1.0000 0.77799  0.62288  0.95620  Biso   1.000  O
  O62      1.0000 0.77761  0.62524  0.70669  Biso   1.000  O
  O63      1.0000 0.72459  0.87331  0.95495  Biso   1.000  O
  O64      1.0000 0.72357  0.87614  0.70549  Biso   1.000  O
