data_image0
_cell_length_a       10.0221
_cell_length_b       5.12086
_cell_length_c       10.4376
_cell_angle_alpha    89.6751
_cell_angle_beta     90.7894
_cell_angle_gamma    89.7044

_symmetry_space_group_name_H-M    "P 1"
_symmetry_int_tables_number       1

loop_
  _symmetry_equiv_pos_as_xyz
  'x, y, z'

loop_
  _atom_site_label
  _atom_site_occupancy
  _atom_site_fract_x
  _atom_site_fract_y
  _atom_site_fract_z
  _atom_site_thermal_displace_type
  _atom_site_B_iso_or_equiv
  _atom_site_type_symbol
  Ag1      1.0000 0.12574  0.03156  0.18723  Biso   1.000  Ag
  Hf1      1.0000 0.13619  0.46340  0.42057  Biso   1.000  Hf
  Hf2      1.0000 0.35862  0.54385  0.16266  Biso   1.000  Hf
  Hf3      1.0000 0.35973  0.96083  0.41843  Biso   1.000  Hf
  Hf4      1.0000 0.64018  0.04119  0.07789  Biso   1.000  Hf
  Hf5      1.0000 0.63463  0.45772  0.32788  Biso   1.000  Hf
  Hf6      1.0000 0.86465  0.53153  0.08056  Biso   1.000  Hf
  Hf7      1.0000 0.85352  0.95868  0.33473  Biso   1.000  Hf
  O1       1.0000 0.04437  0.33493  0.09085  Biso   1.000  O
  O2       1.0000 0.02520  0.16590  0.35525  Biso   1.000  O
  O3       1.0000 0.47036  0.83387  0.08379  Biso   1.000  O
  O4       1.0000 0.45898  0.65866  0.33529  Biso   1.000  O
  O5       1.0000 0.27195  0.24899  0.28863  Biso   1.000  O
  O6       1.0000 0.29610  0.27789  0.02878  Biso   1.000  O
  O7       1.0000 0.21849  0.74796  0.28998  Biso   1.000  O
  O8       1.0000 0.22769  0.75848  0.03870  Biso   1.000  O
  O9       1.0000 0.53558  0.33716  0.16235  Biso   1.000  O
  O10      1.0000 0.53258  0.16087  0.41206  Biso   1.000  O
  O11      1.0000 0.95418  0.84737  0.16533  Biso   1.000  O
  O12      1.0000 0.96152  0.66489  0.41619  Biso   1.000  O
  O13      1.0000 0.77240  0.24879  0.45826  Biso   1.000  O
  O14      1.0000 0.77609  0.25219  0.20807  Biso   1.000  O
  O15      1.0000 0.71896  0.74763  0.45701  Biso   1.000  O
  O16      1.0000 0.72512  0.74877  0.20660  Biso   1.000  O
  Hf8      1.0000 0.13871  0.04058  0.66926  Biso   1.000  Hf
  Hf9      1.0000 0.14636  0.45414  0.92038  Biso   1.000  Hf
  Hf10     1.0000 0.36149  0.54262  0.66949  Biso   1.000  Hf
  Hf11     1.0000 0.36215  0.96046  0.92010  Biso   1.000  Hf
  Hf12     1.0000 0.63691  0.04187  0.58121  Biso   1.000  Hf
  Hf13     1.0000 0.64025  0.45854  0.82952  Biso   1.000  Hf
  Hf14     1.0000 0.85914  0.54131  0.58132  Biso   1.000  Hf
  Hf15     1.0000 0.86571  0.95488  0.83203  Biso   1.000  Hf
  O17      1.0000 0.03443  0.34080  0.58763  Biso   1.000  O
  O18      1.0000 0.03772  0.16077  0.83598  Biso   1.000  O
  O19      1.0000 0.46394  0.83898  0.58426  Biso   1.000  O
  O20      1.0000 0.46802  0.66502  0.83275  Biso   1.000  O
  O21      1.0000 0.27760  0.24317  0.78705  Biso   1.000  O
  O22      1.0000 0.27593  0.25500  0.53954  Biso   1.000  O
  O23      1.0000 0.22473  0.74370  0.79157  Biso   1.000  O
  O24      1.0000 0.22209  0.75490  0.54140  Biso   1.000  O
  O25      1.0000 0.53544  0.33897  0.66232  Biso   1.000  O
  O26      1.0000 0.54007  0.15897  0.91095  Biso   1.000  O
  O27      1.0000 0.96583  0.83312  0.66652  Biso   1.000  O
  O28      1.0000 0.96944  0.65707  0.92024  Biso   1.000  O
  O29      1.0000 0.78123  0.24464  0.95764  Biso   1.000  O
  O30      1.0000 0.77797  0.25111  0.70773  Biso   1.000  O
  O31      1.0000 0.72720  0.74341  0.95715  Biso   1.000  O
  O32      1.0000 0.72480  0.75288  0.70685  Biso   1.000  O
