data_image0
_cell_length_a       10.1651
_cell_length_b       10.2878
_cell_length_c       10.5101
_cell_angle_alpha    90.1369
_cell_angle_beta     79.758
_cell_angle_gamma    90.0225

_symmetry_space_group_name_H-M    "P 1"
_symmetry_int_tables_number       1

loop_
  _symmetry_equiv_pos_as_xyz
  'x, y, z'

loop_
  _atom_site_label
  _atom_site_occupancy
  _atom_site_fract_x
  _atom_site_fract_y
  _atom_site_fract_z
  _atom_site_thermal_displace_type
  _atom_site_B_iso_or_equiv
  _atom_site_type_symbol
  Hf1      1.0000 0.13252  0.02099  0.14377  Biso   1.000  Hf
  Hf2      1.0000 0.13947  0.22888  0.39284  Biso   1.000  Hf
  Hf3      1.0000 0.35084  0.27411  0.09400  Biso   1.000  Hf
  Hf4      1.0000 0.35912  0.47985  0.35025  Biso   1.000  Hf
  O1       1.0000 0.03236  0.16855  0.07684  Biso   1.000  O
  O2       1.0000 0.03107  0.08140  0.32969  Biso   1.000  O
  O3       1.0000 0.46035  0.42634  0.16346  Biso   1.000  O
  O4       1.0000 0.48493  0.35908  0.44265  Biso   1.000  O
  O5       1.0000 0.26375  0.12449  0.23365  Biso   1.000  O
  O6       1.0000 0.27814  0.11729  0.48992  Biso   1.000  O
  O7       1.0000 0.21767  0.38298  0.00389  Biso   1.000  O
  O8       1.0000 0.21098  0.37525  0.25346  Biso   1.000  O
  Hf5      1.0000 0.13875  0.02079  0.64541  Biso   1.000  Hf
  Hf6      1.0000 0.13502  0.22898  0.89281  Biso   1.000  Hf
  Hf7      1.0000 0.36198  0.27491  0.60721  Biso   1.000  Hf
  Hf8      1.0000 0.35961  0.48068  0.85462  Biso   1.000  Hf
  O9       1.0000 0.03857  0.16838  0.57860  Biso   1.000  O
  O10      1.0000 0.03295  0.08254  0.82740  Biso   1.000  O
  O11      1.0000 0.46671  0.41543  0.67964  Biso   1.000  O
  O12      1.0000 0.46392  0.33384  0.92067  Biso   1.000  O
  O13      1.0000 0.27515  0.12916  0.73887  Biso   1.000  O
  O14      1.0000 0.27201  0.12310  0.98563  Biso   1.000  O
  O15      1.0000 0.22701  0.37688  0.50846  Biso   1.000  O
  O16      1.0000 0.22343  0.37190  0.75797  Biso   1.000  O
  Hf9      1.0000 0.13730  0.52367  0.14511  Biso   1.000  Hf
  Hf10     1.0000 0.13723  0.72740  0.39661  Biso   1.000  Hf
  Hf11     1.0000 0.35990  0.77301  0.10445  Biso   1.000  Hf
  Hf12     1.0000 0.36036  0.96865  0.35741  Biso   1.000  Hf
  O17      1.0000 0.03242  0.66931  0.07814  Biso   1.000  O
  O18      1.0000 0.03297  0.58435  0.32797  Biso   1.000  O
  O19      1.0000 0.46411  0.91960  0.17376  Biso   1.000  O
  O20      1.0000 0.46180  0.82514  0.42246  Biso   1.000  O
  O21      1.0000 0.27483  0.62986  0.24084  Biso   1.000  O
  O22      1.0000 0.27406  0.62006  0.49092  Biso   1.000  O
  O23      1.0000 0.22280  0.87996  0.00986  Biso   1.000  O
  O24      1.0000 0.22220  0.86963  0.26080  Biso   1.000  O
  Hf13     1.0000 0.13886  0.52195  0.64525  Biso   1.000  Hf
  Hf14     1.0000 0.13672  0.72930  0.89669  Biso   1.000  Hf
  Hf15     1.0000 0.36070  0.76916  0.60564  Biso   1.000  Hf
  Hf16     1.0000 0.35982  0.97896  0.85347  Biso   1.000  Hf
  O25      1.0000 0.03257  0.66635  0.57906  Biso   1.000  O
  O26      1.0000 0.03429  0.58334  0.82854  Biso   1.000  O
  O27      1.0000 0.46454  0.91659  0.67124  Biso   1.000  O
  O28      1.0000 0.46437  0.83520  0.92232  Biso   1.000  O
  O29      1.0000 0.27560  0.62805  0.74091  Biso   1.000  O
  O30      1.0000 0.27547  0.62426  0.99107  Biso   1.000  O
  O31      1.0000 0.22253  0.87604  0.51128  Biso   1.000  O
  O32      1.0000 0.22291  0.87098  0.76028  Biso   1.000  O
  Hf17     1.0000 0.64034  0.01946  0.14797  Biso   1.000  Hf
  Hf18     1.0000 0.65404  0.23156  0.40770  Biso   1.000  Hf
  Hf19     1.0000 0.85909  0.27318  0.10549  Biso   1.000  Hf
  Hf20     1.0000 0.86258  0.47885  0.35411  Biso   1.000  Hf
  O33      1.0000 0.53051  0.16517  0.07913  Biso   1.000  O
  O34      1.0000 0.55051  0.06134  0.34478  Biso   1.000  O
  O35      1.0000 0.96237  0.42000  0.16982  Biso   1.000  O
  O36      1.0000 0.96567  0.33236  0.42194  Biso   1.000  O
  O37      1.0000 0.77707  0.13058  0.24254  Biso   1.000  O
  O38      1.0000 0.78155  0.11936  0.49574  Biso   1.000  O
  O39      1.0000 0.72161  0.37896  0.01216  Biso   1.000  O
  O40      1.0000 0.72263  0.37198  0.26304  Biso   1.000  O
  Hf21     1.0000 0.63775  0.02112  0.64791  Biso   1.000  Hf
  Hf22     1.0000 0.63758  0.22865  0.89811  Biso   1.000  Hf
  Hf23     1.0000 0.86607  0.27124  0.60851  Biso   1.000  Hf
  Hf24     1.0000 0.86010  0.47954  0.85564  Biso   1.000  Hf
  O41      1.0000 0.53599  0.16838  0.58090  Biso   1.000  O
  O42      1.0000 0.53299  0.08357  0.82906  Biso   1.000  O
  O43      1.0000 0.96659  0.41802  0.67289  Biso   1.000  O
  O44      1.0000 0.96195  0.33242  0.92058  Biso   1.000  O
  O45      1.0000 0.77530  0.12933  0.74316  Biso   1.000  O
  O46      1.0000 0.77426  0.12139  0.99256  Biso   1.000  O
  O47      1.0000 0.73037  0.37782  0.51556  Biso   1.000  O
  O48      1.0000 0.72454  0.37162  0.76306  Biso   1.000  O
  Hf25     1.0000 0.63646  0.52334  0.14630  Biso   1.000  Hf
  Hf26     1.0000 0.63878  0.72586  0.39650  Biso   1.000  Hf
  Hf27     1.0000 0.85865  0.77039  0.10437  Biso   1.000  Hf
  Hf28     1.0000 0.85998  0.97654  0.35516  Biso   1.000  Hf
  O49      1.0000 0.53464  0.67183  0.07912  Biso   1.000  O
  O50      1.0000 0.53245  0.58585  0.32564  Biso   1.000  O
  O51      1.0000 0.96116  0.91650  0.17230  Biso   1.000  O
  O52      1.0000 0.96374  0.83168  0.42206  Biso   1.000  O
  O53      1.0000 0.77601  0.62863  0.24107  Biso   1.000  O
  O54      1.0000 0.77496  0.62001  0.49094  Biso   1.000  O
  O55      1.0000 0.72258  0.87986  0.01102  Biso   1.000  O
  O56      1.0000 0.72270  0.86864  0.25977  Biso   1.000  O
  Hf29     1.0000 0.63854  0.52159  0.64847  Biso   1.000  Hf
  Hf30     1.0000 0.63687  0.72978  0.89684  Biso   1.000  Hf
  Hf31     1.0000 0.86019  0.77171  0.60456  Biso   1.000  Hf
  Hf32     1.0000 0.85980  0.97875  0.85467  Biso   1.000  Hf
  O57      1.0000 0.53364  0.66478  0.57975  Biso   1.000  O
  O58      1.0000 0.53336  0.58488  0.83011  Biso   1.000  O
  O59      1.0000 0.96394  0.91771  0.67121  Biso   1.000  O
  O60      1.0000 0.96379  0.83361  0.92146  Biso   1.000  O
  O61      1.0000 0.77517  0.62921  0.74090  Biso   1.000  O
  O62      1.0000 0.77428  0.62196  0.99050  Biso   1.000  O
  O63      1.0000 0.72196  0.87798  0.51101  Biso   1.000  O
  O64      1.0000 0.72270  0.87197  0.76099  Biso   1.000  O
  Ag1      1.0000 0.43886  0.22441  0.30217  Biso   1.000  Ag
