data_image0
_cell_length_a       10.1195
_cell_length_b       10.2528
_cell_length_c       5.23305
_cell_angle_alpha    89.8941
_cell_angle_beta     80.9152
_cell_angle_gamma    89.6894

_symmetry_space_group_name_H-M    "P 1"
_symmetry_int_tables_number       1

loop_
  _symmetry_equiv_pos_as_xyz
  'x, y, z'

loop_
  _atom_site_label
  _atom_site_occupancy
  _atom_site_fract_x
  _atom_site_fract_y
  _atom_site_fract_z
  _atom_site_thermal_displace_type
  _atom_site_B_iso_or_equiv
  _atom_site_type_symbol
  Ag1      1.0000 0.12399  0.01277  0.32956  Biso   1.000  Ag
  Hf1      1.0000 0.14276  0.22836  0.78923  Biso   1.000  Hf
  Hf2      1.0000 0.35958  0.26978  0.19833  Biso   1.000  Hf
  Hf3      1.0000 0.36175  0.47985  0.70535  Biso   1.000  Hf
  O1       1.0000 0.04128  0.16469  0.15726  Biso   1.000  O
  O2       1.0000 0.02556  0.08501  0.68853  Biso   1.000  O
  O3       1.0000 0.46471  0.41702  0.34101  Biso   1.000  O
  O4       1.0000 0.46934  0.33819  0.84413  Biso   1.000  O
  O5       1.0000 0.26842  0.12189  0.45680  Biso   1.000  O
  O6       1.0000 0.29395  0.13655  0.93504  Biso   1.000  O
  O7       1.0000 0.22336  0.38242  0.01574  Biso   1.000  O
  O8       1.0000 0.22691  0.36870  0.51575  Biso   1.000  O
  Hf4      1.0000 0.14022  0.52171  0.29290  Biso   1.000  Hf
  Hf5      1.0000 0.13780  0.72984  0.79388  Biso   1.000  Hf
  Hf6      1.0000 0.36117  0.77412  0.20098  Biso   1.000  Hf
  Hf7      1.0000 0.36070  0.98133  0.70387  Biso   1.000  Hf
  O9       1.0000 0.03639  0.67022  0.16253  Biso   1.000  O
  O10      1.0000 0.03763  0.57982  0.66181  Biso   1.000  O
  O11      1.0000 0.46490  0.91753  0.34179  Biso   1.000  O
  O12      1.0000 0.46652  0.83346  0.83813  Biso   1.000  O
  O13      1.0000 0.27689  0.63120  0.47963  Biso   1.000  O
  O14      1.0000 0.27662  0.62207  0.98018  Biso   1.000  O
  O15      1.0000 0.22851  0.88172  0.00363  Biso   1.000  O
  O16      1.0000 0.21998  0.86840  0.51195  Biso   1.000  O
  Hf8      1.0000 0.63774  0.02165  0.29382  Biso   1.000  Hf
  Hf9      1.0000 0.63875  0.22975  0.79419  Biso   1.000  Hf
  Hf10     1.0000 0.86363  0.26906  0.21528  Biso   1.000  Hf
  Hf11     1.0000 0.86365  0.47708  0.71200  Biso   1.000  Hf
  O17      1.0000 0.53480  0.16830  0.15791  Biso   1.000  O
  O18      1.0000 0.53761  0.08183  0.65685  Biso   1.000  O
  O19      1.0000 0.96743  0.41584  0.34945  Biso   1.000  O
  O20      1.0000 0.96719  0.33262  0.85621  Biso   1.000  O
  O21      1.0000 0.77627  0.12885  0.48572  Biso   1.000  O
  O22      1.0000 0.77498  0.12088  0.98759  Biso   1.000  O
  O23      1.0000 0.72618  0.37771  0.02328  Biso   1.000  O
  O24      1.0000 0.72613  0.37050  0.52204  Biso   1.000  O
  Hf12     1.0000 0.63746  0.51947  0.29136  Biso   1.000  Hf
  Hf13     1.0000 0.63799  0.72735  0.78990  Biso   1.000  Hf
  Hf14     1.0000 0.85948  0.76733  0.20619  Biso   1.000  Hf
  Hf15     1.0000 0.85524  0.97834  0.71942  Biso   1.000  Hf
  O25      1.0000 0.53561  0.66721  0.15321  Biso   1.000  O
  O26      1.0000 0.53535  0.58279  0.65351  Biso   1.000  O
  O27      1.0000 0.95353  0.92245  0.34257  Biso   1.000  O
  O28      1.0000 0.96174  0.82929  0.84073  Biso   1.000  O
  O29      1.0000 0.77691  0.62716  0.48089  Biso   1.000  O
  O30      1.0000 0.77713  0.62006  0.98128  Biso   1.000  O
  O31      1.0000 0.72116  0.87820  0.02056  Biso   1.000  O
  O32      1.0000 0.72510  0.86962  0.51804  Biso   1.000  O
