data_image0
_cell_length_a       10.0649
_cell_length_b       10.2752
_cell_length_c       10.0649
_cell_angle_alpha    89.9995
_cell_angle_beta     90
_cell_angle_gamma    89.9994

_symmetry_space_group_name_H-M    "P 1"
_symmetry_int_tables_number       1

loop_
  _symmetry_equiv_pos_as_xyz
  'x, y, z'

loop_
  _atom_site_label
  _atom_site_occupancy
  _atom_site_fract_x
  _atom_site_fract_y
  _atom_site_fract_z
  _atom_site_thermal_displace_type
  _atom_site_B_iso_or_equiv
  _atom_site_type_symbol
  Hf1      1.0000 0.12489  0.97971  0.12489  Biso   1.000  Hf
  Hf2      1.0000 0.12491  0.25005  0.38856  Biso   1.000  Hf
  Hf3      1.0000 0.38856  0.25005  0.12491  Biso   1.000  Hf
  Hf4      1.0000 0.37630  0.00557  0.37631  Biso   1.000  Hf
  O1       1.0000 0.97488  0.15931  0.97487  Biso   1.000  O
  O2       1.0000 0.00305  0.08805  0.24676  Biso   1.000  O
  O3       1.0000 0.97486  0.34078  0.27497  Biso   1.000  O
  O4       1.0000 0.00305  0.41204  0.00307  Biso   1.000  O
  O5       1.0000 0.27497  0.15935  0.27498  Biso   1.000  O
  O6       1.0000 0.24679  0.08806  0.00308  Biso   1.000  O
  O7       1.0000 0.27496  0.34078  0.97486  Biso   1.000  O
  O8       1.0000 0.24678  0.41206  0.24675  Biso   1.000  O
  Hf5      1.0000 0.12490  0.99476  0.62491  Biso   1.000  Hf
  Hf6      1.0000 0.12491  0.25005  0.86128  Biso   1.000  Hf
  Hf7      1.0000 0.37516  0.25005  0.62491  Biso   1.000  Hf
  Hf8      1.0000 0.37557  0.00054  0.87425  Biso   1.000  Hf
  O9       1.0000 0.99472  0.14536  0.49741  Biso   1.000  O
  O10      1.0000 0.00197  0.10225  0.74214  Biso   1.000  O
  O11      1.0000 0.99472  0.35474  0.75242  Biso   1.000  O
  O12      1.0000 0.00197  0.39785  0.50769  Biso   1.000  O
  O13      1.0000 0.25510  0.14537  0.75242  Biso   1.000  O
  O14      1.0000 0.24785  0.10226  0.50770  Biso   1.000  O
  O15      1.0000 0.25509  0.35475  0.49741  Biso   1.000  O
  O16      1.0000 0.24784  0.39785  0.74213  Biso   1.000  O
  Hf9      1.0000 0.12491  0.52040  0.12491  Biso   1.000  Hf
  Hf10     1.0000 0.12491  0.75006  0.37984  Biso   1.000  Hf
  Hf11     1.0000 0.37985  0.75006  0.12491  Biso   1.000  Hf
  Hf12     1.0000 0.37557  0.49957  0.37557  Biso   1.000  Hf
  O17      1.0000 0.00382  0.65721  0.00382  Biso   1.000  O
  O18      1.0000 0.99591  0.59872  0.25390  Biso   1.000  O
  O19      1.0000 0.00382  0.84289  0.24598  Biso   1.000  O
  O20      1.0000 0.99591  0.90138  0.99590  Biso   1.000  O
  O21      1.0000 0.24598  0.65723  0.24597  Biso   1.000  O
  O22      1.0000 0.25389  0.59872  0.99590  Biso   1.000  O
  O23      1.0000 0.24598  0.84289  0.00383  Biso   1.000  O
  O24      1.0000 0.25389  0.90141  0.25390  Biso   1.000  O
  Hf13     1.0000 0.12492  0.50535  0.62491  Biso   1.000  Hf
  Hf14     1.0000 0.12491  0.75005  0.86997  Biso   1.000  Hf
  Hf15     1.0000 0.37692  0.75006  0.62491  Biso   1.000  Hf
  Hf16     1.0000 0.37631  0.49455  0.87351  Biso   1.000  Hf
  O25      1.0000 0.99810  0.64759  0.50252  Biso   1.000  O
  O26      1.0000 0.00279  0.60341  0.75376  Biso   1.000  O
  O27      1.0000 0.99810  0.85251  0.74728  Biso   1.000  O
  O28      1.0000 0.00279  0.89669  0.49605  Biso   1.000  O
  O29      1.0000 0.25171  0.64759  0.74728  Biso   1.000  O
  O30      1.0000 0.24702  0.60342  0.49604  Biso   1.000  O
  O31      1.0000 0.25172  0.85252  0.50252  Biso   1.000  O
  O32      1.0000 0.24703  0.89669  0.75376  Biso   1.000  O
  Hf17     1.0000 0.62491  0.99477  0.12490  Biso   1.000  Hf
  Hf18     1.0000 0.62491  0.25005  0.37516  Biso   1.000  Hf
  Hf19     1.0000 0.86128  0.25005  0.12491  Biso   1.000  Hf
  Hf20     1.0000 0.87424  0.00054  0.37557  Biso   1.000  Hf
  O33      1.0000 0.49742  0.14537  0.99473  Biso   1.000  O
  O34      1.0000 0.50769  0.10226  0.24784  Biso   1.000  O
  O35      1.0000 0.49742  0.35475  0.25509  Biso   1.000  O
  O36      1.0000 0.50768  0.39785  0.00197  Biso   1.000  O
  O37      1.0000 0.75241  0.14537  0.25509  Biso   1.000  O
  O38      1.0000 0.74214  0.10225  0.00197  Biso   1.000  O
  O39      1.0000 0.75241  0.35474  0.99473  Biso   1.000  O
  O40      1.0000 0.74214  0.39785  0.24784  Biso   1.000  O
  Hf21     1.0000 0.62491  0.00014  0.62491  Biso   1.000  Hf
  Hf22     1.0000 0.62491  0.25006  0.87466  Biso   1.000  Hf
  Hf23     1.0000 0.87466  0.25006  0.62491  Biso   1.000  Hf
  Hf24     1.0000 0.87351  0.00556  0.87351  Biso   1.000  Hf
  O41      1.0000 0.49794  0.14958  0.49794  Biso   1.000  O
  O42      1.0000 0.50157  0.10128  0.74824  Biso   1.000  O
  O43      1.0000 0.49794  0.35053  0.75188  Biso   1.000  O
  O44      1.0000 0.50157  0.39883  0.50157  Biso   1.000  O
  O45      1.0000 0.75188  0.14957  0.75188  Biso   1.000  O
  O46      1.0000 0.74825  0.10128  0.50157  Biso   1.000  O
  O47      1.0000 0.75188  0.35053  0.49794  Biso   1.000  O
  O48      1.0000 0.74825  0.39883  0.74825  Biso   1.000  O
  Hf25     1.0000 0.62490  0.50534  0.12492  Biso   1.000  Hf
  Hf26     1.0000 0.62491  0.75006  0.37691  Biso   1.000  Hf
  Hf27     1.0000 0.86996  0.75005  0.12491  Biso   1.000  Hf
  Hf28     1.0000 0.87351  0.49455  0.37631  Biso   1.000  Hf
  O49      1.0000 0.50251  0.64759  0.99810  Biso   1.000  O
  O50      1.0000 0.49605  0.60342  0.24702  Biso   1.000  O
  O51      1.0000 0.50252  0.85252  0.25172  Biso   1.000  O
  O52      1.0000 0.49605  0.89669  0.00279  Biso   1.000  O
  O53      1.0000 0.74729  0.64759  0.25172  Biso   1.000  O
  O54      1.0000 0.75375  0.60341  0.00279  Biso   1.000  O
  O55      1.0000 0.74729  0.85251  0.99810  Biso   1.000  O
  O56      1.0000 0.75376  0.89669  0.24703  Biso   1.000  O
  Hf29     1.0000 0.62491  0.49997  0.62491  Biso   1.000  Hf
  Hf30     1.0000 0.62491  0.75005  0.87290  Biso   1.000  Hf
  Hf31     1.0000 0.87290  0.75005  0.62491  Biso   1.000  Hf
  Hf32     1.0000 0.87425  0.49957  0.87425  Biso   1.000  Hf
  O57      1.0000 0.49675  0.64843  0.49675  Biso   1.000  O
  O58      1.0000 0.50229  0.60178  0.74752  Biso   1.000  O
  O59      1.0000 0.49675  0.85168  0.75307  Biso   1.000  O
  O60      1.0000 0.50229  0.89832  0.50229  Biso   1.000  O
  O61      1.0000 0.75307  0.64843  0.75307  Biso   1.000  O
  O62      1.0000 0.74753  0.60178  0.50229  Biso   1.000  O
  O63      1.0000 0.75307  0.85168  0.49675  Biso   1.000  O
  O64      1.0000 0.74753  0.89832  0.74752  Biso   1.000  O
  Ag1      1.0000 0.12492  0.25005  0.12493  Biso   1.000  Ag
