data_image0
_cell_length_a       10.059
_cell_length_b       10.4944
_cell_length_c       5.08407
_cell_angle_alpha    90.8459
_cell_angle_beta     86.6688
_cell_angle_gamma    90.1381

_symmetry_space_group_name_H-M    "P 1"
_symmetry_int_tables_number       1

loop_
  _symmetry_equiv_pos_as_xyz
  'x, y, z'

loop_
  _atom_site_label
  _atom_site_occupancy
  _atom_site_fract_x
  _atom_site_fract_y
  _atom_site_fract_z
  _atom_site_thermal_displace_type
  _atom_site_B_iso_or_equiv
  _atom_site_type_symbol
  Hf1      1.0000 0.14107  0.01733  0.29662  Biso   1.000  Hf
  Hf2      1.0000 0.14452  0.21801  0.81830  Biso   1.000  Hf
  Hf3      1.0000 0.37195  0.26637  0.26586  Biso   1.000  Hf
  Hf4      1.0000 0.36983  0.48642  0.75028  Biso   1.000  Hf
  O1       1.0000 0.04538  0.07025  0.65984  Biso   1.000  O
  O2       1.0000 0.01028  0.13069  0.11826  Biso   1.000  O
  O3       1.0000 0.47336  0.43049  0.39954  Biso   1.000  O
  O4       1.0000 0.47038  0.31827  0.89544  Biso   1.000  O
  O5       1.0000 0.28572  0.11378  0.52515  Biso   1.000  O
  O6       1.0000 0.28136  0.12036  0.02802  Biso   1.000  O
  O7       1.0000 0.24605  0.39558  0.05181  Biso   1.000  O
  O8       1.0000 0.25611  0.34880  0.57680  Biso   1.000  O
  Hf5      1.0000 0.12556  0.54313  0.21256  Biso   1.000  Hf
  Hf6      1.0000 0.13496  0.74004  0.73700  Biso   1.000  Hf
  Hf7      1.0000 0.37236  0.76288  0.24018  Biso   1.000  Hf
  Hf8      1.0000 0.36872  0.97856  0.75551  Biso   1.000  Hf
  O9       1.0000 0.03150  0.69476  0.38059  Biso   1.000  O
  O10      1.0000 0.03233  0.57512  0.86573  Biso   1.000  O
  O11      1.0000 0.46917  0.92837  0.37715  Biso   1.000  O
  O12      1.0000 0.46696  0.81569  0.88447  Biso   1.000  O
  O13      1.0000 0.26555  0.61189  0.47711  Biso   1.000  O
  O14      1.0000 0.26817  0.64283  0.97295  Biso   1.000  O
  O15      1.0000 0.22355  0.88401  0.00384  Biso   1.000  O
  O16      1.0000 0.23964  0.86325  0.49984  Biso   1.000  O
  Hf9      1.0000 0.63237  0.01340  0.21920  Biso   1.000  Hf
  Hf10     1.0000 0.62823  0.23250  0.71657  Biso   1.000  Hf
  Hf11     1.0000 0.84779  0.26142  0.17700  Biso   1.000  Hf
  Hf12     1.0000 0.86524  0.48620  0.71789  Biso   1.000  Hf
  O17      1.0000 0.54059  0.18203  0.36924  Biso   1.000  O
  O18      1.0000 0.53668  0.06356  0.87002  Biso   1.000  O
  O19      1.0000 0.95208  0.45250  0.33688  Biso   1.000  O
  O20      1.0000 0.97112  0.32818  0.84472  Biso   1.000  O
  O21      1.0000 0.77228  0.11340  0.44198  Biso   1.000  O
  O22      1.0000 0.76433  0.13242  0.93701  Biso   1.000  O
  O23      1.0000 0.72890  0.38248  0.96666  Biso   1.000  O
  O24      1.0000 0.73084  0.36580  0.47165  Biso   1.000  O
  Hf13     1.0000 0.63508  0.51675  0.23659  Biso   1.000  Hf
  Hf14     1.0000 0.63637  0.73156  0.73663  Biso   1.000  Hf
  Hf15     1.0000 0.86489  0.76746  0.21550  Biso   1.000  Hf
  Hf16     1.0000 0.86538  0.98042  0.69390  Biso   1.000  Hf
  O25      1.0000 0.53216  0.68011  0.39345  Biso   1.000  O
  O26      1.0000 0.53410  0.56954  0.89989  Biso   1.000  O
  O27      1.0000 0.96251  0.92072  0.34636  Biso   1.000  O
  O28      1.0000 0.96390  0.82513  0.85829  Biso   1.000  O
  O29      1.0000 0.76649  0.61703  0.47394  Biso   1.000  O
  O30      1.0000 0.77001  0.63127  0.96954  Biso   1.000  O
  O31      1.0000 0.72877  0.87897  0.97358  Biso   1.000  O
  O32      1.0000 0.72842  0.86557  0.47521  Biso   1.000  O
  Ag1      1.0000 0.08226  0.29587  0.35890  Biso   1.000  Ag
