data_image0
_cell_length_a       5.0534
_cell_length_b       10.259
_cell_length_c       10.4587
_cell_angle_alpha    89.7653
_cell_angle_beta     81.0586
_cell_angle_gamma    89.716

_symmetry_space_group_name_H-M    "P 1"
_symmetry_int_tables_number       1

loop_
  _symmetry_equiv_pos_as_xyz
  'x, y, z'

loop_
  _atom_site_label
  _atom_site_occupancy
  _atom_site_fract_x
  _atom_site_fract_y
  _atom_site_fract_z
  _atom_site_thermal_displace_type
  _atom_site_B_iso_or_equiv
  _atom_site_type_symbol
  Ag1      1.0000 0.24970  0.01384  0.16590  Biso   1.000  Ag
  Hf1      1.0000 0.27399  0.23298  0.39636  Biso   1.000  Hf
  Hf2      1.0000 0.72332  0.26611  0.10267  Biso   1.000  Hf
  Hf3      1.0000 0.72078  0.47968  0.35286  Biso   1.000  Hf
  O1       1.0000 0.08680  0.16702  0.08260  Biso   1.000  O
  O2       1.0000 0.04535  0.08603  0.34622  Biso   1.000  O
  O3       1.0000 0.92846  0.41819  0.17059  Biso   1.000  O
  O4       1.0000 0.92590  0.33439  0.42284  Biso   1.000  O
  O5       1.0000 0.53623  0.12414  0.23766  Biso   1.000  O
  O6       1.0000 0.54794  0.12242  0.48812  Biso   1.000  O
  O7       1.0000 0.45463  0.38028  0.01027  Biso   1.000  O
  O8       1.0000 0.45126  0.36894  0.25911  Biso   1.000  O
  Hf4      1.0000 0.27480  0.02105  0.64455  Biso   1.000  Hf
  Hf5      1.0000 0.28907  0.22439  0.89633  Biso   1.000  Hf
  Hf6      1.0000 0.72080  0.27242  0.60517  Biso   1.000  Hf
  Hf7      1.0000 0.73025  0.47713  0.85618  Biso   1.000  Hf
  O9       1.0000 0.07092  0.17158  0.58052  Biso   1.000  O
  O10      1.0000 0.08005  0.07969  0.82784  Biso   1.000  O
  O11      1.0000 0.93214  0.41727  0.67332  Biso   1.000  O
  O12      1.0000 0.94399  0.33298  0.92628  Biso   1.000  O
  O13      1.0000 0.55452  0.12770  0.73482  Biso   1.000  O
  O14      1.0000 0.58724  0.13197  0.97614  Biso   1.000  O
  O15      1.0000 0.44377  0.37995  0.50979  Biso   1.000  O
  O16      1.0000 0.45345  0.36991  0.76086  Biso   1.000  O
  Hf8      1.0000 0.27579  0.52000  0.14430  Biso   1.000  Hf
  Hf9      1.0000 0.27100  0.72574  0.39608  Biso   1.000  Hf
  Hf10     1.0000 0.72104  0.77035  0.09865  Biso   1.000  Hf
  Hf11     1.0000 0.70785  0.97803  0.35707  Biso   1.000  Hf
  O17      1.0000 0.07652  0.67159  0.07946  Biso   1.000  O
  O18      1.0000 0.07271  0.57867  0.32907  Biso   1.000  O
  O19      1.0000 0.90721  0.92338  0.17089  Biso   1.000  O
  O20      1.0000 0.92307  0.82944  0.41813  Biso   1.000  O
  O21      1.0000 0.55144  0.63027  0.23982  Biso   1.000  O
  O22      1.0000 0.55185  0.62055  0.49060  Biso   1.000  O
  O23      1.0000 0.45767  0.88000  0.00305  Biso   1.000  O
  O24      1.0000 0.44031  0.86770  0.25615  Biso   1.000  O
  Hf12     1.0000 0.27931  0.52103  0.64793  Biso   1.000  Hf
  Hf13     1.0000 0.28258  0.73167  0.89459  Biso   1.000  Hf
  Hf14     1.0000 0.72115  0.77107  0.60429  Biso   1.000  Hf
  Hf15     1.0000 0.72417  0.98204  0.85362  Biso   1.000  Hf
  O25      1.0000 0.07065  0.66775  0.57921  Biso   1.000  O
  O26      1.0000 0.07625  0.58138  0.83020  Biso   1.000  O
  O27      1.0000 0.92754  0.91929  0.66764  Biso   1.000  O
  O28      1.0000 0.93165  0.83106  0.91811  Biso   1.000  O
  O29      1.0000 0.55704  0.62876  0.74060  Biso   1.000  O
  O30      1.0000 0.55708  0.62078  0.99000  Biso   1.000  O
  O31      1.0000 0.44232  0.87870  0.50736  Biso   1.000  O
  O32      1.0000 0.44842  0.87069  0.75616  Biso   1.000  O
