data_image0
_cell_length_a       10.2255
_cell_length_b       5.15055
_cell_length_c       10.5741
_cell_angle_alpha    90.2748
_cell_angle_beta     79.1986
_cell_angle_gamma    90.0604

_symmetry_space_group_name_H-M    "P 1"
_symmetry_int_tables_number       1

loop_
  _symmetry_equiv_pos_as_xyz
  'x, y, z'

loop_
  _atom_site_label
  _atom_site_occupancy
  _atom_site_fract_x
  _atom_site_fract_y
  _atom_site_fract_z
  _atom_site_thermal_displace_type
  _atom_site_B_iso_or_equiv
  _atom_site_type_symbol
  Hf1      1.0000 0.13082  0.04551  0.14300  Biso   1.000  Hf
  Hf2      1.0000 0.13837  0.45735  0.39305  Biso   1.000  Hf
  Hf3      1.0000 0.34903  0.55207  0.09457  Biso   1.000  Hf
  Hf4      1.0000 0.35850  0.94031  0.35412  Biso   1.000  Hf
  O1       1.0000 0.02947  0.33795  0.07499  Biso   1.000  O
  O2       1.0000 0.02785  0.17104  0.32798  Biso   1.000  O
  O3       1.0000 0.46090  0.85403  0.16922  Biso   1.000  O
  O4       1.0000 0.48063  0.70044  0.44485  Biso   1.000  O
  O5       1.0000 0.25995  0.25228  0.23315  Biso   1.000  O
  O6       1.0000 0.27517  0.23489  0.49121  Biso   1.000  O
  O7       1.0000 0.21747  0.76785  0.00405  Biso   1.000  O
  O8       1.0000 0.20996  0.75187  0.25433  Biso   1.000  O
  Hf5      1.0000 0.13836  0.04329  0.64456  Biso   1.000  Hf
  Hf6      1.0000 0.13283  0.45940  0.89366  Biso   1.000  Hf
  Hf7      1.0000 0.36114  0.54455  0.60921  Biso   1.000  Hf
  Hf8      1.0000 0.35834  0.96250  0.85366  Biso   1.000  Hf
  O9       1.0000 0.03495  0.33152  0.57709  Biso   1.000  O
  O10      1.0000 0.03117  0.17084  0.82573  Biso   1.000  O
  O11      1.0000 0.46700  0.82659  0.68066  Biso   1.000  O
  O12      1.0000 0.46402  0.67712  0.92357  Biso   1.000  O
  O13      1.0000 0.27372  0.25542  0.73976  Biso   1.000  O
  O14      1.0000 0.27099  0.25375  0.98612  Biso   1.000  O
  O15      1.0000 0.22553  0.74867  0.51065  Biso   1.000  O
  O16      1.0000 0.22291  0.74387  0.75881  Biso   1.000  O
  Hf9      1.0000 0.63903  0.04147  0.14841  Biso   1.000  Hf
  Hf10     1.0000 0.65225  0.45726  0.40831  Biso   1.000  Hf
  Hf11     1.0000 0.85701  0.54367  0.10590  Biso   1.000  Hf
  Hf12     1.0000 0.86161  0.95436  0.35537  Biso   1.000  Hf
  O17      1.0000 0.53005  0.33597  0.07785  Biso   1.000  O
  O18      1.0000 0.55058  0.12709  0.34205  Biso   1.000  O
  O19      1.0000 0.95954  0.83455  0.17241  Biso   1.000  O
  O20      1.0000 0.96521  0.66731  0.42412  Biso   1.000  O
  O21      1.0000 0.77727  0.25969  0.24278  Biso   1.000  O
  O22      1.0000 0.77938  0.23753  0.49625  Biso   1.000  O
  O23      1.0000 0.72117  0.75908  0.01374  Biso   1.000  O
  O24      1.0000 0.72249  0.73851  0.26333  Biso   1.000  O
  Hf13     1.0000 0.63764  0.04271  0.65096  Biso   1.000  Hf
  Hf14     1.0000 0.63558  0.45978  0.89900  Biso   1.000  Hf
  Hf15     1.0000 0.86486  0.54329  0.60829  Biso   1.000  Hf
  Hf16     1.0000 0.85895  0.95950  0.85604  Biso   1.000  Hf
  O25      1.0000 0.53401  0.32802  0.58175  Biso   1.000  O
  O26      1.0000 0.53069  0.17515  0.82948  Biso   1.000  O
  O27      1.0000 0.96593  0.83337  0.67405  Biso   1.000  O
  O28      1.0000 0.96178  0.67119  0.92233  Biso   1.000  O
  O29      1.0000 0.77384  0.25939  0.74364  Biso   1.000  O
  O30      1.0000 0.77222  0.24486  0.99255  Biso   1.000  O
  O31      1.0000 0.72784  0.75331  0.51646  Biso   1.000  O
  O32      1.0000 0.72383  0.74565  0.76452  Biso   1.000  O
  Ag1      1.0000 0.43950  0.44415  0.29738  Biso   1.000  Ag
