data_image0
_cell_length_a       10.0317
_cell_length_b       10.2411
_cell_length_c       5.22021
_cell_angle_alpha    89.7286
_cell_angle_beta     90.7712
_cell_angle_gamma    89.6882

_symmetry_space_group_name_H-M    "P 1"
_symmetry_int_tables_number       1

loop_
  _symmetry_equiv_pos_as_xyz
  'x, y, z'

loop_
  _atom_site_label
  _atom_site_occupancy
  _atom_site_fract_x
  _atom_site_fract_y
  _atom_site_fract_z
  _atom_site_thermal_displace_type
  _atom_site_B_iso_or_equiv
  _atom_site_type_symbol
  Ag1      1.0000 0.12482  0.01507  0.37578  Biso   1.000  Ag
  Hf1      1.0000 0.14480  0.23005  0.84246  Biso   1.000  Hf
  Hf2      1.0000 0.36043  0.27078  0.33232  Biso   1.000  Hf
  Hf3      1.0000 0.36114  0.47947  0.84042  Biso   1.000  Hf
  Hf4      1.0000 0.63814  0.02185  0.15880  Biso   1.000  Hf
  Hf5      1.0000 0.63789  0.22972  0.65908  Biso   1.000  Hf
  Hf6      1.0000 0.86327  0.26855  0.16620  Biso   1.000  Hf
  Hf7      1.0000 0.86312  0.47718  0.66308  Biso   1.000  Hf
  O1       1.0000 0.04234  0.16448  0.17711  Biso   1.000  O
  O2       1.0000 0.02585  0.08523  0.70896  Biso   1.000  O
  O3       1.0000 0.46685  0.41744  0.16733  Biso   1.000  O
  O4       1.0000 0.46573  0.33218  0.66795  Biso   1.000  O
  O5       1.0000 0.27088  0.11992  0.56498  Biso   1.000  O
  O6       1.0000 0.29715  0.14250  0.04850  Biso   1.000  O
  O7       1.0000 0.22511  0.37351  0.58855  Biso   1.000  O
  O8       1.0000 0.22117  0.38068  0.08908  Biso   1.000  O
  O9       1.0000 0.53565  0.16890  0.32649  Biso   1.000  O
  O10      1.0000 0.53786  0.07944  0.82153  Biso   1.000  O
  O11      1.0000 0.96748  0.41461  0.33972  Biso   1.000  O
  O12      1.0000 0.96850  0.33306  0.84715  Biso   1.000  O
  O13      1.0000 0.77653  0.12396  0.91833  Biso   1.000  O
  O14      1.0000 0.77689  0.12638  0.41736  Biso   1.000  O
  O15      1.0000 0.72532  0.37298  0.91501  Biso   1.000  O
  O16      1.0000 0.72537  0.37531  0.41337  Biso   1.000  O
  Hf8      1.0000 0.13896  0.52129  0.34443  Biso   1.000  Hf
  Hf9      1.0000 0.13766  0.72954  0.84288  Biso   1.000  Hf
  Hf10     1.0000 0.36040  0.77291  0.33178  Biso   1.000  Hf
  Hf11     1.0000 0.36090  0.98079  0.83884  Biso   1.000  Hf
  Hf12     1.0000 0.63917  0.51988  0.15780  Biso   1.000  Hf
  Hf13     1.0000 0.63666  0.72822  0.65449  Biso   1.000  Hf
  Hf14     1.0000 0.85999  0.76824  0.15636  Biso   1.000  Hf
  Hf15     1.0000 0.85565  0.97917  0.66901  Biso   1.000  Hf
  O17      1.0000 0.03463  0.66941  0.17391  Biso   1.000  O
  O18      1.0000 0.03471  0.58071  0.67421  Biso   1.000  O
  O19      1.0000 0.46850  0.91744  0.16551  Biso   1.000  O
  O20      1.0000 0.46397  0.83307  0.66251  Biso   1.000  O
  O21      1.0000 0.27591  0.62631  0.58776  Biso   1.000  O
  O22      1.0000 0.27612  0.62495  0.08861  Biso   1.000  O
  O23      1.0000 0.21925  0.87248  0.57728  Biso   1.000  O
  O24      1.0000 0.23033  0.87377  0.07034  Biso   1.000  O
  O25      1.0000 0.53394  0.66726  0.32476  Biso   1.000  O
  O26      1.0000 0.53409  0.58209  0.82652  Biso   1.000  O
  O27      1.0000 0.95468  0.92328  0.32758  Biso   1.000  O
  O28      1.0000 0.96319  0.83017  0.82818  Biso   1.000  O
  O29      1.0000 0.77643  0.62300  0.91248  Biso   1.000  O
  O30      1.0000 0.77660  0.62494  0.41258  Biso   1.000  O
  O31      1.0000 0.72119  0.87267  0.91147  Biso   1.000  O
  O32      1.0000 0.72478  0.87516  0.41114  Biso   1.000  O
