data_image0
_cell_length_a       5.11048
_cell_length_b       10.3012
_cell_length_c       10.5631
_cell_angle_alpha    90.2065
_cell_angle_beta     79.1414
_cell_angle_gamma    90.0402

_symmetry_space_group_name_H-M    "P 1"
_symmetry_int_tables_number       1

loop_
  _symmetry_equiv_pos_as_xyz
  'x, y, z'

loop_
  _atom_site_label
  _atom_site_occupancy
  _atom_site_fract_x
  _atom_site_fract_y
  _atom_site_fract_z
  _atom_site_thermal_displace_type
  _atom_site_B_iso_or_equiv
  _atom_site_type_symbol
  Hf1      1.0000 0.26806  0.01802  0.14615  Biso   1.000  Hf
  Hf2      1.0000 0.31469  0.23370  0.40443  Biso   1.000  Hf
  Hf3      1.0000 0.69582  0.27540  0.09603  Biso   1.000  Hf
  Hf4      1.0000 0.72034  0.48062  0.35076  Biso   1.000  Hf
  O1       1.0000 0.05418  0.16565  0.07744  Biso   1.000  O
  O2       1.0000 0.08961  0.05977  0.34440  Biso   1.000  O
  O3       1.0000 0.91803  0.42647  0.16405  Biso   1.000  O
  O4       1.0000 0.97383  0.35818  0.44276  Biso   1.000  O
  O5       1.0000 0.52478  0.12702  0.23424  Biso   1.000  O
  O6       1.0000 0.56565  0.11573  0.49580  Biso   1.000  O
  O7       1.0000 0.43133  0.38269  0.00616  Biso   1.000  O
  O8       1.0000 0.42121  0.37724  0.25575  Biso   1.000  O
  Hf5      1.0000 0.27556  0.02072  0.64752  Biso   1.000  Hf
  Hf6      1.0000 0.26703  0.22898  0.89511  Biso   1.000  Hf
  Hf7      1.0000 0.73494  0.27403  0.61081  Biso   1.000  Hf
  Hf8      1.0000 0.71635  0.48125  0.85579  Biso   1.000  Hf
  O9       1.0000 0.08049  0.16895  0.58060  Biso   1.000  O
  O10      1.0000 0.06091  0.08435  0.82754  Biso   1.000  O
  O11      1.0000 0.93701  0.41515  0.68137  Biso   1.000  O
  O12      1.0000 0.92142  0.33441  0.92109  Biso   1.000  O
  O13      1.0000 0.54783  0.12917  0.74179  Biso   1.000  O
  O14      1.0000 0.53844  0.12338  0.98782  Biso   1.000  O
  O15      1.0000 0.46881  0.37692  0.51439  Biso   1.000  O
  O16      1.0000 0.44912  0.37214  0.76107  Biso   1.000  O
  Hf9      1.0000 0.27008  0.52491  0.14598  Biso   1.000  Hf
  Hf10     1.0000 0.27339  0.72509  0.39746  Biso   1.000  Hf
  Hf11     1.0000 0.71484  0.77184  0.10475  Biso   1.000  Hf
  Hf12     1.0000 0.71848  0.96793  0.35877  Biso   1.000  Hf
  O17      1.0000 0.06267  0.67200  0.07807  Biso   1.000  O
  O18      1.0000 0.06013  0.58822  0.32491  Biso   1.000  O
  O19      1.0000 0.92001  0.91770  0.17513  Biso   1.000  O
  O20      1.0000 0.92107  0.82543  0.42406  Biso   1.000  O
  O21      1.0000 0.54840  0.62925  0.24189  Biso   1.000  O
  O22      1.0000 0.54426  0.61974  0.49166  Biso   1.000  O
  O23      1.0000 0.44388  0.88020  0.01113  Biso   1.000  O
  O24      1.0000 0.44237  0.86759  0.26103  Biso   1.000  O
  Hf13     1.0000 0.27677  0.52209  0.64800  Biso   1.000  Hf
  Hf14     1.0000 0.26911  0.73012  0.89779  Biso   1.000  Hf
  Hf15     1.0000 0.71921  0.76968  0.60630  Biso   1.000  Hf
  Hf16     1.0000 0.71679  0.97912  0.85400  Biso   1.000  Hf
  O25      1.0000 0.06117  0.66287  0.57958  Biso   1.000  O
  O26      1.0000 0.06378  0.58639  0.82926  Biso   1.000  O
  O27      1.0000 0.92768  0.91597  0.67205  Biso   1.000  O
  O28      1.0000 0.92714  0.83698  0.92334  Biso   1.000  O
  O29      1.0000 0.54777  0.62807  0.74158  Biso   1.000  O
  O30      1.0000 0.54627  0.62476  0.99141  Biso   1.000  O
  O31      1.0000 0.44187  0.87519  0.51260  Biso   1.000  O
  O32      1.0000 0.44432  0.87174  0.76174  Biso   1.000  O
  Ag1      1.0000 0.88570  0.22715  0.29960  Biso   1.000  Ag
