data_image0
_cell_length_a       5.10218
_cell_length_b       10.3255
_cell_length_c       10.1726
_cell_angle_alpha    90.7264
_cell_angle_beta     90.8019
_cell_angle_gamma    91.2155

_symmetry_space_group_name_H-M    "P 1"
_symmetry_int_tables_number       1

loop_
  _symmetry_equiv_pos_as_xyz
  'x, y, z'

loop_
  _atom_site_label
  _atom_site_occupancy
  _atom_site_fract_x
  _atom_site_fract_y
  _atom_site_fract_z
  _atom_site_thermal_displace_type
  _atom_site_B_iso_or_equiv
  _atom_site_type_symbol
  Zr1      1.0000 0.32180  0.97803  0.14196  Biso   1.000  Zr
  Zr2      1.0000 0.24333  0.24294  0.38186  Biso   1.000  Zr
  Zr3      1.0000 0.65121  0.27411  0.11415  Biso   1.000  Zr
  Zr4      1.0000 0.75737  0.00863  0.39013  Biso   1.000  Zr
  O1       1.0000 0.90561  0.18966  0.95795  Biso   1.000  O
  O2       1.0000 0.08249  0.06435  0.28520  Biso   1.000  O
  O3       1.0000 0.91447  0.32563  0.27740  Biso   1.000  O
  O4       1.0000 0.90874  0.42837  0.03559  Biso   1.000  O
  O5       1.0000 0.56328  0.13246  0.25318  Biso   1.000  O
  O6       1.0000 0.46623  0.10746  0.99025  Biso   1.000  O
  O7       1.0000 0.42460  0.38082  0.98304  Biso   1.000  O
  O8       1.0000 0.44421  0.39957  0.24785  Biso   1.000  O
  Zr5      1.0000 0.25687  0.99286  0.62346  Biso   1.000  Zr
  Zr6      1.0000 0.25253  0.24195  0.85169  Biso   1.000  Zr
  Zr7      1.0000 0.75155  0.25549  0.62318  Biso   1.000  Zr
  Zr8      1.0000 0.76338  0.00925  0.87973  Biso   1.000  Zr
  O9       1.0000 0.99318  0.14381  0.51000  Biso   1.000  O
  O10      1.0000 0.02272  0.09984  0.74546  Biso   1.000  O
  O11      1.0000 0.99548  0.36206  0.75674  Biso   1.000  O
  O12      1.0000 0.01818  0.39232  0.50484  Biso   1.000  O
  O13      1.0000 0.51959  0.14502  0.74469  Biso   1.000  O
  O14      1.0000 0.49009  0.10648  0.50208  Biso   1.000  O
  O15      1.0000 0.52086  0.35045  0.49329  Biso   1.000  O
  O16      1.0000 0.50027  0.39513  0.74207  Biso   1.000  O
  Zr9      1.0000 0.24677  0.52242  0.11363  Biso   1.000  Zr
  Zr10     1.0000 0.25647  0.73601  0.38467  Biso   1.000  Zr
  Zr11     1.0000 0.76893  0.74116  0.13450  Biso   1.000  Zr
  Zr12     1.0000 0.74330  0.48773  0.37535  Biso   1.000  Zr
  O17      1.0000 0.02225  0.66166  0.99619  Biso   1.000  O
  O18      1.0000 0.99763  0.59133  0.25445  Biso   1.000  O
  O19      1.0000 0.10638  0.82225  0.22242  Biso   1.000  O
  O20      1.0000 0.05645  0.92543  0.98875  Biso   1.000  O
  O21      1.0000 0.50983  0.63925  0.25253  Biso   1.000  O
  O22      1.0000 0.51433  0.62121  0.00087  Biso   1.000  O
  O23      1.0000 0.55032  0.86063  0.00232  Biso   1.000  O
  O24      1.0000 0.60210  0.88428  0.25116  Biso   1.000  O
  Zr13     1.0000 0.24038  0.50480  0.63139  Biso   1.000  Zr
  Zr14     1.0000 0.26899  0.76856  0.87684  Biso   1.000  Zr
  Zr15     1.0000 0.75470  0.74741  0.62569  Biso   1.000  Zr
  Zr16     1.0000 0.73905  0.50787  0.87330  Biso   1.000  Zr
  O25      1.0000 0.99088  0.63900  0.50103  Biso   1.000  O
  O26      1.0000 0.99092  0.60664  0.74847  Biso   1.000  O
  O27      1.0000 0.00698  0.85361  0.74554  Biso   1.000  O
  O28      1.0000 0.01435  0.88494  0.49306  Biso   1.000  O
  O29      1.0000 0.49629  0.64989  0.75213  Biso   1.000  O
  O30      1.0000 0.49177  0.59977  0.50195  Biso   1.000  O
  O31      1.0000 0.50950  0.85363  0.50242  Biso   1.000  O
  O32      1.0000 0.50572  0.89972  0.75233  Biso   1.000  O
  Ag1      1.0000 0.13701  0.21796  0.12586  Biso   1.000  Ag
