data_image0
_cell_length_a       5.00767
_cell_length_b       10.4372
_cell_length_c       10.0842
_cell_angle_alpha    90.0917
_cell_angle_beta     88.977
_cell_angle_gamma    90.0121

_symmetry_space_group_name_H-M    "P 1"
_symmetry_int_tables_number       1

loop_
  _symmetry_equiv_pos_as_xyz
  'x, y, z'

loop_
  _atom_site_label
  _atom_site_occupancy
  _atom_site_fract_x
  _atom_site_fract_y
  _atom_site_fract_z
  _atom_site_thermal_displace_type
  _atom_site_B_iso_or_equiv
  _atom_site_type_symbol
  Ag1      1.0000 0.24577  0.02541  0.10581  Biso   1.000  Ag
  Zr1      1.0000 0.27633  0.23005  0.37648  Biso   1.000  Zr
  Zr2      1.0000 0.72620  0.26643  0.12815  Biso   1.000  Zr
  Zr3      1.0000 0.73612  0.48392  0.37702  Biso   1.000  Zr
  O1       1.0000 0.08425  0.18338  0.18860  Biso   1.000  O
  O2       1.0000 0.07473  0.06602  0.44619  Biso   1.000  O
  O3       1.0000 0.93239  0.42827  0.19581  Biso   1.000  O
  O4       1.0000 0.93123  0.31546  0.44273  Biso   1.000  O
  O5       1.0000 0.56569  0.12662  0.25592  Biso   1.000  O
  O6       1.0000 0.54012  0.13176  0.50234  Biso   1.000  O
  O7       1.0000 0.46273  0.38197  0.50009  Biso   1.000  O
  O8       1.0000 0.45754  0.36943  0.25079  Biso   1.000  O
  Zr4      1.0000 0.26365  0.01614  0.62848  Biso   1.000  Zr
  Zr5      1.0000 0.26431  0.23810  0.87346  Biso   1.000  Zr
  Zr6      1.0000 0.73148  0.26620  0.62419  Biso   1.000  Zr
  Zr7      1.0000 0.72923  0.48517  0.87519  Biso   1.000  Zr
  O9       1.0000 0.07626  0.18896  0.69004  Biso   1.000  O
  O10      1.0000 0.06786  0.06536  0.91151  Biso   1.000  O
  O11      1.0000 0.92707  0.43431  0.69477  Biso   1.000  O
  O12      1.0000 0.91852  0.31341  0.94236  Biso   1.000  O
  O13      1.0000 0.54116  0.11970  0.75035  Biso   1.000  O
  O14      1.0000 0.52835  0.12930  0.00178  Biso   1.000  O
  O15      1.0000 0.45772  0.38172  0.00048  Biso   1.000  O
  O16      1.0000 0.45791  0.36913  0.74911  Biso   1.000  O
  Zr8      1.0000 0.27137  0.51573  0.12946  Biso   1.000  Zr
  Zr9      1.0000 0.27570  0.73652  0.37622  Biso   1.000  Zr
  Zr10     1.0000 0.73951  0.76333  0.12611  Biso   1.000  Zr
  Zr11     1.0000 0.73646  0.98541  0.37515  Biso   1.000  Zr
  O17      1.0000 0.07753  0.68333  0.19684  Biso   1.000  O
  O18      1.0000 0.07395  0.56575  0.44549  Biso   1.000  O
  O19      1.0000 0.94213  0.93439  0.19096  Biso   1.000  O
  O20      1.0000 0.93673  0.81678  0.44775  Biso   1.000  O
  O21      1.0000 0.54586  0.61277  0.24894  Biso   1.000  O
  O22      1.0000 0.54062  0.63355  0.49964  Biso   1.000  O
  O23      1.0000 0.46235  0.88408  0.50321  Biso   1.000  O
  O24      1.0000 0.50235  0.85812  0.25825  Biso   1.000  O
  Zr12     1.0000 0.26689  0.51713  0.62518  Biso   1.000  Zr
  Zr13     1.0000 0.25965  0.73207  0.87859  Biso   1.000  Zr
  Zr14     1.0000 0.73224  0.76622  0.62544  Biso   1.000  Zr
  Zr15     1.0000 0.71436  0.98098  0.87453  Biso   1.000  Zr
  O25      1.0000 0.06641  0.68325  0.69810  Biso   1.000  O
  O26      1.0000 0.06469  0.56495  0.94877  Biso   1.000  O
  O27      1.0000 0.91761  0.93466  0.69080  Biso   1.000  O
  O28      1.0000 0.91288  0.81593  0.94071  Biso   1.000  O
  O29      1.0000 0.53390  0.61727  0.75035  Biso   1.000  O
  O30      1.0000 0.53510  0.63282  0.99975  Biso   1.000  O
  O31      1.0000 0.44315  0.88099  0.00757  Biso   1.000  O
  O32      1.0000 0.45245  0.86684  0.75290  Biso   1.000  O
