data_image0
_cell_length_a       10.2967
_cell_length_b       5.18896
_cell_length_c       10.6319
_cell_angle_alpha    90.2585
_cell_angle_beta     79.0942
_cell_angle_gamma    90.1185

_symmetry_space_group_name_H-M    "P 1"
_symmetry_int_tables_number       1

loop_
  _symmetry_equiv_pos_as_xyz
  'x, y, z'

loop_
  _atom_site_label
  _atom_site_occupancy
  _atom_site_fract_x
  _atom_site_fract_y
  _atom_site_fract_z
  _atom_site_thermal_displace_type
  _atom_site_B_iso_or_equiv
  _atom_site_type_symbol
  Zr1      1.0000 0.13180  0.04600  0.14301  Biso   1.000  Zr
  Zr2      1.0000 0.13804  0.45768  0.39305  Biso   1.000  Zr
  Zr3      1.0000 0.34822  0.55242  0.09303  Biso   1.000  Zr
  Zr4      1.0000 0.35793  0.94290  0.35470  Biso   1.000  Zr
  O1       1.0000 0.02916  0.33749  0.07520  Biso   1.000  O
  O2       1.0000 0.02839  0.17049  0.32809  Biso   1.000  O
  O3       1.0000 0.46173  0.85007  0.17067  Biso   1.000  O
  O4       1.0000 0.47968  0.69463  0.44244  Biso   1.000  O
  O5       1.0000 0.26171  0.25249  0.23395  Biso   1.000  O
  O6       1.0000 0.27569  0.23839  0.49089  Biso   1.000  O
  O7       1.0000 0.21744  0.76803  0.00302  Biso   1.000  O
  O8       1.0000 0.21095  0.75098  0.25395  Biso   1.000  O
  Zr5      1.0000 0.13836  0.04348  0.64366  Biso   1.000  Zr
  Zr6      1.0000 0.13228  0.45919  0.89283  Biso   1.000  Zr
  Zr7      1.0000 0.36117  0.54395  0.60927  Biso   1.000  Zr
  Zr8      1.0000 0.35793  0.96281  0.85300  Biso   1.000  Zr
  O9       1.0000 0.03467  0.33223  0.57736  Biso   1.000  O
  O10      1.0000 0.03054  0.17074  0.82562  Biso   1.000  O
  O11      1.0000 0.46737  0.82756  0.67964  Biso   1.000  O
  O12      1.0000 0.46420  0.67811  0.92315  Biso   1.000  O
  O13      1.0000 0.27292  0.25509  0.73953  Biso   1.000  O
  O14      1.0000 0.26995  0.25413  0.98570  Biso   1.000  O
  O15      1.0000 0.22656  0.74975  0.51018  Biso   1.000  O
  O16      1.0000 0.22327  0.74401  0.75810  Biso   1.000  O
  Zr9      1.0000 0.63897  0.04033  0.14897  Biso   1.000  Zr
  Zr10     1.0000 0.65254  0.45675  0.40844  Biso   1.000  Zr
  Zr11     1.0000 0.85718  0.54356  0.10674  Biso   1.000  Zr
  Zr12     1.0000 0.86179  0.95409  0.35591  Biso   1.000  Zr
  O17      1.0000 0.52870  0.33534  0.07831  Biso   1.000  O
  O18      1.0000 0.54866  0.12875  0.34248  Biso   1.000  O
  O19      1.0000 0.96067  0.83409  0.17261  Biso   1.000  O
  O20      1.0000 0.96564  0.66786  0.42442  Biso   1.000  O
  O21      1.0000 0.77661  0.25908  0.24351  Biso   1.000  O
  O22      1.0000 0.77929  0.23793  0.49689  Biso   1.000  O
  O23      1.0000 0.72159  0.75805  0.01420  Biso   1.000  O
  O24      1.0000 0.72315  0.73907  0.26373  Biso   1.000  O
  Zr13     1.0000 0.63802  0.04328  0.65092  Biso   1.000  Zr
  Zr14     1.0000 0.63548  0.45900  0.89931  Biso   1.000  Zr
  Zr15     1.0000 0.86459  0.54365  0.60921  Biso   1.000  Zr
  Zr16     1.0000 0.85859  0.95924  0.85695  Biso   1.000  Zr
  O25      1.0000 0.53428  0.32862  0.58238  Biso   1.000  O
  O26      1.0000 0.52994  0.17579  0.82954  Biso   1.000  O
  O27      1.0000 0.96619  0.83334  0.67414  Biso   1.000  O
  O28      1.0000 0.96182  0.67095  0.92240  Biso   1.000  O
  O29      1.0000 0.77327  0.25901  0.74457  Biso   1.000  O
  O30      1.0000 0.77122  0.24461  0.99338  Biso   1.000  O
  O31      1.0000 0.72815  0.75312  0.51665  Biso   1.000  O
  O32      1.0000 0.72423  0.74586  0.76495  Biso   1.000  O
  Ag1      1.0000 0.44077  0.44616  0.29433  Biso   1.000  Ag
