data_image0
_cell_length_a       10.1918
_cell_length_b       10.3223
_cell_length_c       5.26037
_cell_angle_alpha    89.902
_cell_angle_beta     80.9768
_cell_angle_gamma    89.6459

_symmetry_space_group_name_H-M    "P 1"
_symmetry_int_tables_number       1

loop_
  _symmetry_equiv_pos_as_xyz
  'x, y, z'

loop_
  _atom_site_label
  _atom_site_occupancy
  _atom_site_fract_x
  _atom_site_fract_y
  _atom_site_fract_z
  _atom_site_thermal_displace_type
  _atom_site_B_iso_or_equiv
  _atom_site_type_symbol
  Ag1      1.0000 0.12377  0.01263  0.33053  Biso   1.000  Ag
  Zr1      1.0000 0.14279  0.22844  0.78777  Biso   1.000  Zr
  Zr2      1.0000 0.35972  0.26996  0.19911  Biso   1.000  Zr
  Zr3      1.0000 0.36188  0.48014  0.70629  Biso   1.000  Zr
  O1       1.0000 0.04145  0.16272  0.15689  Biso   1.000  O
  O2       1.0000 0.02525  0.08527  0.68677  Biso   1.000  O
  O3       1.0000 0.46557  0.41638  0.34199  Biso   1.000  O
  O4       1.0000 0.47012  0.33896  0.84504  Biso   1.000  O
  O5       1.0000 0.26701  0.12119  0.45441  Biso   1.000  O
  O6       1.0000 0.29376  0.13747  0.93303  Biso   1.000  O
  O7       1.0000 0.22435  0.38241  0.01569  Biso   1.000  O
  O8       1.0000 0.22794  0.36900  0.51568  Biso   1.000  O
  Zr4      1.0000 0.14015  0.52177  0.29210  Biso   1.000  Zr
  Zr5      1.0000 0.13749  0.73014  0.79292  Biso   1.000  Zr
  Zr6      1.0000 0.36085  0.77434  0.20168  Biso   1.000  Zr
  Zr7      1.0000 0.36044  0.98161  0.70467  Biso   1.000  Zr
  O9       1.0000 0.03572  0.66969  0.16225  Biso   1.000  O
  O10      1.0000 0.03716  0.58021  0.66169  Biso   1.000  O
  O11      1.0000 0.46518  0.91692  0.34297  Biso   1.000  O
  O12      1.0000 0.46650  0.83392  0.83893  Biso   1.000  O
  O13      1.0000 0.27601  0.63121  0.47974  Biso   1.000  O
  O14      1.0000 0.27570  0.62275  0.98014  Biso   1.000  O
  O15      1.0000 0.22846  0.88245  0.00471  Biso   1.000  O
  O16      1.0000 0.21953  0.86941  0.51179  Biso   1.000  O
  Zr8      1.0000 0.63754  0.02161  0.29288  Biso   1.000  Zr
  Zr9      1.0000 0.63887  0.22985  0.79300  Biso   1.000  Zr
  Zr10     1.0000 0.86430  0.26855  0.21646  Biso   1.000  Zr
  Zr11     1.0000 0.86378  0.47698  0.71338  Biso   1.000  Zr
  O17      1.0000 0.53426  0.16770  0.15672  Biso   1.000  O
  O18      1.0000 0.53696  0.08251  0.65603  Biso   1.000  O
  O19      1.0000 0.96845  0.41475  0.35100  Biso   1.000  O
  O20      1.0000 0.96800  0.33303  0.85800  Biso   1.000  O
  O21      1.0000 0.77557  0.12842  0.48539  Biso   1.000  O
  O22      1.0000 0.77443  0.12094  0.98725  Biso   1.000  O
  O23      1.0000 0.72726  0.37726  0.02350  Biso   1.000  O
  O24      1.0000 0.72729  0.37060  0.52205  Biso   1.000  O
  Zr12     1.0000 0.63758  0.51944  0.29019  Biso   1.000  Zr
  Zr13     1.0000 0.63782  0.72743  0.78911  Biso   1.000  Zr
  Zr14     1.0000 0.85956  0.76745  0.20766  Biso   1.000  Zr
  Zr15     1.0000 0.85512  0.97821  0.72021  Biso   1.000  Zr
  O25      1.0000 0.53477  0.66660  0.15248  Biso   1.000  O
  O26      1.0000 0.53480  0.58343  0.65272  Biso   1.000  O
  O27      1.0000 0.95522  0.92198  0.34203  Biso   1.000  O
  O28      1.0000 0.96170  0.82933  0.84123  Biso   1.000  O
  O29      1.0000 0.77618  0.62687  0.48107  Biso   1.000  O
  O30      1.0000 0.77631  0.62029  0.98154  Biso   1.000  O
  O31      1.0000 0.72154  0.87787  0.02095  Biso   1.000  O
  O32      1.0000 0.72588  0.86993  0.51835  Biso   1.000  O
