data_image0
_cell_length_a       10.158
_cell_length_b       5.17351
_cell_length_c       10.6293
_cell_angle_alpha    89.7708
_cell_angle_beta     91.2791
_cell_angle_gamma    90.1234

_symmetry_space_group_name_H-M    "P 1"
_symmetry_int_tables_number       1

loop_
  _symmetry_equiv_pos_as_xyz
  'x, y, z'

loop_
  _atom_site_label
  _atom_site_occupancy
  _atom_site_fract_x
  _atom_site_fract_y
  _atom_site_fract_z
  _atom_site_thermal_displace_type
  _atom_site_B_iso_or_equiv
  _atom_site_type_symbol
  Zr1      1.0000 0.13469  0.04207  0.17216  Biso   1.000  Zr
  Zr2      1.0000 0.13722  0.45298  0.42602  Biso   1.000  Zr
  Zr3      1.0000 0.34841  0.54238  0.18671  Biso   1.000  Zr
  Zr4      1.0000 0.36248  0.95587  0.42745  Biso   1.000  Zr
  Zr5      1.0000 0.64273  0.05275  0.07723  Biso   1.000  Zr
  Zr6      1.0000 0.63905  0.45650  0.33274  Biso   1.000  Zr
  Zr7      1.0000 0.86094  0.54039  0.07632  Biso   1.000  Zr
  Zr8      1.0000 0.86149  0.95697  0.32833  Biso   1.000  Zr
  O1       1.0000 0.03219  0.32653  0.08218  Biso   1.000  O
  O2       1.0000 0.03025  0.17308  0.33182  Biso   1.000  O
  O3       1.0000 0.45410  0.86817  0.09931  Biso   1.000  O
  O4       1.0000 0.46733  0.67401  0.33724  Biso   1.000  O
  O5       1.0000 0.26979  0.24936  0.30106  Biso   1.000  O
  O6       1.0000 0.27442  0.25289  0.04845  Biso   1.000  O
  O7       1.0000 0.22075  0.75026  0.30269  Biso   1.000  O
  O8       1.0000 0.22166  0.75023  0.05097  Biso   1.000  O
  O9       1.0000 0.51904  0.30259  0.19006  Biso   1.000  O
  O10      1.0000 0.53041  0.17677  0.42560  Biso   1.000  O
  O11      1.0000 0.96596  0.82739  0.16912  Biso   1.000  O
  O12      1.0000 0.96921  0.67174  0.41939  Biso   1.000  O
  O13      1.0000 0.77590  0.24744  0.45282  Biso   1.000  O
  O14      1.0000 0.77468  0.25513  0.20506  Biso   1.000  O
  O15      1.0000 0.72717  0.74910  0.45567  Biso   1.000  O
  O16      1.0000 0.72462  0.75252  0.20788  Biso   1.000  O
  Zr9      1.0000 0.14332  0.03865  0.67390  Biso   1.000  Zr
  Zr10     1.0000 0.14079  0.45939  0.92374  Biso   1.000  Zr
  Zr11     1.0000 0.36513  0.53971  0.67564  Biso   1.000  Zr
  Zr12     1.0000 0.35983  0.96346  0.92549  Biso   1.000  Zr
  Zr13     1.0000 0.64216  0.03756  0.57664  Biso   1.000  Zr
  Zr14     1.0000 0.65090  0.45110  0.81514  Biso   1.000  Zr
  Zr15     1.0000 0.86665  0.54165  0.57720  Biso   1.000  Zr
  Zr16     1.0000 0.86973  0.95838  0.82712  Biso   1.000  Zr
  O17      1.0000 0.03403  0.32087  0.58208  Biso   1.000  O
  O18      1.0000 0.03968  0.17030  0.83169  Biso   1.000  O
  O19      1.0000 0.47290  0.81961  0.58354  Biso   1.000  O
  O20      1.0000 0.47374  0.66967  0.83208  Biso   1.000  O
  O21      1.0000 0.27967  0.24912  0.79814  Biso   1.000  O
  O22      1.0000 0.27667  0.24671  0.54915  Biso   1.000  O
  O23      1.0000 0.22969  0.74722  0.79918  Biso   1.000  O
  O24      1.0000 0.22827  0.74697  0.55008  Biso   1.000  O
  O25      1.0000 0.53458  0.31876  0.66850  Biso   1.000  O
  O26      1.0000 0.53546  0.15185  0.91426  Biso   1.000  O
  O27      1.0000 0.97511  0.82087  0.66813  Biso   1.000  O
  O28      1.0000 0.97405  0.67164  0.91862  Biso   1.000  O
  O29      1.0000 0.78801  0.24838  0.94545  Biso   1.000  O
  O30      1.0000 0.78240  0.24266  0.69757  Biso   1.000  O
  O31      1.0000 0.74015  0.76697  0.95054  Biso   1.000  O
  O32      1.0000 0.73237  0.74447  0.70201  Biso   1.000  O
  Ag1      1.0000 0.55896  0.54729  0.03305  Biso   1.000  Ag
