data_image0
_cell_length_a       10.1005
_cell_length_b       10.3183
_cell_length_c       5.24321
_cell_angle_alpha    89.7472
_cell_angle_beta     90.8162
_cell_angle_gamma    89.6637

_symmetry_space_group_name_H-M    "P 1"
_symmetry_int_tables_number       1

loop_
  _symmetry_equiv_pos_as_xyz
  'x, y, z'

loop_
  _atom_site_label
  _atom_site_occupancy
  _atom_site_fract_x
  _atom_site_fract_y
  _atom_site_fract_z
  _atom_site_thermal_displace_type
  _atom_site_B_iso_or_equiv
  _atom_site_type_symbol
  Ag1      1.0000 0.12455  0.01546  0.37719  Biso   1.000  Ag
  Zr1      1.0000 0.14496  0.23019  0.84138  Biso   1.000  Zr
  Zr2      1.0000 0.36050  0.27101  0.33121  Biso   1.000  Zr
  Zr3      1.0000 0.36119  0.47993  0.83952  Biso   1.000  Zr
  Zr4      1.0000 0.63793  0.02170  0.15943  Biso   1.000  Zr
  Zr5      1.0000 0.63785  0.22984  0.65993  Biso   1.000  Zr
  Zr6      1.0000 0.86357  0.26807  0.16745  Biso   1.000  Zr
  Zr7      1.0000 0.86329  0.47711  0.66445  Biso   1.000  Zr
  O1       1.0000 0.04264  0.16338  0.17848  Biso   1.000  O
  O2       1.0000 0.02607  0.08451  0.71026  Biso   1.000  O
  O3       1.0000 0.46711  0.41801  0.16761  Biso   1.000  O
  O4       1.0000 0.46595  0.33189  0.66836  Biso   1.000  O
  O5       1.0000 0.26940  0.11998  0.56260  Biso   1.000  O
  O6       1.0000 0.29641  0.14228  0.04766  Biso   1.000  O
  O7       1.0000 0.22601  0.37405  0.58811  Biso   1.000  O
  O8       1.0000 0.22208  0.38043  0.08852  Biso   1.000  O
  O9       1.0000 0.53559  0.16947  0.32515  Biso   1.000  O
  O10      1.0000 0.53738  0.07918  0.82046  Biso   1.000  O
  O11      1.0000 0.96797  0.41425  0.34020  Biso   1.000  O
  O12      1.0000 0.96884  0.33263  0.84799  Biso   1.000  O
  O13      1.0000 0.77575  0.12423  0.91840  Biso   1.000  O
  O14      1.0000 0.77620  0.12577  0.41755  Biso   1.000  O
  O15      1.0000 0.72630  0.37333  0.91565  Biso   1.000  O
  O16      1.0000 0.72641  0.37471  0.41390  Biso   1.000  O
  Zr8      1.0000 0.13889  0.52128  0.34334  Biso   1.000  Zr
  Zr9      1.0000 0.13750  0.72998  0.84160  Biso   1.000  Zr
  Zr10     1.0000 0.36020  0.77299  0.33058  Biso   1.000  Zr
  Zr11     1.0000 0.36046  0.98093  0.83757  Biso   1.000  Zr
  Zr12     1.0000 0.63946  0.51988  0.15877  Biso   1.000  Zr
  Zr13     1.0000 0.63666  0.72832  0.65538  Biso   1.000  Zr
  Zr14     1.0000 0.86028  0.76838  0.15786  Biso   1.000  Zr
  Zr15     1.0000 0.85544  0.97908  0.66979  Biso   1.000  Zr
  O17      1.0000 0.03441  0.66962  0.17448  Biso   1.000  O
  O18      1.0000 0.03467  0.58032  0.67492  Biso   1.000  O
  O19      1.0000 0.46856  0.91767  0.16551  Biso   1.000  O
  O20      1.0000 0.46357  0.83251  0.66306  Biso   1.000  O
  O21      1.0000 0.27502  0.62693  0.58704  Biso   1.000  O
  O22      1.0000 0.27529  0.62490  0.08780  Biso   1.000  O
  O23      1.0000 0.21909  0.87366  0.57614  Biso   1.000  O
  O24      1.0000 0.23044  0.87381  0.07010  Biso   1.000  O
  O25      1.0000 0.53379  0.66772  0.32402  Biso   1.000  O
  O26      1.0000 0.53407  0.58180  0.82576  Biso   1.000  O
  O27      1.0000 0.95629  0.92348  0.32695  Biso   1.000  O
  O28      1.0000 0.96286  0.82953  0.82744  Biso   1.000  O
  O29      1.0000 0.77576  0.62350  0.91325  Biso   1.000  O
  O30      1.0000 0.77592  0.62442  0.41334  Biso   1.000  O
  O31      1.0000 0.72177  0.87309  0.91209  Biso   1.000  O
  O32      1.0000 0.72568  0.87480  0.41176  Biso   1.000  O
