data_image0
_cell_length_a       5.08743
_cell_length_b       10.3339
_cell_length_c       10.506
_cell_angle_alpha    89.7868
_cell_angle_beta     81.1522
_cell_angle_gamma    89.6797

_symmetry_space_group_name_H-M    "P 1"
_symmetry_int_tables_number       1

loop_
  _symmetry_equiv_pos_as_xyz
  'x, y, z'

loop_
  _atom_site_label
  _atom_site_occupancy
  _atom_site_fract_x
  _atom_site_fract_y
  _atom_site_fract_z
  _atom_site_thermal_displace_type
  _atom_site_B_iso_or_equiv
  _atom_site_type_symbol
  Ag1      1.0000 0.24936  0.01375  0.16674  Biso   1.000  Ag
  Zr1      1.0000 0.27384  0.23321  0.39544  Biso   1.000  Zr
  Zr2      1.0000 0.72477  0.26590  0.10309  Biso   1.000  Zr
  Zr3      1.0000 0.72080  0.47990  0.35339  Biso   1.000  Zr
  O1       1.0000 0.08746  0.16593  0.08346  Biso   1.000  O
  O2       1.0000 0.04535  0.08546  0.34616  Biso   1.000  O
  O3       1.0000 0.92971  0.41826  0.17047  Biso   1.000  O
  O4       1.0000 0.92648  0.33420  0.42251  Biso   1.000  O
  O5       1.0000 0.53344  0.12306  0.23651  Biso   1.000  O
  O6       1.0000 0.54697  0.12253  0.48752  Biso   1.000  O
  O7       1.0000 0.45663  0.38014  0.01025  Biso   1.000  O
  O8       1.0000 0.45371  0.36881  0.25889  Biso   1.000  O
  Zr4      1.0000 0.27442  0.02107  0.64390  Biso   1.000  Zr
  Zr5      1.0000 0.28939  0.22443  0.89600  Biso   1.000  Zr
  Zr6      1.0000 0.72084  0.27229  0.60558  Biso   1.000  Zr
  Zr7      1.0000 0.73060  0.47726  0.85674  Biso   1.000  Zr
  O9       1.0000 0.07079  0.17183  0.58034  Biso   1.000  O
  O10      1.0000 0.07959  0.07968  0.82788  Biso   1.000  O
  O11      1.0000 0.93276  0.41731  0.67324  Biso   1.000  O
  O12      1.0000 0.94474  0.33284  0.92648  Biso   1.000  O
  O13      1.0000 0.55316  0.12760  0.73468  Biso   1.000  O
  O14      1.0000 0.58676  0.13249  0.97594  Biso   1.000  O
  O15      1.0000 0.44531  0.37975  0.50956  Biso   1.000  O
  O16      1.0000 0.45496  0.37016  0.76078  Biso   1.000  O
  Zr8      1.0000 0.27589  0.52000  0.14363  Biso   1.000  Zr
  Zr9      1.0000 0.27050  0.72583  0.39553  Biso   1.000  Zr
  Zr10     1.0000 0.72095  0.77068  0.09923  Biso   1.000  Zr
  Zr11     1.0000 0.70734  0.97783  0.35736  Biso   1.000  Zr
  O17      1.0000 0.07579  0.67175  0.07985  Biso   1.000  O
  O18      1.0000 0.07267  0.57832  0.32948  Biso   1.000  O
  O19      1.0000 0.91051  0.92330  0.17029  Biso   1.000  O
  O20      1.0000 0.92260  0.82916  0.41791  Biso   1.000  O
  O21      1.0000 0.55016  0.63023  0.23999  Biso   1.000  O
  O22      1.0000 0.55031  0.62077  0.49078  Biso   1.000  O
  O23      1.0000 0.45738  0.88070  0.00378  Biso   1.000  O
  O24      1.0000 0.43986  0.86850  0.25596  Biso   1.000  O
  Zr12     1.0000 0.27923  0.52100  0.64753  Biso   1.000  Zr
  Zr13     1.0000 0.28234  0.73204  0.89426  Biso   1.000  Zr
  Zr14     1.0000 0.72091  0.77099  0.60496  Biso   1.000  Zr
  Zr15     1.0000 0.72419  0.98233  0.85416  Biso   1.000  Zr
  O25      1.0000 0.06995  0.66790  0.57943  Biso   1.000  O
  O26      1.0000 0.07586  0.58133  0.83052  Biso   1.000  O
  O27      1.0000 0.92772  0.91954  0.66734  Biso   1.000  O
  O28      1.0000 0.93049  0.83044  0.91779  Biso   1.000  O
  O29      1.0000 0.55544  0.62869  0.74079  Biso   1.000  O
  O30      1.0000 0.55554  0.62131  0.99012  Biso   1.000  O
  O31      1.0000 0.44304  0.87846  0.50738  Biso   1.000  O
  O32      1.0000 0.44949  0.87105  0.75636  Biso   1.000  O
