data_image0
_cell_length_a       10.0887
_cell_length_b       10.3268
_cell_length_c       10.4774
_cell_angle_alpha    89.8414
_cell_angle_beta     90.428
_cell_angle_gamma    89.8598

_symmetry_space_group_name_H-M    "P 1"
_symmetry_int_tables_number       1

loop_
  _symmetry_equiv_pos_as_xyz
  'x, y, z'

loop_
  _atom_site_label
  _atom_site_occupancy
  _atom_site_fract_x
  _atom_site_fract_y
  _atom_site_fract_z
  _atom_site_thermal_displace_type
  _atom_site_B_iso_or_equiv
  _atom_site_type_symbol
  Ag1      1.0000 0.12562  0.01695  0.19038  Biso   1.000  Ag
  Zr1      1.0000 0.13921  0.23415  0.42009  Biso   1.000  Zr
  Zr2      1.0000 0.35941  0.27002  0.16596  Biso   1.000  Zr
  Zr3      1.0000 0.36077  0.48013  0.41978  Biso   1.000  Zr
  Zr4      1.0000 0.64022  0.02150  0.07848  Biso   1.000  Zr
  Zr5      1.0000 0.63651  0.22999  0.32918  Biso   1.000  Zr
  Zr6      1.0000 0.86452  0.26812  0.08299  Biso   1.000  Zr
  Zr7      1.0000 0.85998  0.47973  0.32968  Biso   1.000  Zr
  O1       1.0000 0.04349  0.16602  0.09320  Biso   1.000  O
  O2       1.0000 0.02691  0.08094  0.36036  Biso   1.000  O
  O3       1.0000 0.46696  0.41749  0.08494  Biso   1.000  O
  O4       1.0000 0.46291  0.32966  0.33656  Biso   1.000  O
  O5       1.0000 0.27028  0.12238  0.28809  Biso   1.000  O
  O6       1.0000 0.29387  0.13816  0.03032  Biso   1.000  O
  O7       1.0000 0.22385  0.37548  0.29357  Biso   1.000  O
  O8       1.0000 0.22245  0.37915  0.04389  Biso   1.000  O
  O9       1.0000 0.53568  0.16903  0.16298  Biso   1.000  O
  O10      1.0000 0.53233  0.08103  0.41287  Biso   1.000  O
  O11      1.0000 0.96523  0.41910  0.16475  Biso   1.000  O
  O12      1.0000 0.96468  0.33367  0.41587  Biso   1.000  O
  O13      1.0000 0.77262  0.12445  0.45798  Biso   1.000  O
  O14      1.0000 0.77642  0.12582  0.20852  Biso   1.000  O
  O15      1.0000 0.72309  0.37479  0.45626  Biso   1.000  O
  O16      1.0000 0.72468  0.37474  0.20635  Biso   1.000  O
  Zr8      1.0000 0.13844  0.02046  0.66723  Biso   1.000  Zr
  Zr9      1.0000 0.14461  0.22465  0.92157  Biso   1.000  Zr
  Zr10     1.0000 0.36160  0.27104  0.67010  Biso   1.000  Zr
  Zr11     1.0000 0.36143  0.47863  0.92036  Biso   1.000  Zr
  Zr12     1.0000 0.63659  0.02099  0.58090  Biso   1.000  Zr
  Zr13     1.0000 0.64008  0.22925  0.83034  Biso   1.000  Zr
  Zr14     1.0000 0.85984  0.27131  0.58048  Biso   1.000  Zr
  Zr15     1.0000 0.86446  0.47679  0.83207  Biso   1.000  Zr
  O17      1.0000 0.03489  0.17178  0.58750  Biso   1.000  O
  O18      1.0000 0.03605  0.08076  0.83484  Biso   1.000  O
  O19      1.0000 0.46569  0.41894  0.58521  Biso   1.000  O
  O20      1.0000 0.46774  0.33254  0.83457  Biso   1.000  O
  O21      1.0000 0.27601  0.12236  0.78784  Biso   1.000  O
  O22      1.0000 0.27621  0.12740  0.53954  Biso   1.000  O
  O23      1.0000 0.22550  0.37269  0.79455  Biso   1.000  O
  O24      1.0000 0.22353  0.37671  0.54421  Biso   1.000  O
  O25      1.0000 0.53445  0.16897  0.66335  Biso   1.000  O
  O26      1.0000 0.53876  0.08002  0.91144  Biso   1.000  O
  O27      1.0000 0.96685  0.41621  0.66734  Biso   1.000  O
  O28      1.0000 0.96899  0.32827  0.92022  Biso   1.000  O
  O29      1.0000 0.77935  0.12415  0.95722  Biso   1.000  O
  O30      1.0000 0.77616  0.12600  0.70658  Biso   1.000  O
  O31      1.0000 0.72691  0.37321  0.95746  Biso   1.000  O
  O32      1.0000 0.72524  0.37580  0.70667  Biso   1.000  O
  Zr16     1.0000 0.13867  0.52152  0.16969  Biso   1.000  Zr
  Zr17     1.0000 0.13544  0.72770  0.42060  Biso   1.000  Zr
  Zr18     1.0000 0.36025  0.77269  0.16578  Biso   1.000  Zr
  Zr19     1.0000 0.36001  0.97962  0.41863  Biso   1.000  Zr
  Zr20     1.0000 0.63918  0.52012  0.07878  Biso   1.000  Zr
  Zr21     1.0000 0.63651  0.72829  0.32803  Biso   1.000  Zr
  Zr22     1.0000 0.86218  0.76930  0.07777  Biso   1.000  Zr
  Zr23     1.0000 0.85452  0.97880  0.33463  Biso   1.000  Zr
  O33      1.0000 0.03636  0.67207  0.08754  Biso   1.000  O
  O34      1.0000 0.03349  0.58062  0.33637  Biso   1.000  O
  O35      1.0000 0.47025  0.91750  0.08438  Biso   1.000  O
  O36      1.0000 0.46189  0.83147  0.33431  Biso   1.000  O
  O37      1.0000 0.27438  0.62711  0.29367  Biso   1.000  O
  O38      1.0000 0.27668  0.62474  0.04354  Biso   1.000  O
  O39      1.0000 0.21893  0.87441  0.28985  Biso   1.000  O
  O40      1.0000 0.23146  0.87284  0.03742  Biso   1.000  O
  O41      1.0000 0.53356  0.66790  0.16284  Biso   1.000  O
  O42      1.0000 0.53337  0.58146  0.41284  Biso   1.000  O
  O43      1.0000 0.95691  0.92531  0.16339  Biso   1.000  O
  O44      1.0000 0.96180  0.82890  0.41303  Biso   1.000  O
  O45      1.0000 0.77435  0.62443  0.45597  Biso   1.000  O
  O46      1.0000 0.77505  0.62563  0.20563  Biso   1.000  O
  O47      1.0000 0.72031  0.87387  0.45633  Biso   1.000  O
  O48      1.0000 0.72604  0.87478  0.20573  Biso   1.000  O
  Zr24     1.0000 0.13900  0.52051  0.67213  Biso   1.000  Zr
  Zr25     1.0000 0.14134  0.73167  0.91981  Biso   1.000  Zr
  Zr26     1.0000 0.36104  0.77087  0.66944  Biso   1.000  Zr
  Zr27     1.0000 0.36167  0.98039  0.92003  Biso   1.000  Zr
  Zr28     1.0000 0.63873  0.52073  0.58013  Biso   1.000  Zr
  Zr29     1.0000 0.63909  0.72932  0.82908  Biso   1.000  Zr
  Zr30     1.0000 0.85981  0.76996  0.58046  Biso   1.000  Zr
  Zr31     1.0000 0.86283  0.97975  0.82976  Biso   1.000  Zr
  O49      1.0000 0.03310  0.66735  0.58664  Biso   1.000  O
  O50      1.0000 0.03607  0.57983  0.83816  Biso   1.000  O
  O51      1.0000 0.46429  0.91854  0.58452  Biso   1.000  O
  O52      1.0000 0.46692  0.83209  0.83356  Biso   1.000  O
  O53      1.0000 0.27669  0.62415  0.79353  Biso   1.000  O
  O54      1.0000 0.27453  0.62526  0.54397  Biso   1.000  O
  O55      1.0000 0.22401  0.87379  0.79043  Biso   1.000  O
  O56      1.0000 0.22335  0.87579  0.54081  Biso   1.000  O
  O57      1.0000 0.53465  0.66851  0.66280  Biso   1.000  O
  O58      1.0000 0.53496  0.58167  0.91351  Biso   1.000  O
  O59      1.0000 0.96484  0.91888  0.66220  Biso   1.000  O
  O60      1.0000 0.96624  0.83044  0.91297  Biso   1.000  O
  O61      1.0000 0.77744  0.62358  0.95660  Biso   1.000  O
  O62      1.0000 0.77687  0.62474  0.70703  Biso   1.000  O
  O63      1.0000 0.72556  0.87393  0.95527  Biso   1.000  O
  O64      1.0000 0.72432  0.87573  0.70577  Biso   1.000  O
