data_image0
_cell_length_a       10.1253
_cell_length_b       10.3264
_cell_length_c       10.5671
_cell_angle_alpha    89.8941
_cell_angle_beta     90.6089
_cell_angle_gamma    90.0471

_symmetry_space_group_name_H-M    "P 1"
_symmetry_int_tables_number       1

loop_
  _symmetry_equiv_pos_as_xyz
  'x, y, z'

loop_
  _atom_site_label
  _atom_site_occupancy
  _atom_site_fract_x
  _atom_site_fract_y
  _atom_site_fract_z
  _atom_site_thermal_displace_type
  _atom_site_B_iso_or_equiv
  _atom_site_type_symbol
  Zr1      1.0000 0.13738  0.02081  0.17198  Biso   1.000  Zr
  Zr2      1.0000 0.13676  0.22735  0.42615  Biso   1.000  Zr
  Zr3      1.0000 0.34762  0.26927  0.18459  Biso   1.000  Zr
  Zr4      1.0000 0.36220  0.47914  0.42358  Biso   1.000  Zr
  Zr5      1.0000 0.64136  0.01824  0.07468  Biso   1.000  Zr
  Zr6      1.0000 0.63773  0.22580  0.33162  Biso   1.000  Zr
  Zr7      1.0000 0.86113  0.27013  0.07617  Biso   1.000  Zr
  Zr8      1.0000 0.86116  0.47846  0.32855  Biso   1.000  Zr
  O1       1.0000 0.03270  0.16409  0.08255  Biso   1.000  O
  O2       1.0000 0.03026  0.08654  0.33253  Biso   1.000  O
  O3       1.0000 0.45399  0.43638  0.10063  Biso   1.000  O
  O4       1.0000 0.46605  0.33390  0.33576  Biso   1.000  O
  O5       1.0000 0.26970  0.12468  0.30125  Biso   1.000  O
  O6       1.0000 0.27651  0.12514  0.04827  Biso   1.000  O
  O7       1.0000 0.21983  0.37502  0.30077  Biso   1.000  O
  O8       1.0000 0.22278  0.37513  0.04806  Biso   1.000  O
  O9       1.0000 0.51577  0.14262  0.18851  Biso   1.000  O
  O10      1.0000 0.53063  0.08708  0.42478  Biso   1.000  O
  O11      1.0000 0.96603  0.41412  0.16816  Biso   1.000  O
  O12      1.0000 0.96814  0.33629  0.41885  Biso   1.000  O
  O13      1.0000 0.77525  0.12389  0.45318  Biso   1.000  O
  O14      1.0000 0.77289  0.12695  0.20440  Biso   1.000  O
  O15      1.0000 0.72486  0.37395  0.45448  Biso   1.000  O
  O16      1.0000 0.72219  0.37807  0.20610  Biso   1.000  O
  Zr9      1.0000 0.14082  0.02016  0.67344  Biso   1.000  Zr
  Zr10     1.0000 0.13985  0.22788  0.92243  Biso   1.000  Zr
  Zr11     1.0000 0.36307  0.27103  0.67436  Biso   1.000  Zr
  Zr12     1.0000 0.35952  0.48199  0.92365  Biso   1.000  Zr
  Zr13     1.0000 0.64076  0.01858  0.57794  Biso   1.000  Zr
  Zr14     1.0000 0.64860  0.22562  0.81588  Biso   1.000  Zr
  Zr15     1.0000 0.86345  0.27172  0.57711  Biso   1.000  Zr
  Zr16     1.0000 0.86632  0.48104  0.82764  Biso   1.000  Zr
  O17      1.0000 0.03235  0.16266  0.58334  Biso   1.000  O
  O18      1.0000 0.03588  0.08380  0.83234  Biso   1.000  O
  O19      1.0000 0.47018  0.41348  0.58321  Biso   1.000  O
  O20      1.0000 0.47219  0.33689  0.83395  Biso   1.000  O
  O21      1.0000 0.27790  0.12465  0.79677  Biso   1.000  O
  O22      1.0000 0.27598  0.12463  0.54842  Biso   1.000  O
  O23      1.0000 0.22738  0.37435  0.79766  Biso   1.000  O
  O24      1.0000 0.22646  0.37473  0.54851  Biso   1.000  O
  O25      1.0000 0.53369  0.16248  0.66674  Biso   1.000  O
  O26      1.0000 0.53554  0.07684  0.91087  Biso   1.000  O
  O27      1.0000 0.97099  0.41363  0.66780  Biso   1.000  O
  O28      1.0000 0.97170  0.33548  0.91648  Biso   1.000  O
  O29      1.0000 0.78657  0.12102  0.94628  Biso   1.000  O
  O30      1.0000 0.78115  0.12213  0.69839  Biso   1.000  O
  O31      1.0000 0.73571  0.38297  0.95082  Biso   1.000  O
  O32      1.0000 0.72894  0.37479  0.70187  Biso   1.000  O
  Zr17     1.0000 0.13699  0.52170  0.17156  Biso   1.000  Zr
  Zr18     1.0000 0.13896  0.72830  0.42153  Biso   1.000  Zr
  Zr19     1.0000 0.36098  0.77295  0.17312  Biso   1.000  Zr
  Zr20     1.0000 0.36163  0.97772  0.42468  Biso   1.000  Zr
  Zr21     1.0000 0.64048  0.53038  0.08108  Biso   1.000  Zr
  Zr22     1.0000 0.63970  0.73099  0.32963  Biso   1.000  Zr
  Zr23     1.0000 0.86282  0.77187  0.07914  Biso   1.000  Zr
  Zr24     1.0000 0.86162  0.97920  0.32825  Biso   1.000  Zr
  O33      1.0000 0.03263  0.66426  0.08278  Biso   1.000  O
  O34      1.0000 0.03198  0.58575  0.33220  Biso   1.000  O
  O35      1.0000 0.46908  0.91137  0.08076  Biso   1.000  O
  O36      1.0000 0.46881  0.83747  0.33376  Biso   1.000  O
  O37      1.0000 0.27518  0.62427  0.29547  Biso   1.000  O
  O38      1.0000 0.27440  0.62705  0.04517  Biso   1.000  O
  O39      1.0000 0.22492  0.87464  0.29717  Biso   1.000  O
  O40      1.0000 0.22386  0.87577  0.04784  Biso   1.000  O
  O41      1.0000 0.53536  0.67143  0.16764  Biso   1.000  O
  O42      1.0000 0.53229  0.58636  0.41718  Biso   1.000  O
  O43      1.0000 0.96777  0.91529  0.16785  Biso   1.000  O
  O44      1.0000 0.96836  0.83516  0.41743  Biso   1.000  O
  O45      1.0000 0.77607  0.62413  0.45445  Biso   1.000  O
  O46      1.0000 0.77704  0.62749  0.20539  Biso   1.000  O
  O47      1.0000 0.72620  0.87460  0.45540  Biso   1.000  O
  O48      1.0000 0.72647  0.87539  0.20553  Biso   1.000  O
  Zr25     1.0000 0.14107  0.52043  0.67183  Biso   1.000  Zr
  Zr26     1.0000 0.14024  0.73022  0.92228  Biso   1.000  Zr
  Zr27     1.0000 0.36307  0.77006  0.67265  Biso   1.000  Zr
  Zr28     1.0000 0.36249  0.97761  0.92292  Biso   1.000  Zr
  Zr29     1.0000 0.64010  0.52120  0.57747  Biso   1.000  Zr
  Zr30     1.0000 0.63987  0.72825  0.82769  Biso   1.000  Zr
  Zr31     1.0000 0.86392  0.77028  0.57876  Biso   1.000  Zr
  Zr32     1.0000 0.86431  0.97640  0.82828  Biso   1.000  Zr
  O49      1.0000 0.03384  0.66290  0.58209  Biso   1.000  O
  O50      1.0000 0.03586  0.58658  0.83257  Biso   1.000  O
  O51      1.0000 0.47007  0.91140  0.58321  Biso   1.000  O
  O52      1.0000 0.46902  0.83290  0.83245  Biso   1.000  O
  O53      1.0000 0.27743  0.62388  0.79633  Biso   1.000  O
  O54      1.0000 0.27624  0.62455  0.54580  Biso   1.000  O
  O55      1.0000 0.22655  0.87337  0.79627  Biso   1.000  O
  O56      1.0000 0.22605  0.87466  0.54650  Biso   1.000  O
  O57      1.0000 0.53299  0.66210  0.66791  Biso   1.000  O
  O58      1.0000 0.53323  0.58430  0.91892  Biso   1.000  O
  O59      1.0000 0.97108  0.91188  0.66738  Biso   1.000  O
  O60      1.0000 0.97012  0.83578  0.91944  Biso   1.000  O
  O61      1.0000 0.77682  0.62767  0.95471  Biso   1.000  O
  O62      1.0000 0.77700  0.62480  0.70399  Biso   1.000  O
  O63      1.0000 0.72641  0.87333  0.95524  Biso   1.000  O
  O64      1.0000 0.72683  0.87341  0.70485  Biso   1.000  O
  Ag1      1.0000 0.56259  0.27309  0.03917  Biso   1.000  Ag
