data_image0
_cell_length_a       10.2636
_cell_length_b       10.5285
_cell_length_c       5.10728
_cell_angle_alpha    84.0546
_cell_angle_beta     90.0657
_cell_angle_gamma    89.3334

_symmetry_space_group_name_H-M    "P 1"
_symmetry_int_tables_number       1

loop_
  _symmetry_equiv_pos_as_xyz
  'x, y, z'

loop_
  _atom_site_label
  _atom_site_occupancy
  _atom_site_fract_x
  _atom_site_fract_y
  _atom_site_fract_z
  _atom_site_thermal_displace_type
  _atom_site_B_iso_or_equiv
  _atom_site_type_symbol
  Zr1      1.0000 0.13677  0.98165  0.24721  Biso   1.000  Zr
  Zr2      1.0000 0.13759  0.22476  0.64778  Biso   1.000  Zr
  Zr3      1.0000 0.41352  0.25682  0.25694  Biso   1.000  Zr
  Zr4      1.0000 0.37317  0.99053  0.73331  Biso   1.000  Zr
  O1       1.0000 0.96981  0.17564  0.90268  Biso   1.000  O
  O2       1.0000 0.01346  0.10816  0.43998  Biso   1.000  O
  O3       1.0000 0.99581  0.37092  0.53476  Biso   1.000  O
  O4       1.0000 0.96563  0.44470  0.04976  Biso   1.000  O
  O5       1.0000 0.27045  0.12220  0.41586  Biso   1.000  O
  O6       1.0000 0.20683  0.06109  0.89813  Biso   1.000  O
  O7       1.0000 0.31408  0.28510  0.87944  Biso   1.000  O
  O8       1.0000 0.24714  0.38911  0.44924  Biso   1.000  O
  Zr5      1.0000 0.09530  0.52836  0.29935  Biso   1.000  Zr
  Zr6      1.0000 0.14040  0.73061  0.77173  Biso   1.000  Zr
  Zr7      1.0000 0.39148  0.76208  0.30525  Biso   1.000  Zr
  Zr8      1.0000 0.35747  0.47749  0.72974  Biso   1.000  Zr
  O9       1.0000 0.01192  0.68664  0.08057  Biso   1.000  O
  O10      1.0000 0.98970  0.61961  0.57547  Biso   1.000  O
  O11      1.0000 0.01225  0.86294  0.55971  Biso   1.000  O
  O12      1.0000 0.97147  0.92608  0.07281  Biso   1.000  O
  O13      1.0000 0.24501  0.63659  0.48577  Biso   1.000  O
  O14      1.0000 0.22056  0.55668  0.96773  Biso   1.000  O
  O15      1.0000 0.24127  0.82456  0.04015  Biso   1.000  O
  O16      1.0000 0.25737  0.87734  0.52473  Biso   1.000  O
  Zr9      1.0000 0.63313  0.00038  0.25387  Biso   1.000  Zr
  Zr10     1.0000 0.65088  0.23020  0.71033  Biso   1.000  Zr
  Zr11     1.0000 0.89106  0.26881  0.22766  Biso   1.000  Zr
  Zr12     1.0000 0.89387  0.01334  0.73384  Biso   1.000  Zr
  O17      1.0000 0.54147  0.17406  0.04919  Biso   1.000  O
  O18      1.0000 0.51191  0.10556  0.53610  Biso   1.000  O
  O19      1.0000 0.50699  0.35921  0.53254  Biso   1.000  O
  O20      1.0000 0.47639  0.43198  0.05199  Biso   1.000  O
  O21      1.0000 0.76344  0.14015  0.44299  Biso   1.000  O
  O22      1.0000 0.73706  0.06944  0.93476  Biso   1.000  O
  O23      1.0000 0.75642  0.33070  0.94705  Biso   1.000  O
  O24      1.0000 0.74849  0.38907  0.44872  Biso   1.000  O
  Zr13     1.0000 0.60355  0.51795  0.27863  Biso   1.000  Zr
  Zr14     1.0000 0.64468  0.74216  0.77974  Biso   1.000  Zr
  Zr15     1.0000 0.88287  0.77279  0.31492  Biso   1.000  Zr
  Zr16     1.0000 0.84670  0.48634  0.72743  Biso   1.000  Zr
  O25      1.0000 0.50536  0.68033  0.05332  Biso   1.000  O
  O26      1.0000 0.49301  0.60727  0.55063  Biso   1.000  O
  O27      1.0000 0.50614  0.85655  0.56000  Biso   1.000  O
  O28      1.0000 0.46649  0.93578  0.07785  Biso   1.000  O
  O29      1.0000 0.74338  0.64118  0.49333  Biso   1.000  O
  O30      1.0000 0.73079  0.58016  0.98121  Biso   1.000  O
  O31      1.0000 0.72332  0.83199  0.07747  Biso   1.000  O
  O32      1.0000 0.76075  0.89225  0.54690  Biso   1.000  O
  Ag1      1.0000 0.14814  0.30640  0.10693  Biso   1.000  Ag
