data_image0
_cell_length_a       10.0741
_cell_length_b       10.2251
_cell_length_c       10.0741
_cell_angle_alpha    90.0005
_cell_angle_beta     89.2087
_cell_angle_gamma    90.0001

_symmetry_space_group_name_H-M    "P 1"
_symmetry_int_tables_number       1

loop_
  _symmetry_equiv_pos_as_xyz
  'x, y, z'

loop_
  _atom_site_label
  _atom_site_occupancy
  _atom_site_fract_x
  _atom_site_fract_y
  _atom_site_fract_z
  _atom_site_thermal_displace_type
  _atom_site_B_iso_or_equiv
  _atom_site_type_symbol
  Ag1      1.0000 0.12536  0.97824  0.12536  Biso   1.000  Ag
  Zr1      1.0000 0.12952  0.25176  0.37254  Biso   1.000  Zr
  Zr2      1.0000 0.37254  0.25176  0.12952  Biso   1.000  Zr
  Zr3      1.0000 0.38065  0.00497  0.38065  Biso   1.000  Zr
  O1       1.0000 0.97795  0.15386  0.97795  Biso   1.000  O
  O2       1.0000 0.01506  0.10307  0.23565  Biso   1.000  O
  O3       1.0000 0.99937  0.35290  0.25134  Biso   1.000  O
  O4       1.0000 0.00162  0.39885  0.00162  Biso   1.000  O
  O5       1.0000 0.27276  0.15385  0.27276  Biso   1.000  O
  O6       1.0000 0.23566  0.10307  0.01506  Biso   1.000  O
  O7       1.0000 0.25134  0.35290  0.99937  Biso   1.000  O
  O8       1.0000 0.24909  0.39885  0.24909  Biso   1.000  O
  Zr4      1.0000 0.12537  0.99494  0.62537  Biso   1.000  Zr
  Zr5      1.0000 0.12119  0.25176  0.87817  Biso   1.000  Zr
  Zr6      1.0000 0.37346  0.24983  0.62858  Biso   1.000  Zr
  Zr7      1.0000 0.37012  0.00319  0.88060  Biso   1.000  Zr
  O9       1.0000 0.99874  0.14685  0.48805  Biso   1.000  O
  O10      1.0000 0.99601  0.10338  0.73734  Biso   1.000  O
  O11      1.0000 0.99957  0.35412  0.74978  Biso   1.000  O
  O12      1.0000 0.00035  0.39733  0.50116  Biso   1.000  O
  O13      1.0000 0.25197  0.14684  0.76265  Biso   1.000  O
  O14      1.0000 0.25471  0.10338  0.51336  Biso   1.000  O
  O15      1.0000 0.25114  0.35412  0.50094  Biso   1.000  O
  O16      1.0000 0.25036  0.39733  0.74955  Biso   1.000  O
  Zr8      1.0000 0.12536  0.50529  0.12536  Biso   1.000  Zr
  Zr9      1.0000 0.13168  0.75020  0.37916  Biso   1.000  Zr
  Zr10     1.0000 0.37916  0.75020  0.13168  Biso   1.000  Zr
  Zr11     1.0000 0.37607  0.49764  0.37607  Biso   1.000  Zr
  O17      1.0000 0.00220  0.64431  0.00220  Biso   1.000  O
  O18      1.0000 0.99872  0.60636  0.25200  Biso   1.000  O
  O19      1.0000 0.01262  0.85263  0.23810  Biso   1.000  O
  O20      1.0000 0.98626  0.89050  0.98626  Biso   1.000  O
  O21      1.0000 0.24852  0.64431  0.24852  Biso   1.000  O
  O22      1.0000 0.25200  0.60636  0.99872  Biso   1.000  O
  O23      1.0000 0.23810  0.85263  0.01262  Biso   1.000  O
  O24      1.0000 0.26446  0.89050  0.26446  Biso   1.000  O
  Zr12     1.0000 0.12536  0.50052  0.62536  Biso   1.000  Zr
  Zr13     1.0000 0.11904  0.75020  0.87156  Biso   1.000  Zr
  Zr14     1.0000 0.37808  0.74944  0.62832  Biso   1.000  Zr
  Zr15     1.0000 0.37491  0.49877  0.87580  Biso   1.000  Zr
  O25      1.0000 0.00164  0.64609  0.50220  Biso   1.000  O
  O26      1.0000 0.00055  0.60449  0.75279  Biso   1.000  O
  O27      1.0000 0.99866  0.85266  0.74167  Biso   1.000  O
  O28      1.0000 0.00621  0.89670  0.49088  Biso   1.000  O
  O29      1.0000 0.24908  0.64609  0.74853  Biso   1.000  O
  O30      1.0000 0.25017  0.60449  0.49793  Biso   1.000  O
  O31      1.0000 0.25206  0.85265  0.50906  Biso   1.000  O
  O32      1.0000 0.24451  0.89669  0.75984  Biso   1.000  O
  Zr16     1.0000 0.62537  0.99494  0.12536  Biso   1.000  Zr
  Zr17     1.0000 0.62859  0.24983  0.37346  Biso   1.000  Zr
  Zr18     1.0000 0.87817  0.25176  0.12119  Biso   1.000  Zr
  Zr19     1.0000 0.88061  0.00319  0.37012  Biso   1.000  Zr
  O33      1.0000 0.48805  0.14685  0.99873  Biso   1.000  O
  O34      1.0000 0.51336  0.10339  0.25470  Biso   1.000  O
  O35      1.0000 0.50094  0.35412  0.25114  Biso   1.000  O
  O36      1.0000 0.50116  0.39733  0.00035  Biso   1.000  O
  O37      1.0000 0.76265  0.14684  0.25196  Biso   1.000  O
  O38      1.0000 0.73734  0.10338  0.99600  Biso   1.000  O
  O39      1.0000 0.74978  0.35412  0.99957  Biso   1.000  O
  O40      1.0000 0.74955  0.39733  0.25036  Biso   1.000  O
  Zr20     1.0000 0.62536  0.00360  0.62535  Biso   1.000  Zr
  Zr21     1.0000 0.62213  0.24983  0.87725  Biso   1.000  Zr
  Zr22     1.0000 0.87725  0.24983  0.62213  Biso   1.000  Zr
  Zr23     1.0000 0.87007  0.00497  0.87006  Biso   1.000  Zr
  O41      1.0000 0.50376  0.14854  0.50376  Biso   1.000  O
  O42      1.0000 0.49820  0.10315  0.75251  Biso   1.000  O
  O43      1.0000 0.49998  0.35384  0.75074  Biso   1.000  O
  O44      1.0000 0.50066  0.39628  0.50066  Biso   1.000  O
  O45      1.0000 0.74695  0.14854  0.74695  Biso   1.000  O
  O46      1.0000 0.75251  0.10315  0.49819  Biso   1.000  O
  O47      1.0000 0.75074  0.35384  0.49998  Biso   1.000  O
  O48      1.0000 0.75005  0.39629  0.75006  Biso   1.000  O
  Zr24     1.0000 0.62536  0.50052  0.12536  Biso   1.000  Zr
  Zr25     1.0000 0.62832  0.74944  0.37808  Biso   1.000  Zr
  Zr26     1.0000 0.87156  0.75020  0.11904  Biso   1.000  Zr
  Zr27     1.0000 0.87580  0.49877  0.37491  Biso   1.000  Zr
  O49      1.0000 0.50220  0.64609  0.00164  Biso   1.000  O
  O50      1.0000 0.49794  0.60450  0.25017  Biso   1.000  O
  O51      1.0000 0.50906  0.85266  0.25206  Biso   1.000  O
  O52      1.0000 0.49088  0.89670  0.00621  Biso   1.000  O
  O53      1.0000 0.74853  0.64609  0.24908  Biso   1.000  O
  O54      1.0000 0.75279  0.60449  0.00055  Biso   1.000  O
  O55      1.0000 0.74167  0.85265  0.99866  Biso   1.000  O
  O56      1.0000 0.75984  0.89669  0.24451  Biso   1.000  O
  Zr28     1.0000 0.62535  0.49745  0.62536  Biso   1.000  Zr
  Zr29     1.0000 0.62240  0.74944  0.87264  Biso   1.000  Zr
  Zr30     1.0000 0.87264  0.74944  0.62240  Biso   1.000  Zr
  Zr31     1.0000 0.87464  0.49765  0.87464  Biso   1.000  Zr
  O57      1.0000 0.50089  0.64537  0.50089  Biso   1.000  O
  O58      1.0000 0.50024  0.60412  0.75049  Biso   1.000  O
  O59      1.0000 0.49446  0.85523  0.75626  Biso   1.000  O
  O60      1.0000 0.50416  0.89539  0.50416  Biso   1.000  O
  O61      1.0000 0.74983  0.64537  0.74983  Biso   1.000  O
  O62      1.0000 0.75048  0.60412  0.50024  Biso   1.000  O
  O63      1.0000 0.75626  0.85523  0.49447  Biso   1.000  O
  O64      1.0000 0.74656  0.89539  0.74656  Biso   1.000  O
