data_image0
_cell_length_a       5.077
_cell_length_b       10.4341
_cell_length_c       10.2033
_cell_angle_alpha    89.3319
_cell_angle_beta     91.2094
_cell_angle_gamma    91.194

_symmetry_space_group_name_H-M    "P 1"
_symmetry_int_tables_number       1

loop_
  _symmetry_equiv_pos_as_xyz
  'x, y, z'

loop_
  _atom_site_label
  _atom_site_occupancy
  _atom_site_fract_x
  _atom_site_fract_y
  _atom_site_fract_z
  _atom_site_thermal_displace_type
  _atom_site_B_iso_or_equiv
  _atom_site_type_symbol
  Zr1      1.0000 0.27323  0.98874  0.10163  Biso   1.000  Zr
  Zr2      1.0000 0.24215  0.23034  0.39958  Biso   1.000  Zr
  Zr3      1.0000 0.62427  0.25760  0.14667  Biso   1.000  Zr
  Zr4      1.0000 0.73452  0.48766  0.37682  Biso   1.000  Zr
  O1       1.0000 0.90691  0.17888  0.26971  Biso   1.000  O
  O2       1.0000 0.06761  0.06214  0.46494  Biso   1.000  O
  O3       1.0000 0.90022  0.43116  0.19145  Biso   1.000  O
  O4       1.0000 0.94784  0.33446  0.46452  Biso   1.000  O
  O5       1.0000 0.43214  0.10538  0.25448  Biso   1.000  O
  O6       1.0000 0.55238  0.13981  0.49993  Biso   1.000  O
  O7       1.0000 0.47684  0.38695  0.50310  Biso   1.000  O
  O8       1.0000 0.40993  0.37146  0.26367  Biso   1.000  O
  Zr5      1.0000 0.29342  0.01231  0.62627  Biso   1.000  Zr
  Zr6      1.0000 0.29977  0.23135  0.86099  Biso   1.000  Zr
  Zr7      1.0000 0.75384  0.27248  0.63130  Biso   1.000  Zr
  Zr8      1.0000 0.74246  0.48395  0.87424  Biso   1.000  Zr
  O9       1.0000 0.10433  0.18619  0.68175  Biso   1.000  O
  O10      1.0000 0.10726  0.05872  0.92475  Biso   1.000  O
  O11      1.0000 0.93837  0.44426  0.69403  Biso   1.000  O
  O12      1.0000 0.94445  0.31325  0.90499  Biso   1.000  O
  O13      1.0000 0.56838  0.11700  0.74870  Biso   1.000  O
  O14      1.0000 0.58004  0.11991  0.00122  Biso   1.000  O
  O15      1.0000 0.47568  0.38503  0.99986  Biso   1.000  O
  O16      1.0000 0.47464  0.37149  0.74644  Biso   1.000  O
  Zr9      1.0000 0.25621  0.52076  0.12777  Biso   1.000  Zr
  Zr10     1.0000 0.27495  0.74117  0.37577  Biso   1.000  Zr
  Zr11     1.0000 0.74186  0.76095  0.12575  Biso   1.000  Zr
  Zr12     1.0000 0.74497  0.99947  0.36210  Biso   1.000  Zr
  O17      1.0000 0.07517  0.68226  0.19823  Biso   1.000  O
  O18      1.0000 0.06989  0.57530  0.44454  Biso   1.000  O
  O19      1.0000 0.93571  0.93842  0.19042  Biso   1.000  O
  O20      1.0000 0.93912  0.82292  0.43881  Biso   1.000  O
  O21      1.0000 0.53900  0.61656  0.24853  Biso   1.000  O
  O22      1.0000 0.54252  0.63756  0.49611  Biso   1.000  O
  O23      1.0000 0.47786  0.89002  0.49301  Biso   1.000  O
  O24      1.0000 0.47786  0.86155  0.24081  Biso   1.000  O
  Zr13     1.0000 0.27501  0.51671  0.62102  Biso   1.000  Zr
  Zr14     1.0000 0.28310  0.73131  0.86931  Biso   1.000  Zr
  Zr15     1.0000 0.75224  0.76885  0.61747  Biso   1.000  Zr
  Zr16     1.0000 0.75793  0.98016  0.87056  Biso   1.000  Zr
  O25      1.0000 0.08300  0.68578  0.69305  Biso   1.000  O
  O26      1.0000 0.07377  0.56972  0.94913  Biso   1.000  O
  O27      1.0000 0.95806  0.92916  0.69908  Biso   1.000  O
  O28      1.0000 0.97799  0.82157  0.95997  Biso   1.000  O
  O29      1.0000 0.54872  0.61721  0.74714  Biso   1.000  O
  O30      1.0000 0.54409  0.63156  0.99890  Biso   1.000  O
  O31      1.0000 0.49738  0.87265  0.98992  Biso   1.000  O
  O32      1.0000 0.48994  0.86451  0.74437  Biso   1.000  O
  Ag1      1.0000 0.10088  0.24242  0.09491  Biso   1.000  Ag
