data_image0
_cell_length_a       10.0856
_cell_length_b       5.16291
_cell_length_c       10.4734
_cell_angle_alpha    89.7271
_cell_angle_beta     90.8301
_cell_angle_gamma    89.7049

_symmetry_space_group_name_H-M    "P 1"
_symmetry_int_tables_number       1

loop_
  _symmetry_equiv_pos_as_xyz
  'x, y, z'

loop_
  _atom_site_label
  _atom_site_occupancy
  _atom_site_fract_x
  _atom_site_fract_y
  _atom_site_fract_z
  _atom_site_thermal_displace_type
  _atom_site_B_iso_or_equiv
  _atom_site_type_symbol
  Ag1      1.0000 0.12556  0.03282  0.18855  Biso   1.000  Ag
  Zr1      1.0000 0.13595  0.46423  0.41953  Biso   1.000  Zr
  Zr2      1.0000 0.35847  0.54461  0.16170  Biso   1.000  Zr
  Zr3      1.0000 0.35955  0.96099  0.41768  Biso   1.000  Zr
  Zr4      1.0000 0.64059  0.04119  0.07825  Biso   1.000  Zr
  Zr5      1.0000 0.63453  0.45774  0.32817  Biso   1.000  Zr
  Zr6      1.0000 0.86572  0.53184  0.08154  Biso   1.000  Zr
  Zr7      1.0000 0.85335  0.95829  0.33538  Biso   1.000  Zr
  O1       1.0000 0.04485  0.33530  0.09292  Biso   1.000  O
  O2       1.0000 0.02677  0.15985  0.35845  Biso   1.000  O
  O3       1.0000 0.47041  0.83619  0.08442  Biso   1.000  O
  O4       1.0000 0.45775  0.65453  0.33650  Biso   1.000  O
  O5       1.0000 0.27026  0.24796  0.28665  Biso   1.000  O
  O6       1.0000 0.29542  0.27806  0.02837  Biso   1.000  O
  O7       1.0000 0.21843  0.74949  0.28936  Biso   1.000  O
  O8       1.0000 0.22787  0.75923  0.03850  Biso   1.000  O
  O9       1.0000 0.53609  0.34008  0.16116  Biso   1.000  O
  O10      1.0000 0.53265  0.15789  0.41062  Biso   1.000  O
  O11      1.0000 0.95603  0.84974  0.16461  Biso   1.000  O
  O12      1.0000 0.96054  0.66046  0.41470  Biso   1.000  O
  O13      1.0000 0.77158  0.24896  0.45853  Biso   1.000  O
  O14      1.0000 0.77583  0.25084  0.20860  Biso   1.000  O
  O15      1.0000 0.71933  0.74809  0.45742  Biso   1.000  O
  O16      1.0000 0.72648  0.74761  0.20691  Biso   1.000  O
  Zr8      1.0000 0.13850  0.04060  0.66822  Biso   1.000  Zr
  Zr9      1.0000 0.14645  0.45489  0.91990  Biso   1.000  Zr
  Zr10     1.0000 0.36135  0.54235  0.66874  Biso   1.000  Zr
  Zr11     1.0000 0.36190  0.96127  0.91944  Biso   1.000  Zr
  Zr12     1.0000 0.63669  0.04144  0.58193  Biso   1.000  Zr
  Zr13     1.0000 0.64029  0.45925  0.83034  Biso   1.000  Zr
  Zr14     1.0000 0.85886  0.54038  0.58196  Biso   1.000  Zr
  Zr15     1.0000 0.86588  0.95541  0.83274  Biso   1.000  Zr
  O17      1.0000 0.03477  0.34367  0.58862  Biso   1.000  O
  O18      1.0000 0.03777  0.15948  0.83653  Biso   1.000  O
  O19      1.0000 0.46352  0.84123  0.58499  Biso   1.000  O
  O20      1.0000 0.46791  0.66354  0.83341  Biso   1.000  O
  O21      1.0000 0.27676  0.24456  0.78651  Biso   1.000  O
  O22      1.0000 0.27519  0.25408  0.53861  Biso   1.000  O
  O23      1.0000 0.22538  0.74515  0.79106  Biso   1.000  O
  O24      1.0000 0.22262  0.75352  0.54085  Biso   1.000  O
  O25      1.0000 0.53555  0.34114  0.66117  Biso   1.000  O
  O26      1.0000 0.54016  0.15780  0.91012  Biso   1.000  O
  O27      1.0000 0.96552  0.83517  0.66541  Biso   1.000  O
  O28      1.0000 0.96933  0.65532  0.91978  Biso   1.000  O
  O29      1.0000 0.78069  0.24647  0.95815  Biso   1.000  O
  O30      1.0000 0.77719  0.25029  0.70815  Biso   1.000  O
  O31      1.0000 0.72825  0.74500  0.95753  Biso   1.000  O
  O32      1.0000 0.72544  0.75201  0.70729  Biso   1.000  O
