data_image0
_cell_length_a       10.083
_cell_length_b       10.2194
_cell_length_c       5.04171
_cell_angle_alpha    90.0001
_cell_angle_beta     88.4539
_cell_angle_gamma    90.0002

_symmetry_space_group_name_H-M    "P 1"
_symmetry_int_tables_number       1

loop_
  _symmetry_equiv_pos_as_xyz
  'x, y, z'

loop_
  _atom_site_label
  _atom_site_occupancy
  _atom_site_fract_x
  _atom_site_fract_y
  _atom_site_fract_z
  _atom_site_thermal_displace_type
  _atom_site_B_iso_or_equiv
  _atom_site_type_symbol
  Ag1      1.0000 0.12541  0.97815  0.25083  Biso   1.000  Ag
  Zr1      1.0000 0.12540  0.25435  0.75082  Biso   1.000  Zr
  Zr2      1.0000 0.37095  0.25164  0.26457  Biso   1.000  Zr
  Zr3      1.0000 0.37397  0.00596  0.77225  Biso   1.000  Zr
  O1       1.0000 0.97890  0.15451  0.94126  Biso   1.000  O
  O2       1.0000 0.01261  0.10480  0.45798  Biso   1.000  O
  O3       1.0000 0.99863  0.35482  0.49548  Biso   1.000  O
  O4       1.0000 0.00318  0.39920  0.99783  Biso   1.000  O
  O5       1.0000 0.27192  0.15451  0.56040  Biso   1.000  O
  O6       1.0000 0.23820  0.10481  0.04368  Biso   1.000  O
  O7       1.0000 0.25218  0.35482  0.00618  Biso   1.000  O
  O8       1.0000 0.24763  0.39921  0.50381  Biso   1.000  O
  Zr4      1.0000 0.12540  0.50513  0.25082  Biso   1.000  Zr
  Zr5      1.0000 0.12540  0.74686  0.75082  Biso   1.000  Zr
  Zr6      1.0000 0.38171  0.75175  0.26686  Biso   1.000  Zr
  Zr7      1.0000 0.37652  0.49662  0.75326  Biso   1.000  Zr
  O9       1.0000 0.00262  0.64380  0.01738  Biso   1.000  O
  O10      1.0000 0.00201  0.60758  0.51847  Biso   1.000  O
  O11      1.0000 0.00836  0.85406  0.46667  Biso   1.000  O
  O12      1.0000 0.99278  0.88903  0.95660  Biso   1.000  O
  O13      1.0000 0.24819  0.64380  0.48425  Biso   1.000  O
  O14      1.0000 0.24879  0.60757  0.98316  Biso   1.000  O
  O15      1.0000 0.24244  0.85406  0.03497  Biso   1.000  O
  O16      1.0000 0.25803  0.88903  0.54505  Biso   1.000  O
  Zr8      1.0000 0.62541  0.99960  0.25083  Biso   1.000  Zr
  Zr9      1.0000 0.62541  0.24802  0.75082  Biso   1.000  Zr
  Zr10     1.0000 0.87986  0.25163  0.23708  Biso   1.000  Zr
  Zr11     1.0000 0.87684  0.00596  0.72940  Biso   1.000  Zr
  O17      1.0000 0.49329  0.14712  0.01280  Biso   1.000  O
  O18      1.0000 0.51106  0.10219  0.52021  Biso   1.000  O
  O19      1.0000 0.49991  0.35394  0.50023  Biso   1.000  O
  O20      1.0000 0.50294  0.39619  0.99747  Biso   1.000  O
  O21      1.0000 0.75753  0.14712  0.48886  Biso   1.000  O
  O22      1.0000 0.73976  0.10220  0.98144  Biso   1.000  O
  O23      1.0000 0.75090  0.35394  0.00142  Biso   1.000  O
  O24      1.0000 0.74786  0.39619  0.50419  Biso   1.000  O
  Zr12     1.0000 0.62541  0.49787  0.25083  Biso   1.000  Zr
  Zr13     1.0000 0.62540  0.74870  0.75082  Biso   1.000  Zr
  Zr14     1.0000 0.86910  0.75174  0.23479  Biso   1.000  Zr
  Zr15     1.0000 0.87430  0.49663  0.74840  Biso   1.000  Zr
  O25      1.0000 0.50108  0.64443  0.00569  Biso   1.000  O
  O26      1.0000 0.49965  0.60525  0.50364  Biso   1.000  O
  O27      1.0000 0.50449  0.85436  0.50872  Biso   1.000  O
  O28      1.0000 0.49648  0.89525  0.01293  Biso   1.000  O
  O29      1.0000 0.74972  0.64443  0.49595  Biso   1.000  O
  O30      1.0000 0.75116  0.60525  0.99801  Biso   1.000  O
  O31      1.0000 0.74632  0.85436  0.99293  Biso   1.000  O
  O32      1.0000 0.75433  0.89525  0.48871  Biso   1.000  O
