data_image0
_cell_length_a       10.0063
_cell_length_b       5.21991
_cell_length_c       10.08
_cell_angle_alpha    90.1899
_cell_angle_beta     89.0277
_cell_angle_gamma    89.9658

_symmetry_space_group_name_H-M    "P 1"
_symmetry_int_tables_number       1

loop_
  _symmetry_equiv_pos_as_xyz
  'x, y, z'

loop_
  _atom_site_label
  _atom_site_occupancy
  _atom_site_fract_x
  _atom_site_fract_y
  _atom_site_fract_z
  _atom_site_thermal_displace_type
  _atom_site_B_iso_or_equiv
  _atom_site_type_symbol
  Ag1      1.0000 0.12224  0.05122  0.10634  Biso   1.000  Ag
  Zr1      1.0000 0.14032  0.46310  0.37871  Biso   1.000  Zr
  Zr2      1.0000 0.36552  0.53122  0.13420  Biso   1.000  Zr
  Zr3      1.0000 0.36309  0.96648  0.37808  Biso   1.000  Zr
  O1       1.0000 0.03947  0.36369  0.18981  Biso   1.000  O
  O2       1.0000 0.03832  0.12858  0.44829  Biso   1.000  O
  O3       1.0000 0.47013  0.86277  0.19861  Biso   1.000  O
  O4       1.0000 0.46814  0.63589  0.45136  Biso   1.000  O
  O5       1.0000 0.28011  0.24200  0.25696  Biso   1.000  O
  O6       1.0000 0.27155  0.26274  0.50602  Biso   1.000  O
  O7       1.0000 0.22903  0.76301  0.50743  Biso   1.000  O
  O8       1.0000 0.24074  0.72093  0.26201  Biso   1.000  O
  Zr4      1.0000 0.13363  0.03693  0.63253  Biso   1.000  Zr
  Zr5      1.0000 0.13203  0.47714  0.87664  Biso   1.000  Zr
  Zr6      1.0000 0.36633  0.53497  0.62986  Biso   1.000  Zr
  Zr7      1.0000 0.36401  0.96975  0.88082  Biso   1.000  Zr
  O9       1.0000 0.03847  0.38217  0.69020  Biso   1.000  O
  O10      1.0000 0.03565  0.12868  0.90781  Biso   1.000  O
  O11      1.0000 0.46309  0.87037  0.69889  Biso   1.000  O
  O12      1.0000 0.45357  0.62287  0.94218  Biso   1.000  O
  O13      1.0000 0.27230  0.24287  0.75532  Biso   1.000  O
  O14      1.0000 0.26226  0.26376  0.00564  Biso   1.000  O
  O15      1.0000 0.22551  0.76811  0.01031  Biso   1.000  O
  O16      1.0000 0.22840  0.74245  0.75574  Biso   1.000  O
  Zr8      1.0000 0.63625  0.03161  0.12890  Biso   1.000  Zr
  Zr9      1.0000 0.63504  0.47032  0.37529  Biso   1.000  Zr
  Zr10     1.0000 0.86599  0.52936  0.12168  Biso   1.000  Zr
  Zr11     1.0000 0.87283  0.97139  0.37485  Biso   1.000  Zr
  O17      1.0000 0.54135  0.37169  0.19385  Biso   1.000  O
  O18      1.0000 0.53667  0.13408  0.44310  Biso   1.000  O
  O19      1.0000 0.96860  0.86307  0.18832  Biso   1.000  O
  O20      1.0000 0.96442  0.62687  0.43752  Biso   1.000  O
  O21      1.0000 0.77385  0.23361  0.24789  Biso   1.000  O
  O22      1.0000 0.76954  0.26691  0.49658  Biso   1.000  O
  O23      1.0000 0.73309  0.76829  0.49708  Biso   1.000  O
  O24      1.0000 0.73774  0.73596  0.24799  Biso   1.000  O
  Zr12     1.0000 0.63108  0.03085  0.62190  Biso   1.000  Zr
  Zr13     1.0000 0.63037  0.46344  0.87579  Biso   1.000  Zr
  Zr14     1.0000 0.86540  0.53017  0.62048  Biso   1.000  Zr
  Zr15     1.0000 0.85813  0.96167  0.86894  Biso   1.000  Zr
  O25      1.0000 0.53518  0.36746  0.69562  Biso   1.000  O
  O26      1.0000 0.53372  0.12876  0.94820  Biso   1.000  O
  O27      1.0000 0.95884  0.86970  0.68571  Biso   1.000  O
  O28      1.0000 0.95954  0.63263  0.94030  Biso   1.000  O
  O29      1.0000 0.76656  0.23258  0.74613  Biso   1.000  O
  O30      1.0000 0.77121  0.25935  0.99642  Biso   1.000  O
  O31      1.0000 0.72392  0.75646  0.99871  Biso   1.000  O
  O32      1.0000 0.72703  0.73024  0.74734  Biso   1.000  O
