data_image0
_cell_length_a       5.14941
_cell_length_b       10.3746
_cell_length_c       10.6206
_cell_angle_alpha    90.2141
_cell_angle_beta     79.0566
_cell_angle_gamma    90.0966

_symmetry_space_group_name_H-M    "P 1"
_symmetry_int_tables_number       1

loop_
  _symmetry_equiv_pos_as_xyz
  'x, y, z'

loop_
  _atom_site_label
  _atom_site_occupancy
  _atom_site_fract_x
  _atom_site_fract_y
  _atom_site_fract_z
  _atom_site_thermal_displace_type
  _atom_site_B_iso_or_equiv
  _atom_site_type_symbol
  Zr1      1.0000 0.26974  0.01836  0.14622  Biso   1.000  Zr
  Zr2      1.0000 0.31288  0.23310  0.40448  Biso   1.000  Zr
  Zr3      1.0000 0.69471  0.27556  0.09509  Biso   1.000  Zr
  Zr4      1.0000 0.71913  0.48109  0.35129  Biso   1.000  Zr
  O1       1.0000 0.05352  0.16627  0.07798  Biso   1.000  O
  O2       1.0000 0.08957  0.06081  0.34397  Biso   1.000  O
  O3       1.0000 0.91984  0.42452  0.16604  Biso   1.000  O
  O4       1.0000 0.97086  0.35544  0.44085  Biso   1.000  O
  O5       1.0000 0.52880  0.12691  0.23509  Biso   1.000  O
  O6       1.0000 0.56610  0.11680  0.49563  Biso   1.000  O
  O7       1.0000 0.43172  0.38267  0.00549  Biso   1.000  O
  O8       1.0000 0.42353  0.37668  0.25578  Biso   1.000  O
  Zr5      1.0000 0.27592  0.02087  0.64722  Biso   1.000  Zr
  Zr6      1.0000 0.26616  0.22899  0.89474  Biso   1.000  Zr
  Zr7      1.0000 0.73373  0.27369  0.61125  Biso   1.000  Zr
  Zr8      1.0000 0.71546  0.48167  0.85555  Biso   1.000  Zr
  O9       1.0000 0.08008  0.16907  0.58129  Biso   1.000  O
  O10      1.0000 0.05945  0.08467  0.82769  Biso   1.000  O
  O11      1.0000 0.93713  0.41527  0.68048  Biso   1.000  O
  O12      1.0000 0.92165  0.33511  0.92086  Biso   1.000  O
  O13      1.0000 0.54629  0.12895  0.74220  Biso   1.000  O
  O14      1.0000 0.53649  0.12357  0.98794  Biso   1.000  O
  O15      1.0000 0.46913  0.37689  0.51391  Biso   1.000  O
  O16      1.0000 0.44962  0.37235  0.76070  Biso   1.000  O
  Zr9      1.0000 0.27025  0.52455  0.14619  Biso   1.000  Zr
  Zr10     1.0000 0.27357  0.72528  0.39731  Biso   1.000  Zr
  Zr11     1.0000 0.71533  0.77190  0.10508  Biso   1.000  Zr
  Zr12     1.0000 0.71948  0.96807  0.35905  Biso   1.000  Zr
  O17      1.0000 0.06072  0.67084  0.07786  Biso   1.000  O
  O18      1.0000 0.05971  0.58811  0.32551  Biso   1.000  O
  O19      1.0000 0.92292  0.91744  0.17525  Biso   1.000  O
  O20      1.0000 0.92251  0.82595  0.42427  Biso   1.000  O
  O21      1.0000 0.54704  0.62910  0.24201  Biso   1.000  O
  O22      1.0000 0.54333  0.62052  0.49201  Biso   1.000  O
  O23      1.0000 0.44516  0.87995  0.01141  Biso   1.000  O
  O24      1.0000 0.44465  0.86805  0.26110  Biso   1.000  O
  Zr13     1.0000 0.27656  0.52221  0.64736  Biso   1.000  Zr
  Zr14     1.0000 0.26881  0.72986  0.89758  Biso   1.000  Zr
  Zr15     1.0000 0.71929  0.76988  0.60678  Biso   1.000  Zr
  Zr16     1.0000 0.71654  0.97890  0.85454  Biso   1.000  Zr
  O25      1.0000 0.06022  0.66288  0.57951  Biso   1.000  O
  O26      1.0000 0.06212  0.58687  0.82871  Biso   1.000  O
  O27      1.0000 0.92885  0.91583  0.67242  Biso   1.000  O
  O28      1.0000 0.92832  0.83737  0.92368  Biso   1.000  O
  O29      1.0000 0.54603  0.62795  0.74168  Biso   1.000  O
  O30      1.0000 0.54454  0.62500  0.99147  Biso   1.000  O
  O31      1.0000 0.44388  0.87547  0.51271  Biso   1.000  O
  O32      1.0000 0.44560  0.87194  0.76191  Biso   1.000  O
  Ag1      1.0000 0.88567  0.22683  0.29782  Biso   1.000  Ag
