data_image0
_cell_length_a       10.0353
_cell_length_b       10.2713
_cell_length_c       10.483
_cell_angle_alpha    89.8116
_cell_angle_beta     90.7244
_cell_angle_gamma    90.1865

_symmetry_space_group_name_H-M    "P 1"
_symmetry_int_tables_number       1

loop_
  _symmetry_equiv_pos_as_xyz
  'x, y, z'

loop_
  _atom_site_label
  _atom_site_occupancy
  _atom_site_fract_x
  _atom_site_fract_y
  _atom_site_fract_z
  _atom_site_thermal_displace_type
  _atom_site_B_iso_or_equiv
  _atom_site_type_symbol
  Hf1      1.0000 0.13820  0.01878  0.17286  Biso   1.000  Hf
  Hf2      1.0000 0.13500  0.22751  0.42695  Biso   1.000  Hf
  Hf3      1.0000 0.34158  0.27101  0.18364  Biso   1.000  Hf
  Hf4      1.0000 0.36022  0.47985  0.42530  Biso   1.000  Hf
  Hf5      1.0000 0.64355  0.02565  0.06791  Biso   1.000  Hf
  Hf6      1.0000 0.63598  0.22711  0.33803  Biso   1.000  Hf
  Hf7      1.0000 0.86409  0.26431  0.07397  Biso   1.000  Hf
  Hf8      1.0000 0.85946  0.47665  0.32582  Biso   1.000  Hf
  O1       1.0000 0.03842  0.16756  0.08645  Biso   1.000  O
  O2       1.0000 0.03183  0.08334  0.33504  Biso   1.000  O
  O3       1.0000 0.47187  0.41039  0.08465  Biso   1.000  O
  O4       1.0000 0.46157  0.33395  0.33735  Biso   1.000  O
  O5       1.0000 0.27237  0.12393  0.29945  Biso   1.000  O
  O6       1.0000 0.27771  0.12597  0.04712  Biso   1.000  O
  O7       1.0000 0.21485  0.37482  0.30133  Biso   1.000  O
  O8       1.0000 0.22333  0.37838  0.04897  Biso   1.000  O
  O9       1.0000 0.52067  0.16950  0.17184  Biso   1.000  O
  O10      1.0000 0.53121  0.08322  0.41827  Biso   1.000  O
  O11      1.0000 0.95919  0.41650  0.16518  Biso   1.000  O
  O12      1.0000 0.96486  0.33379  0.41829  Biso   1.000  O
  O13      1.0000 0.77571  0.12316  0.45646  Biso   1.000  O
  O14      1.0000 0.77203  0.12729  0.20779  Biso   1.000  O
  O15      1.0000 0.72086  0.37347  0.45320  Biso   1.000  O
  O16      1.0000 0.70610  0.37167  0.19297  Biso   1.000  O
  Hf9      1.0000 0.14209  0.01983  0.67254  Biso   1.000  Hf
  Hf10     1.0000 0.14089  0.22728  0.92144  Biso   1.000  Hf
  Hf11     1.0000 0.36532  0.26959  0.67525  Biso   1.000  Hf
  Hf12     1.0000 0.36021  0.47968  0.92164  Biso   1.000  Hf
  Hf13     1.0000 0.63992  0.01950  0.58031  Biso   1.000  Hf
  Hf14     1.0000 0.64702  0.22260  0.82793  Biso   1.000  Hf
  Hf15     1.0000 0.86161  0.27077  0.57992  Biso   1.000  Hf
  Hf16     1.0000 0.86373  0.47958  0.82728  Biso   1.000  Hf
  O17      1.0000 0.03350  0.16553  0.58717  Biso   1.000  O
  O18      1.0000 0.04032  0.08115  0.83371  Biso   1.000  O
  O19      1.0000 0.46775  0.41666  0.58762  Biso   1.000  O
  O20      1.0000 0.47156  0.33013  0.84311  Biso   1.000  O
  O21      1.0000 0.28059  0.12343  0.79700  Biso   1.000  O
  O22      1.0000 0.27753  0.12508  0.54823  Biso   1.000  O
  O23      1.0000 0.22726  0.37301  0.79798  Biso   1.000  O
  O24      1.0000 0.22485  0.37459  0.54959  Biso   1.000  O
  O25      1.0000 0.53620  0.16622  0.66488  Biso   1.000  O
  O26      1.0000 0.53857  0.06858  0.90196  Biso   1.000  O
  O27      1.0000 0.96830  0.41531  0.66664  Biso   1.000  O
  O28      1.0000 0.96851  0.33243  0.91490  Biso   1.000  O
  O29      1.0000 0.79955  0.11430  0.94591  Biso   1.000  O
  O30      1.0000 0.78085  0.12267  0.70166  Biso   1.000  O
  O31      1.0000 0.72378  0.38558  0.95345  Biso   1.000  O
  O32      1.0000 0.72562  0.37448  0.70397  Biso   1.000  O
  Hf17     1.0000 0.13498  0.52291  0.17264  Biso   1.000  Hf
  Hf18     1.0000 0.13709  0.72750  0.42188  Biso   1.000  Hf
  Hf19     1.0000 0.36072  0.77387  0.17405  Biso   1.000  Hf
  Hf20     1.0000 0.35969  0.97689  0.42532  Biso   1.000  Hf
  Hf21     1.0000 0.64633  0.54430  0.07477  Biso   1.000  Hf
  Hf22     1.0000 0.63894  0.73131  0.32978  Biso   1.000  Hf
  Hf23     1.0000 0.86213  0.77517  0.07819  Biso   1.000  Hf
  Hf24     1.0000 0.85920  0.97941  0.32819  Biso   1.000  Hf
  O33      1.0000 0.03342  0.66686  0.08480  Biso   1.000  O
  O34      1.0000 0.03048  0.58125  0.33559  Biso   1.000  O
  O35      1.0000 0.46819  0.91892  0.08586  Biso   1.000  O
  O36      1.0000 0.46621  0.83461  0.33721  Biso   1.000  O
  O37      1.0000 0.27327  0.62418  0.29700  Biso   1.000  O
  O38      1.0000 0.27841  0.62442  0.04647  Biso   1.000  O
  O39      1.0000 0.22280  0.87407  0.29751  Biso   1.000  O
  O40      1.0000 0.22323  0.87523  0.04734  Biso   1.000  O
  O41      1.0000 0.52994  0.66741  0.16987  Biso   1.000  O
  O42      1.0000 0.53233  0.58479  0.41692  Biso   1.000  O
  O43      1.0000 0.96561  0.91950  0.16548  Biso   1.000  O
  O44      1.0000 0.96503  0.83162  0.41343  Biso   1.000  O
  O45      1.0000 0.77597  0.62301  0.45377  Biso   1.000  O
  O46      1.0000 0.78085  0.63024  0.20623  Biso   1.000  O
  O47      1.0000 0.72339  0.87460  0.45524  Biso   1.000  O
  O48      1.0000 0.72391  0.87691  0.20438  Biso   1.000  O
  Hf25     1.0000 0.14008  0.51966  0.67199  Biso   1.000  Hf
  Hf26     1.0000 0.14067  0.72784  0.92281  Biso   1.000  Hf
  Hf27     1.0000 0.36199  0.76938  0.67288  Biso   1.000  Hf
  Hf28     1.0000 0.36307  0.97652  0.92258  Biso   1.000  Hf
  Hf29     1.0000 0.63985  0.52146  0.57855  Biso   1.000  Hf
  Hf30     1.0000 0.64032  0.73068  0.82630  Biso   1.000  Hf
  Hf31     1.0000 0.86286  0.76946  0.57683  Biso   1.000  Hf
  Hf32     1.0000 0.86739  0.97457  0.82503  Biso   1.000  Hf
  O49      1.0000 0.03399  0.66414  0.58378  Biso   1.000  O
  O50      1.0000 0.03676  0.58280  0.83460  Biso   1.000  O
  O51      1.0000 0.46713  0.91503  0.58652  Biso   1.000  O
  O52      1.0000 0.46591  0.82917  0.83561  Biso   1.000  O
  O53      1.0000 0.27851  0.62208  0.79569  Biso   1.000  O
  O54      1.0000 0.27593  0.62506  0.54659  Biso   1.000  O
  O55      1.0000 0.22500  0.87199  0.79619  Biso   1.000  O
  O56      1.0000 0.22372  0.87412  0.54622  Biso   1.000  O
  O57      1.0000 0.53402  0.66521  0.66562  Biso   1.000  O
  O58      1.0000 0.53291  0.58702  0.91723  Biso   1.000  O
  O59      1.0000 0.97094  0.91361  0.66242  Biso   1.000  O
  O60      1.0000 0.97096  0.83347  0.91658  Biso   1.000  O
  O61      1.0000 0.78349  0.62922  0.94952  Biso   1.000  O
  O62      1.0000 0.77809  0.62529  0.70320  Biso   1.000  O
  O63      1.0000 0.72650  0.87486  0.95275  Biso   1.000  O
  O64      1.0000 0.72589  0.87378  0.70301  Biso   1.000  O
  Al1      1.0000 0.59454  0.28913  0.06790  Biso   1.000  Al
