data_image0
_cell_length_a       10.0634
_cell_length_b       10.302
_cell_length_c       5.26014
_cell_angle_alpha    89.7157
_cell_angle_beta     91.4948
_cell_angle_gamma    90.3463

_symmetry_space_group_name_H-M    "P 1"
_symmetry_int_tables_number       1

loop_
  _symmetry_equiv_pos_as_xyz
  'x, y, z'

loop_
  _atom_site_label
  _atom_site_occupancy
  _atom_site_fract_x
  _atom_site_fract_y
  _atom_site_fract_z
  _atom_site_thermal_displace_type
  _atom_site_B_iso_or_equiv
  _atom_site_type_symbol
  Hf1      1.0000 0.14134  0.01719  0.34806  Biso   1.000  Hf
  Hf2      1.0000 0.13676  0.22599  0.85452  Biso   1.000  Hf
  Hf3      1.0000 0.34523  0.26932  0.37624  Biso   1.000  Hf
  Hf4      1.0000 0.35931  0.48089  0.85094  Biso   1.000  Hf
  Hf5      1.0000 0.64421  0.02405  0.13942  Biso   1.000  Hf
  Hf6      1.0000 0.64516  0.22083  0.67679  Biso   1.000  Hf
  Hf7      1.0000 0.86459  0.26394  0.14990  Biso   1.000  Hf
  Hf8      1.0000 0.86076  0.47687  0.64901  Biso   1.000  Hf
  O1       1.0000 0.03781  0.16569  0.17683  Biso   1.000  O
  O2       1.0000 0.03836  0.08139  0.66749  Biso   1.000  O
  O3       1.0000 0.47273  0.41081  0.17576  Biso   1.000  O
  O4       1.0000 0.46665  0.33084  0.69223  Biso   1.000  O
  O5       1.0000 0.27604  0.12326  0.60426  Biso   1.000  O
  O6       1.0000 0.27787  0.12439  0.10212  Biso   1.000  O
  O7       1.0000 0.21949  0.37408  0.60866  Biso   1.000  O
  O8       1.0000 0.22505  0.37632  0.10804  Biso   1.000  O
  O9       1.0000 0.52244  0.16883  0.34691  Biso   1.000  O
  O10      1.0000 0.53591  0.06888  0.81139  Biso   1.000  O
  O11      1.0000 0.96120  0.41494  0.33245  Biso   1.000  O
  O12      1.0000 0.96803  0.33303  0.83626  Biso   1.000  O
  O13      1.0000 0.79796  0.11385  0.89348  Biso   1.000  O
  O14      1.0000 0.77718  0.12376  0.40613  Biso   1.000  O
  O15      1.0000 0.72216  0.38537  0.90122  Biso   1.000  O
  O16      1.0000 0.70938  0.37094  0.38423  Biso   1.000  O
  Hf9      1.0000 0.13505  0.52134  0.34648  Biso   1.000  Hf
  Hf10     1.0000 0.13854  0.72628  0.84618  Biso   1.000  Hf
  Hf11     1.0000 0.36160  0.77137  0.35100  Biso   1.000  Hf
  Hf12     1.0000 0.36216  0.97436  0.85354  Biso   1.000  Hf
  Hf13     1.0000 0.64749  0.54497  0.14571  Biso   1.000  Hf
  Hf14     1.0000 0.64085  0.73342  0.65262  Biso   1.000  Hf
  Hf15     1.0000 0.86315  0.77343  0.15213  Biso   1.000  Hf
  Hf16     1.0000 0.86560  0.97541  0.64883  Biso   1.000  Hf
  O17      1.0000 0.03376  0.66466  0.16743  Biso   1.000  O
  O18      1.0000 0.03379  0.58000  0.67121  Biso   1.000  O
  O19      1.0000 0.46932  0.91698  0.17600  Biso   1.000  O
  O20      1.0000 0.46589  0.83017  0.67630  Biso   1.000  O
  O21      1.0000 0.27481  0.62244  0.59486  Biso   1.000  O
  O22      1.0000 0.27701  0.62299  0.09605  Biso   1.000  O
  O23      1.0000 0.22457  0.87207  0.59728  Biso   1.000  O
  O24      1.0000 0.22413  0.87286  0.09722  Biso   1.000  O
  O25      1.0000 0.52992  0.66520  0.33906  Biso   1.000  O
  O26      1.0000 0.53146  0.58844  0.83487  Biso   1.000  O
  O27      1.0000 0.97005  0.91610  0.32531  Biso   1.000  O
  O28      1.0000 0.96998  0.83232  0.82926  Biso   1.000  O
  O29      1.0000 0.78287  0.62899  0.89383  Biso   1.000  O
  O30      1.0000 0.78386  0.62967  0.40750  Biso   1.000  O
  O31      1.0000 0.72667  0.87621  0.90490  Biso   1.000  O
  O32      1.0000 0.72589  0.87528  0.40383  Biso   1.000  O
  Al1      1.0000 0.59481  0.28990  0.14682  Biso   1.000  Al
