data_image0
_cell_length_a       10.1886
_cell_length_b       5.17773
_cell_length_c       10.5023
_cell_angle_alpha    90.1876
_cell_angle_beta     79.1953
_cell_angle_gamma    90.3257

_symmetry_space_group_name_H-M    "P 1"
_symmetry_int_tables_number       1

loop_
  _symmetry_equiv_pos_as_xyz
  'x, y, z'

loop_
  _atom_site_label
  _atom_site_occupancy
  _atom_site_fract_x
  _atom_site_fract_y
  _atom_site_fract_z
  _atom_site_thermal_displace_type
  _atom_site_B_iso_or_equiv
  _atom_site_type_symbol
  Hf1      1.0000 0.13423  0.04911  0.14157  Biso   1.000  Hf
  Hf2      1.0000 0.13142  0.46069  0.39605  Biso   1.000  Hf
  Hf3      1.0000 0.35483  0.54681  0.10047  Biso   1.000  Hf
  Hf4      1.0000 0.34893  0.89323  0.33980  Biso   1.000  Hf
  O1       1.0000 0.03126  0.34906  0.07951  Biso   1.000  O
  O2       1.0000 0.03242  0.17068  0.32634  Biso   1.000  O
  O3       1.0000 0.46214  0.85366  0.15746  Biso   1.000  O
  O4       1.0000 0.47498  0.64681  0.42483  Biso   1.000  O
  O5       1.0000 0.27989  0.23001  0.23955  Biso   1.000  O
  O6       1.0000 0.28873  0.25258  0.48104  Biso   1.000  O
  O7       1.0000 0.22061  0.76697  0.00543  Biso   1.000  O
  O8       1.0000 0.19593  0.74322  0.24965  Biso   1.000  O
  Hf5      1.0000 0.14082  0.04601  0.64438  Biso   1.000  Hf
  Hf6      1.0000 0.13560  0.46262  0.89618  Biso   1.000  Hf
  Hf7      1.0000 0.36360  0.54713  0.61494  Biso   1.000  Hf
  Hf8      1.0000 0.36015  0.96065  0.85602  Biso   1.000  Hf
  O9       1.0000 0.03821  0.34084  0.58086  Biso   1.000  O
  O10      1.0000 0.03626  0.16470  0.82940  Biso   1.000  O
  O11      1.0000 0.46700  0.84250  0.67250  Biso   1.000  O
  O12      1.0000 0.46339  0.66300  0.91809  Biso   1.000  O
  O13      1.0000 0.27672  0.25889  0.73967  Biso   1.000  O
  O14      1.0000 0.27346  0.24920  0.98942  Biso   1.000  O
  O15      1.0000 0.22620  0.75243  0.51327  Biso   1.000  O
  O16      1.0000 0.22329  0.74753  0.76026  Biso   1.000  O
  Hf9      1.0000 0.63829  0.04627  0.14477  Biso   1.000  Hf
  Hf10     1.0000 0.65701  0.46017  0.40568  Biso   1.000  Hf
  Hf11     1.0000 0.85774  0.54806  0.10549  Biso   1.000  Hf
  Hf12     1.0000 0.86202  0.95820  0.35342  Biso   1.000  Hf
  O17      1.0000 0.53376  0.34971  0.08701  Biso   1.000  O
  O18      1.0000 0.52742  0.16623  0.33144  Biso   1.000  O
  O19      1.0000 0.95720  0.85138  0.16672  Biso   1.000  O
  O20      1.0000 0.96198  0.67080  0.42375  Biso   1.000  O
  O21      1.0000 0.77215  0.26159  0.24506  Biso   1.000  O
  O22      1.0000 0.78338  0.23934  0.49598  Biso   1.000  O
  O23      1.0000 0.72234  0.76218  0.01199  Biso   1.000  O
  O24      1.0000 0.71859  0.74772  0.26373  Biso   1.000  O
  Hf13     1.0000 0.64115  0.04689  0.65221  Biso   1.000  Hf
  Hf14     1.0000 0.63698  0.46237  0.90021  Biso   1.000  Hf
  Hf15     1.0000 0.86365  0.54824  0.60995  Biso   1.000  Hf
  Hf16     1.0000 0.86139  0.96177  0.85656  Biso   1.000  Hf
  O25      1.0000 0.54001  0.33912  0.58453  Biso   1.000  O
  O26      1.0000 0.53551  0.16490  0.83466  Biso   1.000  O
  O27      1.0000 0.96709  0.84173  0.67225  Biso   1.000  O
  O28      1.0000 0.96172  0.66468  0.91985  Biso   1.000  O
  O29      1.0000 0.77751  0.26407  0.74491  Biso   1.000  O
  O30      1.0000 0.77429  0.24561  0.99374  Biso   1.000  O
  O31      1.0000 0.72485  0.75837  0.51488  Biso   1.000  O
  O32      1.0000 0.72491  0.74648  0.76326  Biso   1.000  O
  Al1      1.0000 0.40029  0.39572  0.33623  Biso   1.000  Al
