data_image0
_cell_length_a       5.04769
_cell_length_b       10.187
_cell_length_c       10.4416
_cell_angle_alpha    90.0826
_cell_angle_beta     80.6732
_cell_angle_gamma    89.5078

_symmetry_space_group_name_H-M    "P 1"
_symmetry_int_tables_number       1

loop_
  _symmetry_equiv_pos_as_xyz
  'x, y, z'

loop_
  _atom_site_label
  _atom_site_occupancy
  _atom_site_fract_x
  _atom_site_fract_y
  _atom_site_fract_z
  _atom_site_thermal_displace_type
  _atom_site_B_iso_or_equiv
  _atom_site_type_symbol
  Al1      1.0000 0.24758  0.01003  0.16355  Biso   1.000  Al
  Hf1      1.0000 0.27525  0.22571  0.38909  Biso   1.000  Hf
  Hf2      1.0000 0.73281  0.26127  0.10498  Biso   1.000  Hf
  Hf3      1.0000 0.72015  0.47871  0.35377  Biso   1.000  Hf
  O1       1.0000 0.09468  0.15211  0.07986  Biso   1.000  O
  O2       1.0000 0.06174  0.08091  0.32450  Biso   1.000  O
  O3       1.0000 0.93856  0.41289  0.17260  Biso   1.000  O
  O4       1.0000 0.93058  0.33327  0.42106  Biso   1.000  O
  O5       1.0000 0.53353  0.11796  0.22890  Biso   1.000  O
  O6       1.0000 0.55191  0.12261  0.48452  Biso   1.000  O
  O7       1.0000 0.45787  0.38067  0.01164  Biso   1.000  O
  O8       1.0000 0.45562  0.36740  0.25886  Biso   1.000  O
  Hf4      1.0000 0.27537  0.02141  0.64339  Biso   1.000  Hf
  Hf5      1.0000 0.28764  0.22562  0.89772  Biso   1.000  Hf
  Hf6      1.0000 0.72068  0.27211  0.60310  Biso   1.000  Hf
  Hf7      1.0000 0.72501  0.47904  0.85771  Biso   1.000  Hf
  O9       1.0000 0.06742  0.16572  0.57377  Biso   1.000  O
  O10      1.0000 0.07445  0.08412  0.82562  Biso   1.000  O
  O11      1.0000 0.93354  0.41530  0.67464  Biso   1.000  O
  O12      1.0000 0.94739  0.33747  0.92795  Biso   1.000  O
  O13      1.0000 0.55261  0.12793  0.73360  Biso   1.000  O
  O14      1.0000 0.59704  0.13734  0.97251  Biso   1.000  O
  O15      1.0000 0.44473  0.37899  0.50929  Biso   1.000  O
  O16      1.0000 0.45229  0.37139  0.76152  Biso   1.000  O
  Hf8      1.0000 0.27908  0.52124  0.14540  Biso   1.000  Hf
  Hf9      1.0000 0.27509  0.72894  0.39570  Biso   1.000  Hf
  Hf10     1.0000 0.71108  0.77830  0.10552  Biso   1.000  Hf
  Hf11     1.0000 0.71311  0.97846  0.35086  Biso   1.000  Hf
  O17      1.0000 0.06462  0.66842  0.08042  Biso   1.000  O
  O18      1.0000 0.07068  0.58086  0.32947  Biso   1.000  O
  O19      1.0000 0.93615  0.91448  0.17324  Biso   1.000  O
  O20      1.0000 0.92367  0.83149  0.42124  Biso   1.000  O
  O21      1.0000 0.55279  0.62956  0.24059  Biso   1.000  O
  O22      1.0000 0.55229  0.62086  0.49157  Biso   1.000  O
  O23      1.0000 0.43676  0.89745  0.01725  Biso   1.000  O
  O24      1.0000 0.43168  0.87227  0.25915  Biso   1.000  O
  Hf12     1.0000 0.27965  0.52095  0.64759  Biso   1.000  Hf
  Hf13     1.0000 0.27502  0.73373  0.89890  Biso   1.000  Hf
  Hf14     1.0000 0.71896  0.77083  0.60578  Biso   1.000  Hf
  Hf15     1.0000 0.72031  0.98260  0.85502  Biso   1.000  Hf
  O25      1.0000 0.06830  0.66670  0.57958  Biso   1.000  O
  O26      1.0000 0.06999  0.58624  0.83065  Biso   1.000  O
  O27      1.0000 0.92915  0.91699  0.67096  Biso   1.000  O
  O28      1.0000 0.92138  0.83411  0.92305  Biso   1.000  O
  O29      1.0000 0.55283  0.62916  0.74229  Biso   1.000  O
  O30      1.0000 0.55063  0.62607  0.99123  Biso   1.000  O
  O31      1.0000 0.44306  0.87838  0.50929  Biso   1.000  O
  O32      1.0000 0.44529  0.87195  0.76116  Biso   1.000  O
