data_image0
_cell_length_a       10.0204
_cell_length_b       10.1916
_cell_length_c       10.4416
_cell_angle_alpha    89.9564
_cell_angle_beta     90.4308
_cell_angle_gamma    89.7811

_symmetry_space_group_name_H-M    "P 1"
_symmetry_int_tables_number       1

loop_
  _symmetry_equiv_pos_as_xyz
  'x, y, z'

loop_
  _atom_site_label
  _atom_site_occupancy
  _atom_site_fract_x
  _atom_site_fract_y
  _atom_site_fract_z
  _atom_site_thermal_displace_type
  _atom_site_B_iso_or_equiv
  _atom_site_type_symbol
  Al1      1.0000 0.12027  0.01263  0.19212  Biso   1.000  Al
  Hf1      1.0000 0.13765  0.22821  0.41672  Biso   1.000  Hf
  Hf2      1.0000 0.35735  0.26787  0.16980  Biso   1.000  Hf
  Hf3      1.0000 0.35987  0.47899  0.42164  Biso   1.000  Hf
  Hf4      1.0000 0.64004  0.02157  0.07729  Biso   1.000  Hf
  Hf5      1.0000 0.63849  0.22966  0.32757  Biso   1.000  Hf
  Hf6      1.0000 0.87105  0.26458  0.08186  Biso   1.000  Hf
  Hf7      1.0000 0.86037  0.47936  0.32876  Biso   1.000  Hf
  O1       1.0000 0.04716  0.15268  0.08989  Biso   1.000  O
  O2       1.0000 0.03076  0.08164  0.33534  Biso   1.000  O
  O3       1.0000 0.46774  0.41432  0.08400  Biso   1.000  O
  O4       1.0000 0.46656  0.33423  0.33464  Biso   1.000  O
  O5       1.0000 0.26752  0.11895  0.28395  Biso   1.000  O
  O6       1.0000 0.29844  0.14149  0.02890  Biso   1.000  O
  O7       1.0000 0.22321  0.37413  0.29590  Biso   1.000  O
  O8       1.0000 0.22149  0.38089  0.04602  Biso   1.000  O
  O9       1.0000 0.53405  0.16546  0.16570  Biso   1.000  O
  O10      1.0000 0.53052  0.08482  0.41411  Biso   1.000  O
  O11      1.0000 0.96953  0.41361  0.16839  Biso   1.000  O
  O12      1.0000 0.96578  0.33457  0.41671  Biso   1.000  O
  O13      1.0000 0.77444  0.12374  0.45530  Biso   1.000  O
  O14      1.0000 0.77752  0.12510  0.20512  Biso   1.000  O
  O15      1.0000 0.72319  0.37435  0.45573  Biso   1.000  O
  O16      1.0000 0.72649  0.37445  0.20535  Biso   1.000  O
  Hf8      1.0000 0.13826  0.02092  0.66878  Biso   1.000  Hf
  Hf9      1.0000 0.14430  0.22381  0.92407  Biso   1.000  Hf
  Hf10     1.0000 0.36007  0.27131  0.67092  Biso   1.000  Hf
  Hf11     1.0000 0.36073  0.47873  0.92259  Biso   1.000  Hf
  Hf12     1.0000 0.63652  0.02084  0.57781  Biso   1.000  Hf
  Hf13     1.0000 0.64055  0.22968  0.82925  Biso   1.000  Hf
  Hf14     1.0000 0.86077  0.27084  0.57911  Biso   1.000  Hf
  Hf15     1.0000 0.86384  0.47749  0.83200  Biso   1.000  Hf
  O17      1.0000 0.03245  0.16482  0.58148  Biso   1.000  O
  O18      1.0000 0.03339  0.08524  0.83174  Biso   1.000  O
  O19      1.0000 0.46707  0.41584  0.58393  Biso   1.000  O
  O20      1.0000 0.46887  0.33605  0.83278  Biso   1.000  O
  O21      1.0000 0.27587  0.12184  0.78834  Biso   1.000  O
  O22      1.0000 0.27584  0.12775  0.53963  Biso   1.000  O
  O23      1.0000 0.22510  0.37275  0.79632  Biso   1.000  O
  O24      1.0000 0.22248  0.37657  0.54500  Biso   1.000  O
  O25      1.0000 0.53286  0.16651  0.66517  Biso   1.000  O
  O26      1.0000 0.53733  0.08244  0.91289  Biso   1.000  O
  O27      1.0000 0.96829  0.41337  0.66937  Biso   1.000  O
  O28      1.0000 0.97141  0.33212  0.92150  Biso   1.000  O
  O29      1.0000 0.78027  0.12303  0.95575  Biso   1.000  O
  O30      1.0000 0.77628  0.12638  0.70463  Biso   1.000  O
  O31      1.0000 0.72772  0.37178  0.95725  Biso   1.000  O
  O32      1.0000 0.72485  0.37655  0.70626  Biso   1.000  O
  Hf16     1.0000 0.13988  0.52235  0.17177  Biso   1.000  Hf
  Hf17     1.0000 0.13796  0.72996  0.42077  Biso   1.000  Hf
  Hf18     1.0000 0.35570  0.77704  0.17005  Biso   1.000  Hf
  Hf19     1.0000 0.35646  0.98137  0.41687  Biso   1.000  Hf
  Hf20     1.0000 0.63956  0.51988  0.07865  Biso   1.000  Hf
  Hf21     1.0000 0.63595  0.72887  0.32703  Biso   1.000  Hf
  Hf22     1.0000 0.86257  0.77281  0.08000  Biso   1.000  Hf
  Hf23     1.0000 0.85848  0.97817  0.32975  Biso   1.000  Hf
  O33      1.0000 0.03353  0.66603  0.08441  Biso   1.000  O
  O34      1.0000 0.03207  0.58497  0.33411  Biso   1.000  O
  O35      1.0000 0.46972  0.91428  0.08221  Biso   1.000  O
  O36      1.0000 0.46338  0.83613  0.33248  Biso   1.000  O
  O37      1.0000 0.27563  0.62605  0.29501  Biso   1.000  O
  O38      1.0000 0.27726  0.63005  0.04486  Biso   1.000  O
  O39      1.0000 0.21460  0.87732  0.29152  Biso   1.000  O
  O40      1.0000 0.22125  0.88619  0.04678  Biso   1.000  O
  O41      1.0000 0.53026  0.66533  0.16556  Biso   1.000  O
  O42      1.0000 0.53142  0.58541  0.41645  Biso   1.000  O
  O43      1.0000 0.96865  0.91492  0.16935  Biso   1.000  O
  O44      1.0000 0.96446  0.83337  0.41764  Biso   1.000  O
  O45      1.0000 0.77505  0.62357  0.45506  Biso   1.000  O
  O46      1.0000 0.77545  0.62635  0.20513  Biso   1.000  O
  O47      1.0000 0.72088  0.87315  0.45512  Biso   1.000  O
  O48      1.0000 0.72314  0.87593  0.20509  Biso   1.000  O
  Hf24     1.0000 0.13943  0.52106  0.67287  Biso   1.000  Hf
  Hf25     1.0000 0.14064  0.73327  0.92302  Biso   1.000  Hf
  Hf26     1.0000 0.36111  0.77184  0.67134  Biso   1.000  Hf
  Hf27     1.0000 0.35966  0.98105  0.92294  Biso   1.000  Hf
  Hf28     1.0000 0.63921  0.52083  0.57915  Biso   1.000  Hf
  Hf29     1.0000 0.63972  0.72899  0.82922  Biso   1.000  Hf
  Hf30     1.0000 0.85959  0.76992  0.57932  Biso   1.000  Hf
  Hf31     1.0000 0.86161  0.97942  0.82838  Biso   1.000  Hf
  O49      1.0000 0.03229  0.66439  0.58398  Biso   1.000  O
  O50      1.0000 0.03438  0.58543  0.83592  Biso   1.000  O
  O51      1.0000 0.46500  0.91608  0.58195  Biso   1.000  O
  O52      1.0000 0.46797  0.83528  0.83299  Biso   1.000  O
  O53      1.0000 0.27687  0.62427  0.79538  Biso   1.000  O
  O54      1.0000 0.27582  0.62665  0.54529  Biso   1.000  O
  O55      1.0000 0.22352  0.87371  0.79441  Biso   1.000  O
  O56      1.0000 0.22258  0.87707  0.54317  Biso   1.000  O
  O57      1.0000 0.53318  0.66557  0.66605  Biso   1.000  O
  O58      1.0000 0.53341  0.58424  0.91604  Biso   1.000  O
  O59      1.0000 0.96670  0.91431  0.66629  Biso   1.000  O
  O60      1.0000 0.96685  0.83518  0.91708  Biso   1.000  O
  O61      1.0000 0.77745  0.62300  0.95602  Biso   1.000  O
  O62      1.0000 0.77723  0.62525  0.70622  Biso   1.000  O
  O63      1.0000 0.72467  0.87357  0.95496  Biso   1.000  O
  O64      1.0000 0.72319  0.87614  0.70500  Biso   1.000  O
