data_image0
_cell_length_a       10.1076
_cell_length_b       5.21457
_cell_length_c       10.5473
_cell_angle_alpha    89.8996
_cell_angle_beta     91.178
_cell_angle_gamma    90.252

_symmetry_space_group_name_H-M    "P 1"
_symmetry_int_tables_number       1

loop_
  _symmetry_equiv_pos_as_xyz
  'x, y, z'

loop_
  _atom_site_label
  _atom_site_occupancy
  _atom_site_fract_x
  _atom_site_fract_y
  _atom_site_fract_z
  _atom_site_thermal_displace_type
  _atom_site_B_iso_or_equiv
  _atom_site_type_symbol
  Zr1      1.0000 0.13514  0.03851  0.17382  Biso   1.000  Zr
  Zr2      1.0000 0.13450  0.45058  0.42660  Biso   1.000  Zr
  Zr3      1.0000 0.34214  0.53963  0.18445  Biso   1.000  Zr
  Zr4      1.0000 0.35840  0.95223  0.42856  Biso   1.000  Zr
  Zr5      1.0000 0.65062  0.10285  0.06420  Biso   1.000  Zr
  Zr6      1.0000 0.63610  0.45356  0.33995  Biso   1.000  Zr
  Zr7      1.0000 0.86770  0.53579  0.07604  Biso   1.000  Zr
  Zr8      1.0000 0.85804  0.95364  0.32739  Biso   1.000  Zr
  O1       1.0000 0.03904  0.33492  0.08737  Biso   1.000  O
  O2       1.0000 0.02940  0.15842  0.33730  Biso   1.000  O
  O3       1.0000 0.47394  0.83126  0.08545  Biso   1.000  O
  O4       1.0000 0.46097  0.66144  0.34072  Biso   1.000  O
  O5       1.0000 0.27118  0.24581  0.29988  Biso   1.000  O
  O6       1.0000 0.27855  0.24509  0.04828  Biso   1.000  O
  O7       1.0000 0.21621  0.74783  0.30287  Biso   1.000  O
  O8       1.0000 0.22516  0.75100  0.05085  Biso   1.000  O
  O9       1.0000 0.52446  0.35468  0.16813  Biso   1.000  O
  O10      1.0000 0.53043  0.16101  0.41633  Biso   1.000  O
  O11      1.0000 0.96002  0.83862  0.16537  Biso   1.000  O
  O12      1.0000 0.96334  0.65898  0.41516  Biso   1.000  O
  O13      1.0000 0.77490  0.24290  0.45569  Biso   1.000  O
  O14      1.0000 0.77856  0.25904  0.20886  Biso   1.000  O
  O15      1.0000 0.72187  0.74597  0.45363  Biso   1.000  O
  O16      1.0000 0.70997  0.74073  0.19636  Biso   1.000  O
  Zr9      1.0000 0.14231  0.03708  0.67242  Biso   1.000  Zr
  Zr10     1.0000 0.14252  0.45251  0.92203  Biso   1.000  Zr
  Zr11     1.0000 0.36470  0.53648  0.67569  Biso   1.000  Zr
  Zr12     1.0000 0.36157  0.95642  0.92126  Biso   1.000  Zr
  Zr13     1.0000 0.64047  0.03787  0.58045  Biso   1.000  Zr
  Zr14     1.0000 0.64697  0.45165  0.82448  Biso   1.000  Zr
  Zr15     1.0000 0.86274  0.53778  0.57887  Biso   1.000  Zr
  Zr16     1.0000 0.86841  0.95150  0.82550  Biso   1.000  Zr
  O17      1.0000 0.03393  0.32892  0.58725  Biso   1.000  O
  O18      1.0000 0.04146  0.15900  0.83524  Biso   1.000  O
  O19      1.0000 0.46750  0.83200  0.59025  Biso   1.000  O
  O20      1.0000 0.47070  0.65408  0.84432  Biso   1.000  O
  O21      1.0000 0.28026  0.24575  0.79743  Biso   1.000  O
  O22      1.0000 0.27681  0.24654  0.54936  Biso   1.000  O
  O23      1.0000 0.22812  0.74464  0.79916  Biso   1.000  O
  O24      1.0000 0.22483  0.74333  0.55062  Biso   1.000  O
  O25      1.0000 0.53627  0.33381  0.66233  Biso   1.000  O
  O26      1.0000 0.53531  0.15157  0.90356  Biso   1.000  O
  O27      1.0000 0.97131  0.82760  0.66385  Biso   1.000  O
  O28      1.0000 0.97108  0.66213  0.91516  Biso   1.000  O
  O29      1.0000 0.80006  0.24258  0.94367  Biso   1.000  O
  O30      1.0000 0.78030  0.24313  0.70097  Biso   1.000  O
  O31      1.0000 0.72358  0.77047  0.95562  Biso   1.000  O
  O32      1.0000 0.72772  0.74580  0.70316  Biso   1.000  O
  Al1      1.0000 0.59915  0.60324  0.06935  Biso   1.000  Al
