data_image0
_cell_length_a       10.1778
_cell_length_b       5.12787
_cell_length_c       10.5024
_cell_angle_alpha    90.0874
_cell_angle_beta     80.606
_cell_angle_gamma    89.4648

_symmetry_space_group_name_H-M    "P 1"
_symmetry_int_tables_number       1

loop_
  _symmetry_equiv_pos_as_xyz
  'x, y, z'

loop_
  _atom_site_label
  _atom_site_occupancy
  _atom_site_fract_x
  _atom_site_fract_y
  _atom_site_fract_z
  _atom_site_thermal_displace_type
  _atom_site_B_iso_or_equiv
  _atom_site_type_symbol
  Al1      1.0000 0.12614  0.02201  0.16288  Biso   1.000  Al
  Zr1      1.0000 0.13840  0.04028  0.64263  Biso   1.000  Zr
  Zr2      1.0000 0.63840  0.04104  0.14512  Biso   1.000  Zr
  Zr3      1.0000 0.63814  0.04221  0.64699  Biso   1.000  Zr
  Zr4      1.0000 0.13703  0.45066  0.38855  Biso   1.000  Zr
  Zr5      1.0000 0.14020  0.45614  0.89478  Biso   1.000  Zr
  Zr6      1.0000 0.63822  0.45733  0.39487  Biso   1.000  Zr
  Zr7      1.0000 0.63898  0.46111  0.89904  Biso   1.000  Zr
  Zr8      1.0000 0.35213  0.54821  0.10394  Biso   1.000  Zr
  Zr9      1.0000 0.35961  0.54575  0.60365  Biso   1.000  Zr
  Zr10     1.0000 0.87068  0.53343  0.10791  Biso   1.000  Zr
  Zr11     1.0000 0.85990  0.53898  0.60628  Biso   1.000  Zr
  Zr12     1.0000 0.35714  0.95875  0.34971  Biso   1.000  Zr
  Zr13     1.0000 0.35884  0.96985  0.85766  Biso   1.000  Zr
  Zr14     1.0000 0.86024  0.95485  0.35560  Biso   1.000  Zr
  Zr15     1.0000 0.86213  0.95579  0.85733  Biso   1.000  Zr
  O1       1.0000 0.04725  0.30525  0.08059  Biso   1.000  O
  O2       1.0000 0.03267  0.32595  0.57454  Biso   1.000  O
  O3       1.0000 0.53232  0.33244  0.07846  Biso   1.000  O
  O4       1.0000 0.53270  0.33201  0.57695  Biso   1.000  O
  O5       1.0000 0.03425  0.15456  0.32534  Biso   1.000  O
  O6       1.0000 0.03367  0.17094  0.82683  Biso   1.000  O
  O7       1.0000 0.53163  0.17030  0.32662  Biso   1.000  O
  O8       1.0000 0.53536  0.17379  0.82748  Biso   1.000  O
  O9       1.0000 0.46756  0.82522  0.17334  Biso   1.000  O
  O10      1.0000 0.46559  0.83277  0.67324  Biso   1.000  O
  O11      1.0000 0.97368  0.82380  0.17384  Biso   1.000  O
  O12      1.0000 0.96683  0.82520  0.67467  Biso   1.000  O
  O13      1.0000 0.46563  0.67241  0.42159  Biso   1.000  O
  O14      1.0000 0.46832  0.68456  0.92539  Biso   1.000  O
  O15      1.0000 0.96308  0.65962  0.42240  Biso   1.000  O
  O16      1.0000 0.96780  0.66610  0.92790  Biso   1.000  O
  O17      1.0000 0.26570  0.23967  0.22683  Biso   1.000  O
  O18      1.0000 0.27350  0.25521  0.73308  Biso   1.000  O
  O19      1.0000 0.77579  0.25169  0.24114  Biso   1.000  O
  O20      1.0000 0.77644  0.25635  0.74197  Biso   1.000  O
  O21      1.0000 0.27549  0.24622  0.48378  Biso   1.000  O
  O22      1.0000 0.29463  0.29404  0.96934  Biso   1.000  O
  O23      1.0000 0.77464  0.24067  0.49157  Biso   1.000  O
  O24      1.0000 0.77727  0.24143  0.99219  Biso   1.000  O
  O25      1.0000 0.22189  0.81053  0.01962  Biso   1.000  O
  O26      1.0000 0.22266  0.75687  0.50757  Biso   1.000  O
  O27      1.0000 0.72811  0.75344  0.01247  Biso   1.000  O
  O28      1.0000 0.72269  0.75458  0.51155  Biso   1.000  O
  O29      1.0000 0.21851  0.74124  0.25917  Biso   1.000  O
  O30      1.0000 0.22510  0.74393  0.76149  Biso   1.000  O
  O31      1.0000 0.72832  0.73836  0.25984  Biso   1.000  O
  O32      1.0000 0.72474  0.74444  0.76224  Biso   1.000  O
