data_image0
_cell_length_a       10.2242
_cell_length_b       10.3875
_cell_length_c       10.543
_cell_angle_alpha    90.2629
_cell_angle_beta     79.6457
_cell_angle_gamma    90.2352

_symmetry_space_group_name_H-M    "P 1"
_symmetry_int_tables_number       1

loop_
  _symmetry_equiv_pos_as_xyz
  'x, y, z'

loop_
  _atom_site_label
  _atom_site_occupancy
  _atom_site_fract_x
  _atom_site_fract_y
  _atom_site_fract_z
  _atom_site_thermal_displace_type
  _atom_site_B_iso_or_equiv
  _atom_site_type_symbol
  Zr1      1.0000 0.13839  0.02340  0.14461  Biso   1.000  Zr
  Zr2      1.0000 0.13528  0.23583  0.39254  Biso   1.000  Zr
  Zr3      1.0000 0.35298  0.27753  0.10143  Biso   1.000  Zr
  Zr4      1.0000 0.35580  0.47401  0.34421  Biso   1.000  Zr
  O1       1.0000 0.03272  0.17018  0.07956  Biso   1.000  O
  O2       1.0000 0.03850  0.08200  0.32847  Biso   1.000  O
  O3       1.0000 0.45943  0.43071  0.15988  Biso   1.000  O
  O4       1.0000 0.47815  0.32760  0.42361  Biso   1.000  O
  O5       1.0000 0.28517  0.11819  0.23911  Biso   1.000  O
  O6       1.0000 0.29431  0.12823  0.47522  Biso   1.000  O
  O7       1.0000 0.21891  0.38310  0.00332  Biso   1.000  O
  O8       1.0000 0.19875  0.37841  0.24980  Biso   1.000  O
  Zr5      1.0000 0.13748  0.02181  0.64551  Biso   1.000  Zr
  Zr6      1.0000 0.13658  0.22952  0.89499  Biso   1.000  Zr
  Zr7      1.0000 0.36419  0.27312  0.61223  Biso   1.000  Zr
  Zr8      1.0000 0.35984  0.48043  0.85464  Biso   1.000  Zr
  O9       1.0000 0.04239  0.17147  0.57860  Biso   1.000  O
  O10      1.0000 0.03493  0.08112  0.82876  Biso   1.000  O
  O11      1.0000 0.46704  0.41937  0.67181  Biso   1.000  O
  O12      1.0000 0.46327  0.33259  0.91918  Biso   1.000  O
  O13      1.0000 0.27637  0.12830  0.73778  Biso   1.000  O
  O14      1.0000 0.27337  0.12343  0.98881  Biso   1.000  O
  O15      1.0000 0.22941  0.37742  0.50943  Biso   1.000  O
  O16      1.0000 0.22444  0.37156  0.75864  Biso   1.000  O
  Zr9      1.0000 0.13458  0.52443  0.14083  Biso   1.000  Zr
  Zr10     1.0000 0.13670  0.72292  0.39639  Biso   1.000  Zr
  Zr11     1.0000 0.35937  0.76919  0.10181  Biso   1.000  Zr
  Zr12     1.0000 0.35442  0.95681  0.35282  Biso   1.000  Zr
  O17      1.0000 0.03199  0.67410  0.07875  Biso   1.000  O
  O18      1.0000 0.03059  0.58385  0.32753  Biso   1.000  O
  O19      1.0000 0.46603  0.91343  0.17334  Biso   1.000  O
  O20      1.0000 0.46635  0.82826  0.42304  Biso   1.000  O
  O21      1.0000 0.27344  0.62684  0.23900  Biso   1.000  O
  O22      1.0000 0.27415  0.62008  0.48960  Biso   1.000  O
  O23      1.0000 0.22377  0.88049  0.00881  Biso   1.000  O
  O24      1.0000 0.21841  0.86464  0.25704  Biso   1.000  O
  Zr13     1.0000 0.14079  0.52168  0.64465  Biso   1.000  Zr
  Zr14     1.0000 0.13621  0.73079  0.89525  Biso   1.000  Zr
  Zr15     1.0000 0.36131  0.76951  0.60655  Biso   1.000  Zr
  Zr16     1.0000 0.36038  0.97838  0.85525  Biso   1.000  Zr
  O25      1.0000 0.03285  0.66623  0.58072  Biso   1.000  O
  O26      1.0000 0.03550  0.58152  0.83040  Biso   1.000  O
  O27      1.0000 0.46532  0.91787  0.67161  Biso   1.000  O
  O28      1.0000 0.46479  0.83224  0.92031  Biso   1.000  O
  O29      1.0000 0.27610  0.62872  0.74029  Biso   1.000  O
  O30      1.0000 0.27421  0.62386  0.98889  Biso   1.000  O
  O31      1.0000 0.22212  0.87782  0.51129  Biso   1.000  O
  O32      1.0000 0.22343  0.87167  0.75919  Biso   1.000  O
  Zr17     1.0000 0.63920  0.02199  0.14545  Biso   1.000  Zr
  Zr18     1.0000 0.65958  0.22919  0.40520  Biso   1.000  Zr
  Zr19     1.0000 0.85931  0.27246  0.10558  Biso   1.000  Zr
  Zr20     1.0000 0.85986  0.48090  0.35363  Biso   1.000  Zr
  O33      1.0000 0.53101  0.17261  0.08847  Biso   1.000  O
  O34      1.0000 0.52795  0.08994  0.33000  Biso   1.000  O
  O35      1.0000 0.95734  0.42479  0.16624  Biso   1.000  O
  O36      1.0000 0.96103  0.33364  0.42152  Biso   1.000  O
  O37      1.0000 0.77492  0.12738  0.24453  Biso   1.000  O
  O38      1.0000 0.78517  0.11776  0.49562  Biso   1.000  O
  O39      1.0000 0.72242  0.37957  0.01250  Biso   1.000  O
  O40      1.0000 0.72267  0.36996  0.26307  Biso   1.000  O
  Zr21     1.0000 0.63994  0.02000  0.64914  Biso   1.000  Zr
  Zr22     1.0000 0.63627  0.23050  0.89941  Biso   1.000  Zr
  Zr23     1.0000 0.86444  0.27229  0.60998  Biso   1.000  Zr
  Zr24     1.0000 0.86096  0.47939  0.85705  Biso   1.000  Zr
  O41      1.0000 0.54029  0.16778  0.58250  Biso   1.000  O
  O42      1.0000 0.53467  0.08121  0.83347  Biso   1.000  O
  O43      1.0000 0.96695  0.41856  0.67226  Biso   1.000  O
  O44      1.0000 0.96216  0.33006  0.91971  Biso   1.000  O
  O45      1.0000 0.77623  0.13013  0.74417  Biso   1.000  O
  O46      1.0000 0.77247  0.12197  0.99327  Biso   1.000  O
  O47      1.0000 0.72664  0.37825  0.51462  Biso   1.000  O
  O48      1.0000 0.72443  0.37188  0.76287  Biso   1.000  O
  Zr25     1.0000 0.63663  0.52356  0.14661  Biso   1.000  Zr
  Zr26     1.0000 0.63897  0.72548  0.39695  Biso   1.000  Zr
  Zr27     1.0000 0.85829  0.77357  0.10499  Biso   1.000  Zr
  Zr28     1.0000 0.86403  0.97492  0.35508  Biso   1.000  Zr
  O49      1.0000 0.53537  0.67157  0.08009  Biso   1.000  O
  O50      1.0000 0.53327  0.57806  0.33139  Biso   1.000  O
  O51      1.0000 0.96408  0.92006  0.17018  Biso   1.000  O
  O52      1.0000 0.96619  0.83146  0.42237  Biso   1.000  O
  O53      1.0000 0.77413  0.63099  0.24170  Biso   1.000  O
  O54      1.0000 0.77550  0.62094  0.49185  Biso   1.000  O
  O55      1.0000 0.72224  0.88084  0.01037  Biso   1.000  O
  O56      1.0000 0.72084  0.87347  0.26172  Biso   1.000  O
  Zr29     1.0000 0.64047  0.52331  0.64866  Biso   1.000  Zr
  Zr30     1.0000 0.63859  0.72918  0.89706  Biso   1.000  Zr
  Zr31     1.0000 0.86109  0.77184  0.60566  Biso   1.000  Zr
  Zr32     1.0000 0.85957  0.97984  0.85584  Biso   1.000  Zr
  O57      1.0000 0.53512  0.66783  0.58212  Biso   1.000  O
  O58      1.0000 0.53458  0.58283  0.83101  Biso   1.000  O
  O59      1.0000 0.96519  0.91996  0.67072  Biso   1.000  O
  O60      1.0000 0.96266  0.83310  0.91955  Biso   1.000  O
  O61      1.0000 0.77669  0.62955  0.74216  Biso   1.000  O
  O62      1.0000 0.77512  0.62238  0.99182  Biso   1.000  O
  O63      1.0000 0.72453  0.87779  0.51131  Biso   1.000  O
  O64      1.0000 0.72472  0.87173  0.76112  Biso   1.000  O
  Al1      1.0000 0.40503  0.20923  0.33298  Biso   1.000  Al
