data_image0
_cell_length_a       10.1068
_cell_length_b       10.3524
_cell_length_c       10.5392
_cell_angle_alpha    89.8176
_cell_angle_beta     90.7201
_cell_angle_gamma    90.1941

_symmetry_space_group_name_H-M    "P 1"
_symmetry_int_tables_number       1

loop_
  _symmetry_equiv_pos_as_xyz
  'x, y, z'

loop_
  _atom_site_label
  _atom_site_occupancy
  _atom_site_fract_x
  _atom_site_fract_y
  _atom_site_fract_z
  _atom_site_thermal_displace_type
  _atom_site_B_iso_or_equiv
  _atom_site_type_symbol
  Zr1      1.0000 0.13837  0.01873  0.17239  Biso   1.000  Zr
  Zr2      1.0000 0.13519  0.22747  0.42656  Biso   1.000  Zr
  Zr3      1.0000 0.34157  0.27090  0.18301  Biso   1.000  Zr
  Zr4      1.0000 0.36017  0.47982  0.42499  Biso   1.000  Zr
  Zr5      1.0000 0.64392  0.02531  0.06838  Biso   1.000  Zr
  Zr6      1.0000 0.63562  0.22722  0.33832  Biso   1.000  Zr
  Zr7      1.0000 0.86426  0.26410  0.07507  Biso   1.000  Zr
  Zr8      1.0000 0.85966  0.47686  0.32618  Biso   1.000  Zr
  O1       1.0000 0.03823  0.16740  0.08643  Biso   1.000  O
  O2       1.0000 0.03153  0.08334  0.33494  Biso   1.000  O
  O3       1.0000 0.47294  0.40956  0.08362  Biso   1.000  O
  O4       1.0000 0.46151  0.33383  0.33730  Biso   1.000  O
  O5       1.0000 0.27186  0.12430  0.29914  Biso   1.000  O
  O6       1.0000 0.27672  0.12554  0.04709  Biso   1.000  O
  O7       1.0000 0.21567  0.37519  0.30110  Biso   1.000  O
  O8       1.0000 0.22416  0.37808  0.04875  Biso   1.000  O
  O9       1.0000 0.52135  0.17115  0.16980  Biso   1.000  O
  O10      1.0000 0.53094  0.08297  0.41754  Biso   1.000  O
  O11      1.0000 0.95918  0.41680  0.16549  Biso   1.000  O
  O12      1.0000 0.96539  0.33386  0.41839  Biso   1.000  O
  O13      1.0000 0.77492  0.12371  0.45637  Biso   1.000  O
  O14      1.0000 0.77144  0.12655  0.20781  Biso   1.000  O
  O15      1.0000 0.72181  0.37389  0.45293  Biso   1.000  O
  O16      1.0000 0.70585  0.37042  0.19239  Biso   1.000  O
  Zr9      1.0000 0.14216  0.01982  0.67246  Biso   1.000  Zr
  Zr10     1.0000 0.14068  0.22735  0.92101  Biso   1.000  Zr
  Zr11     1.0000 0.36517  0.26954  0.67493  Biso   1.000  Zr
  Zr12     1.0000 0.36025  0.47949  0.92115  Biso   1.000  Zr
  Zr13     1.0000 0.64007  0.01926  0.58011  Biso   1.000  Zr
  Zr14     1.0000 0.64722  0.22251  0.82700  Biso   1.000  Zr
  Zr15     1.0000 0.86185  0.27073  0.58000  Biso   1.000  Zr
  Zr16     1.0000 0.86342  0.47938  0.82807  Biso   1.000  Zr
  O17      1.0000 0.03328  0.16543  0.58689  Biso   1.000  O
  O18      1.0000 0.03990  0.08149  0.83369  Biso   1.000  O
  O19      1.0000 0.46825  0.41645  0.58756  Biso   1.000  O
  O20      1.0000 0.47165  0.32982  0.84341  Biso   1.000  O
  O21      1.0000 0.27982  0.12393  0.79695  Biso   1.000  O
  O22      1.0000 0.27686  0.12456  0.54813  Biso   1.000  O
  O23      1.0000 0.22778  0.37347  0.79774  Biso   1.000  O
  O24      1.0000 0.22563  0.37418  0.54961  Biso   1.000  O
  O25      1.0000 0.53571  0.16588  0.66442  Biso   1.000  O
  O26      1.0000 0.53817  0.06977  0.90351  Biso   1.000  O
  O27      1.0000 0.96856  0.41521  0.66715  Biso   1.000  O
  O28      1.0000 0.96815  0.33251  0.91532  Biso   1.000  O
  O29      1.0000 0.79868  0.11481  0.94547  Biso   1.000  O
  O30      1.0000 0.78037  0.12206  0.70108  Biso   1.000  O
  O31      1.0000 0.72151  0.38424  0.95436  Biso   1.000  O
  O32      1.0000 0.72653  0.37428  0.70389  Biso   1.000  O
  Zr17     1.0000 0.13507  0.52301  0.17225  Biso   1.000  Zr
  Zr18     1.0000 0.13725  0.72755  0.42160  Biso   1.000  Zr
  Zr19     1.0000 0.36063  0.77380  0.17375  Biso   1.000  Zr
  Zr20     1.0000 0.35961  0.97678  0.42492  Biso   1.000  Zr
  Zr21     1.0000 0.64585  0.54418  0.07527  Biso   1.000  Zr
  Zr22     1.0000 0.63911  0.73148  0.33025  Biso   1.000  Zr
  Zr23     1.0000 0.86275  0.77525  0.07862  Biso   1.000  Zr
  Zr24     1.0000 0.85926  0.97964  0.32853  Biso   1.000  Zr
  O33      1.0000 0.03309  0.66644  0.08454  Biso   1.000  O
  O34      1.0000 0.03019  0.58140  0.33550  Biso   1.000  O
  O35      1.0000 0.46830  0.91872  0.08582  Biso   1.000  O
  O36      1.0000 0.46661  0.83449  0.33704  Biso   1.000  O
  O37      1.0000 0.27272  0.62446  0.29698  Biso   1.000  O
  O38      1.0000 0.27759  0.62402  0.04623  Biso   1.000  O
  O39      1.0000 0.22355  0.87442  0.29740  Biso   1.000  O
  O40      1.0000 0.22393  0.87466  0.04723  Biso   1.000  O
  O41      1.0000 0.52992  0.66750  0.16994  Biso   1.000  O
  O42      1.0000 0.53203  0.58466  0.41689  Biso   1.000  O
  O43      1.0000 0.96617  0.91950  0.16545  Biso   1.000  O
  O44      1.0000 0.96555  0.83170  0.41357  Biso   1.000  O
  O45      1.0000 0.77518  0.62362  0.45396  Biso   1.000  O
  O46      1.0000 0.77989  0.62988  0.20625  Biso   1.000  O
  O47      1.0000 0.72437  0.87499  0.45523  Biso   1.000  O
  O48      1.0000 0.72512  0.87616  0.20466  Biso   1.000  O
  Zr25     1.0000 0.13994  0.51958  0.67162  Biso   1.000  Zr
  Zr26     1.0000 0.14075  0.72780  0.92225  Biso   1.000  Zr
  Zr27     1.0000 0.36197  0.76955  0.67259  Biso   1.000  Zr
  Zr28     1.0000 0.36323  0.97685  0.92274  Biso   1.000  Zr
  Zr29     1.0000 0.63989  0.52136  0.57864  Biso   1.000  Zr
  Zr30     1.0000 0.64031  0.73074  0.82594  Biso   1.000  Zr
  Zr31     1.0000 0.86310  0.76948  0.57716  Biso   1.000  Zr
  Zr32     1.0000 0.86702  0.97463  0.82560  Biso   1.000  Zr
  O49      1.0000 0.03361  0.66401  0.58361  Biso   1.000  O
  O50      1.0000 0.03588  0.58291  0.83446  Biso   1.000  O
  O51      1.0000 0.46764  0.91477  0.58586  Biso   1.000  O
  O52      1.0000 0.46692  0.83016  0.83467  Biso   1.000  O
  O53      1.0000 0.27750  0.62254  0.79558  Biso   1.000  O
  O54      1.0000 0.27518  0.62461  0.54658  Biso   1.000  O
  O55      1.0000 0.22599  0.87254  0.79629  Biso   1.000  O
  O56      1.0000 0.22447  0.87372  0.54631  Biso   1.000  O
  O57      1.0000 0.53357  0.66506  0.66555  Biso   1.000  O
  O58      1.0000 0.53224  0.58789  0.91764  Biso   1.000  O
  O59      1.0000 0.97140  0.91340  0.66294  Biso   1.000  O
  O60      1.0000 0.97151  0.83366  0.91681  Biso   1.000  O
  O61      1.0000 0.78209  0.62935  0.94982  Biso   1.000  O
  O62      1.0000 0.77729  0.62478  0.70331  Biso   1.000  O
  O63      1.0000 0.72714  0.87438  0.95294  Biso   1.000  O
  O64      1.0000 0.72673  0.87347  0.70282  Biso   1.000  O
  Al1      1.0000 0.59548  0.29011  0.06797  Biso   1.000  Al
