data_image0
_cell_length_a       10.1162
_cell_length_b       10.0739
_cell_length_c       5.03012
_cell_angle_alpha    90.0008
_cell_angle_beta     90.0011
_cell_angle_gamma    90.0006

_symmetry_space_group_name_H-M    "P 1"
_symmetry_int_tables_number       1

loop_
  _symmetry_equiv_pos_as_xyz
  'x, y, z'

loop_
  _atom_site_label
  _atom_site_occupancy
  _atom_site_fract_x
  _atom_site_fract_y
  _atom_site_fract_z
  _atom_site_thermal_displace_type
  _atom_site_B_iso_or_equiv
  _atom_site_type_symbol
  Al1      1.0000 0.12562  0.00008  0.25138  Biso   1.000  Al
  Zr1      1.0000 0.12562  0.50009  0.25139  Biso   1.000  Zr
  Zr2      1.0000 0.62562  0.00009  0.25141  Biso   1.000  Zr
  Zr3      1.0000 0.62561  0.50008  0.25140  Biso   1.000  Zr
  Zr4      1.0000 0.12561  0.24658  0.75139  Biso   1.000  Zr
  Zr5      1.0000 0.12561  0.75360  0.75139  Biso   1.000  Zr
  Zr6      1.0000 0.62562  0.25266  0.75140  Biso   1.000  Zr
  Zr7      1.0000 0.62561  0.74751  0.75141  Biso   1.000  Zr
  Zr8      1.0000 0.37362  0.24966  0.25495  Biso   1.000  Zr
  Zr9      1.0000 0.37363  0.75051  0.24783  Biso   1.000  Zr
  Zr10     1.0000 0.87760  0.24966  0.24783  Biso   1.000  Zr
  Zr11     1.0000 0.87760  0.75050  0.25496  Biso   1.000  Zr
  Zr12     1.0000 0.37413  0.00009  0.75139  Biso   1.000  Zr
  Zr13     1.0000 0.37431  0.50009  0.75139  Biso   1.000  Zr
  Zr14     1.0000 0.87711  0.00008  0.75139  Biso   1.000  Zr
  Zr15     1.0000 0.87692  0.50008  0.75139  Biso   1.000  Zr
  O1       1.0000 0.97423  0.14576  0.95369  Biso   1.000  O
  O2       1.0000 0.98393  0.64042  0.98292  Biso   1.000  O
  O3       1.0000 0.47822  0.13138  0.99309  Biso   1.000  O
  O4       1.0000 0.48412  0.63122  0.99242  Biso   1.000  O
  O5       1.0000 0.02789  0.10718  0.46162  Biso   1.000  O
  O6       1.0000 0.01580  0.61385  0.49297  Biso   1.000  O
  O7       1.0000 0.52165  0.12052  0.49772  Biso   1.000  O
  O8       1.0000 0.51629  0.61987  0.49672  Biso   1.000  O
  O9       1.0000 0.98393  0.35976  0.51986  Biso   1.000  O
  O10      1.0000 0.97424  0.85442  0.54905  Biso   1.000  O
  O11      1.0000 0.48413  0.36894  0.51038  Biso   1.000  O
  O12      1.0000 0.47822  0.86878  0.50973  Biso   1.000  O
  O13      1.0000 0.01579  0.38633  0.00981  Biso   1.000  O
  O14      1.0000 0.02788  0.89301  0.04111  Biso   1.000  O
  O15      1.0000 0.51629  0.38029  0.00607  Biso   1.000  O
  O16      1.0000 0.52166  0.87963  0.00511  Biso   1.000  O
  O17      1.0000 0.27700  0.14576  0.54908  Biso   1.000  O
  O18      1.0000 0.26730  0.64041  0.51985  Biso   1.000  O
  O19      1.0000 0.77301  0.13138  0.50972  Biso   1.000  O
  O20      1.0000 0.76710  0.63123  0.51039  Biso   1.000  O
  O21      1.0000 0.22335  0.10717  0.04115  Biso   1.000  O
  O22      1.0000 0.23543  0.61384  0.00980  Biso   1.000  O
  O23      1.0000 0.72957  0.12053  0.00510  Biso   1.000  O
  O24      1.0000 0.73493  0.61988  0.00609  Biso   1.000  O
  O25      1.0000 0.26730  0.35975  0.98292  Biso   1.000  O
  O26      1.0000 0.27700  0.85441  0.95370  Biso   1.000  O
  O27      1.0000 0.76710  0.36895  0.99242  Biso   1.000  O
  O28      1.0000 0.77301  0.86879  0.99308  Biso   1.000  O
  O29      1.0000 0.23543  0.38632  0.49297  Biso   1.000  O
  O30      1.0000 0.22335  0.89299  0.46163  Biso   1.000  O
  O31      1.0000 0.73494  0.38029  0.49673  Biso   1.000  O
  O32      1.0000 0.72957  0.87964  0.49771  Biso   1.000  O
