data_image0
_cell_length_a       10.0931
_cell_length_b       10.2695
_cell_length_c       10.4943
_cell_angle_alpha    89.8979
_cell_angle_beta     90.5125
_cell_angle_gamma    89.7848

_symmetry_space_group_name_H-M    "P 1"
_symmetry_int_tables_number       1

loop_
  _symmetry_equiv_pos_as_xyz
  'x, y, z'

loop_
  _atom_site_label
  _atom_site_occupancy
  _atom_site_fract_x
  _atom_site_fract_y
  _atom_site_fract_z
  _atom_site_thermal_displace_type
  _atom_site_B_iso_or_equiv
  _atom_site_type_symbol
  Al1      1.0000 0.11865  0.01567  0.19667  Biso   1.000  Al
  Zr1      1.0000 0.13822  0.02090  0.66806  Biso   1.000  Zr
  Zr2      1.0000 0.13993  0.52219  0.17113  Biso   1.000  Zr
  Zr3      1.0000 0.13923  0.52101  0.67249  Biso   1.000  Zr
  Zr4      1.0000 0.13733  0.22928  0.41701  Biso   1.000  Zr
  Zr5      1.0000 0.14461  0.22306  0.92410  Biso   1.000  Zr
  Zr6      1.0000 0.13751  0.73027  0.41984  Biso   1.000  Zr
  Zr7      1.0000 0.14138  0.73315  0.92204  Biso   1.000  Zr
  Zr8      1.0000 0.35712  0.26776  0.16937  Biso   1.000  Zr
  Zr9      1.0000 0.36007  0.27126  0.67076  Biso   1.000  Zr
  Zr10     1.0000 0.35539  0.77696  0.16891  Biso   1.000  Zr
  Zr11     1.0000 0.36117  0.77164  0.67034  Biso   1.000  Zr
  Zr12     1.0000 0.35982  0.47933  0.42128  Biso   1.000  Zr
  Zr13     1.0000 0.36088  0.47850  0.92222  Biso   1.000  Zr
  Zr14     1.0000 0.35620  0.98154  0.41610  Biso   1.000  Zr
  Zr15     1.0000 0.36000  0.98045  0.92202  Biso   1.000  Zr
  Zr16     1.0000 0.64025  0.02159  0.07753  Biso   1.000  Zr
  Zr17     1.0000 0.63613  0.02088  0.57835  Biso   1.000  Zr
  Zr18     1.0000 0.63985  0.52005  0.07880  Biso   1.000  Zr
  Zr19     1.0000 0.63920  0.52080  0.57960  Biso   1.000  Zr
  Zr20     1.0000 0.63827  0.23000  0.32781  Biso   1.000  Zr
  Zr21     1.0000 0.64080  0.22977  0.82981  Biso   1.000  Zr
  Zr22     1.0000 0.63564  0.72888  0.32708  Biso   1.000  Zr
  Zr23     1.0000 0.64007  0.72903  0.82959  Biso   1.000  Zr
  Zr24     1.0000 0.87126  0.26448  0.08271  Biso   1.000  Zr
  Zr25     1.0000 0.86048  0.27086  0.57980  Biso   1.000  Zr
  Zr26     1.0000 0.86376  0.77340  0.08059  Biso   1.000  Zr
  Zr27     1.0000 0.85947  0.76980  0.57974  Biso   1.000  Zr
  Zr28     1.0000 0.86020  0.47968  0.32916  Biso   1.000  Zr
  Zr29     1.0000 0.86415  0.47739  0.83269  Biso   1.000  Zr
  Zr30     1.0000 0.85743  0.97826  0.33072  Biso   1.000  Zr
  Zr31     1.0000 0.86183  0.97948  0.82879  Biso   1.000  Zr
  O1       1.0000 0.04779  0.15212  0.09165  Biso   1.000  O
  O2       1.0000 0.03216  0.16558  0.58228  Biso   1.000  O
  O3       1.0000 0.03366  0.66608  0.08423  Biso   1.000  O
  O4       1.0000 0.03192  0.66438  0.58371  Biso   1.000  O
  O5       1.0000 0.02947  0.08170  0.33764  Biso   1.000  O
  O6       1.0000 0.03333  0.08484  0.83184  Biso   1.000  O
  O7       1.0000 0.03170  0.58503  0.33377  Biso   1.000  O
  O8       1.0000 0.03419  0.58481  0.83587  Biso   1.000  O
  O9       1.0000 0.46855  0.41370  0.08348  Biso   1.000  O
  O10      1.0000 0.46744  0.41556  0.58353  Biso   1.000  O
  O11      1.0000 0.47083  0.91368  0.08176  Biso   1.000  O
  O12      1.0000 0.46521  0.91583  0.58130  Biso   1.000  O
  O13      1.0000 0.46666  0.33447  0.33427  Biso   1.000  O
  O14      1.0000 0.46961  0.33634  0.83236  Biso   1.000  O
  O15      1.0000 0.46296  0.83647  0.33190  Biso   1.000  O
  O16      1.0000 0.46878  0.83547  0.83214  Biso   1.000  O
  O17      1.0000 0.26428  0.11959  0.28333  Biso   1.000  O
  O18      1.0000 0.27510  0.12215  0.78823  Biso   1.000  O
  O19      1.0000 0.27448  0.62705  0.29464  Biso   1.000  O
  O20      1.0000 0.27628  0.62447  0.79492  Biso   1.000  O
  O21      1.0000 0.29787  0.14015  0.02913  Biso   1.000  O
  O22      1.0000 0.27491  0.12739  0.53923  Biso   1.000  O
  O23      1.0000 0.27651  0.62844  0.04459  Biso   1.000  O
  O24      1.0000 0.27479  0.62634  0.54479  Biso   1.000  O
  O25      1.0000 0.22401  0.37480  0.29592  Biso   1.000  O
  O26      1.0000 0.22594  0.37285  0.79628  Biso   1.000  O
  O27      1.0000 0.21411  0.87917  0.28980  Biso   1.000  O
  O28      1.0000 0.22454  0.87384  0.79289  Biso   1.000  O
  O29      1.0000 0.22252  0.37989  0.04607  Biso   1.000  O
  O30      1.0000 0.22324  0.37639  0.54498  Biso   1.000  O
  O31      1.0000 0.22422  0.88274  0.04378  Biso   1.000  O
  O32      1.0000 0.22317  0.87681  0.54205  Biso   1.000  O
  O33      1.0000 0.53353  0.16498  0.16592  Biso   1.000  O
  O34      1.0000 0.53229  0.16616  0.66545  Biso   1.000  O
  O35      1.0000 0.52981  0.66491  0.16571  Biso   1.000  O
  O36      1.0000 0.53293  0.66523  0.66615  Biso   1.000  O
  O37      1.0000 0.52961  0.08535  0.41423  Biso   1.000  O
  O38      1.0000 0.53722  0.08286  0.91316  Biso   1.000  O
  O39      1.0000 0.53081  0.58585  0.41660  Biso   1.000  O
  O40      1.0000 0.53312  0.58452  0.91617  Biso   1.000  O
  O41      1.0000 0.96989  0.41335  0.16854  Biso   1.000  O
  O42      1.0000 0.96849  0.41325  0.66973  Biso   1.000  O
  O43      1.0000 0.97027  0.91597  0.16965  Biso   1.000  O
  O44      1.0000 0.96689  0.91447  0.66593  Biso   1.000  O
  O45      1.0000 0.96581  0.33501  0.41715  Biso   1.000  O
  O46      1.0000 0.97197  0.33138  0.92225  Biso   1.000  O
  O47      1.0000 0.96410  0.83310  0.41732  Biso   1.000  O
  O48      1.0000 0.96764  0.83498  0.91684  Biso   1.000  O
  O49      1.0000 0.77991  0.12343  0.95606  Biso   1.000  O
  O50      1.0000 0.77319  0.12417  0.45567  Biso   1.000  O
  O51      1.0000 0.77707  0.62353  0.95635  Biso   1.000  O
  O52      1.0000 0.77400  0.62405  0.45515  Biso   1.000  O
  O53      1.0000 0.77669  0.12485  0.20548  Biso   1.000  O
  O54      1.0000 0.77536  0.12599  0.70495  Biso   1.000  O
  O55      1.0000 0.77470  0.62619  0.20528  Biso   1.000  O
  O56      1.0000 0.77659  0.62480  0.70646  Biso   1.000  O
  O57      1.0000 0.72887  0.37223  0.95750  Biso   1.000  O
  O58      1.0000 0.72377  0.37486  0.45590  Biso   1.000  O
  O59      1.0000 0.72603  0.87409  0.95518  Biso   1.000  O
  O60      1.0000 0.72110  0.87358  0.45534  Biso   1.000  O
  O61      1.0000 0.72751  0.37407  0.20551  Biso   1.000  O
  O62      1.0000 0.72570  0.37611  0.70651  Biso   1.000  O
  O63      1.0000 0.72454  0.87556  0.20528  Biso   1.000  O
  O64      1.0000 0.72408  0.87571  0.70513  Biso   1.000  O
