data_image0
_cell_length_a       5.0067
_cell_length_b       10.3797
_cell_length_c       10.0588
_cell_angle_alpha    90.7661
_cell_angle_beta     89.143
_cell_angle_gamma    90.4076

_symmetry_space_group_name_H-M    "P 1"
_symmetry_int_tables_number       1

loop_
  _symmetry_equiv_pos_as_xyz
  'x, y, z'

loop_
  _atom_site_label
  _atom_site_occupancy
  _atom_site_fract_x
  _atom_site_fract_y
  _atom_site_fract_z
  _atom_site_thermal_displace_type
  _atom_site_B_iso_or_equiv
  _atom_site_type_symbol
  Al1      1.0000 0.25008  0.03202  0.10612  Biso   1.000  Al
  Zr1      1.0000 0.26575  0.01471  0.62417  Biso   1.000  Zr
  Zr2      1.0000 0.27057  0.51432  0.12620  Biso   1.000  Zr
  Zr3      1.0000 0.27060  0.51757  0.62539  Biso   1.000  Zr
  Zr4      1.0000 0.26988  0.22664  0.37174  Biso   1.000  Zr
  Zr5      1.0000 0.25805  0.23802  0.87208  Biso   1.000  Zr
  Zr6      1.0000 0.28036  0.73509  0.37786  Biso   1.000  Zr
  Zr7      1.0000 0.26469  0.74060  0.88066  Biso   1.000  Zr
  Zr8      1.0000 0.72673  0.25872  0.12052  Biso   1.000  Zr
  Zr9      1.0000 0.73082  0.26548  0.62272  Biso   1.000  Zr
  Zr10     1.0000 0.74578  0.76553  0.12251  Biso   1.000  Zr
  Zr11     1.0000 0.73717  0.76951  0.62797  Biso   1.000  Zr
  Zr12     1.0000 0.73628  0.48167  0.37546  Biso   1.000  Zr
  Zr13     1.0000 0.72913  0.48895  0.87413  Biso   1.000  Zr
  Zr14     1.0000 0.73903  0.98512  0.36573  Biso   1.000  Zr
  Zr15     1.0000 0.71647  0.98900  0.88071  Biso   1.000  Zr
  O1       1.0000 0.05288  0.17414  0.19637  Biso   1.000  O
  O2       1.0000 0.06694  0.18522  0.69450  Biso   1.000  O
  O3       1.0000 0.07259  0.68317  0.20039  Biso   1.000  O
  O4       1.0000 0.06928  0.68443  0.69879  Biso   1.000  O
  O5       1.0000 0.06815  0.06633  0.45011  Biso   1.000  O
  O6       1.0000 0.04869  0.07281  0.95363  Biso   1.000  O
  O7       1.0000 0.07351  0.56560  0.44611  Biso   1.000  O
  O8       1.0000 0.06088  0.57212  0.95118  Biso   1.000  O
  O9       1.0000 0.93666  0.42667  0.19571  Biso   1.000  O
  O10      1.0000 0.92938  0.43454  0.69463  Biso   1.000  O
  O11      1.0000 0.98580  0.93433  0.19218  Biso   1.000  O
  O12      1.0000 0.92934  0.93635  0.70064  Biso   1.000  O
  O13      1.0000 0.93449  0.31499  0.44346  Biso   1.000  O
  O14      1.0000 0.92093  0.31993  0.94323  Biso   1.000  O
  O15      1.0000 0.94713  0.82023  0.45171  Biso   1.000  O
  O16      1.0000 0.91254  0.82015  0.93960  Biso   1.000  O
  O17      1.0000 0.51252  0.09967  0.23708  Biso   1.000  O
  O18      1.0000 0.53511  0.11868  0.74659  Biso   1.000  O
  O19      1.0000 0.54282  0.60612  0.24779  Biso   1.000  O
  O20      1.0000 0.53618  0.62061  0.75082  Biso   1.000  O
  O21      1.0000 0.54410  0.13295  0.49254  Biso   1.000  O
  O22      1.0000 0.50986  0.13701  0.99657  Biso   1.000  O
  O23      1.0000 0.54569  0.63378  0.49994  Biso   1.000  O
  O24      1.0000 0.53231  0.63752  0.99987  Biso   1.000  O
  O25      1.0000 0.46187  0.38195  0.49712  Biso   1.000  O
  O26      1.0000 0.45646  0.38624  0.99597  Biso   1.000  O
  O27      1.0000 0.47312  0.88520  0.50152  Biso   1.000  O
  O28      1.0000 0.44093  0.89482  0.01287  Biso   1.000  O
  O29      1.0000 0.46376  0.35796  0.24564  Biso   1.000  O
  O30      1.0000 0.45850  0.36973  0.74672  Biso   1.000  O
  O31      1.0000 0.51536  0.84839  0.26001  Biso   1.000  O
  O32      1.0000 0.45591  0.86941  0.75303  Biso   1.000  O
