data_image0
_cell_length_a       10.1745
_cell_length_b       10.2539
_cell_length_c       5.24768
_cell_angle_alpha    90.1381
_cell_angle_beta     80.6997
_cell_angle_gamma    89.5071

_symmetry_space_group_name_H-M    "P 1"
_symmetry_int_tables_number       1

loop_
  _symmetry_equiv_pos_as_xyz
  'x, y, z'

loop_
  _atom_site_label
  _atom_site_occupancy
  _atom_site_fract_x
  _atom_site_fract_y
  _atom_site_fract_z
  _atom_site_thermal_displace_type
  _atom_site_B_iso_or_equiv
  _atom_site_type_symbol
  Al1      1.0000 0.12380  0.00909  0.32285  Biso   1.000  Al
  Zr1      1.0000 0.14122  0.52255  0.29233  Biso   1.000  Zr
  Zr2      1.0000 0.63866  0.02225  0.29176  Biso   1.000  Zr
  Zr3      1.0000 0.63790  0.51953  0.29196  Biso   1.000  Zr
  Zr4      1.0000 0.13997  0.22195  0.77658  Biso   1.000  Zr
  Zr5      1.0000 0.13868  0.73354  0.79359  Biso   1.000  Zr
  Zr6      1.0000 0.64081  0.23023  0.79282  Biso   1.000  Zr
  Zr7      1.0000 0.63582  0.72919  0.79492  Biso   1.000  Zr
  Zr8      1.0000 0.35601  0.26721  0.20330  Biso   1.000  Zr
  Zr9      1.0000 0.35495  0.77859  0.21006  Biso   1.000  Zr
  Zr10     1.0000 0.87100  0.26496  0.21295  Biso   1.000  Zr
  Zr11     1.0000 0.85974  0.77104  0.21519  Biso   1.000  Zr
  Zr12     1.0000 0.35983  0.47973  0.70972  Biso   1.000  Zr
  Zr13     1.0000 0.35705  0.98355  0.70330  Biso   1.000  Zr
  Zr14     1.0000 0.86264  0.47794  0.71537  Biso   1.000  Zr
  Zr15     1.0000 0.85945  0.97768  0.71117  Biso   1.000  Zr
  O1       1.0000 0.04647  0.14881  0.15082  Biso   1.000  O
  O2       1.0000 0.03335  0.66596  0.16038  Biso   1.000  O
  O3       1.0000 0.53403  0.16629  0.15412  Biso   1.000  O
  O4       1.0000 0.53093  0.66670  0.15753  Biso   1.000  O
  O5       1.0000 0.03227  0.07958  0.64507  Biso   1.000  O
  O6       1.0000 0.03535  0.58450  0.66207  Biso   1.000  O
  O7       1.0000 0.53577  0.08544  0.65330  Biso   1.000  O
  O8       1.0000 0.53292  0.58471  0.65563  Biso   1.000  O
  O9       1.0000 0.46615  0.41353  0.34635  Biso   1.000  O
  O10      1.0000 0.46638  0.91611  0.34507  Biso   1.000  O
  O11      1.0000 0.97176  0.41115  0.35233  Biso   1.000  O
  O12      1.0000 0.96862  0.91377  0.34572  Biso   1.000  O
  O13      1.0000 0.47193  0.34168  0.84941  Biso   1.000  O
  O14      1.0000 0.46044  0.83515  0.84324  Biso   1.000  O
  O15      1.0000 0.96918  0.33155  0.85310  Biso   1.000  O
  O16      1.0000 0.96241  0.83173  0.84822  Biso   1.000  O
  O17      1.0000 0.26300  0.11666  0.43829  Biso   1.000  O
  O18      1.0000 0.27552  0.63093  0.48176  Biso   1.000  O
  O19      1.0000 0.77731  0.12727  0.48154  Biso   1.000  O
  O20      1.0000 0.77535  0.62710  0.48487  Biso   1.000  O
  O21      1.0000 0.29647  0.14273  0.92241  Biso   1.000  O
  O22      1.0000 0.27527  0.62757  0.98174  Biso   1.000  O
  O23      1.0000 0.77773  0.12080  0.98346  Biso   1.000  O
  O24      1.0000 0.77396  0.62057  0.98436  Biso   1.000  O
  O25      1.0000 0.22400  0.38343  0.01662  Biso   1.000  O
  O26      1.0000 0.21887  0.89910  0.03432  Biso   1.000  O
  O27      1.0000 0.72963  0.37619  0.02560  Biso   1.000  O
  O28      1.0000 0.72171  0.87798  0.02237  Biso   1.000  O
  O29      1.0000 0.22671  0.36863  0.51796  Biso   1.000  O
  O30      1.0000 0.21623  0.87380  0.52017  Biso   1.000  O
  O31      1.0000 0.72893  0.37058  0.52221  Biso   1.000  O
  O32      1.0000 0.72382  0.87093  0.52210  Biso   1.000  O
