data_image0
_cell_length_a       10.1284
_cell_length_b       10.3888
_cell_length_c       5.29016
_cell_angle_alpha    89.6879
_cell_angle_beta     91.4303
_cell_angle_gamma    90.3748

_symmetry_space_group_name_H-M    "P 1"
_symmetry_int_tables_number       1

loop_
  _symmetry_equiv_pos_as_xyz
  'x, y, z'

loop_
  _atom_site_label
  _atom_site_occupancy
  _atom_site_fract_x
  _atom_site_fract_y
  _atom_site_fract_z
  _atom_site_thermal_displace_type
  _atom_site_B_iso_or_equiv
  _atom_site_type_symbol
  Zr1      1.0000 0.14181  0.01747  0.34803  Biso   1.000  Zr
  Zr2      1.0000 0.13656  0.22589  0.85412  Biso   1.000  Zr
  Zr3      1.0000 0.34520  0.26916  0.37549  Biso   1.000  Zr
  Zr4      1.0000 0.35923  0.48051  0.85029  Biso   1.000  Zr
  Zr5      1.0000 0.64475  0.02389  0.13889  Biso   1.000  Zr
  Zr6      1.0000 0.64557  0.22046  0.67323  Biso   1.000  Zr
  Zr7      1.0000 0.86482  0.26389  0.15212  Biso   1.000  Zr
  Zr8      1.0000 0.86046  0.47670  0.65149  Biso   1.000  Zr
  O1       1.0000 0.03784  0.16572  0.17714  Biso   1.000  O
  O2       1.0000 0.03803  0.08161  0.66760  Biso   1.000  O
  O3       1.0000 0.47408  0.40976  0.17335  Biso   1.000  O
  O4       1.0000 0.46629  0.33036  0.69302  Biso   1.000  O
  O5       1.0000 0.27570  0.12367  0.60415  Biso   1.000  O
  O6       1.0000 0.27733  0.12410  0.10213  Biso   1.000  O
  O7       1.0000 0.21999  0.37449  0.60825  Biso   1.000  O
  O8       1.0000 0.22597  0.37631  0.10826  Biso   1.000  O
  O9       1.0000 0.52310  0.17019  0.34177  Biso   1.000  O
  O10      1.0000 0.53572  0.06974  0.81250  Biso   1.000  O
  O11      1.0000 0.96078  0.41560  0.33453  Biso   1.000  O
  O12      1.0000 0.96754  0.33287  0.83724  Biso   1.000  O
  O13      1.0000 0.79750  0.11419  0.89265  Biso   1.000  O
  O14      1.0000 0.77731  0.12270  0.40469  Biso   1.000  O
  O15      1.0000 0.71918  0.38437  0.90403  Biso   1.000  O
  O16      1.0000 0.70842  0.36979  0.38292  Biso   1.000  O
  Zr9      1.0000 0.13496  0.52128  0.34630  Biso   1.000  Zr
  Zr10     1.0000 0.13900  0.72613  0.84559  Biso   1.000  Zr
  Zr11     1.0000 0.36135  0.77171  0.35044  Biso   1.000  Zr
  Zr12     1.0000 0.36226  0.97462  0.85378  Biso   1.000  Zr
  Zr13     1.0000 0.64697  0.54448  0.14758  Biso   1.000  Zr
  Zr14     1.0000 0.64086  0.73377  0.65270  Biso   1.000  Zr
  Zr15     1.0000 0.86436  0.77380  0.15347  Biso   1.000  Zr
  Zr16     1.0000 0.86539  0.97547  0.65018  Biso   1.000  Zr
  O17      1.0000 0.03348  0.66419  0.16743  Biso   1.000  O
  O18      1.0000 0.03295  0.58020  0.67185  Biso   1.000  O
  O19      1.0000 0.46953  0.91683  0.17499  Biso   1.000  O
  O20      1.0000 0.46681  0.83103  0.67438  Biso   1.000  O
  O21      1.0000 0.27438  0.62260  0.59461  Biso   1.000  O
  O22      1.0000 0.27647  0.62268  0.09600  Biso   1.000  O
  O23      1.0000 0.22551  0.87245  0.59747  Biso   1.000  O
  O24      1.0000 0.22475  0.87243  0.09734  Biso   1.000  O
  O25      1.0000 0.53027  0.66585  0.33849  Biso   1.000  O
  O26      1.0000 0.53095  0.58917  0.83614  Biso   1.000  O
  O27      1.0000 0.97099  0.91588  0.32653  Biso   1.000  O
  O28      1.0000 0.97074  0.83247  0.83033  Biso   1.000  O
  O29      1.0000 0.78098  0.62960  0.89581  Biso   1.000  O
  O30      1.0000 0.78244  0.62942  0.40801  Biso   1.000  O
  O31      1.0000 0.72737  0.87550  0.90554  Biso   1.000  O
  O32      1.0000 0.72726  0.87458  0.40370  Biso   1.000  O
  Al1      1.0000 0.59552  0.29057  0.14401  Biso   1.000  Al
