data_image0
_cell_length_a       10.055
_cell_length_b       10.4758
_cell_length_c       10.1038
_cell_angle_alpha    89.6985
_cell_angle_beta     90.314
_cell_angle_gamma    90.1255

_symmetry_space_group_name_H-M    "P 1"
_symmetry_int_tables_number       1

loop_
  _symmetry_equiv_pos_as_xyz
  'x, y, z'

loop_
  _atom_site_label
  _atom_site_occupancy
  _atom_site_fract_x
  _atom_site_fract_y
  _atom_site_fract_z
  _atom_site_thermal_displace_type
  _atom_site_B_iso_or_equiv
  _atom_site_type_symbol
  Zr1      1.0000 0.13530  0.02550  0.11698  Biso   1.000  Zr
  Zr2      1.0000 0.13401  0.23126  0.39019  Biso   1.000  Zr
  Zr3      1.0000 0.36242  0.26005  0.12106  Biso   1.000  Zr
  Zr4      1.0000 0.36655  0.48393  0.37377  Biso   1.000  Zr
  O1       1.0000 0.01261  0.18615  0.21315  Biso   1.000  O
  O2       1.0000 0.03501  0.06627  0.45061  Biso   1.000  O
  O3       1.0000 0.45605  0.43270  0.19299  Biso   1.000  O
  O4       1.0000 0.46333  0.31652  0.44519  Biso   1.000  O
  O5       1.0000 0.26484  0.11980  0.25254  Biso   1.000  O
  O6       1.0000 0.27225  0.13085  0.50197  Biso   1.000  O
  O7       1.0000 0.23195  0.38255  0.49860  Biso   1.000  O
  O8       1.0000 0.21370  0.36392  0.24379  Biso   1.000  O
  Zr5      1.0000 0.13481  0.01282  0.62819  Biso   1.000  Zr
  Zr6      1.0000 0.14653  0.22311  0.87408  Biso   1.000  Zr
  Zr7      1.0000 0.36877  0.26604  0.62684  Biso   1.000  Zr
  Zr8      1.0000 0.36641  0.48395  0.87493  Biso   1.000  Zr
  O9       1.0000 0.03682  0.17983  0.69444  Biso   1.000  O
  O10      1.0000 0.03933  0.06265  0.93872  Biso   1.000  O
  O11      1.0000 0.46943  0.43164  0.69640  Biso   1.000  O
  O12      1.0000 0.46336  0.31437  0.94216  Biso   1.000  O
  O13      1.0000 0.27396  0.11334  0.74543  Biso   1.000  O
  O14      1.0000 0.29619  0.11854  0.98782  Biso   1.000  O
  O15      1.0000 0.22393  0.38774  0.00007  Biso   1.000  O
  O16      1.0000 0.23517  0.36538  0.74885  Biso   1.000  O
  Zr9      1.0000 0.13733  0.54913  0.12034  Biso   1.000  Zr
  Zr10     1.0000 0.13512  0.73829  0.38063  Biso   1.000  Zr
  Zr11     1.0000 0.36270  0.77064  0.12629  Biso   1.000  Zr
  Zr12     1.0000 0.36346  0.98413  0.37537  Biso   1.000  Zr
  O17      1.0000 0.02645  0.68779  0.20821  Biso   1.000  O
  O18      1.0000 0.03418  0.56774  0.44807  Biso   1.000  O
  O19      1.0000 0.46191  0.93529  0.19562  Biso   1.000  O
  O20      1.0000 0.46456  0.81505  0.44249  Biso   1.000  O
  O21      1.0000 0.27393  0.62541  0.25247  Biso   1.000  O
  O22      1.0000 0.26958  0.63152  0.49919  Biso   1.000  O
  O23      1.0000 0.23206  0.88291  0.50043  Biso   1.000  O
  O24      1.0000 0.22820  0.87021  0.25060  Biso   1.000  O
  Zr13     1.0000 0.13387  0.51418  0.62712  Biso   1.000  Zr
  Zr14     1.0000 0.13411  0.73791  0.87206  Biso   1.000  Zr
  Zr15     1.0000 0.37031  0.76233  0.62311  Biso   1.000  Zr
  Zr16     1.0000 0.37220  0.97610  0.87188  Biso   1.000  Zr
  O25      1.0000 0.03708  0.68206  0.69189  Biso   1.000  O
  O26      1.0000 0.03450  0.57384  0.94533  Biso   1.000  O
  O27      1.0000 0.47033  0.92915  0.69093  Biso   1.000  O
  O28      1.0000 0.47194  0.81594  0.94888  Biso   1.000  O
  O29      1.0000 0.27056  0.61468  0.74685  Biso   1.000  O
  O30      1.0000 0.27955  0.63554  0.99200  Biso   1.000  O
  O31      1.0000 0.23114  0.88137  0.99802  Biso   1.000  O
  O32      1.0000 0.23652  0.86415  0.74660  Biso   1.000  O
  Zr17     1.0000 0.62875  0.01178  0.12232  Biso   1.000  Zr
  Zr18     1.0000 0.62902  0.23101  0.37906  Biso   1.000  Zr
  Zr19     1.0000 0.83458  0.26153  0.13019  Biso   1.000  Zr
  Zr20     1.0000 0.86824  0.48565  0.37469  Biso   1.000  Zr
  O33      1.0000 0.53360  0.18186  0.19383  Biso   1.000  O
  O34      1.0000 0.53414  0.06506  0.44568  Biso   1.000  O
  O35      1.0000 0.96979  0.42827  0.18636  Biso   1.000  O
  O36      1.0000 0.96767  0.32144  0.45206  Biso   1.000  O
  O37      1.0000 0.75860  0.11334  0.25090  Biso   1.000  O
  O38      1.0000 0.77103  0.13367  0.49808  Biso   1.000  O
  O39      1.0000 0.73313  0.38351  0.50055  Biso   1.000  O
  O40      1.0000 0.72238  0.37046  0.25413  Biso   1.000  O
  Zr21     1.0000 0.63776  0.01340  0.62403  Biso   1.000  Zr
  Zr22     1.0000 0.63015  0.23174  0.87135  Biso   1.000  Zr
  Zr23     1.0000 0.86823  0.26497  0.62740  Biso   1.000  Zr
  Zr24     1.0000 0.86768  0.48138  0.88109  Biso   1.000  Zr
  O41      1.0000 0.53875  0.18234  0.69066  Biso   1.000  O
  O42      1.0000 0.54397  0.06162  0.93727  Biso   1.000  O
  O43      1.0000 0.97070  0.42865  0.70851  Biso   1.000  O
  O44      1.0000 0.97430  0.31154  0.96919  Biso   1.000  O
  O45      1.0000 0.77227  0.11499  0.74802  Biso   1.000  O
  O46      1.0000 0.76871  0.13110  0.99767  Biso   1.000  O
  O47      1.0000 0.72673  0.38067  0.00041  Biso   1.000  O
  O48      1.0000 0.73523  0.36488  0.75169  Biso   1.000  O
  Zr25     1.0000 0.62719  0.51893  0.12613  Biso   1.000  Zr
  Zr26     1.0000 0.63309  0.73289  0.37508  Biso   1.000  Zr
  Zr27     1.0000 0.86313  0.76901  0.12608  Biso   1.000  Zr
  Zr28     1.0000 0.86832  0.98462  0.37240  Biso   1.000  Zr
  O49      1.0000 0.53362  0.68289  0.19532  Biso   1.000  O
  O50      1.0000 0.53302  0.56497  0.44600  Biso   1.000  O
  O51      1.0000 0.96308  0.93862  0.19332  Biso   1.000  O
  O52      1.0000 0.96615  0.81963  0.44800  Biso   1.000  O
  O53      1.0000 0.76733  0.61545  0.24946  Biso   1.000  O
  O54      1.0000 0.76970  0.63217  0.49882  Biso   1.000  O
  O55      1.0000 0.73216  0.88291  0.49742  Biso   1.000  O
  O56      1.0000 0.72866  0.86595  0.24862  Biso   1.000  O
  Zr29     1.0000 0.63746  0.51365  0.62659  Biso   1.000  Zr
  Zr30     1.0000 0.63657  0.73162  0.87517  Biso   1.000  Zr
  Zr31     1.0000 0.86759  0.76442  0.62498  Biso   1.000  Zr
  Zr32     1.0000 0.86713  0.98139  0.87536  Biso   1.000  Zr
  O57      1.0000 0.53895  0.68110  0.69439  Biso   1.000  O
  O58      1.0000 0.53774  0.56450  0.94356  Biso   1.000  O
  O59      1.0000 0.96886  0.92836  0.69980  Biso   1.000  O
  O60      1.0000 0.96584  0.81621  0.94834  Biso   1.000  O
  O61      1.0000 0.77392  0.61313  0.75085  Biso   1.000  O
  O62      1.0000 0.77091  0.63084  0.00061  Biso   1.000  O
  O63      1.0000 0.73160  0.88138  0.99880  Biso   1.000  O
  O64      1.0000 0.73383  0.86438  0.74857  Biso   1.000  O
  Al1      1.0000 0.09179  0.30683  0.11495  Biso   1.000  Al
