data_image0
_cell_length_a       10.0906
_cell_length_b       10.2147
_cell_length_c       5.24247
_cell_angle_alpha    90.056
_cell_angle_beta     90.896
_cell_angle_gamma    89.5072

_symmetry_space_group_name_H-M    "P 1"
_symmetry_int_tables_number       1

loop_
  _symmetry_equiv_pos_as_xyz
  'x, y, z'

loop_
  _atom_site_label
  _atom_site_occupancy
  _atom_site_fract_x
  _atom_site_fract_y
  _atom_site_fract_z
  _atom_site_thermal_displace_type
  _atom_site_B_iso_or_equiv
  _atom_site_type_symbol
  Al1      1.0000 0.12223  0.00913  0.37663  Biso   1.000  Al
  Zr1      1.0000 0.14029  0.52305  0.34646  Biso   1.000  Zr
  Zr2      1.0000 0.14224  0.22403  0.83292  Biso   1.000  Zr
  Zr3      1.0000 0.13872  0.73411  0.84638  Biso   1.000  Zr
  Zr4      1.0000 0.35607  0.26823  0.33733  Biso   1.000  Zr
  Zr5      1.0000 0.35556  0.77893  0.34174  Biso   1.000  Zr
  Zr6      1.0000 0.35985  0.47886  0.84558  Biso   1.000  Zr
  Zr7      1.0000 0.35471  0.98327  0.83742  Biso   1.000  Zr
  Zr8      1.0000 0.63739  0.02130  0.15310  Biso   1.000  Zr
  Zr9      1.0000 0.63971  0.51960  0.15985  Biso   1.000  Zr
  Zr10     1.0000 0.63984  0.23035  0.65695  Biso   1.000  Zr
  Zr11     1.0000 0.63646  0.72833  0.65669  Biso   1.000  Zr
  Zr12     1.0000 0.87087  0.26398  0.16655  Biso   1.000  Zr
  Zr13     1.0000 0.86038  0.77125  0.16270  Biso   1.000  Zr
  Zr14     1.0000 0.86332  0.47746  0.66626  Biso   1.000  Zr
  Zr15     1.0000 0.85839  0.97837  0.65957  Biso   1.000  Zr
  O1       1.0000 0.04746  0.14637  0.16925  Biso   1.000  O
  O2       1.0000 0.03118  0.66327  0.16796  Biso   1.000  O
  O3       1.0000 0.03009  0.08374  0.65903  Biso   1.000  O
  O4       1.0000 0.03237  0.58782  0.67134  Biso   1.000  O
  O5       1.0000 0.46855  0.41380  0.16631  Biso   1.000  O
  O6       1.0000 0.46762  0.91381  0.15769  Biso   1.000  O
  O7       1.0000 0.46941  0.33730  0.66370  Biso   1.000  O
  O8       1.0000 0.46499  0.83838  0.66187  Biso   1.000  O
  O9       1.0000 0.26415  0.11458  0.54458  Biso   1.000  O
  O10      1.0000 0.27520  0.62654  0.59166  Biso   1.000  O
  O11      1.0000 0.30038  0.14798  0.03567  Biso   1.000  O
  O12      1.0000 0.27585  0.63275  0.09081  Biso   1.000  O
  O13      1.0000 0.22575  0.37289  0.59415  Biso   1.000  O
  O14      1.0000 0.21440  0.87648  0.58829  Biso   1.000  O
  O15      1.0000 0.22096  0.38249  0.09264  Biso   1.000  O
  O16      1.0000 0.21781  0.89296  0.10013  Biso   1.000  O
  O17      1.0000 0.53307  0.16576  0.32939  Biso   1.000  O
  O18      1.0000 0.52962  0.66493  0.33255  Biso   1.000  O
  O19      1.0000 0.53455  0.08300  0.82140  Biso   1.000  O
  O20      1.0000 0.53136  0.58589  0.83455  Biso   1.000  O
  O21      1.0000 0.97317  0.40785  0.34905  Biso   1.000  O
  O22      1.0000 0.97028  0.91180  0.34133  Biso   1.000  O
  O23      1.0000 0.97139  0.33343  0.84963  Biso   1.000  O
  O24      1.0000 0.96514  0.83640  0.84115  Biso   1.000  O
  O25      1.0000 0.77762  0.12289  0.91220  Biso   1.000  O
  O26      1.0000 0.77528  0.62277  0.91311  Biso   1.000  O
  O27      1.0000 0.77634  0.12470  0.40907  Biso   1.000  O
  O28      1.0000 0.77544  0.62465  0.41400  Biso   1.000  O
  O29      1.0000 0.72884  0.37204  0.91701  Biso   1.000  O
  O30      1.0000 0.72254  0.87274  0.91028  Biso   1.000  O
  O31      1.0000 0.72938  0.37418  0.41374  Biso   1.000  O
  O32      1.0000 0.72375  0.87555  0.41037  Biso   1.000  O
