data_image0
_cell_length_a       10.0905
_cell_length_b       5.10987
_cell_length_c       10.4737
_cell_angle_alpha    90.0817
_cell_angle_beta     90.8058
_cell_angle_gamma    89.4568

_symmetry_space_group_name_H-M    "P 1"
_symmetry_int_tables_number       1

loop_
  _symmetry_equiv_pos_as_xyz
  'x, y, z'

loop_
  _atom_site_label
  _atom_site_occupancy
  _atom_site_fract_x
  _atom_site_fract_y
  _atom_site_fract_z
  _atom_site_thermal_displace_type
  _atom_site_B_iso_or_equiv
  _atom_site_type_symbol
  Al1      1.0000 0.12413  0.01897  0.18860  Biso   1.000  Al
  Zr1      1.0000 0.13849  0.04105  0.66903  Biso   1.000  Zr
  Zr2      1.0000 0.13674  0.45474  0.41446  Biso   1.000  Zr
  Zr3      1.0000 0.14355  0.45793  0.92329  Biso   1.000  Zr
  Zr4      1.0000 0.35145  0.55097  0.16998  Biso   1.000  Zr
  Zr5      1.0000 0.35994  0.54492  0.67072  Biso   1.000  Zr
  Zr6      1.0000 0.35528  0.96207  0.41697  Biso   1.000  Zr
  Zr7      1.0000 0.35833  0.96535  0.92533  Biso   1.000  Zr
  Zr8      1.0000 0.64127  0.04015  0.07804  Biso   1.000  Zr
  Zr9      1.0000 0.63636  0.04066  0.57891  Biso   1.000  Zr
  Zr10     1.0000 0.63619  0.45799  0.32713  Biso   1.000  Zr
  Zr11     1.0000 0.64055  0.46036  0.83038  Biso   1.000  Zr
  Zr12     1.0000 0.87167  0.53114  0.08411  Biso   1.000  Zr
  Zr13     1.0000 0.85932  0.53803  0.58044  Biso   1.000  Zr
  Zr14     1.0000 0.85904  0.95620  0.33069  Biso   1.000  Zr
  Zr15     1.0000 0.86366  0.95573  0.83201  Biso   1.000  Zr
  O1       1.0000 0.04903  0.30377  0.09068  Biso   1.000  O
  O2       1.0000 0.03125  0.32515  0.58097  Biso   1.000  O
  O3       1.0000 0.03204  0.15840  0.33298  Biso   1.000  O
  O4       1.0000 0.03364  0.17379  0.83402  Biso   1.000  O
  O5       1.0000 0.47061  0.82655  0.08258  Biso   1.000  O
  O6       1.0000 0.46476  0.83467  0.58282  Biso   1.000  O
  O7       1.0000 0.46290  0.66898  0.33383  Biso   1.000  O
  O8       1.0000 0.46984  0.67730  0.83229  Biso   1.000  O
  O9       1.0000 0.26662  0.23734  0.28040  Biso   1.000  O
  O10      1.0000 0.27466  0.24588  0.78765  Biso   1.000  O
  O11      1.0000 0.30060  0.30558  0.02484  Biso   1.000  O
  O12      1.0000 0.27460  0.25526  0.53879  Biso   1.000  O
  O13      1.0000 0.21434  0.75259  0.29434  Biso   1.000  O
  O14      1.0000 0.22541  0.74781  0.79797  Biso   1.000  O
  O15      1.0000 0.21754  0.80230  0.05421  Biso   1.000  O
  O16      1.0000 0.22190  0.75251  0.54383  Biso   1.000  O
  O17      1.0000 0.53168  0.33110  0.16471  Biso   1.000  O
  O18      1.0000 0.53268  0.33503  0.66493  Biso   1.000  O
  O19      1.0000 0.52939  0.16882  0.41320  Biso   1.000  O
  O20      1.0000 0.53649  0.16633  0.91378  Biso   1.000  O
  O21      1.0000 0.97280  0.82335  0.17037  Biso   1.000  O
  O22      1.0000 0.96830  0.82324  0.66974  Biso   1.000  O
  O23      1.0000 0.96336  0.66258  0.41695  Biso   1.000  O
  O24      1.0000 0.97063  0.66714  0.92362  Biso   1.000  O
  O25      1.0000 0.77998  0.24475  0.95702  Biso   1.000  O
  O26      1.0000 0.77276  0.24632  0.45552  Biso   1.000  O
  O27      1.0000 0.77643  0.24807  0.20550  Biso   1.000  O
  O28      1.0000 0.77597  0.25013  0.70619  Biso   1.000  O
  O29      1.0000 0.72925  0.74340  0.95751  Biso   1.000  O
  O30      1.0000 0.72162  0.74691  0.45626  Biso   1.000  O
  O31      1.0000 0.72799  0.74623  0.20568  Biso   1.000  O
  O32      1.0000 0.72494  0.75243  0.70674  Biso   1.000  O
