data_image0
_cell_length_a       10.0735
_cell_length_b       10.5513
_cell_length_c       5.07158
_cell_angle_alpha    89.697
_cell_angle_beta     90.3975
_cell_angle_gamma    90.2505

_symmetry_space_group_name_H-M    "P 1"
_symmetry_int_tables_number       1

loop_
  _symmetry_equiv_pos_as_xyz
  'x, y, z'

loop_
  _atom_site_label
  _atom_site_occupancy
  _atom_site_fract_x
  _atom_site_fract_y
  _atom_site_fract_z
  _atom_site_thermal_displace_type
  _atom_site_B_iso_or_equiv
  _atom_site_type_symbol
  Zr1      1.0000 0.13769  0.02185  0.24399  Biso   1.000  Zr
  Zr2      1.0000 0.14817  0.21882  0.78317  Biso   1.000  Zr
  Zr3      1.0000 0.36389  0.26012  0.24540  Biso   1.000  Zr
  Zr4      1.0000 0.36618  0.48382  0.74438  Biso   1.000  Zr
  O1       1.0000 0.01273  0.18537  0.43712  Biso   1.000  O
  O2       1.0000 0.03828  0.06212  0.89624  Biso   1.000  O
  O3       1.0000 0.46197  0.43052  0.38697  Biso   1.000  O
  O4       1.0000 0.46009  0.31417  0.88055  Biso   1.000  O
  O5       1.0000 0.27147  0.11430  0.50033  Biso   1.000  O
  O6       1.0000 0.29823  0.11550  0.98522  Biso   1.000  O
  O7       1.0000 0.22747  0.38861  0.00768  Biso   1.000  O
  O8       1.0000 0.22244  0.35905  0.49970  Biso   1.000  O
  Zr5      1.0000 0.13483  0.55229  0.22979  Biso   1.000  Zr
  Zr6      1.0000 0.13474  0.74173  0.75123  Biso   1.000  Zr
  Zr7      1.0000 0.36721  0.76684  0.24541  Biso   1.000  Zr
  Zr8      1.0000 0.36950  0.97528  0.74387  Biso   1.000  Zr
  O9       1.0000 0.02784  0.69067  0.40562  Biso   1.000  O
  O10      1.0000 0.03303  0.57422  0.88238  Biso   1.000  O
  O11      1.0000 0.46821  0.92980  0.38231  Biso   1.000  O
  O12      1.0000 0.47227  0.81421  0.89008  Biso   1.000  O
  O13      1.0000 0.27300  0.62220  0.49132  Biso   1.000  O
  O14      1.0000 0.28075  0.63429  0.97678  Biso   1.000  O
  O15      1.0000 0.23327  0.88143  0.99943  Biso   1.000  O
  O16      1.0000 0.23438  0.86704  0.49520  Biso   1.000  O
  Zr9      1.0000 0.63198  0.00947  0.23795  Biso   1.000  Zr
  Zr10     1.0000 0.62428  0.22859  0.74328  Biso   1.000  Zr
  Zr11     1.0000 0.83751  0.25877  0.25509  Biso   1.000  Zr
  Zr12     1.0000 0.86855  0.48250  0.75127  Biso   1.000  Zr
  O17      1.0000 0.53682  0.18054  0.37682  Biso   1.000  O
  O18      1.0000 0.54198  0.06082  0.87445  Biso   1.000  O
  O19      1.0000 0.97711  0.42804  0.39474  Biso   1.000  O
  O20      1.0000 0.97973  0.31406  0.95716  Biso   1.000  O
  O21      1.0000 0.76072  0.11039  0.49371  Biso   1.000  O
  O22      1.0000 0.76875  0.13215  0.98718  Biso   1.000  O
  O23      1.0000 0.73063  0.38076  0.99809  Biso   1.000  O
  O24      1.0000 0.72801  0.36727  0.50587  Biso   1.000  O
  Zr13     1.0000 0.63058  0.51623  0.24887  Biso   1.000  Zr
  Zr14     1.0000 0.63634  0.72994  0.74549  Biso   1.000  Zr
  Zr15     1.0000 0.86379  0.76901  0.24506  Biso   1.000  Zr
  Zr16     1.0000 0.86960  0.98286  0.74086  Biso   1.000  Zr
  O25      1.0000 0.53744  0.68016  0.38631  Biso   1.000  O
  O26      1.0000 0.53629  0.56262  0.88560  Biso   1.000  O
  O27      1.0000 0.96718  0.93574  0.39244  Biso   1.000  O
  O28      1.0000 0.96596  0.82005  0.89639  Biso   1.000  O
  O29      1.0000 0.77145  0.61104  0.49825  Biso   1.000  O
  O30      1.0000 0.77125  0.63055  0.99674  Biso   1.000  O
  O31      1.0000 0.73318  0.88221  0.99066  Biso   1.000  O
  O32      1.0000 0.73198  0.86315  0.49308  Biso   1.000  O
  Al1      1.0000 0.09525  0.30793  0.25600  Biso   1.000  Al
