data_image0
_cell_length_a       10.0182
_cell_length_b       5.09975
_cell_length_c       10.4637
_cell_angle_alpha    89.7994
_cell_angle_beta     90.4254
_cell_angle_gamma    89.5381

_symmetry_space_group_name_H-M    "P 1"
_symmetry_int_tables_number       1

loop_
  _symmetry_equiv_pos_as_xyz
  'x, y, z'

loop_
  _atom_site_label
  _atom_site_occupancy
  _atom_site_fract_x
  _atom_site_fract_y
  _atom_site_fract_z
  _atom_site_thermal_displace_type
  _atom_site_B_iso_or_equiv
  _atom_site_type_symbol
  As1      1.0000 0.11420  0.03664  0.18454  Biso   1.000  As
  Hf1      1.0000 0.13983  0.46329  0.42085  Biso   1.000  Hf
  Hf2      1.0000 0.35516  0.54611  0.16783  Biso   1.000  Hf
  Hf3      1.0000 0.35944  0.96453  0.41847  Biso   1.000  Hf
  Hf4      1.0000 0.63749  0.04277  0.07804  Biso   1.000  Hf
  Hf5      1.0000 0.63430  0.45815  0.32739  Biso   1.000  Hf
  Hf6      1.0000 0.86288  0.53401  0.07888  Biso   1.000  Hf
  Hf7      1.0000 0.85317  0.95601  0.33276  Biso   1.000  Hf
  O1       1.0000 0.03952  0.31349  0.08688  Biso   1.000  O
  O2       1.0000 0.03240  0.16482  0.32875  Biso   1.000  O
  O3       1.0000 0.46907  0.83081  0.08348  Biso   1.000  O
  O4       1.0000 0.46484  0.67448  0.33242  Biso   1.000  O
  O5       1.0000 0.27433  0.26093  0.29617  Biso   1.000  O
  O6       1.0000 0.29140  0.27574  0.03380  Biso   1.000  O
  O7       1.0000 0.21797  0.75656  0.29330  Biso   1.000  O
  O8       1.0000 0.22376  0.75755  0.04202  Biso   1.000  O
  O9       1.0000 0.53329  0.33470  0.16528  Biso   1.000  O
  O10      1.0000 0.53260  0.16959  0.41585  Biso   1.000  O
  O11      1.0000 0.96758  0.83460  0.16958  Biso   1.000  O
  O12      1.0000 0.96432  0.66932  0.41656  Biso   1.000  O
  O13      1.0000 0.77530  0.24514  0.45598  Biso   1.000  O
  O14      1.0000 0.77644  0.25000  0.20612  Biso   1.000  O
  O15      1.0000 0.72059  0.74519  0.45661  Biso   1.000  O
  O16      1.0000 0.72794  0.74973  0.20594  Biso   1.000  O
  Hf8      1.0000 0.13923  0.04149  0.67092  Biso   1.000  Hf
  Hf9      1.0000 0.14618  0.45502  0.92154  Biso   1.000  Hf
  Hf10     1.0000 0.36207  0.54427  0.67090  Biso   1.000  Hf
  Hf11     1.0000 0.36068  0.95958  0.92333  Biso   1.000  Hf
  Hf12     1.0000 0.63710  0.04141  0.58057  Biso   1.000  Hf
  Hf13     1.0000 0.63964  0.45819  0.82933  Biso   1.000  Hf
  Hf14     1.0000 0.86062  0.53925  0.57985  Biso   1.000  Hf
  Hf15     1.0000 0.86510  0.95432  0.83036  Biso   1.000  Hf
  O17      1.0000 0.03082  0.32073  0.57753  Biso   1.000  O
  O18      1.0000 0.03436  0.17075  0.83207  Biso   1.000  O
  O19      1.0000 0.46518  0.83574  0.58332  Biso   1.000  O
  O20      1.0000 0.46851  0.66961  0.83263  Biso   1.000  O
  O21      1.0000 0.27721  0.24413  0.79029  Biso   1.000  O
  O22      1.0000 0.27602  0.25505  0.54412  Biso   1.000  O
  O23      1.0000 0.22470  0.74472  0.79372  Biso   1.000  O
  O24      1.0000 0.22268  0.75401  0.54256  Biso   1.000  O
  O25      1.0000 0.53485  0.33503  0.66534  Biso   1.000  O
  O26      1.0000 0.53764  0.16360  0.91378  Biso   1.000  O
  O27      1.0000 0.96913  0.82058  0.66962  Biso   1.000  O
  O28      1.0000 0.97046  0.66572  0.92367  Biso   1.000  O
  O29      1.0000 0.78036  0.24585  0.95723  Biso   1.000  O
  O30      1.0000 0.77788  0.25018  0.70627  Biso   1.000  O
  O31      1.0000 0.72666  0.74420  0.95704  Biso   1.000  O
  O32      1.0000 0.72509  0.75240  0.70647  Biso   1.000  O
