data_image0
_cell_length_a       10.0177
_cell_length_b       10.2242
_cell_length_c       10.4537
_cell_angle_alpha    89.8926
_cell_angle_beta     90.2589
_cell_angle_gamma    89.7957

_symmetry_space_group_name_H-M    "P 1"
_symmetry_int_tables_number       1

loop_
  _symmetry_equiv_pos_as_xyz
  'x, y, z'

loop_
  _atom_site_label
  _atom_site_occupancy
  _atom_site_fract_x
  _atom_site_fract_y
  _atom_site_fract_z
  _atom_site_thermal_displace_type
  _atom_site_B_iso_or_equiv
  _atom_site_type_symbol
  As1      1.0000 0.11190  0.02057  0.18645  Biso   1.000  As
  Hf1      1.0000 0.14158  0.23215  0.42138  Biso   1.000  Hf
  Hf2      1.0000 0.35843  0.26868  0.16913  Biso   1.000  Hf
  Hf3      1.0000 0.36110  0.47999  0.42071  Biso   1.000  Hf
  Hf4      1.0000 0.63917  0.02186  0.07758  Biso   1.000  Hf
  Hf5      1.0000 0.63681  0.22989  0.32855  Biso   1.000  Hf
  Hf6      1.0000 0.86239  0.27005  0.08102  Biso   1.000  Hf
  Hf7      1.0000 0.86111  0.47901  0.32898  Biso   1.000  Hf
  O1       1.0000 0.04102  0.15907  0.08945  Biso   1.000  O
  O2       1.0000 0.03231  0.08182  0.33069  Biso   1.000  O
  O3       1.0000 0.46636  0.41572  0.08462  Biso   1.000  O
  O4       1.0000 0.46588  0.33392  0.33490  Biso   1.000  O
  O5       1.0000 0.27415  0.12695  0.29556  Biso   1.000  O
  O6       1.0000 0.29236  0.13790  0.03230  Biso   1.000  O
  O7       1.0000 0.22313  0.37610  0.29518  Biso   1.000  O
  O8       1.0000 0.22100  0.37878  0.04518  Biso   1.000  O
  O9       1.0000 0.53481  0.16719  0.16523  Biso   1.000  O
  O10      1.0000 0.53333  0.08332  0.41497  Biso   1.000  O
  O11      1.0000 0.96721  0.41517  0.16697  Biso   1.000  O
  O12      1.0000 0.96616  0.33277  0.41552  Biso   1.000  O
  O13      1.0000 0.77568  0.12257  0.45625  Biso   1.000  O
  O14      1.0000 0.77742  0.12580  0.20663  Biso   1.000  O
  O15      1.0000 0.72371  0.37347  0.45598  Biso   1.000  O
  O16      1.0000 0.72417  0.37552  0.20540  Biso   1.000  O
  Hf8      1.0000 0.13882  0.02048  0.66974  Biso   1.000  Hf
  Hf9      1.0000 0.14491  0.22595  0.92153  Biso   1.000  Hf
  Hf10     1.0000 0.36211  0.27139  0.67130  Biso   1.000  Hf
  Hf11     1.0000 0.36131  0.47825  0.92209  Biso   1.000  Hf
  Hf12     1.0000 0.63647  0.02082  0.58003  Biso   1.000  Hf
  Hf13     1.0000 0.64011  0.22890  0.82931  Biso   1.000  Hf
  Hf14     1.0000 0.86153  0.27052  0.57896  Biso   1.000  Hf
  Hf15     1.0000 0.86409  0.47665  0.83065  Biso   1.000  Hf
  O17      1.0000 0.03239  0.16281  0.57887  Biso   1.000  O
  O18      1.0000 0.03453  0.08462  0.83284  Biso   1.000  O
  O19      1.0000 0.46634  0.41737  0.58436  Biso   1.000  O
  O20      1.0000 0.46800  0.33386  0.83397  Biso   1.000  O
  O21      1.0000 0.27668  0.12227  0.78987  Biso   1.000  O
  O22      1.0000 0.27707  0.12738  0.54343  Biso   1.000  O
  O23      1.0000 0.22472  0.37262  0.79529  Biso   1.000  O
  O24      1.0000 0.22316  0.37648  0.54454  Biso   1.000  O
  O25      1.0000 0.53440  0.16751  0.66524  Biso   1.000  O
  O26      1.0000 0.53800  0.08154  0.91322  Biso   1.000  O
  O27      1.0000 0.96866  0.41280  0.66828  Biso   1.000  O
  O28      1.0000 0.96930  0.33110  0.92134  Biso   1.000  O
  O29      1.0000 0.77995  0.12363  0.95645  Biso   1.000  O
  O30      1.0000 0.77706  0.12613  0.70534  Biso   1.000  O
  O31      1.0000 0.72559  0.37283  0.95700  Biso   1.000  O
  O32      1.0000 0.72497  0.37621  0.70618  Biso   1.000  O
  Hf16     1.0000 0.13920  0.52184  0.17127  Biso   1.000  Hf
  Hf17     1.0000 0.13726  0.72925  0.42109  Biso   1.000  Hf
  Hf18     1.0000 0.35797  0.77497  0.16873  Biso   1.000  Hf
  Hf19     1.0000 0.35915  0.98081  0.41866  Biso   1.000  Hf
  Hf20     1.0000 0.63727  0.52079  0.07898  Biso   1.000  Hf
  Hf21     1.0000 0.63582  0.72768  0.32771  Biso   1.000  Hf
  Hf22     1.0000 0.86131  0.76860  0.07702  Biso   1.000  Hf
  Hf23     1.0000 0.85209  0.97769  0.33316  Biso   1.000  Hf
  O33      1.0000 0.03429  0.66822  0.08512  Biso   1.000  O
  O34      1.0000 0.03225  0.58427  0.33443  Biso   1.000  O
  O35      1.0000 0.46964  0.91637  0.08368  Biso   1.000  O
  O36      1.0000 0.46420  0.83540  0.33263  Biso   1.000  O
  O37      1.0000 0.27542  0.62643  0.29465  Biso   1.000  O
  O38      1.0000 0.27680  0.62550  0.04486  Biso   1.000  O
  O39      1.0000 0.21825  0.87591  0.29291  Biso   1.000  O
  O40      1.0000 0.22896  0.87348  0.03904  Biso   1.000  O
  O41      1.0000 0.53202  0.66693  0.16500  Biso   1.000  O
  O42      1.0000 0.53301  0.58381  0.41558  Biso   1.000  O
  O43      1.0000 0.96470  0.92066  0.16763  Biso   1.000  O
  O44      1.0000 0.96394  0.83493  0.41606  Biso   1.000  O
  O45      1.0000 0.77578  0.62357  0.45548  Biso   1.000  O
  O46      1.0000 0.77546  0.62579  0.20525  Biso   1.000  O
  O47      1.0000 0.71965  0.87249  0.45620  Biso   1.000  O
  O48      1.0000 0.72626  0.87577  0.20607  Biso   1.000  O
  Hf24     1.0000 0.13915  0.52138  0.67243  Biso   1.000  Hf
  Hf25     1.0000 0.14134  0.73074  0.92100  Biso   1.000  Hf
  Hf26     1.0000 0.36148  0.77163  0.67062  Biso   1.000  Hf
  Hf27     1.0000 0.36086  0.98008  0.92216  Biso   1.000  Hf
  Hf28     1.0000 0.63924  0.52073  0.57957  Biso   1.000  Hf
  Hf29     1.0000 0.63867  0.72899  0.82873  Biso   1.000  Hf
  Hf30     1.0000 0.86017  0.77012  0.57987  Biso   1.000  Hf
  Hf31     1.0000 0.86269  0.97930  0.82881  Biso   1.000  Hf
  O49      1.0000 0.03257  0.66528  0.58414  Biso   1.000  O
  O50      1.0000 0.03449  0.58283  0.83514  Biso   1.000  O
  O51      1.0000 0.46487  0.91728  0.58352  Biso   1.000  O
  O52      1.0000 0.46730  0.83391  0.83289  Biso   1.000  O
  O53      1.0000 0.27739  0.62337  0.79440  Biso   1.000  O
  O54      1.0000 0.27568  0.62640  0.54470  Biso   1.000  O
  O55      1.0000 0.22342  0.87310  0.79213  Biso   1.000  O
  O56      1.0000 0.22267  0.87688  0.54253  Biso   1.000  O
  O57      1.0000 0.53443  0.66672  0.66498  Biso   1.000  O
  O58      1.0000 0.53410  0.58302  0.91536  Biso   1.000  O
  O59      1.0000 0.96639  0.91492  0.66624  Biso   1.000  O
  O60      1.0000 0.96740  0.83409  0.91709  Biso   1.000  O
  O61      1.0000 0.77776  0.62318  0.95643  Biso   1.000  O
  O62      1.0000 0.77766  0.62514  0.70647  Biso   1.000  O
  O63      1.0000 0.72466  0.87323  0.95544  Biso   1.000  O
  O64      1.0000 0.72361  0.87607  0.70563  Biso   1.000  O
