data_image0
_cell_length_a       5.05293
_cell_length_b       10.2423
_cell_length_c       10.4698
_cell_angle_alpha    90.0914
_cell_angle_beta     80.6083
_cell_angle_gamma    89.6059

_symmetry_space_group_name_H-M    "P 1"
_symmetry_int_tables_number       1

loop_
  _symmetry_equiv_pos_as_xyz
  'x, y, z'

loop_
  _atom_site_label
  _atom_site_occupancy
  _atom_site_fract_x
  _atom_site_fract_y
  _atom_site_fract_z
  _atom_site_thermal_displace_type
  _atom_site_B_iso_or_equiv
  _atom_site_type_symbol
  As1      1.0000 0.22088  0.02334  0.15901  Biso   1.000  As
  Hf1      1.0000 0.28256  0.23037  0.39455  Biso   1.000  Hf
  Hf2      1.0000 0.71606  0.26784  0.10441  Biso   1.000  Hf
  Hf3      1.0000 0.72211  0.47803  0.35263  Biso   1.000  Hf
  O1       1.0000 0.08301  0.16080  0.08111  Biso   1.000  O
  O2       1.0000 0.07019  0.07978  0.32302  Biso   1.000  O
  O3       1.0000 0.93017  0.41492  0.17131  Biso   1.000  O
  O4       1.0000 0.92915  0.33047  0.41996  Biso   1.000  O
  O5       1.0000 0.55151  0.12991  0.24251  Biso   1.000  O
  O6       1.0000 0.55380  0.12031  0.48948  Biso   1.000  O
  O7       1.0000 0.45111  0.38060  0.01018  Biso   1.000  O
  O8       1.0000 0.44541  0.37097  0.25879  Biso   1.000  O
  Hf4      1.0000 0.27517  0.02054  0.64629  Biso   1.000  Hf
  Hf5      1.0000 0.28869  0.22746  0.89413  Biso   1.000  Hf
  Hf6      1.0000 0.72552  0.27132  0.60354  Biso   1.000  Hf
  Hf7      1.0000 0.72981  0.47780  0.85593  Biso   1.000  Hf
  O9       1.0000 0.06964  0.16452  0.57348  Biso   1.000  O
  O10      1.0000 0.07522  0.08314  0.82773  Biso   1.000  O
  O11      1.0000 0.93641  0.41505  0.67302  Biso   1.000  O
  O12      1.0000 0.94161  0.33410  0.92653  Biso   1.000  O
  O13      1.0000 0.55411  0.12867  0.73565  Biso   1.000  O
  O14      1.0000 0.57855  0.13211  0.97873  Biso   1.000  O
  O15      1.0000 0.44692  0.37779  0.50913  Biso   1.000  O
  O16      1.0000 0.45443  0.37100  0.76007  Biso   1.000  O
  Hf8      1.0000 0.27319  0.52155  0.14490  Biso   1.000  Hf
  Hf9      1.0000 0.27507  0.72647  0.39604  Biso   1.000  Hf
  Hf10     1.0000 0.71406  0.77199  0.10281  Biso   1.000  Hf
  Hf11     1.0000 0.70398  0.97696  0.35651  Biso   1.000  Hf
  O17      1.0000 0.06939  0.67117  0.08053  Biso   1.000  O
  O18      1.0000 0.06859  0.58065  0.32901  Biso   1.000  O
  O19      1.0000 0.92418  0.92488  0.17004  Biso   1.000  O
  O20      1.0000 0.92798  0.83296  0.42040  Biso   1.000  O
  O21      1.0000 0.55066  0.62665  0.23931  Biso   1.000  O
  O22      1.0000 0.55356  0.62000  0.49053  Biso   1.000  O
  O23      1.0000 0.44838  0.88170  0.00751  Biso   1.000  O
  O24      1.0000 0.45336  0.86537  0.26203  Biso   1.000  O
  Hf12     1.0000 0.28087  0.52169  0.64727  Biso   1.000  Hf
  Hf13     1.0000 0.27866  0.73206  0.89647  Biso   1.000  Hf
  Hf14     1.0000 0.72261  0.77135  0.60506  Biso   1.000  Hf
  Hf15     1.0000 0.72150  0.98177  0.85566  Biso   1.000  Hf
  O25      1.0000 0.07026  0.66666  0.57927  Biso   1.000  O
  O26      1.0000 0.07359  0.58313  0.82955  Biso   1.000  O
  O27      1.0000 0.92909  0.91727  0.67180  Biso   1.000  O
  O28      1.0000 0.92869  0.83400  0.92263  Biso   1.000  O
  O29      1.0000 0.55610  0.62900  0.74084  Biso   1.000  O
  O30      1.0000 0.55402  0.62270  0.99081  Biso   1.000  O
  O31      1.0000 0.44265  0.87777  0.51058  Biso   1.000  O
  O32      1.0000 0.44750  0.87141  0.75926  Biso   1.000  O
