data_image0
_cell_length_a       10.3509
_cell_length_b       10.4158
_cell_length_c       5.07809
_cell_angle_alpha    85.6241
_cell_angle_beta     94.0259
_cell_angle_gamma    91.2259

_symmetry_space_group_name_H-M    "P 1"
_symmetry_int_tables_number       1

loop_
  _symmetry_equiv_pos_as_xyz
  'x, y, z'

loop_
  _atom_site_label
  _atom_site_occupancy
  _atom_site_fract_x
  _atom_site_fract_y
  _atom_site_fract_z
  _atom_site_thermal_displace_type
  _atom_site_B_iso_or_equiv
  _atom_site_type_symbol
  Hf1      1.0000 0.16890  0.96426  0.22000  Biso   1.000  Hf
  Hf2      1.0000 0.15094  0.22593  0.61721  Biso   1.000  Hf
  Hf3      1.0000 0.39844  0.26817  0.23652  Biso   1.000  Hf
  Hf4      1.0000 0.39796  0.00712  0.74661  Biso   1.000  Hf
  O1       1.0000 0.88898  0.17816  0.01813  Biso   1.000  O
  O2       1.0000 0.97926  0.12764  0.56429  Biso   1.000  O
  O3       1.0000 0.01496  0.38649  0.56940  Biso   1.000  O
  O4       1.0000 0.95062  0.42795  0.08056  Biso   1.000  O
  O5       1.0000 0.26791  0.12234  0.39057  Biso   1.000  O
  O6       1.0000 0.22902  0.05576  0.86827  Biso   1.000  O
  O7       1.0000 0.28144  0.30727  0.88595  Biso   1.000  O
  O8       1.0000 0.25183  0.38283  0.39946  Biso   1.000  O
  Hf5      1.0000 0.10718  0.51755  0.25268  Biso   1.000  Hf
  Hf6      1.0000 0.15526  0.73253  0.73226  Biso   1.000  Hf
  Hf7      1.0000 0.40903  0.75518  0.31099  Biso   1.000  Hf
  Hf8      1.0000 0.35646  0.47633  0.71358  Biso   1.000  Hf
  O9       1.0000 0.00396  0.66909  0.98791  Biso   1.000  O
  O10      1.0000 0.00924  0.62900  0.49075  Biso   1.000  O
  O11      1.0000 0.04622  0.86455  0.49604  Biso   1.000  O
  O12      1.0000 0.99569  0.93218  0.02748  Biso   1.000  O
  O13      1.0000 0.25897  0.62972  0.46848  Biso   1.000  O
  O14      1.0000 0.21965  0.55592  0.93513  Biso   1.000  O
  O15      1.0000 0.24262  0.80843  0.05784  Biso   1.000  O
  O16      1.0000 0.29103  0.87003  0.53892  Biso   1.000  O
  Hf9      1.0000 0.62007  0.01263  0.29159  Biso   1.000  Hf
  Hf10     1.0000 0.63584  0.24393  0.77608  Biso   1.000  Hf
  Hf11     1.0000 0.86784  0.28121  0.34658  Biso   1.000  Hf
  Hf12     1.0000 0.85374  0.01026  0.76912  Biso   1.000  Hf
  O17      1.0000 0.48540  0.16269  0.98690  Biso   1.000  O
  O18      1.0000 0.50375  0.12110  0.49812  Biso   1.000  O
  O19      1.0000 0.50467  0.36048  0.54113  Biso   1.000  O
  O20      1.0000 0.46826  0.44004  0.05430  Biso   1.000  O
  O21      1.0000 0.73843  0.15065  0.50549  Biso   1.000  O
  O22      1.0000 0.68919  0.05694  0.93922  Biso   1.000  O
  O23      1.0000 0.69204  0.33054  0.11135  Biso   1.000  O
  O24      1.0000 0.75746  0.39947  0.57376  Biso   1.000  O
  Hf13     1.0000 0.62523  0.50390  0.27162  Biso   1.000  Hf
  Hf14     1.0000 0.64793  0.72001  0.76680  Biso   1.000  Hf
  Hf15     1.0000 0.90214  0.78185  0.26315  Biso   1.000  Hf
  Hf16     1.0000 0.88993  0.52508  0.74293  Biso   1.000  Hf
  O25      1.0000 0.53555  0.67913  0.07682  Biso   1.000  O
  O26      1.0000 0.50549  0.60456  0.55456  Biso   1.000  O
  O27      1.0000 0.53538  0.86466  0.56343  Biso   1.000  O
  O28      1.0000 0.46851  0.91944  0.08862  Biso   1.000  O
  O29      1.0000 0.76268  0.65324  0.47984  Biso   1.000  O
  O30      1.0000 0.74224  0.57000  0.97722  Biso   1.000  O
  O31      1.0000 0.77959  0.83033  0.94124  Biso   1.000  O
  O32      1.0000 0.78483  0.91555  0.43357  Biso   1.000  O
  As1      1.0000 0.06061  0.21293  0.07580  Biso   1.000  As
