data_image0
_cell_length_a       10.1982
_cell_length_b       10.2596
_cell_length_c       10.5491
_cell_angle_alpha    89.8054
_cell_angle_beta     79.5829
_cell_angle_gamma    89.67

_symmetry_space_group_name_H-M    "P 1"
_symmetry_int_tables_number       1

loop_
  _symmetry_equiv_pos_as_xyz
  'x, y, z'

loop_
  _atom_site_label
  _atom_site_occupancy
  _atom_site_fract_x
  _atom_site_fract_y
  _atom_site_fract_z
  _atom_site_thermal_displace_type
  _atom_site_B_iso_or_equiv
  _atom_site_type_symbol
  Hf1      1.0000 0.13031  0.01839  0.14486  Biso   1.000  Hf
  Hf2      1.0000 0.13949  0.22624  0.39267  Biso   1.000  Hf
  Hf3      1.0000 0.34538  0.26198  0.09423  Biso   1.000  Hf
  Hf4      1.0000 0.35872  0.48137  0.35477  Biso   1.000  Hf
  O1       1.0000 0.02897  0.16502  0.07641  Biso   1.000  O
  O2       1.0000 0.02830  0.08390  0.32902  Biso   1.000  O
  O3       1.0000 0.46583  0.42615  0.16795  Biso   1.000  O
  O4       1.0000 0.48158  0.36701  0.45008  Biso   1.000  O
  O5       1.0000 0.26229  0.11807  0.23497  Biso   1.000  O
  O6       1.0000 0.27769  0.12155  0.48667  Biso   1.000  O
  O7       1.0000 0.21670  0.38039  0.00590  Biso   1.000  O
  O8       1.0000 0.22055  0.37123  0.25624  Biso   1.000  O
  Hf5      1.0000 0.13795  0.02122  0.64592  Biso   1.000  Hf
  Hf6      1.0000 0.13175  0.22887  0.89295  Biso   1.000  Hf
  Hf7      1.0000 0.36171  0.27457  0.60583  Biso   1.000  Hf
  Hf8      1.0000 0.35998  0.47789  0.85665  Biso   1.000  Hf
  O9       1.0000 0.03617  0.16487  0.57662  Biso   1.000  O
  O10      1.0000 0.02911  0.08595  0.82559  Biso   1.000  O
  O11      1.0000 0.46977  0.40739  0.68689  Biso   1.000  O
  O12      1.0000 0.46477  0.33672  0.93007  Biso   1.000  O
  O13      1.0000 0.27200  0.12829  0.73784  Biso   1.000  O
  O14      1.0000 0.26642  0.12118  0.98474  Biso   1.000  O
  O15      1.0000 0.22613  0.37692  0.50795  Biso   1.000  O
  O16      1.0000 0.22370  0.37201  0.75914  Biso   1.000  O
  Hf9      1.0000 0.13921  0.52206  0.14582  Biso   1.000  Hf
  Hf10     1.0000 0.13702  0.72828  0.39754  Biso   1.000  Hf
  Hf11     1.0000 0.36042  0.77226  0.10511  Biso   1.000  Hf
  Hf12     1.0000 0.35562  0.97260  0.35521  Biso   1.000  Hf
  O17      1.0000 0.03248  0.66581  0.07702  Biso   1.000  O
  O18      1.0000 0.03574  0.58727  0.32583  Biso   1.000  O
  O19      1.0000 0.46590  0.90977  0.17847  Biso   1.000  O
  O20      1.0000 0.46250  0.83236  0.42653  Biso   1.000  O
  O21      1.0000 0.27670  0.62801  0.24129  Biso   1.000  O
  O22      1.0000 0.27342  0.62108  0.49166  Biso   1.000  O
  O23      1.0000 0.22335  0.87825  0.01053  Biso   1.000  O
  O24      1.0000 0.22026  0.86786  0.26047  Biso   1.000  O
  Hf13     1.0000 0.13793  0.52166  0.64735  Biso   1.000  Hf
  Hf14     1.0000 0.13735  0.72798  0.89723  Biso   1.000  Hf
  Hf15     1.0000 0.36046  0.77070  0.60596  Biso   1.000  Hf
  Hf16     1.0000 0.36071  0.97870  0.85246  Biso   1.000  Hf
  O25      1.0000 0.03065  0.66317  0.57793  Biso   1.000  O
  O26      1.0000 0.03207  0.58559  0.82760  Biso   1.000  O
  O27      1.0000 0.46645  0.91224  0.67394  Biso   1.000  O
  O28      1.0000 0.46674  0.83900  0.92497  Biso   1.000  O
  O29      1.0000 0.27444  0.62725  0.74109  Biso   1.000  O
  O30      1.0000 0.27575  0.62257  0.99154  Biso   1.000  O
  O31      1.0000 0.22119  0.87739  0.51167  Biso   1.000  O
  O32      1.0000 0.22372  0.87152  0.76133  Biso   1.000  O
  Hf17     1.0000 0.63842  0.01864  0.14781  Biso   1.000  Hf
  Hf18     1.0000 0.65175  0.23802  0.40834  Biso   1.000  Hf
  Hf19     1.0000 0.85766  0.27376  0.10990  Biso   1.000  Hf
  Hf20     1.0000 0.86683  0.48161  0.35772  Biso   1.000  Hf
  O33      1.0000 0.51557  0.13300  0.05251  Biso   1.000  O
  O34      1.0000 0.53130  0.07385  0.33462  Biso   1.000  O
  O35      1.0000 0.96884  0.41610  0.17355  Biso   1.000  O
  O36      1.0000 0.96818  0.33498  0.42616  Biso   1.000  O
  O37      1.0000 0.77658  0.12877  0.24633  Biso   1.000  O
  O38      1.0000 0.78044  0.11961  0.49667  Biso   1.000  O
  O39      1.0000 0.71946  0.37844  0.01591  Biso   1.000  O
  O40      1.0000 0.73486  0.38193  0.26761  Biso   1.000  O
  Hf21     1.0000 0.63716  0.02211  0.64593  Biso   1.000  Hf
  Hf22     1.0000 0.63543  0.22543  0.89674  Biso   1.000  Hf
  Hf23     1.0000 0.86539  0.27113  0.60963  Biso   1.000  Hf
  Hf24     1.0000 0.85920  0.47878  0.85666  Biso   1.000  Hf
  O41      1.0000 0.53237  0.16328  0.57251  Biso   1.000  O
  O42      1.0000 0.52738  0.09260  0.81570  Biso   1.000  O
  O43      1.0000 0.96804  0.41405  0.67698  Biso   1.000  O
  O44      1.0000 0.96098  0.33512  0.92595  Biso   1.000  O
  O45      1.0000 0.77344  0.12799  0.74344  Biso   1.000  O
  O46      1.0000 0.77101  0.12308  0.99462  Biso   1.000  O
  O47      1.0000 0.73072  0.37881  0.51784  Biso   1.000  O
  O48      1.0000 0.72514  0.37171  0.76473  Biso   1.000  O
  Hf25     1.0000 0.64152  0.52741  0.14737  Biso   1.000  Hf
  Hf26     1.0000 0.63672  0.72774  0.39747  Biso   1.000  Hf
  Hf27     1.0000 0.86011  0.77172  0.10504  Biso   1.000  Hf
  Hf28     1.0000 0.85793  0.97794  0.35676  Biso   1.000  Hf
  O49      1.0000 0.53464  0.66763  0.07604  Biso   1.000  O
  O50      1.0000 0.53124  0.59023  0.32411  Biso   1.000  O
  O51      1.0000 0.96139  0.91273  0.17674  Biso   1.000  O
  O52      1.0000 0.96466  0.83419  0.42555  Biso   1.000  O
  O53      1.0000 0.77688  0.63214  0.24211  Biso   1.000  O
  O54      1.0000 0.77379  0.62174  0.49204  Biso   1.000  O
  O55      1.0000 0.72371  0.87892  0.01092  Biso   1.000  O
  O56      1.0000 0.72045  0.87199  0.26129  Biso   1.000  O
  Hf29     1.0000 0.63643  0.52129  0.65012  Biso   1.000  Hf
  Hf30     1.0000 0.63668  0.72930  0.89662  Biso   1.000  Hf
  Hf31     1.0000 0.85979  0.77201  0.60535  Biso   1.000  Hf
  Hf32     1.0000 0.85921  0.97833  0.85523  Biso   1.000  Hf
  O57      1.0000 0.53039  0.66100  0.57761  Biso   1.000  O
  O58      1.0000 0.53069  0.58776  0.82863  Biso   1.000  O
  O59      1.0000 0.96507  0.91441  0.67497  Biso   1.000  O
  O60      1.0000 0.96649  0.83683  0.92465  Biso   1.000  O
  O61      1.0000 0.77342  0.62848  0.74124  Biso   1.000  O
  O62      1.0000 0.77595  0.62261  0.99091  Biso   1.000  O
  O63      1.0000 0.72139  0.87742  0.51104  Biso   1.000  O
  O64      1.0000 0.72270  0.87274  0.76149  Biso   1.000  O
  As1      1.0000 0.49856  0.25002  0.25129  Biso   1.000  As
