data_image0
_cell_length_a       10.0054
_cell_length_b       10.187
_cell_length_c       5.00373
_cell_angle_alpha    90
_cell_angle_beta     89.9999
_cell_angle_gamma    90

_symmetry_space_group_name_H-M    "P 1"
_symmetry_int_tables_number       1

loop_
  _symmetry_equiv_pos_as_xyz
  'x, y, z'

loop_
  _atom_site_label
  _atom_site_occupancy
  _atom_site_fract_x
  _atom_site_fract_y
  _atom_site_fract_z
  _atom_site_thermal_displace_type
  _atom_site_B_iso_or_equiv
  _atom_site_type_symbol
  As1      1.0000 0.12491  0.00005  0.24982  Biso   1.000  As
  Hf1      1.0000 0.12491  0.25290  0.74982  Biso   1.000  Hf
  Hf2      1.0000 0.37466  0.25033  0.25870  Biso   1.000  Hf
  Hf3      1.0000 0.37293  0.00005  0.74982  Biso   1.000  Hf
  O1       1.0000 0.98273  0.15225  0.95536  Biso   1.000  O
  O2       1.0000 0.01060  0.09950  0.47019  Biso   1.000  O
  O3       1.0000 0.99893  0.35093  0.49587  Biso   1.000  O
  O4       1.0000 0.00144  0.39915  0.99746  Biso   1.000  O
  O5       1.0000 0.26708  0.15225  0.54427  Biso   1.000  O
  O6       1.0000 0.23922  0.09950  0.02944  Biso   1.000  O
  O7       1.0000 0.25089  0.35093  0.00376  Biso   1.000  O
  O8       1.0000 0.24838  0.39915  0.50218  Biso   1.000  O
  Hf4      1.0000 0.12491  0.50005  0.24982  Biso   1.000  Hf
  Hf5      1.0000 0.12491  0.74721  0.74982  Biso   1.000  Hf
  Hf6      1.0000 0.37466  0.74977  0.24094  Biso   1.000  Hf
  Hf7      1.0000 0.37766  0.50005  0.74982  Biso   1.000  Hf
  O9       1.0000 0.99892  0.64918  0.00376  Biso   1.000  O
  O10      1.0000 0.00143  0.60095  0.50217  Biso   1.000  O
  O11      1.0000 0.98274  0.84785  0.54427  Biso   1.000  O
  O12      1.0000 0.01060  0.90061  0.02944  Biso   1.000  O
  O13      1.0000 0.25089  0.64918  0.49588  Biso   1.000  O
  O14      1.0000 0.24838  0.60096  0.99746  Biso   1.000  O
  O15      1.0000 0.26708  0.84785  0.95536  Biso   1.000  O
  O16      1.0000 0.23922  0.90061  0.47020  Biso   1.000  O
  Hf8      1.0000 0.62491  0.00005  0.24982  Biso   1.000  Hf
  Hf9      1.0000 0.62491  0.24708  0.74982  Biso   1.000  Hf
  Hf10     1.0000 0.87516  0.25033  0.24094  Biso   1.000  Hf
  Hf11     1.0000 0.87689  0.00005  0.74982  Biso   1.000  Hf
  O17      1.0000 0.48746  0.14634  0.98753  Biso   1.000  O
  O18      1.0000 0.50868  0.10436  0.49663  Biso   1.000  O
  O19      1.0000 0.49856  0.35426  0.50596  Biso   1.000  O
  O20      1.0000 0.50110  0.39566  0.00408  Biso   1.000  O
  O21      1.0000 0.76236  0.14633  0.51210  Biso   1.000  O
  O22      1.0000 0.74113  0.10436  0.00301  Biso   1.000  O
  O23      1.0000 0.75126  0.35427  0.99368  Biso   1.000  O
  O24      1.0000 0.74872  0.39567  0.49555  Biso   1.000  O
  Hf12     1.0000 0.62491  0.50005  0.24982  Biso   1.000  Hf
  Hf13     1.0000 0.62491  0.75303  0.74982  Biso   1.000  Hf
  Hf14     1.0000 0.87516  0.74977  0.25870  Biso   1.000  Hf
  Hf15     1.0000 0.87215  0.50005  0.74982  Biso   1.000  Hf
  O25      1.0000 0.49855  0.64584  0.99367  Biso   1.000  O
  O26      1.0000 0.50110  0.60444  0.49556  Biso   1.000  O
  O27      1.0000 0.48746  0.85377  0.51210  Biso   1.000  O
  O28      1.0000 0.50868  0.89574  0.00300  Biso   1.000  O
  O29      1.0000 0.75126  0.64584  0.50596  Biso   1.000  O
  O30      1.0000 0.74872  0.60444  0.00408  Biso   1.000  O
  O31      1.0000 0.76236  0.85377  0.98753  Biso   1.000  O
  O32      1.0000 0.74113  0.89575  0.49663  Biso   1.000  O
