data_image0
_cell_length_a       4.97345
_cell_length_b       10.3726
_cell_length_c       9.99694
_cell_angle_alpha    90.1858
_cell_angle_beta     89.3686
_cell_angle_gamma    89.8698

_symmetry_space_group_name_H-M    "P 1"
_symmetry_int_tables_number       1

loop_
  _symmetry_equiv_pos_as_xyz
  'x, y, z'

loop_
  _atom_site_label
  _atom_site_occupancy
  _atom_site_fract_x
  _atom_site_fract_y
  _atom_site_fract_z
  _atom_site_thermal_displace_type
  _atom_site_B_iso_or_equiv
  _atom_site_type_symbol
  As1      1.0000 0.21814  0.02687  0.10829  Biso   1.000  As
  Hf1      1.0000 0.28014  0.23044  0.37504  Biso   1.000  Hf
  Hf2      1.0000 0.72445  0.26622  0.12622  Biso   1.000  Hf
  Hf3      1.0000 0.73705  0.48230  0.37662  Biso   1.000  Hf
  O1       1.0000 0.09311  0.18302  0.18225  Biso   1.000  O
  O2       1.0000 0.07636  0.06580  0.44269  Biso   1.000  O
  O3       1.0000 0.93027  0.42940  0.19488  Biso   1.000  O
  O4       1.0000 0.93256  0.31398  0.44339  Biso   1.000  O
  O5       1.0000 0.57392  0.12830  0.25703  Biso   1.000  O
  O6       1.0000 0.54072  0.13094  0.50342  Biso   1.000  O
  O7       1.0000 0.46254  0.38075  0.49983  Biso   1.000  O
  O8       1.0000 0.45526  0.37001  0.25003  Biso   1.000  O
  Hf4      1.0000 0.26235  0.01552  0.62606  Biso   1.000  Hf
  Hf5      1.0000 0.26885  0.23720  0.87480  Biso   1.000  Hf
  Hf6      1.0000 0.73463  0.26568  0.62515  Biso   1.000  Hf
  Hf7      1.0000 0.73134  0.48423  0.87501  Biso   1.000  Hf
  O9       1.0000 0.06963  0.18361  0.69739  Biso   1.000  O
  O10      1.0000 0.06317  0.06454  0.94870  Biso   1.000  O
  O11      1.0000 0.92810  0.43431  0.69316  Biso   1.000  O
  O12      1.0000 0.92191  0.31409  0.94097  Biso   1.000  O
  O13      1.0000 0.53552  0.11695  0.75104  Biso   1.000  O
  O14      1.0000 0.53004  0.13227  0.99997  Biso   1.000  O
  O15      1.0000 0.45770  0.38250  0.00030  Biso   1.000  O
  O16      1.0000 0.45855  0.36795  0.74950  Biso   1.000  O
  Hf8      1.0000 0.26842  0.51676  0.12875  Biso   1.000  Hf
  Hf9      1.0000 0.27762  0.73500  0.37677  Biso   1.000  Hf
  Hf10     1.0000 0.73315  0.76303  0.12451  Biso   1.000  Hf
  Hf11     1.0000 0.73088  0.98521  0.37496  Biso   1.000  Hf
  O17      1.0000 0.07623  0.68645  0.19602  Biso   1.000  O
  O18      1.0000 0.07810  0.56479  0.44341  Biso   1.000  O
  O19      1.0000 0.93693  0.94041  0.18161  Biso   1.000  O
  O20      1.0000 0.93951  0.81873  0.44791  Biso   1.000  O
  O21      1.0000 0.54558  0.61284  0.24904  Biso   1.000  O
  O22      1.0000 0.54654  0.63265  0.50013  Biso   1.000  O
  O23      1.0000 0.46373  0.88322  0.50332  Biso   1.000  O
  O24      1.0000 0.50035  0.85762  0.25907  Biso   1.000  O
  Hf12     1.0000 0.26907  0.51728  0.62456  Biso   1.000  Hf
  Hf13     1.0000 0.26178  0.73262  0.87771  Biso   1.000  Hf
  Hf14     1.0000 0.73441  0.76795  0.62625  Biso   1.000  Hf
  Hf15     1.0000 0.71112  0.98138  0.87821  Biso   1.000  Hf
  O25      1.0000 0.07155  0.68379  0.69510  Biso   1.000  O
  O26      1.0000 0.06712  0.56554  0.94725  Biso   1.000  O
  O27      1.0000 0.92200  0.93547  0.69759  Biso   1.000  O
  O28      1.0000 0.91356  0.81558  0.94006  Biso   1.000  O
  O29      1.0000 0.53886  0.61787  0.75032  Biso   1.000  O
  O30      1.0000 0.53672  0.63172  0.00009  Biso   1.000  O
  O31      1.0000 0.44090  0.88043  0.00402  Biso   1.000  O
  O32      1.0000 0.45217  0.86783  0.75235  Biso   1.000  O
