data_image0
_cell_length_a       10.1301
_cell_length_b       5.15176
_cell_length_c       10.4836
_cell_angle_alpha    89.5785
_cell_angle_beta     91.6078
_cell_angle_gamma    90.047

_symmetry_space_group_name_H-M    "P 1"
_symmetry_int_tables_number       1

loop_
  _symmetry_equiv_pos_as_xyz
  'x, y, z'

loop_
  _atom_site_label
  _atom_site_occupancy
  _atom_site_fract_x
  _atom_site_fract_y
  _atom_site_fract_z
  _atom_site_thermal_displace_type
  _atom_site_B_iso_or_equiv
  _atom_site_type_symbol
  Hf1      1.0000 0.13278  0.04133  0.17648  Biso   1.000  Hf
  Hf2      1.0000 0.13961  0.45306  0.42646  Biso   1.000  Hf
  Hf3      1.0000 0.34748  0.54600  0.18491  Biso   1.000  Hf
  Hf4      1.0000 0.36550  0.95229  0.42294  Biso   1.000  Hf
  Hf5      1.0000 0.63570  0.02790  0.08032  Biso   1.000  Hf
  Hf6      1.0000 0.63926  0.45947  0.33131  Biso   1.000  Hf
  Hf7      1.0000 0.86206  0.53904  0.07623  Biso   1.000  Hf
  Hf8      1.0000 0.86114  0.95743  0.32749  Biso   1.000  Hf
  O1       1.0000 0.03175  0.33278  0.08629  Biso   1.000  O
  O2       1.0000 0.03028  0.16880  0.33743  Biso   1.000  O
  O3       1.0000 0.44870  0.89959  0.13686  Biso   1.000  O
  O4       1.0000 0.46157  0.63973  0.34998  Biso   1.000  O
  O5       1.0000 0.27018  0.25003  0.30088  Biso   1.000  O
  O6       1.0000 0.26651  0.24209  0.05211  Biso   1.000  O
  O7       1.0000 0.21855  0.75111  0.30481  Biso   1.000  O
  O8       1.0000 0.21396  0.75240  0.05534  Biso   1.000  O
  O9       1.0000 0.53109  0.35715  0.16650  Biso   1.000  O
  O10      1.0000 0.53806  0.15268  0.41095  Biso   1.000  O
  O11      1.0000 0.96291  0.83199  0.16793  Biso   1.000  O
  O12      1.0000 0.96933  0.66610  0.41748  Biso   1.000  O
  O13      1.0000 0.77844  0.24806  0.45315  Biso   1.000  O
  O14      1.0000 0.77148  0.24438  0.20233  Biso   1.000  O
  O15      1.0000 0.72858  0.74634  0.45438  Biso   1.000  O
  O16      1.0000 0.72325  0.74061  0.20564  Biso   1.000  O
  Hf9      1.0000 0.14751  0.03505  0.67517  Biso   1.000  Hf
  Hf10     1.0000 0.14195  0.45935  0.92472  Biso   1.000  Hf
  Hf11     1.0000 0.36752  0.53546  0.67156  Biso   1.000  Hf
  Hf12     1.0000 0.35286  0.96335  0.93685  Biso   1.000  Hf
  Hf13     1.0000 0.64379  0.03484  0.57470  Biso   1.000  Hf
  Hf14     1.0000 0.65778  0.45818  0.81394  Biso   1.000  Hf
  Hf15     1.0000 0.87135  0.54039  0.57721  Biso   1.000  Hf
  Hf16     1.0000 0.87350  0.96325  0.82909  Biso   1.000  Hf
  O17      1.0000 0.04052  0.32758  0.58806  Biso   1.000  O
  O18      1.0000 0.04588  0.15972  0.83787  Biso   1.000  O
  O19      1.0000 0.47374  0.82597  0.58311  Biso   1.000  O
  O20      1.0000 0.48397  0.68128  0.81718  Biso   1.000  O
  O21      1.0000 0.28387  0.24861  0.79931  Biso   1.000  O
  O22      1.0000 0.28085  0.24157  0.54800  Biso   1.000  O
  O23      1.0000 0.23424  0.74207  0.80266  Biso   1.000  O
  O24      1.0000 0.22964  0.74458  0.55133  Biso   1.000  O
  O25      1.0000 0.54062  0.32031  0.66445  Biso   1.000  O
  O26      1.0000 0.52966  0.13945  0.92064  Biso   1.000  O
  O27      1.0000 0.97675  0.82785  0.66717  Biso   1.000  O
  O28      1.0000 0.97295  0.65999  0.91430  Biso   1.000  O
  O29      1.0000 0.78105  0.25973  0.94739  Biso   1.000  O
  O30      1.0000 0.78705  0.24295  0.69842  Biso   1.000  O
  O31      1.0000 0.74689  0.78108  0.95332  Biso   1.000  O
  O32      1.0000 0.73692  0.74635  0.70215  Biso   1.000  O
  As1      1.0000 0.50979  0.56128  0.99851  Biso   1.000  As
