data_image0
_cell_length_a       10.1084
_cell_length_b       10.2294
_cell_length_c       5.23454
_cell_angle_alpha    90.0107
_cell_angle_beta     80.6221
_cell_angle_gamma    89.5678

_symmetry_space_group_name_H-M    "P 1"
_symmetry_int_tables_number       1

loop_
  _symmetry_equiv_pos_as_xyz
  'x, y, z'

loop_
  _atom_site_label
  _atom_site_occupancy
  _atom_site_fract_x
  _atom_site_fract_y
  _atom_site_fract_z
  _atom_site_thermal_displace_type
  _atom_site_B_iso_or_equiv
  _atom_site_type_symbol
  As1      1.0000 0.11375  0.01898  0.31979  Biso   1.000  As
  Hf1      1.0000 0.14601  0.22742  0.78643  Biso   1.000  Hf
  Hf2      1.0000 0.35928  0.26910  0.20489  Biso   1.000  Hf
  Hf3      1.0000 0.36151  0.47973  0.70719  Biso   1.000  Hf
  O1       1.0000 0.03947  0.15350  0.14924  Biso   1.000  O
  O2       1.0000 0.03386  0.08219  0.64067  Biso   1.000  O
  O3       1.0000 0.46469  0.41744  0.34203  Biso   1.000  O
  O4       1.0000 0.46830  0.33666  0.84402  Biso   1.000  O
  O5       1.0000 0.27265  0.12833  0.47225  Biso   1.000  O
  O6       1.0000 0.28979  0.13255  0.95214  Biso   1.000  O
  O7       1.0000 0.22265  0.38039  0.01690  Biso   1.000  O
  O8       1.0000 0.22515  0.37143  0.51824  Biso   1.000  O
  Hf4      1.0000 0.14043  0.52221  0.29231  Biso   1.000  Hf
  Hf5      1.0000 0.13930  0.73104  0.79160  Biso   1.000  Hf
  Hf6      1.0000 0.35847  0.77649  0.20628  Biso   1.000  Hf
  Hf7      1.0000 0.35818  0.98165  0.70605  Biso   1.000  Hf
  O9       1.0000 0.03486  0.66818  0.15971  Biso   1.000  O
  O10      1.0000 0.03574  0.58195  0.65926  Biso   1.000  O
  O11      1.0000 0.46506  0.91834  0.34340  Biso   1.000  O
  O12      1.0000 0.46531  0.83441  0.84258  Biso   1.000  O
  O13      1.0000 0.27635  0.63091  0.47961  Biso   1.000  O
  O14      1.0000 0.27638  0.62245  0.98066  Biso   1.000  O
  O15      1.0000 0.22381  0.88237  0.00999  Biso   1.000  O
  O16      1.0000 0.22015  0.87169  0.51768  Biso   1.000  O
  Hf8      1.0000 0.63699  0.02191  0.29471  Biso   1.000  Hf
  Hf9      1.0000 0.63846  0.22951  0.79271  Biso   1.000  Hf
  Hf10     1.0000 0.86276  0.26965  0.21190  Biso   1.000  Hf
  Hf11     1.0000 0.86418  0.47646  0.71072  Biso   1.000  Hf
  O17      1.0000 0.53681  0.16944  0.15872  Biso   1.000  O
  O18      1.0000 0.53792  0.08146  0.65892  Biso   1.000  O
  O19      1.0000 0.96907  0.41243  0.34804  Biso   1.000  O
  O20      1.0000 0.96766  0.32922  0.85147  Biso   1.000  O
  O21      1.0000 0.77781  0.12811  0.48183  Biso   1.000  O
  O22      1.0000 0.77751  0.12043  0.98336  Biso   1.000  O
  O23      1.0000 0.72674  0.37788  0.02281  Biso   1.000  O
  O24      1.0000 0.72611  0.37034  0.52074  Biso   1.000  O
  Hf12     1.0000 0.63705  0.52072  0.29224  Biso   1.000  Hf
  Hf13     1.0000 0.63653  0.72780  0.79356  Biso   1.000  Hf
  Hf14     1.0000 0.85984  0.76764  0.20777  Biso   1.000  Hf
  Hf15     1.0000 0.85459  0.97757  0.71719  Biso   1.000  Hf
  O25      1.0000 0.53443  0.66829  0.15682  Biso   1.000  O
  O26      1.0000 0.53511  0.58273  0.65608  Biso   1.000  O
  O27      1.0000 0.96362  0.91973  0.34526  Biso   1.000  O
  O28      1.0000 0.96321  0.83342  0.84516  Biso   1.000  O
  O29      1.0000 0.77681  0.62701  0.48143  Biso   1.000  O
  O30      1.0000 0.77729  0.62067  0.98207  Biso   1.000  O
  O31      1.0000 0.72156  0.87830  0.02287  Biso   1.000  O
  O32      1.0000 0.72674  0.86984  0.52067  Biso   1.000  O
