data_image0
_cell_length_a       10.0894
_cell_length_b       10.2826
_cell_length_c       5.25346
_cell_angle_alpha    89.7697
_cell_angle_beta     90.6018
_cell_angle_gamma    89.528

_symmetry_space_group_name_H-M    "P 1"
_symmetry_int_tables_number       1

loop_
  _symmetry_equiv_pos_as_xyz
  'x, y, z'

loop_
  _atom_site_label
  _atom_site_occupancy
  _atom_site_fract_x
  _atom_site_fract_y
  _atom_site_fract_z
  _atom_site_thermal_displace_type
  _atom_site_B_iso_or_equiv
  _atom_site_type_symbol
  As1      1.0000 0.11259  0.01872  0.37332  Biso   1.000  As
  Zr1      1.0000 0.13962  0.52213  0.34454  Biso   1.000  Zr
  Zr2      1.0000 0.14725  0.22864  0.84303  Biso   1.000  Zr
  Zr3      1.0000 0.13898  0.73151  0.84143  Biso   1.000  Zr
  Zr4      1.0000 0.35937  0.26970  0.33766  Biso   1.000  Zr
  Zr5      1.0000 0.35811  0.77598  0.33444  Biso   1.000  Zr
  Zr6      1.0000 0.36112  0.47978  0.84251  Biso   1.000  Zr
  Zr7      1.0000 0.35852  0.98211  0.83692  Biso   1.000  Zr
  Zr8      1.0000 0.63669  0.02177  0.15808  Biso   1.000  Zr
  Zr9      1.0000 0.63818  0.52033  0.16038  Biso   1.000  Zr
  Zr10     1.0000 0.63831  0.23005  0.65927  Biso   1.000  Zr
  Zr11     1.0000 0.63548  0.72781  0.65599  Biso   1.000  Zr
  Zr12     1.0000 0.86383  0.26868  0.16476  Biso   1.000  Zr
  Zr13     1.0000 0.86009  0.76780  0.15766  Biso   1.000  Zr
  Zr14     1.0000 0.86404  0.47660  0.66336  Biso   1.000  Zr
  Zr15     1.0000 0.85314  0.97782  0.66705  Biso   1.000  Zr
  O1       1.0000 0.04115  0.15311  0.16847  Biso   1.000  O
  O2       1.0000 0.03258  0.66670  0.16952  Biso   1.000  O
  O3       1.0000 0.03311  0.08229  0.65663  Biso   1.000  O
  O4       1.0000 0.03276  0.58370  0.67030  Biso   1.000  O
  O5       1.0000 0.46683  0.41694  0.16878  Biso   1.000  O
  O6       1.0000 0.46840  0.91703  0.16427  Biso   1.000  O
  O7       1.0000 0.46781  0.33433  0.66870  Biso   1.000  O
  O8       1.0000 0.46500  0.83572  0.66096  Biso   1.000  O
  O9       1.0000 0.27102  0.12444  0.57693  Biso   1.000  O
  O10      1.0000 0.27506  0.62715  0.58839  Biso   1.000  O
  O11      1.0000 0.29357  0.13938  0.06001  Biso   1.000  O
  O12      1.0000 0.27496  0.62630  0.08928  Biso   1.000  O
  O13      1.0000 0.22560  0.37544  0.59181  Biso   1.000  O
  O14      1.0000 0.21747  0.87707  0.58038  Biso   1.000  O
  O15      1.0000 0.22174  0.37913  0.09020  Biso   1.000  O
  O16      1.0000 0.22794  0.87607  0.07305  Biso   1.000  O
  O17      1.0000 0.53527  0.16853  0.32921  Biso   1.000  O
  O18      1.0000 0.53235  0.66729  0.32810  Biso   1.000  O
  O19      1.0000 0.53764  0.08120  0.82401  Biso   1.000  O
  O20      1.0000 0.53327  0.58326  0.83035  Biso   1.000  O
  O21      1.0000 0.97028  0.41076  0.34122  Biso   1.000  O
  O22      1.0000 0.96625  0.91882  0.33698  Biso   1.000  O
  O23      1.0000 0.96964  0.33025  0.84480  Biso   1.000  O
  O24      1.0000 0.96459  0.83540  0.83578  Biso   1.000  O
  O25      1.0000 0.77855  0.12267  0.91522  Biso   1.000  O
  O26      1.0000 0.77614  0.62335  0.91382  Biso   1.000  O
  O27      1.0000 0.77707  0.12512  0.41361  Biso   1.000  O
  O28      1.0000 0.77565  0.62421  0.41339  Biso   1.000  O
  O29      1.0000 0.72711  0.37274  0.91620  Biso   1.000  O
  O30      1.0000 0.72144  0.87219  0.91300  Biso   1.000  O
  O31      1.0000 0.72710  0.37485  0.41328  Biso   1.000  O
  O32      1.0000 0.72732  0.87517  0.41293  Biso   1.000  O
