data_image0
_cell_length_a       5.14942
_cell_length_b       10.4576
_cell_length_c       10.5838
_cell_angle_alpha    89.3862
_cell_angle_beta     79.3549
_cell_angle_gamma    89.2437

_symmetry_space_group_name_H-M    "P 1"
_symmetry_int_tables_number       1

loop_
  _symmetry_equiv_pos_as_xyz
  'x, y, z'

loop_
  _atom_site_label
  _atom_site_occupancy
  _atom_site_fract_x
  _atom_site_fract_y
  _atom_site_fract_z
  _atom_site_thermal_displace_type
  _atom_site_B_iso_or_equiv
  _atom_site_type_symbol
  Zr1      1.0000 0.26227  0.01313  0.14264  Biso   1.000  Zr
  Zr2      1.0000 0.34571  0.24125  0.40482  Biso   1.000  Zr
  Zr3      1.0000 0.70606  0.26950  0.10525  Biso   1.000  Zr
  Zr4      1.0000 0.72384  0.49133  0.35587  Biso   1.000  Zr
  O1       1.0000 0.04638  0.15519  0.07267  Biso   1.000  O
  O2       1.0000 0.03693  0.05879  0.33105  Biso   1.000  O
  O3       1.0000 0.93482  0.42186  0.17300  Biso   1.000  O
  O4       1.0000 0.98130  0.37887  0.44442  Biso   1.000  O
  O5       1.0000 0.51602  0.11862  0.23884  Biso   1.000  O
  O6       1.0000 0.56354  0.10721  0.49764  Biso   1.000  O
  O7       1.0000 0.43765  0.37796  0.01158  Biso   1.000  O
  O8       1.0000 0.45680  0.38415  0.26010  Biso   1.000  O
  Zr5      1.0000 0.27324  0.02146  0.64652  Biso   1.000  Zr
  Zr6      1.0000 0.27059  0.22793  0.89528  Biso   1.000  Zr
  Zr7      1.0000 0.74393  0.27514  0.61043  Biso   1.000  Zr
  Zr8      1.0000 0.71747  0.47728  0.85912  Biso   1.000  Zr
  O9       1.0000 0.08455  0.17033  0.57201  Biso   1.000  O
  O10      1.0000 0.05695  0.08856  0.82401  Biso   1.000  O
  O11      1.0000 0.94558  0.40817  0.68687  Biso   1.000  O
  O12      1.0000 0.92754  0.33643  0.93063  Biso   1.000  O
  O13      1.0000 0.54510  0.13074  0.74116  Biso   1.000  O
  O14      1.0000 0.53697  0.12177  0.99000  Biso   1.000  O
  O15      1.0000 0.47699  0.38155  0.51653  Biso   1.000  O
  O16      1.0000 0.45536  0.37288  0.76359  Biso   1.000  O
  Zr9      1.0000 0.27610  0.52378  0.14571  Biso   1.000  Zr
  Zr10     1.0000 0.26241  0.72706  0.39744  Biso   1.000  Zr
  Zr11     1.0000 0.71519  0.76961  0.10200  Biso   1.000  Zr
  Zr12     1.0000 0.68983  0.96474  0.35494  Biso   1.000  Zr
  O17      1.0000 0.06072  0.66600  0.07261  Biso   1.000  O
  O18      1.0000 0.05650  0.59773  0.31847  Biso   1.000  O
  O19      1.0000 0.91400  0.90921  0.17099  Biso   1.000  O
  O20      1.0000 0.91099  0.82765  0.42514  Biso   1.000  O
  O21      1.0000 0.54547  0.63158  0.24180  Biso   1.000  O
  O22      1.0000 0.53554  0.62361  0.49297  Biso   1.000  O
  O23      1.0000 0.44303  0.87754  0.00758  Biso   1.000  O
  O24      1.0000 0.42644  0.86620  0.25815  Biso   1.000  O
  Zr13     1.0000 0.27299  0.52326  0.64977  Biso   1.000  Zr
  Zr14     1.0000 0.26899  0.72806  0.89483  Biso   1.000  Zr
  Zr15     1.0000 0.71462  0.77271  0.60710  Biso   1.000  Zr
  Zr16     1.0000 0.71739  0.98006  0.85292  Biso   1.000  Zr
  O25      1.0000 0.05028  0.66027  0.57878  Biso   1.000  O
  O26      1.0000 0.05852  0.58668  0.82776  Biso   1.000  O
  O27      1.0000 0.92646  0.91725  0.67112  Biso   1.000  O
  O28      1.0000 0.92817  0.83612  0.91982  Biso   1.000  O
  O29      1.0000 0.54195  0.62820  0.74109  Biso   1.000  O
  O30      1.0000 0.54469  0.62131  0.99045  Biso   1.000  O
  O31      1.0000 0.42702  0.87292  0.51221  Biso   1.000  O
  O32      1.0000 0.44567  0.87344  0.76047  Biso   1.000  O
  As1      1.0000 0.94411  0.23503  0.30681  Biso   1.000  As
