data_image0
_cell_length_a       5.08869
_cell_length_b       10.3147
_cell_length_c       10.5247
_cell_angle_alpha    90.108
_cell_angle_beta     80.689
_cell_angle_gamma    89.5595

_symmetry_space_group_name_H-M    "P 1"
_symmetry_int_tables_number       1

loop_
  _symmetry_equiv_pos_as_xyz
  'x, y, z'

loop_
  _atom_site_label
  _atom_site_occupancy
  _atom_site_fract_x
  _atom_site_fract_y
  _atom_site_fract_z
  _atom_site_thermal_displace_type
  _atom_site_B_iso_or_equiv
  _atom_site_type_symbol
  As1      1.0000 0.21871  0.02335  0.15999  Biso   1.000  As
  Zr1      1.0000 0.27492  0.02059  0.64570  Biso   1.000  Zr
  Zr2      1.0000 0.27283  0.52156  0.14433  Biso   1.000  Zr
  Zr3      1.0000 0.28101  0.52177  0.64694  Biso   1.000  Zr
  Zr4      1.0000 0.28250  0.23060  0.39387  Biso   1.000  Zr
  Zr5      1.0000 0.28941  0.22752  0.89360  Biso   1.000  Zr
  Zr6      1.0000 0.27465  0.72648  0.39558  Biso   1.000  Zr
  Zr7      1.0000 0.27852  0.73260  0.89615  Biso   1.000  Zr
  Zr8      1.0000 0.71645  0.26760  0.10484  Biso   1.000  Zr
  Zr9      1.0000 0.72580  0.27134  0.60400  Biso   1.000  Zr
  Zr10     1.0000 0.71355  0.77207  0.10315  Biso   1.000  Zr
  Zr11     1.0000 0.72257  0.77136  0.60577  Biso   1.000  Zr
  Zr12     1.0000 0.72207  0.47815  0.35311  Biso   1.000  Zr
  Zr13     1.0000 0.73057  0.47790  0.85654  Biso   1.000  Zr
  Zr14     1.0000 0.70318  0.97670  0.35692  Biso   1.000  Zr
  Zr15     1.0000 0.72168  0.98215  0.85624  Biso   1.000  Zr
  O1       1.0000 0.08441  0.15904  0.08146  Biso   1.000  O
  O2       1.0000 0.06862  0.16397  0.57266  Biso   1.000  O
  O3       1.0000 0.06780  0.67074  0.08042  Biso   1.000  O
  O4       1.0000 0.06899  0.66609  0.57902  Biso   1.000  O
  O5       1.0000 0.06967  0.07945  0.32241  Biso   1.000  O
  O6       1.0000 0.07470  0.08380  0.82723  Biso   1.000  O
  O7       1.0000 0.06759  0.58091  0.32878  Biso   1.000  O
  O8       1.0000 0.07269  0.58370  0.82941  Biso   1.000  O
  O9       1.0000 0.93157  0.41408  0.17177  Biso   1.000  O
  O10      1.0000 0.93818  0.41433  0.67354  Biso   1.000  O
  O11      1.0000 0.92591  0.92479  0.16980  Biso   1.000  O
  O12      1.0000 0.93015  0.91684  0.67211  Biso   1.000  O
  O13      1.0000 0.93038  0.33092  0.42020  Biso   1.000  O
  O14      1.0000 0.94347  0.33461  0.92733  Biso   1.000  O
  O15      1.0000 0.92829  0.83326  0.42067  Biso   1.000  O
  O16      1.0000 0.92830  0.83398  0.92280  Biso   1.000  O
  O17      1.0000 0.54768  0.12889  0.24133  Biso   1.000  O
  O18      1.0000 0.55293  0.12845  0.73518  Biso   1.000  O
  O19      1.0000 0.54897  0.62641  0.23933  Biso   1.000  O
  O20      1.0000 0.55462  0.62888  0.74098  Biso   1.000  O
  O21      1.0000 0.55257  0.12058  0.48884  Biso   1.000  O
  O22      1.0000 0.57944  0.13321  0.97776  Biso   1.000  O
  O23      1.0000 0.55202  0.62025  0.49061  Biso   1.000  O
  O24      1.0000 0.55212  0.62327  0.99087  Biso   1.000  O
  O25      1.0000 0.45345  0.38056  0.01020  Biso   1.000  O
  O26      1.0000 0.44864  0.37757  0.50908  Biso   1.000  O
  O27      1.0000 0.44818  0.88245  0.00823  Biso   1.000  O
  O28      1.0000 0.44359  0.87744  0.51076  Biso   1.000  O
  O29      1.0000 0.44747  0.37098  0.25873  Biso   1.000  O
  O30      1.0000 0.45654  0.37135  0.76011  Biso   1.000  O
  O31      1.0000 0.45372  0.86562  0.26218  Biso   1.000  O
  O32      1.0000 0.44890  0.87185  0.75948  Biso   1.000  O
