data_image0
_cell_length_a       10.0893
_cell_length_b       5.13642
_cell_length_c       10.5165
_cell_angle_alpha    89.7759
_cell_angle_beta     90.4811
_cell_angle_gamma    89.4908

_symmetry_space_group_name_H-M    "P 1"
_symmetry_int_tables_number       1

loop_
  _symmetry_equiv_pos_as_xyz
  'x, y, z'

loop_
  _atom_site_label
  _atom_site_occupancy
  _atom_site_fract_x
  _atom_site_fract_y
  _atom_site_fract_z
  _atom_site_thermal_displace_type
  _atom_site_B_iso_or_equiv
  _atom_site_type_symbol
  As1      1.0000 0.11323  0.03673  0.18555  Biso   1.000  As
  Zr1      1.0000 0.13915  0.04177  0.67050  Biso   1.000  Zr
  Zr2      1.0000 0.13966  0.46431  0.42047  Biso   1.000  Zr
  Zr3      1.0000 0.14670  0.45505  0.92134  Biso   1.000  Zr
  Zr4      1.0000 0.35460  0.54665  0.16734  Biso   1.000  Zr
  Zr5      1.0000 0.36216  0.54455  0.67043  Biso   1.000  Zr
  Zr6      1.0000 0.35920  0.96548  0.41792  Biso   1.000  Zr
  Zr7      1.0000 0.36072  0.95963  0.92298  Biso   1.000  Zr
  Zr8      1.0000 0.63762  0.04276  0.07831  Biso   1.000  Zr
  Zr9      1.0000 0.63694  0.04136  0.58108  Biso   1.000  Zr
  Zr10     1.0000 0.63403  0.45824  0.32756  Biso   1.000  Zr
  Zr11     1.0000 0.63987  0.45835  0.82986  Biso   1.000  Zr
  Zr12     1.0000 0.86349  0.53342  0.07940  Biso   1.000  Zr
  Zr13     1.0000 0.86042  0.53891  0.58038  Biso   1.000  Zr
  Zr14     1.0000 0.85286  0.95598  0.33327  Biso   1.000  Zr
  Zr15     1.0000 0.86549  0.95403  0.83087  Biso   1.000  Zr
  O1       1.0000 0.03982  0.30964  0.08728  Biso   1.000  O
  O2       1.0000 0.03004  0.31927  0.57662  Biso   1.000  O
  O3       1.0000 0.03247  0.16400  0.32827  Biso   1.000  O
  O4       1.0000 0.03385  0.17165  0.83145  Biso   1.000  O
  O5       1.0000 0.46975  0.83008  0.08299  Biso   1.000  O
  O6       1.0000 0.46551  0.83580  0.58303  Biso   1.000  O
  O7       1.0000 0.46456  0.67479  0.33222  Biso   1.000  O
  O8       1.0000 0.46925  0.67029  0.83221  Biso   1.000  O
  O9       1.0000 0.27267  0.26212  0.29541  Biso   1.000  O
  O10      1.0000 0.27644  0.24502  0.78997  Biso   1.000  O
  O11      1.0000 0.29114  0.27569  0.03343  Biso   1.000  O
  O12      1.0000 0.27514  0.25488  0.54374  Biso   1.000  O
  O13      1.0000 0.21761  0.75917  0.29276  Biso   1.000  O
  O14      1.0000 0.22578  0.74563  0.79355  Biso   1.000  O
  O15      1.0000 0.22419  0.75783  0.04185  Biso   1.000  O
  O16      1.0000 0.22346  0.75371  0.54230  Biso   1.000  O
  O17      1.0000 0.53285  0.33425  0.16544  Biso   1.000  O
  O18      1.0000 0.53450  0.33487  0.66541  Biso   1.000  O
  O19      1.0000 0.53192  0.17019  0.41588  Biso   1.000  O
  O20      1.0000 0.53742  0.16423  0.91392  Biso   1.000  O
  O21      1.0000 0.96890  0.83419  0.16976  Biso   1.000  O
  O22      1.0000 0.96989  0.81873  0.67031  Biso   1.000  O
  O23      1.0000 0.96442  0.67010  0.41701  Biso   1.000  O
  O24      1.0000 0.97110  0.66524  0.92458  Biso   1.000  O
  O25      1.0000 0.77982  0.24682  0.95752  Biso   1.000  O
  O26      1.0000 0.77427  0.24569  0.45602  Biso   1.000  O
  O27      1.0000 0.77571  0.24894  0.20628  Biso   1.000  O
  O28      1.0000 0.77711  0.24912  0.70648  Biso   1.000  O
  O29      1.0000 0.72799  0.74496  0.95728  Biso   1.000  O
  O30      1.0000 0.72103  0.74571  0.45689  Biso   1.000  O
  O31      1.0000 0.72918  0.74857  0.20614  Biso   1.000  O
  O32      1.0000 0.72608  0.75160  0.70673  Biso   1.000  O
