data_image0
_cell_length_a       10.1862
_cell_length_b       10.4328
_cell_length_c       5.27683
_cell_angle_alpha    90.5522
_cell_angle_beta     91.6619
_cell_angle_gamma    89.332

_symmetry_space_group_name_H-M    "P 1"
_symmetry_int_tables_number       1

loop_
  _symmetry_equiv_pos_as_xyz
  'x, y, z'

loop_
  _atom_site_label
  _atom_site_occupancy
  _atom_site_fract_x
  _atom_site_fract_y
  _atom_site_fract_z
  _atom_site_thermal_displace_type
  _atom_site_B_iso_or_equiv
  _atom_site_type_symbol
  Zr1      1.0000 0.13518  0.01770  0.35375  Biso   1.000  Zr
  Zr2      1.0000 0.13790  0.22801  0.86342  Biso   1.000  Zr
  Zr3      1.0000 0.34308  0.25861  0.37928  Biso   1.000  Zr
  Zr4      1.0000 0.36378  0.48602  0.84538  Biso   1.000  Zr
  Zr5      1.0000 0.64369  0.01275  0.16202  Biso   1.000  Zr
  Zr6      1.0000 0.64581  0.23091  0.63494  Biso   1.000  Zr
  Zr7      1.0000 0.86038  0.27266  0.15019  Biso   1.000  Zr
  Zr8      1.0000 0.86895  0.48108  0.65412  Biso   1.000  Zr
  O1       1.0000 0.03146  0.16683  0.17796  Biso   1.000  O
  O2       1.0000 0.03352  0.08267  0.67673  Biso   1.000  O
  O3       1.0000 0.47562  0.44153  0.17024  Biso   1.000  O
  O4       1.0000 0.47525  0.33969  0.64316  Biso   1.000  O
  O5       1.0000 0.26991  0.12213  0.61409  Biso   1.000  O
  O6       1.0000 0.26692  0.11360  0.11117  Biso   1.000  O
  O7       1.0000 0.22327  0.37618  0.61486  Biso   1.000  O
  O8       1.0000 0.22753  0.37380  0.11132  Biso   1.000  O
  O9       1.0000 0.52095  0.12027  0.39363  Biso   1.000  O
  O10      1.0000 0.52589  0.08507  0.86237  Biso   1.000  O
  O11      1.0000 0.97038  0.41630  0.33097  Biso   1.000  O
  O12      1.0000 0.97112  0.33286  0.83374  Biso   1.000  O
  O13      1.0000 0.77681  0.12490  0.89605  Biso   1.000  O
  O14      1.0000 0.77915  0.12518  0.39798  Biso   1.000  O
  O15      1.0000 0.74019  0.38980  0.89943  Biso   1.000  O
  O16      1.0000 0.73119  0.37955  0.40671  Biso   1.000  O
  Zr9      1.0000 0.14043  0.51975  0.34348  Biso   1.000  Zr
  Zr10     1.0000 0.14062  0.72910  0.84351  Biso   1.000  Zr
  Zr11     1.0000 0.36493  0.77007  0.34684  Biso   1.000  Zr
  Zr12     1.0000 0.36050  0.97217  0.85841  Biso   1.000  Zr
  Zr13     1.0000 0.65082  0.53197  0.14690  Biso   1.000  Zr
  Zr14     1.0000 0.64246  0.73156  0.65257  Biso   1.000  Zr
  Zr15     1.0000 0.86727  0.77136  0.15819  Biso   1.000  Zr
  Zr16     1.0000 0.86442  0.98039  0.66281  Biso   1.000  Zr
  O17      1.0000 0.03739  0.66588  0.16852  Biso   1.000  O
  O18      1.0000 0.03885  0.58425  0.66911  Biso   1.000  O
  O19      1.0000 0.47349  0.90118  0.15657  Biso   1.000  O
  O20      1.0000 0.47157  0.83858  0.66120  Biso   1.000  O
  O21      1.0000 0.27884  0.62463  0.58825  Biso   1.000  O
  O22      1.0000 0.27611  0.62314  0.08805  Biso   1.000  O
  O23      1.0000 0.22605  0.87216  0.59854  Biso   1.000  O
  O24      1.0000 0.22639  0.87110  0.10052  Biso   1.000  O
  O25      1.0000 0.53958  0.67013  0.32999  Biso   1.000  O
  O26      1.0000 0.53619  0.58954  0.82274  Biso   1.000  O
  O27      1.0000 0.96779  0.91674  0.33449  Biso   1.000  O
  O28      1.0000 0.97054  0.83489  0.83564  Biso   1.000  O
  O29      1.0000 0.78100  0.63178  0.90234  Biso   1.000  O
  O30      1.0000 0.78292  0.62904  0.40550  Biso   1.000  O
  O31      1.0000 0.73016  0.87657  0.91167  Biso   1.000  O
  O32      1.0000 0.73106  0.87394  0.41403  Biso   1.000  O
  As1      1.0000 0.52139  0.26218  0.06714  Biso   1.000  As
