data_image0
_cell_length_a       10.3756
_cell_length_b       5.18727
_cell_length_c       10.5601
_cell_angle_alpha    90.2986
_cell_angle_beta     78.886
_cell_angle_gamma    89.9667

_symmetry_space_group_name_H-M    "P 1"
_symmetry_int_tables_number       1

loop_
  _symmetry_equiv_pos_as_xyz
  'x, y, z'

loop_
  _atom_site_label
  _atom_site_occupancy
  _atom_site_fract_x
  _atom_site_fract_y
  _atom_site_fract_z
  _atom_site_thermal_displace_type
  _atom_site_B_iso_or_equiv
  _atom_site_type_symbol
  Zr1      1.0000 0.12865  0.04440  0.14431  Biso   1.000  Zr
  Zr2      1.0000 0.13692  0.45972  0.39285  Biso   1.000  Zr
  Zr3      1.0000 0.34165  0.54381  0.09340  Biso   1.000  Zr
  Zr4      1.0000 0.36245  0.96792  0.35322  Biso   1.000  Zr
  O1       1.0000 0.02831  0.33534  0.07613  Biso   1.000  O
  O2       1.0000 0.02796  0.17041  0.33182  Biso   1.000  O
  O3       1.0000 0.46904  0.85658  0.17480  Biso   1.000  O
  O4       1.0000 0.46549  0.64337  0.42112  Biso   1.000  O
  O5       1.0000 0.25597  0.24639  0.23338  Biso   1.000  O
  O6       1.0000 0.27423  0.25343  0.48657  Biso   1.000  O
  O7       1.0000 0.21512  0.76863  0.00350  Biso   1.000  O
  O8       1.0000 0.22077  0.74326  0.25519  Biso   1.000  O
  Zr5      1.0000 0.13595  0.04421  0.64348  Biso   1.000  Zr
  Zr6      1.0000 0.12999  0.46097  0.89179  Biso   1.000  Zr
  Zr7      1.0000 0.35961  0.54209  0.60553  Biso   1.000  Zr
  Zr8      1.0000 0.35709  0.96345  0.85060  Biso   1.000  Zr
  O9       1.0000 0.03455  0.33643  0.58019  Biso   1.000  O
  O10      1.0000 0.02810  0.17034  0.82816  Biso   1.000  O
  O11      1.0000 0.46109  0.84577  0.66752  Biso   1.000  O
  O12      1.0000 0.46010  0.67695  0.92047  Biso   1.000  O
  O13      1.0000 0.26941  0.25727  0.73670  Biso   1.000  O
  O14      1.0000 0.26671  0.25329  0.98389  Biso   1.000  O
  O15      1.0000 0.22696  0.76400  0.50693  Biso   1.000  O
  O16      1.0000 0.22202  0.74402  0.75695  Biso   1.000  O
  Zr9      1.0000 0.64584  0.03715  0.15858  Biso   1.000  Zr
  Zr10     1.0000 0.65286  0.45427  0.40744  Biso   1.000  Zr
  Zr11     1.0000 0.85741  0.54284  0.10823  Biso   1.000  Zr
  Zr12     1.0000 0.86248  0.95571  0.36120  Biso   1.000  Zr
  O17      1.0000 0.51955  0.32236  0.06708  Biso   1.000  O
  O18      1.0000 0.55146  0.10189  0.37401  Biso   1.000  O
  O19      1.0000 0.96367  0.82644  0.17630  Biso   1.000  O
  O20      1.0000 0.96607  0.66626  0.42685  Biso   1.000  O
  O21      1.0000 0.78383  0.25520  0.24888  Biso   1.000  O
  O22      1.0000 0.78016  0.23865  0.50131  Biso   1.000  O
  O23      1.0000 0.71993  0.75703  0.01619  Biso   1.000  O
  O24      1.0000 0.73058  0.74768  0.26590  Biso   1.000  O
  Zr13     1.0000 0.63444  0.04717  0.64846  Biso   1.000  Zr
  Zr14     1.0000 0.63325  0.46080  0.89722  Biso   1.000  Zr
  Zr15     1.0000 0.86239  0.54426  0.61133  Biso   1.000  Zr
  Zr16     1.0000 0.85574  0.96206  0.85879  Biso   1.000  Zr
  O25      1.0000 0.53769  0.35708  0.59155  Biso   1.000  O
  O26      1.0000 0.52836  0.17132  0.82844  Biso   1.000  O
  O27      1.0000 0.96412  0.83602  0.67580  Biso   1.000  O
  O28      1.0000 0.95978  0.67240  0.92395  Biso   1.000  O
  O29      1.0000 0.77110  0.26136  0.74790  Biso   1.000  O
  O30      1.0000 0.76743  0.24777  0.99896  Biso   1.000  O
  O31      1.0000 0.72782  0.75294  0.51718  Biso   1.000  O
  O32      1.0000 0.72217  0.75039  0.76521  Biso   1.000  O
  As1      1.0000 0.48951  0.44010  0.25248  Biso   1.000  As
