data_image0
_cell_length_a       10.178
_cell_length_b       10.3316
_cell_length_c       10.513
_cell_angle_alpha    90.0314
_cell_angle_beta     80.5612
_cell_angle_gamma    89.7711

_symmetry_space_group_name_H-M    "P 1"
_symmetry_int_tables_number       1

loop_
  _symmetry_equiv_pos_as_xyz
  'x, y, z'

loop_
  _atom_site_label
  _atom_site_occupancy
  _atom_site_fract_x
  _atom_site_fract_y
  _atom_site_fract_z
  _atom_site_thermal_displace_type
  _atom_site_B_iso_or_equiv
  _atom_site_type_symbol
  As1      1.0000 0.11129  0.02164  0.16198  Biso   1.000  As
  Zr1      1.0000 0.13854  0.02063  0.64369  Biso   1.000  Zr
  Zr2      1.0000 0.13940  0.52196  0.14479  Biso   1.000  Zr
  Zr3      1.0000 0.13976  0.52184  0.64612  Biso   1.000  Zr
  Zr4      1.0000 0.63804  0.02193  0.14505  Biso   1.000  Zr
  Zr5      1.0000 0.63767  0.02133  0.64733  Biso   1.000  Zr
  Zr6      1.0000 0.63619  0.52102  0.14468  Biso   1.000  Zr
  Zr7      1.0000 0.63945  0.52120  0.64616  Biso   1.000  Zr
  Zr8      1.0000 0.14175  0.23076  0.39412  Biso   1.000  Zr
  Zr9      1.0000 0.14422  0.22618  0.89378  Biso   1.000  Zr
  Zr10     1.0000 0.13832  0.72827  0.39522  Biso   1.000  Zr
  Zr11     1.0000 0.14055  0.73170  0.89521  Biso   1.000  Zr
  Zr12     1.0000 0.63795  0.22871  0.39525  Biso   1.000  Zr
  Zr13     1.0000 0.63942  0.22946  0.89575  Biso   1.000  Zr
  Zr14     1.0000 0.63742  0.72719  0.39558  Biso   1.000  Zr
  Zr15     1.0000 0.63774  0.72928  0.89613  Biso   1.000  Zr
  Zr16     1.0000 0.35843  0.26831  0.10310  Biso   1.000  Zr
  Zr17     1.0000 0.36192  0.27171  0.60413  Biso   1.000  Zr
  Zr18     1.0000 0.35747  0.77566  0.10425  Biso   1.000  Zr
  Zr19     1.0000 0.36163  0.77232  0.60437  Biso   1.000  Zr
  Zr20     1.0000 0.86152  0.27012  0.10646  Biso   1.000  Zr
  Zr21     1.0000 0.86177  0.27106  0.60466  Biso   1.000  Zr
  Zr22     1.0000 0.86044  0.76840  0.10292  Biso   1.000  Zr
  Zr23     1.0000 0.86063  0.77029  0.60607  Biso   1.000  Zr
  Zr24     1.0000 0.36097  0.47901  0.35334  Biso   1.000  Zr
  Zr25     1.0000 0.36194  0.47940  0.85511  Biso   1.000  Zr
  Zr26     1.0000 0.35907  0.97895  0.35220  Biso   1.000  Zr
  Zr27     1.0000 0.35994  0.98152  0.85598  Biso   1.000  Zr
  Zr28     1.0000 0.86128  0.47815  0.35434  Biso   1.000  Zr
  Zr29     1.0000 0.86438  0.47692  0.85613  Biso   1.000  Zr
  Zr30     1.0000 0.85368  0.97668  0.35953  Biso   1.000  Zr
  Zr31     1.0000 0.86205  0.97929  0.85461  Biso   1.000  Zr
  O1       1.0000 0.04147  0.15822  0.08242  Biso   1.000  O
  O2       1.0000 0.03371  0.16414  0.57323  Biso   1.000  O
  O3       1.0000 0.03526  0.67011  0.08052  Biso   1.000  O
  O4       1.0000 0.03459  0.66730  0.57988  Biso   1.000  O
  O5       1.0000 0.53640  0.16944  0.07985  Biso   1.000  O
  O6       1.0000 0.53600  0.16937  0.57968  Biso   1.000  O
  O7       1.0000 0.53422  0.66940  0.07952  Biso   1.000  O
  O8       1.0000 0.53545  0.66810  0.57907  Biso   1.000  O
  O9       1.0000 0.03425  0.07974  0.32285  Biso   1.000  O
  O10      1.0000 0.03546  0.08277  0.82741  Biso   1.000  O
  O11      1.0000 0.03445  0.58143  0.32935  Biso   1.000  O
  O12      1.0000 0.03658  0.58121  0.83062  Biso   1.000  O
  O13      1.0000 0.53555  0.08085  0.32971  Biso   1.000  O
  O14      1.0000 0.53759  0.08159  0.82994  Biso   1.000  O
  O15      1.0000 0.53519  0.58022  0.32957  Biso   1.000  O
  O16      1.0000 0.53516  0.58334  0.82866  Biso   1.000  O
  O17      1.0000 0.46393  0.41785  0.17016  Biso   1.000  O
  O18      1.0000 0.46557  0.41878  0.67035  Biso   1.000  O
  O19      1.0000 0.46510  0.91871  0.17080  Biso   1.000  O
  O20      1.0000 0.46478  0.91906  0.67062  Biso   1.000  O
  O21      1.0000 0.96639  0.41598  0.17114  Biso   1.000  O
  O22      1.0000 0.96773  0.41490  0.67283  Biso   1.000  O
  O23      1.0000 0.96378  0.92254  0.17105  Biso   1.000  O
  O24      1.0000 0.96462  0.91718  0.67090  Biso   1.000  O
  O25      1.0000 0.46450  0.33146  0.42008  Biso   1.000  O
  O26      1.0000 0.46871  0.33590  0.92119  Biso   1.000  O
  O27      1.0000 0.46475  0.83149  0.41990  Biso   1.000  O
  O28      1.0000 0.46479  0.83361  0.92116  Biso   1.000  O
  O29      1.0000 0.96489  0.33035  0.41977  Biso   1.000  O
  O30      1.0000 0.96775  0.32943  0.92612  Biso   1.000  O
  O31      1.0000 0.96350  0.83257  0.42102  Biso   1.000  O
  O32      1.0000 0.96425  0.83132  0.92115  Biso   1.000  O
  O33      1.0000 0.27289  0.12955  0.24071  Biso   1.000  O
  O34      1.0000 0.27535  0.12807  0.73552  Biso   1.000  O
  O35      1.0000 0.27537  0.62932  0.24008  Biso   1.000  O
  O36      1.0000 0.27634  0.62958  0.74008  Biso   1.000  O
  O37      1.0000 0.77624  0.12775  0.24137  Biso   1.000  O
  O38      1.0000 0.77710  0.12928  0.74024  Biso   1.000  O
  O39      1.0000 0.77512  0.62770  0.23989  Biso   1.000  O
  O40      1.0000 0.77692  0.62805  0.74139  Biso   1.000  O
  O41      1.0000 0.27644  0.12170  0.48855  Biso   1.000  O
  O42      1.0000 0.28888  0.13267  0.97719  Biso   1.000  O
  O43      1.0000 0.27584  0.62094  0.49038  Biso   1.000  O
  O44      1.0000 0.27580  0.62270  0.99038  Biso   1.000  O
  O45      1.0000 0.77563  0.12010  0.49110  Biso   1.000  O
  O46      1.0000 0.77733  0.12137  0.99124  Biso   1.000  O
  O47      1.0000 0.77602  0.62056  0.49063  Biso   1.000  O
  O48      1.0000 0.77651  0.62124  0.99092  Biso   1.000  O
  O49      1.0000 0.22396  0.38071  0.00896  Biso   1.000  O
  O50      1.0000 0.22348  0.37848  0.50863  Biso   1.000  O
  O51      1.0000 0.22422  0.88188  0.00672  Biso   1.000  O
  O52      1.0000 0.22385  0.87875  0.50867  Biso   1.000  O
  O53      1.0000 0.72691  0.37837  0.01086  Biso   1.000  O
  O54      1.0000 0.72474  0.37818  0.50992  Biso   1.000  O
  O55      1.0000 0.72421  0.87917  0.01023  Biso   1.000  O
  O56      1.0000 0.72175  0.87757  0.51100  Biso   1.000  O
  O57      1.0000 0.22363  0.37220  0.25893  Biso   1.000  O
  O58      1.0000 0.22610  0.37052  0.75929  Biso   1.000  O
  O59      1.0000 0.22170  0.86972  0.26068  Biso   1.000  O
  O60      1.0000 0.22400  0.87168  0.75813  Biso   1.000  O
  O61      1.0000 0.72476  0.36999  0.25933  Biso   1.000  O
  O62      1.0000 0.72606  0.37175  0.76046  Biso   1.000  O
  O63      1.0000 0.72717  0.87011  0.25961  Biso   1.000  O
  O64      1.0000 0.72448  0.87111  0.76036  Biso   1.000  O
