data_image0
_cell_length_a       10.1456
_cell_length_b       10.3535
_cell_length_c       10.5286
_cell_angle_alpha    90.071
_cell_angle_beta     90.8381
_cell_angle_gamma    89.8743

_symmetry_space_group_name_H-M    "P 1"
_symmetry_int_tables_number       1

loop_
  _symmetry_equiv_pos_as_xyz
  'x, y, z'

loop_
  _atom_site_label
  _atom_site_occupancy
  _atom_site_fract_x
  _atom_site_fract_y
  _atom_site_fract_z
  _atom_site_thermal_displace_type
  _atom_site_B_iso_or_equiv
  _atom_site_type_symbol
  Zr1      1.0000 0.13437  0.01785  0.17510  Biso   1.000  Zr
  Zr2      1.0000 0.13803  0.22767  0.42648  Biso   1.000  Zr
  Zr3      1.0000 0.34394  0.26696  0.18425  Biso   1.000  Zr
  Zr4      1.0000 0.36211  0.47889  0.42440  Biso   1.000  Zr
  Zr5      1.0000 0.64497  0.01253  0.07816  Biso   1.000  Zr
  Zr6      1.0000 0.63914  0.22968  0.32993  Biso   1.000  Zr
  Zr7      1.0000 0.86226  0.27157  0.07739  Biso   1.000  Zr
  Zr8      1.0000 0.86161  0.47854  0.32828  Biso   1.000  Zr
  O1       1.0000 0.03229  0.16904  0.08852  Biso   1.000  O
  O2       1.0000 0.03095  0.08313  0.33703  Biso   1.000  O
  O3       1.0000 0.47184  0.42449  0.09053  Biso   1.000  O
  O4       1.0000 0.46403  0.33292  0.33463  Biso   1.000  O
  O5       1.0000 0.27158  0.12338  0.30161  Biso   1.000  O
  O6       1.0000 0.26431  0.11374  0.05189  Biso   1.000  O
  O7       1.0000 0.21802  0.37625  0.30254  Biso   1.000  O
  O8       1.0000 0.22279  0.37756  0.05112  Biso   1.000  O
  O9       1.0000 0.52480  0.15735  0.17207  Biso   1.000  O
  O10      1.0000 0.53217  0.08562  0.41806  Biso   1.000  O
  O11      1.0000 0.96494  0.41856  0.16548  Biso   1.000  O
  O12      1.0000 0.96723  0.33307  0.41556  Biso   1.000  O
  O13      1.0000 0.77606  0.12521  0.45303  Biso   1.000  O
  O14      1.0000 0.77160  0.12553  0.20234  Biso   1.000  O
  O15      1.0000 0.72435  0.37514  0.45224  Biso   1.000  O
  O16      1.0000 0.72268  0.37470  0.20238  Biso   1.000  O
  Zr9      1.0000 0.14137  0.02147  0.67415  Biso   1.000  Zr
  Zr10     1.0000 0.14072  0.22844  0.92505  Biso   1.000  Zr
  Zr11     1.0000 0.36383  0.27033  0.67250  Biso   1.000  Zr
  Zr12     1.0000 0.35801  0.48748  0.92427  Biso   1.000  Zr
  Zr13     1.0000 0.64087  0.02112  0.57804  Biso   1.000  Zr
  Zr14     1.0000 0.65903  0.23305  0.81819  Biso   1.000  Zr
  Zr15     1.0000 0.86495  0.27234  0.57596  Biso   1.000  Zr
  Zr16     1.0000 0.86860  0.48217  0.82734  Biso   1.000  Zr
  O17      1.0000 0.03575  0.16694  0.58688  Biso   1.000  O
  O18      1.0000 0.03804  0.08145  0.83695  Biso   1.000  O
  O19      1.0000 0.47080  0.41439  0.58438  Biso   1.000  O
  O20      1.0000 0.47817  0.34267  0.83037  Biso   1.000  O
  O21      1.0000 0.28029  0.12531  0.80006  Biso   1.000  O
  O22      1.0000 0.27862  0.12488  0.55020  Biso   1.000  O
  O23      1.0000 0.23137  0.37448  0.80009  Biso   1.000  O
  O24      1.0000 0.22692  0.37480  0.54940  Biso   1.000  O
  O25      1.0000 0.53895  0.16709  0.66780  Biso   1.000  O
  O26      1.0000 0.53114  0.07553  0.91191  Biso   1.000  O
  O27      1.0000 0.97202  0.41688  0.66540  Biso   1.000  O
  O28      1.0000 0.97069  0.33098  0.91391  Biso   1.000  O
  O29      1.0000 0.78019  0.12245  0.95132  Biso   1.000  O
  O30      1.0000 0.78495  0.12376  0.69990  Biso   1.000  O
  O31      1.0000 0.73866  0.38627  0.95055  Biso   1.000  O
  O32      1.0000 0.73140  0.37664  0.70083  Biso   1.000  O
  Zr17     1.0000 0.13698  0.52201  0.17392  Biso   1.000  Zr
  Zr18     1.0000 0.13911  0.72879  0.42325  Biso   1.000  Zr
  Zr19     1.0000 0.36296  0.77066  0.17545  Biso   1.000  Zr
  Zr20     1.0000 0.36234  0.97775  0.42555  Biso   1.000  Zr
  Zr21     1.0000 0.64606  0.52625  0.07727  Biso   1.000  Zr
  Zr22     1.0000 0.63975  0.72857  0.32956  Biso   1.000  Zr
  Zr23     1.0000 0.86322  0.76999  0.07924  Biso   1.000  Zr
  Zr24     1.0000 0.86071  0.97955  0.33028  Biso   1.000  Zr
  O33      1.0000 0.03455  0.66750  0.08592  Biso   1.000  O
  O34      1.0000 0.03286  0.58387  0.33644  Biso   1.000  O
  O35      1.0000 0.46955  0.91388  0.08537  Biso   1.000  O
  O36      1.0000 0.46905  0.83447  0.33662  Biso   1.000  O
  O37      1.0000 0.27544  0.62456  0.29720  Biso   1.000  O
  O38      1.0000 0.27597  0.62471  0.04778  Biso   1.000  O
  O39      1.0000 0.22529  0.87395  0.29881  Biso   1.000  O
  O40      1.0000 0.22482  0.87061  0.05002  Biso   1.000  O
  O41      1.0000 0.53540  0.66726  0.16708  Biso   1.000  O
  O42      1.0000 0.53305  0.58423  0.41613  Biso   1.000  O
  O43      1.0000 0.96335  0.91807  0.16535  Biso   1.000  O
  O44      1.0000 0.96725  0.83336  0.41604  Biso   1.000  O
  O45      1.0000 0.77671  0.62454  0.45384  Biso   1.000  O
  O46      1.0000 0.77861  0.62649  0.20424  Biso   1.000  O
  O47      1.0000 0.72598  0.87520  0.45535  Biso   1.000  O
  O48      1.0000 0.72504  0.87347  0.20533  Biso   1.000  O
  Zr25     1.0000 0.14227  0.52046  0.67216  Biso   1.000  Zr
  Zr26     1.0000 0.13975  0.73002  0.92320  Biso   1.000  Zr
  Zr27     1.0000 0.36323  0.77144  0.67287  Biso   1.000  Zr
  Zr28     1.0000 0.35691  0.97377  0.92517  Biso   1.000  Zr
  Zr29     1.0000 0.64064  0.52226  0.57689  Biso   1.000  Zr
  Zr30     1.0000 0.64002  0.72935  0.82699  Biso   1.000  Zr
  Zr31     1.0000 0.86387  0.77122  0.57919  Biso   1.000  Zr
  Zr32     1.0000 0.86600  0.97800  0.82852  Biso   1.000  Zr
  O49      1.0000 0.03572  0.66665  0.58640  Biso   1.000  O
  O50      1.0000 0.03962  0.58194  0.83709  Biso   1.000  O
  O51      1.0000 0.46993  0.91579  0.58631  Biso   1.000  O
  O52      1.0000 0.46758  0.83275  0.83536  Biso   1.000  O
  O53      1.0000 0.27794  0.62654  0.79711  Biso   1.000  O
  O54      1.0000 0.27700  0.62481  0.54709  Biso   1.000  O
  O55      1.0000 0.22437  0.87352  0.79820  Biso   1.000  O
  O56      1.0000 0.22626  0.87547  0.54860  Biso   1.000  O
  O57      1.0000 0.53393  0.66554  0.66582  Biso   1.000  O
  O58      1.0000 0.53343  0.58613  0.91707  Biso   1.000  O
  O59      1.0000 0.97012  0.91614  0.66600  Biso   1.000  O
  O60      1.0000 0.96842  0.83252  0.91652  Biso   1.000  O
  O61      1.0000 0.77816  0.62940  0.95242  Biso   1.000  O
  O62      1.0000 0.77769  0.62606  0.70363  Biso   1.000  O
  O63      1.0000 0.72700  0.87530  0.95466  Biso   1.000  O
  O64      1.0000 0.72754  0.87545  0.70524  Biso   1.000  O
  As1      1.0000 0.50149  0.25001  0.00122  Biso   1.000  As
