data_image0
_cell_length_a       10.0379
_cell_length_b       10.2417
_cell_length_c       5.22463
_cell_angle_alpha    89.6796
_cell_angle_beta     90.8201
_cell_angle_gamma    89.6468

_symmetry_space_group_name_H-M    "P 1"
_symmetry_int_tables_number       1

loop_
  _symmetry_equiv_pos_as_xyz
  'x, y, z'

loop_
  _atom_site_label
  _atom_site_occupancy
  _atom_site_fract_x
  _atom_site_fract_y
  _atom_site_fract_z
  _atom_site_thermal_displace_type
  _atom_site_B_iso_or_equiv
  _atom_site_type_symbol
  Au1      1.0000 0.12395  0.01526  0.37874  Biso   1.000  Au
  Hf1      1.0000 0.14442  0.23076  0.84362  Biso   1.000  Hf
  Hf2      1.0000 0.36083  0.27109  0.33133  Biso   1.000  Hf
  Hf3      1.0000 0.36127  0.47933  0.84015  Biso   1.000  Hf
  Hf4      1.0000 0.63840  0.02191  0.15962  Biso   1.000  Hf
  Hf5      1.0000 0.63806  0.22991  0.65920  Biso   1.000  Hf
  Hf6      1.0000 0.86398  0.26859  0.16714  Biso   1.000  Hf
  Hf7      1.0000 0.86308  0.47720  0.66327  Biso   1.000  Hf
  O1       1.0000 0.04367  0.16554  0.18320  Biso   1.000  O
  O2       1.0000 0.02356  0.08668  0.71316  Biso   1.000  O
  O3       1.0000 0.46726  0.41708  0.16612  Biso   1.000  O
  O4       1.0000 0.46603  0.33250  0.66667  Biso   1.000  O
  O5       1.0000 0.27063  0.11848  0.55996  Biso   1.000  O
  O6       1.0000 0.29887  0.14413  0.04405  Biso   1.000  O
  O7       1.0000 0.22519  0.37291  0.58876  Biso   1.000  O
  O8       1.0000 0.22111  0.38112  0.08945  Biso   1.000  O
  O9       1.0000 0.53581  0.16872  0.32686  Biso   1.000  O
  O10      1.0000 0.53846  0.07929  0.82146  Biso   1.000  O
  O11      1.0000 0.96727  0.41506  0.34064  Biso   1.000  O
  O12      1.0000 0.96876  0.33400  0.84954  Biso   1.000  O
  O13      1.0000 0.77667  0.12380  0.91935  Biso   1.000  O
  O14      1.0000 0.77704  0.12623  0.41795  Biso   1.000  O
  O15      1.0000 0.72545  0.37288  0.91497  Biso   1.000  O
  O16      1.0000 0.72564  0.37511  0.41329  Biso   1.000  O
  Hf8      1.0000 0.13876  0.52132  0.34473  Biso   1.000  Hf
  Hf9      1.0000 0.13739  0.72898  0.84290  Biso   1.000  Hf
  Hf10     1.0000 0.36078  0.77233  0.33152  Biso   1.000  Hf
  Hf11     1.0000 0.36207  0.98067  0.83932  Biso   1.000  Hf
  Hf12     1.0000 0.63944  0.51972  0.15707  Biso   1.000  Hf
  Hf13     1.0000 0.63659  0.72807  0.65396  Biso   1.000  Hf
  Hf14     1.0000 0.85962  0.76824  0.15637  Biso   1.000  Hf
  Hf15     1.0000 0.85435  0.97877  0.66948  Biso   1.000  Hf
  O17      1.0000 0.03449  0.66942  0.17350  Biso   1.000  O
  O18      1.0000 0.03466  0.58070  0.67408  Biso   1.000  O
  O19      1.0000 0.46870  0.91736  0.16540  Biso   1.000  O
  O20      1.0000 0.46369  0.83293  0.66166  Biso   1.000  O
  O21      1.0000 0.27580  0.62619  0.58783  Biso   1.000  O
  O22      1.0000 0.27603  0.62472  0.08877  Biso   1.000  O
  O23      1.0000 0.21763  0.87217  0.57591  Biso   1.000  O
  O24      1.0000 0.23132  0.87326  0.06853  Biso   1.000  O
  O25      1.0000 0.53369  0.66659  0.32494  Biso   1.000  O
  O26      1.0000 0.53386  0.58230  0.82681  Biso   1.000  O
  O27      1.0000 0.95491  0.92307  0.32455  Biso   1.000  O
  O28      1.0000 0.96306  0.83019  0.82701  Biso   1.000  O
  O29      1.0000 0.77637  0.62299  0.91201  Biso   1.000  O
  O30      1.0000 0.77640  0.62498  0.41208  Biso   1.000  O
  O31      1.0000 0.72090  0.87254  0.91161  Biso   1.000  O
  O32      1.0000 0.72410  0.87494  0.41146  Biso   1.000  O
