data_image0
_cell_length_a       10.1029
_cell_length_b       10.2723
_cell_length_c       10.4501
_cell_angle_alpha    89.8507
_cell_angle_beta     80.7742
_cell_angle_gamma    89.8272

_symmetry_space_group_name_H-M    "P 1"
_symmetry_int_tables_number       1

loop_
  _symmetry_equiv_pos_as_xyz
  'x, y, z'

loop_
  _atom_site_label
  _atom_site_occupancy
  _atom_site_fract_x
  _atom_site_fract_y
  _atom_site_fract_z
  _atom_site_thermal_displace_type
  _atom_site_B_iso_or_equiv
  _atom_site_type_symbol
  Au1      1.0000 0.12459  0.01468  0.16819  Biso   1.000  Au
  Hf1      1.0000 0.13832  0.23328  0.39702  Biso   1.000  Hf
  Hf2      1.0000 0.35979  0.26950  0.09958  Biso   1.000  Hf
  Hf3      1.0000 0.36123  0.47954  0.35257  Biso   1.000  Hf
  O1       1.0000 0.04324  0.16460  0.08415  Biso   1.000  O
  O2       1.0000 0.02385  0.08413  0.35378  Biso   1.000  O
  O3       1.0000 0.46337  0.41919  0.16906  Biso   1.000  O
  O4       1.0000 0.46304  0.33080  0.41910  Biso   1.000  O
  O5       1.0000 0.26996  0.12398  0.23409  Biso   1.000  O
  O6       1.0000 0.27702  0.12233  0.48527  Biso   1.000  O
  O7       1.0000 0.22375  0.38161  0.00838  Biso   1.000  O
  O8       1.0000 0.22488  0.36966  0.25834  Biso   1.000  O
  Hf4      1.0000 0.13802  0.02098  0.64250  Biso   1.000  Hf
  Hf5      1.0000 0.14357  0.22403  0.89468  Biso   1.000  Hf
  Hf6      1.0000 0.36091  0.27174  0.60350  Biso   1.000  Hf
  Hf7      1.0000 0.36165  0.47920  0.85396  Biso   1.000  Hf
  O9       1.0000 0.03807  0.17483  0.58371  Biso   1.000  O
  O10      1.0000 0.03788  0.07815  0.82949  Biso   1.000  O
  O11      1.0000 0.46425  0.41932  0.66952  Biso   1.000  O
  O12      1.0000 0.46932  0.33600  0.92077  Biso   1.000  O
  O13      1.0000 0.27579  0.12733  0.73368  Biso   1.000  O
  O14      1.0000 0.29333  0.13371  0.97330  Biso   1.000  O
  O15      1.0000 0.22278  0.38052  0.50896  Biso   1.000  O
  O16      1.0000 0.22513  0.36937  0.75937  Biso   1.000  O
  Hf8      1.0000 0.13952  0.52196  0.14491  Biso   1.000  Hf
  Hf9      1.0000 0.13594  0.72687  0.39664  Biso   1.000  Hf
  Hf10     1.0000 0.36162  0.77325  0.09963  Biso   1.000  Hf
  Hf11     1.0000 0.36141  0.97864  0.35231  Biso   1.000  Hf
  O17      1.0000 0.03785  0.67242  0.08135  Biso   1.000  O
  O18      1.0000 0.03645  0.57884  0.33026  Biso   1.000  O
  O19      1.0000 0.46309  0.91876  0.17050  Biso   1.000  O
  O20      1.0000 0.46303  0.82958  0.41794  Biso   1.000  O
  O21      1.0000 0.27646  0.63193  0.24032  Biso   1.000  O
  O22      1.0000 0.27608  0.62075  0.49040  Biso   1.000  O
  O23      1.0000 0.22919  0.87977  0.00187  Biso   1.000  O
  O24      1.0000 0.21664  0.86970  0.25563  Biso   1.000  O
  Hf12     1.0000 0.13958  0.52129  0.64725  Biso   1.000  Hf
  Hf13     1.0000 0.14077  0.73182  0.89489  Biso   1.000  Hf
  Hf14     1.0000 0.36108  0.77190  0.60319  Biso   1.000  Hf
  Hf15     1.0000 0.36107  0.98162  0.85287  Biso   1.000  Hf
  O25      1.0000 0.03576  0.66927  0.58097  Biso   1.000  O
  O26      1.0000 0.03857  0.57894  0.83238  Biso   1.000  O
  O27      1.0000 0.46432  0.91984  0.66804  Biso   1.000  O
  O28      1.0000 0.46692  0.83235  0.91807  Biso   1.000  O
  O29      1.0000 0.27725  0.62989  0.73989  Biso   1.000  O
  O30      1.0000 0.27747  0.62149  0.98982  Biso   1.000  O
  O31      1.0000 0.22330  0.87963  0.50570  Biso   1.000  O
  O32      1.0000 0.22308  0.87097  0.75546  Biso   1.000  O
  Hf16     1.0000 0.63878  0.02066  0.14528  Biso   1.000  Hf
  Hf17     1.0000 0.63747  0.22939  0.39654  Biso   1.000  Hf
  Hf18     1.0000 0.86407  0.26840  0.10695  Biso   1.000  Hf
  Hf19     1.0000 0.86019  0.47903  0.35429  Biso   1.000  Hf
  O33      1.0000 0.53682  0.16949  0.08038  Biso   1.000  O
  O34      1.0000 0.53463  0.08052  0.33015  Biso   1.000  O
  O35      1.0000 0.96499  0.41891  0.17068  Biso   1.000  O
  O36      1.0000 0.96340  0.33364  0.42295  Biso   1.000  O
  O37      1.0000 0.77487  0.12809  0.24302  Biso   1.000  O
  O38      1.0000 0.77409  0.12119  0.49347  Biso   1.000  O
  O39      1.0000 0.72673  0.37757  0.01127  Biso   1.000  O
  O40      1.0000 0.72455  0.36952  0.25979  Biso   1.000  O
  Hf20     1.0000 0.63801  0.02183  0.64756  Biso   1.000  Hf
  Hf21     1.0000 0.64027  0.22898  0.89689  Biso   1.000  Hf
  Hf22     1.0000 0.86085  0.27233  0.60623  Biso   1.000  Hf
  Hf23     1.0000 0.86478  0.47659  0.85641  Biso   1.000  Hf
  O41      1.0000 0.53510  0.16988  0.58010  Biso   1.000  O
  O42      1.0000 0.53916  0.08077  0.82962  Biso   1.000  O
  O43      1.0000 0.96494  0.41924  0.67272  Biso   1.000  O
  O44      1.0000 0.96683  0.32715  0.92514  Biso   1.000  O
  O45      1.0000 0.77833  0.12984  0.74150  Biso   1.000  O
  O46      1.0000 0.77806  0.11996  0.99210  Biso   1.000  O
  O47      1.0000 0.72242  0.37922  0.51003  Biso   1.000  O
  O48      1.0000 0.72500  0.37132  0.76080  Biso   1.000  O
  Hf24     1.0000 0.63771  0.51941  0.14478  Biso   1.000  Hf
  Hf25     1.0000 0.63779  0.72708  0.39512  Biso   1.000  Hf
  Hf26     1.0000 0.86031  0.76812  0.10209  Biso   1.000  Hf
  Hf27     1.0000 0.85333  0.97774  0.36008  Biso   1.000  Hf
  O49      1.0000 0.53673  0.66899  0.07839  Biso   1.000  O
  O50      1.0000 0.53653  0.57919  0.32942  Biso   1.000  O
  O51      1.0000 0.95376  0.92347  0.16999  Biso   1.000  O
  O52      1.0000 0.96105  0.82849  0.41893  Biso   1.000  O
  O53      1.0000 0.77607  0.62808  0.23995  Biso   1.000  O
  O54      1.0000 0.77640  0.62065  0.49070  Biso   1.000  O
  O55      1.0000 0.72309  0.87894  0.00907  Biso   1.000  O
  O56      1.0000 0.72309  0.86926  0.25897  Biso   1.000  O
  Hf28     1.0000 0.63877  0.52132  0.64652  Biso   1.000  Hf
  Hf29     1.0000 0.63966  0.72851  0.89480  Biso   1.000  Hf
  Hf30     1.0000 0.86028  0.77062  0.60517  Biso   1.000  Hf
  Hf31     1.0000 0.86241  0.97918  0.85430  Biso   1.000  Hf
  O57      1.0000 0.53591  0.66914  0.57899  Biso   1.000  O
  O58      1.0000 0.53595  0.58233  0.82839  Biso   1.000  O
  O59      1.0000 0.96275  0.92053  0.66775  Biso   1.000  O
  O60      1.0000 0.96294  0.82821  0.91845  Biso   1.000  O
  O61      1.0000 0.77788  0.62835  0.74107  Biso   1.000  O
  O62      1.0000 0.77783  0.61966  0.99060  Biso   1.000  O
  O63      1.0000 0.72073  0.87858  0.51022  Biso   1.000  O
  O64      1.0000 0.72448  0.87067  0.75913  Biso   1.000  O
