data_image0
_cell_length_a       5.03506
_cell_length_b       10.3883
_cell_length_c       10.1571
_cell_angle_alpha    88.9767
_cell_angle_beta     91.3734
_cell_angle_gamma    91.1611

_symmetry_space_group_name_H-M    "P 1"
_symmetry_int_tables_number       1

loop_
  _symmetry_equiv_pos_as_xyz
  'x, y, z'

loop_
  _atom_site_label
  _atom_site_occupancy
  _atom_site_fract_x
  _atom_site_fract_y
  _atom_site_fract_z
  _atom_site_thermal_displace_type
  _atom_site_B_iso_or_equiv
  _atom_site_type_symbol
  Hf1      1.0000 0.27686  0.99228  0.10379  Biso   1.000  Hf
  Hf2      1.0000 0.24253  0.23091  0.40448  Biso   1.000  Hf
  Hf3      1.0000 0.61765  0.25877  0.15391  Biso   1.000  Hf
  Hf4      1.0000 0.73387  0.48780  0.38083  Biso   1.000  Hf
  O1       1.0000 0.90753  0.18211  0.27424  Biso   1.000  O
  O2       1.0000 0.07435  0.05916  0.46354  Biso   1.000  O
  O3       1.0000 0.89680  0.43572  0.19821  Biso   1.000  O
  O4       1.0000 0.94454  0.33419  0.46642  Biso   1.000  O
  O5       1.0000 0.43113  0.10587  0.25782  Biso   1.000  O
  O6       1.0000 0.55994  0.13891  0.50230  Biso   1.000  O
  O7       1.0000 0.47408  0.38584  0.50783  Biso   1.000  O
  O8       1.0000 0.41019  0.37348  0.27027  Biso   1.000  O
  Hf5      1.0000 0.29568  0.01186  0.62695  Biso   1.000  Hf
  Hf6      1.0000 0.30474  0.22832  0.85816  Biso   1.000  Hf
  Hf7      1.0000 0.75706  0.27423  0.63500  Biso   1.000  Hf
  Hf8      1.0000 0.74201  0.48538  0.87250  Biso   1.000  Hf
  O9       1.0000 0.11523  0.18704  0.67577  Biso   1.000  O
  O10      1.0000 0.11604  0.05141  0.91704  Biso   1.000  O
  O11      1.0000 0.93030  0.44960  0.68906  Biso   1.000  O
  O12      1.0000 0.94156  0.31002  0.88466  Biso   1.000  O
  O13      1.0000 0.57435  0.11664  0.75061  Biso   1.000  O
  O14      1.0000 0.57808  0.12028  0.00505  Biso   1.000  O
  O15      1.0000 0.49368  0.38499  0.00306  Biso   1.000  O
  O16      1.0000 0.46876  0.37389  0.74894  Biso   1.000  O
  Hf9      1.0000 0.25484  0.51926  0.13079  Biso   1.000  Hf
  Hf10     1.0000 0.27568  0.74064  0.37550  Biso   1.000  Hf
  Hf11     1.0000 0.73867  0.76121  0.12669  Biso   1.000  Hf
  Hf12     1.0000 0.74697  0.99895  0.36387  Biso   1.000  Hf
  O17      1.0000 0.07789  0.68374  0.19614  Biso   1.000  O
  O18      1.0000 0.07413  0.57553  0.44437  Biso   1.000  O
  O19      1.0000 0.93191  0.94111  0.18659  Biso   1.000  O
  O20      1.0000 0.93623  0.82213  0.43668  Biso   1.000  O
  O21      1.0000 0.53920  0.61821  0.25102  Biso   1.000  O
  O22      1.0000 0.54501  0.63746  0.49819  Biso   1.000  O
  O23      1.0000 0.47710  0.88917  0.49413  Biso   1.000  O
  O24      1.0000 0.47503  0.86358  0.24164  Biso   1.000  O
  Hf13     1.0000 0.27576  0.51896  0.62203  Biso   1.000  Hf
  Hf14     1.0000 0.28202  0.72993  0.87143  Biso   1.000  Hf
  Hf15     1.0000 0.75201  0.77002  0.61837  Biso   1.000  Hf
  Hf16     1.0000 0.75809  0.97705  0.87133  Biso   1.000  Hf
  O25      1.0000 0.08509  0.68727  0.69346  Biso   1.000  O
  O26      1.0000 0.07900  0.56358  0.94914  Biso   1.000  O
  O27      1.0000 0.95297  0.93067  0.69632  Biso   1.000  O
  O28      1.0000 0.96339  0.81467  0.95470  Biso   1.000  O
  O29      1.0000 0.55006  0.61920  0.74902  Biso   1.000  O
  O30      1.0000 0.54541  0.63105  0.00100  Biso   1.000  O
  O31      1.0000 0.48891  0.87244  0.99179  Biso   1.000  O
  O32      1.0000 0.48786  0.86414  0.74639  Biso   1.000  O
  Au1      1.0000 0.09037  0.24247  0.08570  Biso   1.000  Au
