data_image0
_cell_length_a       9.93377
_cell_length_b       5.19011
_cell_length_c       10.0305
_cell_angle_alpha    90.1839
_cell_angle_beta     89.0556
_cell_angle_gamma    89.8725

_symmetry_space_group_name_H-M    "P 1"
_symmetry_int_tables_number       1

loop_
  _symmetry_equiv_pos_as_xyz
  'x, y, z'

loop_
  _atom_site_label
  _atom_site_occupancy
  _atom_site_fract_x
  _atom_site_fract_y
  _atom_site_fract_z
  _atom_site_thermal_displace_type
  _atom_site_B_iso_or_equiv
  _atom_site_type_symbol
  Au1      1.0000 0.12050  0.05107  0.10568  Biso   1.000  Au
  Hf1      1.0000 0.14092  0.46217  0.38024  Biso   1.000  Hf
  Hf2      1.0000 0.36616  0.53376  0.13463  Biso   1.000  Hf
  Hf3      1.0000 0.36291  0.96573  0.37864  Biso   1.000  Hf
  O1       1.0000 0.03861  0.36242  0.19199  Biso   1.000  O
  O2       1.0000 0.03901  0.12794  0.44841  Biso   1.000  O
  O3       1.0000 0.46881  0.86496  0.19826  Biso   1.000  O
  O4       1.0000 0.46737  0.63493  0.45108  Biso   1.000  O
  O5       1.0000 0.28368  0.24868  0.25960  Biso   1.000  O
  O6       1.0000 0.27211  0.26148  0.50758  Biso   1.000  O
  O7       1.0000 0.22811  0.76228  0.50820  Biso   1.000  O
  O8       1.0000 0.23955  0.72316  0.26267  Biso   1.000  O
  Hf4      1.0000 0.13337  0.03829  0.63298  Biso   1.000  Hf
  Hf5      1.0000 0.13226  0.47694  0.87484  Biso   1.000  Hf
  Hf6      1.0000 0.36634  0.53587  0.62971  Biso   1.000  Hf
  Hf7      1.0000 0.36518  0.96815  0.88006  Biso   1.000  Hf
  O9       1.0000 0.03984  0.38496  0.68871  Biso   1.000  O
  O10      1.0000 0.03608  0.12796  0.90270  Biso   1.000  O
  O11      1.0000 0.46294  0.87100  0.69868  Biso   1.000  O
  O12      1.0000 0.45360  0.62251  0.94225  Biso   1.000  O
  O13      1.0000 0.27364  0.24386  0.75610  Biso   1.000  O
  O14      1.0000 0.26181  0.26244  0.00685  Biso   1.000  O
  O15      1.0000 0.22409  0.76756  0.01011  Biso   1.000  O
  O16      1.0000 0.22816  0.74403  0.75598  Biso   1.000  O
  Hf8      1.0000 0.63635  0.03264  0.12932  Biso   1.000  Hf
  Hf9      1.0000 0.63510  0.46865  0.37566  Biso   1.000  Hf
  Hf10     1.0000 0.86495  0.53031  0.12297  Biso   1.000  Hf
  Hf11     1.0000 0.87233  0.96952  0.37593  Biso   1.000  Hf
  O17      1.0000 0.54260  0.37355  0.19323  Biso   1.000  O
  O18      1.0000 0.53713  0.13328  0.44332  Biso   1.000  O
  O19      1.0000 0.96812  0.86217  0.18990  Biso   1.000  O
  O20      1.0000 0.96363  0.62644  0.43777  Biso   1.000  O
  O21      1.0000 0.77441  0.23402  0.24895  Biso   1.000  O
  O22      1.0000 0.77039  0.26526  0.49749  Biso   1.000  O
  O23      1.0000 0.73177  0.76676  0.49816  Biso   1.000  O
  O24      1.0000 0.73621  0.73720  0.24935  Biso   1.000  O
  Hf12     1.0000 0.63153  0.03296  0.62242  Biso   1.000  Hf
  Hf13     1.0000 0.63072  0.46193  0.87645  Biso   1.000  Hf
  Hf14     1.0000 0.86546  0.53153  0.62054  Biso   1.000  Hf
  Hf15     1.0000 0.85734  0.95873  0.86887  Biso   1.000  Hf
  O25      1.0000 0.53590  0.36831  0.69582  Biso   1.000  O
  O26      1.0000 0.53471  0.12829  0.94829  Biso   1.000  O
  O27      1.0000 0.95784  0.87014  0.68560  Biso   1.000  O
  O28      1.0000 0.95987  0.63232  0.94187  Biso   1.000  O
  O29      1.0000 0.76771  0.23389  0.74706  Biso   1.000  O
  O30      1.0000 0.77307  0.25666  0.99746  Biso   1.000  O
  O31      1.0000 0.72303  0.75421  0.99998  Biso   1.000  O
  O32      1.0000 0.72608  0.73122  0.74840  Biso   1.000  O
