data_image0
_cell_length_a       10.0264
_cell_length_b       5.12383
_cell_length_c       10.4413
_cell_angle_alpha    89.6583
_cell_angle_beta     90.8694
_cell_angle_gamma    89.6718

_symmetry_space_group_name_H-M    "P 1"
_symmetry_int_tables_number       1

loop_
  _symmetry_equiv_pos_as_xyz
  'x, y, z'

loop_
  _atom_site_label
  _atom_site_occupancy
  _atom_site_fract_x
  _atom_site_fract_y
  _atom_site_fract_z
  _atom_site_thermal_displace_type
  _atom_site_B_iso_or_equiv
  _atom_site_type_symbol
  Au1      1.0000 0.12486  0.03186  0.18969  Biso   1.000  Au
  Hf1      1.0000 0.13556  0.46406  0.42179  Biso   1.000  Hf
  Hf2      1.0000 0.35947  0.54407  0.16164  Biso   1.000  Hf
  Hf3      1.0000 0.36082  0.95905  0.41889  Biso   1.000  Hf
  Hf4      1.0000 0.64051  0.04070  0.07764  Biso   1.000  Hf
  Hf5      1.0000 0.63457  0.45772  0.32772  Biso   1.000  Hf
  Hf6      1.0000 0.86464  0.53156  0.08060  Biso   1.000  Hf
  Hf7      1.0000 0.85184  0.95772  0.33495  Biso   1.000  Hf
  O1       1.0000 0.04494  0.33368  0.09201  Biso   1.000  O
  O2       1.0000 0.02282  0.16746  0.35844  Biso   1.000  O
  O3       1.0000 0.47046  0.83420  0.08332  Biso   1.000  O
  O4       1.0000 0.45857  0.65711  0.33497  Biso   1.000  O
  O5       1.0000 0.27119  0.24463  0.28566  Biso   1.000  O
  O6       1.0000 0.29792  0.28116  0.02665  Biso   1.000  O
  O7       1.0000 0.21709  0.74568  0.28995  Biso   1.000  O
  O8       1.0000 0.22800  0.75946  0.03802  Biso   1.000  O
  O9       1.0000 0.53585  0.33675  0.16209  Biso   1.000  O
  O10      1.0000 0.53247  0.16059  0.41204  Biso   1.000  O
  O11      1.0000 0.95511  0.84660  0.16435  Biso   1.000  O
  O12      1.0000 0.96127  0.66559  0.41634  Biso   1.000  O
  O13      1.0000 0.77214  0.24873  0.45860  Biso   1.000  O
  O14      1.0000 0.77630  0.25144  0.20817  Biso   1.000  O
  O15      1.0000 0.71869  0.74760  0.45711  Biso   1.000  O
  O16      1.0000 0.72454  0.74773  0.20667  Biso   1.000  O
  Hf8      1.0000 0.13828  0.04119  0.66909  Biso   1.000  Hf
  Hf9      1.0000 0.14640  0.45462  0.91977  Biso   1.000  Hf
  Hf10     1.0000 0.36137  0.54236  0.66947  Biso   1.000  Hf
  Hf11     1.0000 0.36233  0.96108  0.91950  Biso   1.000  Hf
  Hf12     1.0000 0.63721  0.04228  0.58154  Biso   1.000  Hf
  Hf13     1.0000 0.64039  0.45854  0.82950  Biso   1.000  Hf
  Hf14     1.0000 0.85939  0.54170  0.58190  Biso   1.000  Hf
  Hf15     1.0000 0.86607  0.95502  0.83240  Biso   1.000  Hf
  O17      1.0000 0.03564  0.34600  0.59010  Biso   1.000  O
  O18      1.0000 0.03840  0.15905  0.83701  Biso   1.000  O
  O19      1.0000 0.46441  0.83811  0.58402  Biso   1.000  O
  O20      1.0000 0.46819  0.66541  0.83225  Biso   1.000  O
  O21      1.0000 0.27744  0.24342  0.78616  Biso   1.000  O
  O22      1.0000 0.27606  0.25479  0.53845  Biso   1.000  O
  O23      1.0000 0.22473  0.74384  0.79119  Biso   1.000  O
  O24      1.0000 0.22233  0.75548  0.54141  Biso   1.000  O
  O25      1.0000 0.53527  0.33840  0.66235  Biso   1.000  O
  O26      1.0000 0.54053  0.15866  0.91058  Biso   1.000  O
  O27      1.0000 0.96499  0.83642  0.66597  Biso   1.000  O
  O28      1.0000 0.96920  0.65611  0.92003  Biso   1.000  O
  O29      1.0000 0.78156  0.24439  0.95783  Biso   1.000  O
  O30      1.0000 0.77805  0.25178  0.70791  Biso   1.000  O
  O31      1.0000 0.72724  0.74315  0.95724  Biso   1.000  O
  O32      1.0000 0.72489  0.75302  0.70699  Biso   1.000  O
