data_image0
_cell_length_a       10.2312
_cell_length_b       5.16149
_cell_length_c       10.5691
_cell_angle_alpha    90.375
_cell_angle_beta     79.6117
_cell_angle_gamma    89.8487

_symmetry_space_group_name_H-M    "P 1"
_symmetry_int_tables_number       1

loop_
  _symmetry_equiv_pos_as_xyz
  'x, y, z'

loop_
  _atom_site_label
  _atom_site_occupancy
  _atom_site_fract_x
  _atom_site_fract_y
  _atom_site_fract_z
  _atom_site_thermal_displace_type
  _atom_site_B_iso_or_equiv
  _atom_site_type_symbol
  Hf1      1.0000 0.13058  0.04600  0.14357  Biso   1.000  Hf
  Hf2      1.0000 0.13584  0.45605  0.39425  Biso   1.000  Hf
  Hf3      1.0000 0.35312  0.55426  0.09701  Biso   1.000  Hf
  Hf4      1.0000 0.35959  0.93325  0.35444  Biso   1.000  Hf
  O1       1.0000 0.02960  0.33618  0.07394  Biso   1.000  O
  O2       1.0000 0.02628  0.17137  0.32778  Biso   1.000  O
  O3       1.0000 0.45872  0.86454  0.16599  Biso   1.000  O
  O4       1.0000 0.48201  0.71755  0.45150  Biso   1.000  O
  O5       1.0000 0.25597  0.26236  0.23284  Biso   1.000  O
  O6       1.0000 0.26824  0.22027  0.49143  Biso   1.000  O
  O7       1.0000 0.21909  0.76778  0.00635  Biso   1.000  O
  O8       1.0000 0.21156  0.75575  0.25768  Biso   1.000  O
  Hf5      1.0000 0.13701  0.04057  0.64559  Biso   1.000  Hf
  Hf6      1.0000 0.13383  0.45954  0.89436  Biso   1.000  Hf
  Hf7      1.0000 0.36102  0.54533  0.61060  Biso   1.000  Hf
  Hf8      1.0000 0.35872  0.96328  0.85538  Biso   1.000  Hf
  O9       1.0000 0.03273  0.32943  0.57759  Biso   1.000  O
  O10      1.0000 0.03107  0.17258  0.82553  Biso   1.000  O
  O11      1.0000 0.46711  0.82261  0.68339  Biso   1.000  O
  O12      1.0000 0.46471  0.67915  0.92425  Biso   1.000  O
  O13      1.0000 0.27306  0.25590  0.73948  Biso   1.000  O
  O14      1.0000 0.27197  0.25481  0.98671  Biso   1.000  O
  O15      1.0000 0.22515  0.73939  0.51189  Biso   1.000  O
  O16      1.0000 0.22348  0.74485  0.76039  Biso   1.000  O
  Hf9      1.0000 0.63839  0.04449  0.14582  Biso   1.000  Hf
  Hf10     1.0000 0.65384  0.46141  0.40619  Biso   1.000  Hf
  Hf11     1.0000 0.85774  0.54447  0.10489  Biso   1.000  Hf
  Hf12     1.0000 0.86100  0.95561  0.35446  Biso   1.000  Hf
  O17      1.0000 0.53163  0.33488  0.07242  Biso   1.000  O
  O18      1.0000 0.55742  0.11243  0.34093  Biso   1.000  O
  O19      1.0000 0.96094  0.83358  0.17231  Biso   1.000  O
  O20      1.0000 0.96405  0.66698  0.42418  Biso   1.000  O
  O21      1.0000 0.77783  0.26096  0.24059  Biso   1.000  O
  O22      1.0000 0.77881  0.23766  0.49504  Biso   1.000  O
  O23      1.0000 0.72179  0.76125  0.01283  Biso   1.000  O
  O24      1.0000 0.72512  0.73861  0.26184  Biso   1.000  O
  Hf13     1.0000 0.63609  0.04313  0.64928  Biso   1.000  Hf
  Hf14     1.0000 0.63611  0.46096  0.89657  Biso   1.000  Hf
  Hf15     1.0000 0.86392  0.54266  0.60839  Biso   1.000  Hf
  Hf16     1.0000 0.85948  0.96029  0.85557  Biso   1.000  Hf
  O25      1.0000 0.53281  0.32597  0.57775  Biso   1.000  O
  O26      1.0000 0.53012  0.17875  0.82648  Biso   1.000  O
  O27      1.0000 0.96567  0.83163  0.67433  Biso   1.000  O
  O28      1.0000 0.96283  0.67347  0.92251  Biso   1.000  O
  O29      1.0000 0.77273  0.25904  0.74186  Biso   1.000  O
  O30      1.0000 0.77311  0.24699  0.99056  Biso   1.000  O
  O31      1.0000 0.72785  0.75373  0.51565  Biso   1.000  O
  O32      1.0000 0.72428  0.74690  0.76354  Biso   1.000  O
  Au1      1.0000 0.43727  0.43127  0.30904  Biso   1.000  Au
