data_image0
_cell_length_a       5.07383
_cell_length_b       10.1565
_cell_length_c       10.0662
_cell_angle_alpha    90.1254
_cell_angle_beta     93.7039
_cell_angle_gamma    89.7846

_symmetry_space_group_name_H-M    "P 1"
_symmetry_int_tables_number       1

loop_
  _symmetry_equiv_pos_as_xyz
  'x, y, z'

loop_
  _atom_site_label
  _atom_site_occupancy
  _atom_site_fract_x
  _atom_site_fract_y
  _atom_site_fract_z
  _atom_site_thermal_displace_type
  _atom_site_B_iso_or_equiv
  _atom_site_type_symbol
  Au1      1.0000 0.23469  0.01697  0.11125  Biso   1.000  Au
  Hf1      1.0000 0.24929  0.24837  0.38605  Biso   1.000  Hf
  Hf2      1.0000 0.72815  0.25979  0.13869  Biso   1.000  Hf
  Hf3      1.0000 0.70914  0.98857  0.35370  Biso   1.000  Hf
  O1       1.0000 0.00530  0.15108  0.01182  Biso   1.000  O
  O2       1.0000 0.92158  0.13518  0.28068  Biso   1.000  O
  O3       1.0000 0.02641  0.37067  0.26605  Biso   1.000  O
  O4       1.0000 0.88848  0.40849  0.03303  Biso   1.000  O
  O5       1.0000 0.42771  0.13288  0.24399  Biso   1.000  O
  O6       1.0000 0.53352  0.11087  0.99644  Biso   1.000  O
  O7       1.0000 0.38815  0.33875  0.03493  Biso   1.000  O
  O8       1.0000 0.52203  0.38414  0.26933  Biso   1.000  O
  Hf4      1.0000 0.27347  0.99651  0.62034  Biso   1.000  Hf
  Hf5      1.0000 0.25957  0.24268  0.86731  Biso   1.000  Hf
  Hf6      1.0000 0.77455  0.23903  0.62315  Biso   1.000  Hf
  Hf7      1.0000 0.76292  0.00257  0.87641  Biso   1.000  Hf
  O9       1.0000 0.06915  0.15452  0.52934  Biso   1.000  O
  O10      1.0000 0.03315  0.09105  0.75920  Biso   1.000  O
  O11      1.0000 0.93392  0.34061  0.78439  Biso   1.000  O
  O12      1.0000 0.99032  0.39646  0.52070  Biso   1.000  O
  O13      1.0000 0.51625  0.14886  0.74874  Biso   1.000  O
  O14      1.0000 0.54489  0.10398  0.49467  Biso   1.000  O
  O15      1.0000 0.48896  0.35493  0.52453  Biso   1.000  O
  O16      1.0000 0.43413  0.40693  0.78167  Biso   1.000  O
  Hf8      1.0000 0.22547  0.49255  0.13135  Biso   1.000  Hf
  Hf9      1.0000 0.21021  0.76147  0.35512  Biso   1.000  Hf
  Hf10     1.0000 0.70726  0.73118  0.12122  Biso   1.000  Hf
  Hf11     1.0000 0.76842  0.50184  0.38167  Biso   1.000  Hf
  O17      1.0000 0.99231  0.64638  0.99926  Biso   1.000  O
  O18      1.0000 0.96301  0.61280  0.24791  Biso   1.000  O
  O19      1.0000 0.94356  0.86255  0.23318  Biso   1.000  O
  O20      1.0000 0.07394  0.90097  0.97210  Biso   1.000  O
  O21      1.0000 0.46284  0.63768  0.25161  Biso   1.000  O
  O22      1.0000 0.48055  0.59294  0.00099  Biso   1.000  O
  O23      1.0000 0.57569  0.84000  0.96019  Biso   1.000  O
  O24      1.0000 0.45092  0.88321  0.21666  Biso   1.000  O
  Hf12     1.0000 0.28452  0.51220  0.61996  Biso   1.000  Hf
  Hf13     1.0000 0.25317  0.73706  0.87767  Biso   1.000  Hf
  Hf14     1.0000 0.77384  0.75375  0.61664  Biso   1.000  Hf
  Hf15     1.0000 0.75371  0.50746  0.86745  Biso   1.000  Hf
  O25      1.0000 0.04576  0.64885  0.49593  Biso   1.000  O
  O26      1.0000 0.01186  0.59785  0.74746  Biso   1.000  O
  O27      1.0000 0.10542  0.83887  0.71835  Biso   1.000  O
  O28      1.0000 0.00065  0.90435  0.48008  Biso   1.000  O
  O29      1.0000 0.52362  0.65491  0.74882  Biso   1.000  O
  O30      1.0000 0.55654  0.60100  0.51168  Biso   1.000  O
  O31      1.0000 0.50124  0.84813  0.47375  Biso   1.000  O
  O32      1.0000 0.61095  0.91151  0.71091  Biso   1.000  O
