data_image0
_cell_length_a       10.1064
_cell_length_b       5.14402
_cell_length_c       10.5663
_cell_angle_alpha    89.634
_cell_angle_beta     90.8008
_cell_angle_gamma    89.8932

_symmetry_space_group_name_H-M    "P 1"
_symmetry_int_tables_number       1

loop_
  _symmetry_equiv_pos_as_xyz
  'x, y, z'

loop_
  _atom_site_label
  _atom_site_occupancy
  _atom_site_fract_x
  _atom_site_fract_y
  _atom_site_fract_z
  _atom_site_thermal_displace_type
  _atom_site_B_iso_or_equiv
  _atom_site_type_symbol
  Hf1      1.0000 0.13624  0.03993  0.17158  Biso   1.000  Hf
  Hf2      1.0000 0.13644  0.45361  0.42529  Biso   1.000  Hf
  Hf3      1.0000 0.34844  0.53742  0.18525  Biso   1.000  Hf
  Hf4      1.0000 0.36442  0.95607  0.42552  Biso   1.000  Hf
  Hf5      1.0000 0.64245  0.05885  0.07623  Biso   1.000  Hf
  Hf6      1.0000 0.64056  0.45675  0.33302  Biso   1.000  Hf
  Hf7      1.0000 0.86385  0.54382  0.07697  Biso   1.000  Hf
  Hf8      1.0000 0.86279  0.95860  0.32960  Biso   1.000  Hf
  O1       1.0000 0.03317  0.32545  0.08151  Biso   1.000  O
  O2       1.0000 0.03129  0.17436  0.33109  Biso   1.000  O
  O3       1.0000 0.44811  0.88341  0.09966  Biso   1.000  O
  O4       1.0000 0.46823  0.67477  0.33371  Biso   1.000  O
  O5       1.0000 0.27000  0.24844  0.29971  Biso   1.000  O
  O6       1.0000 0.27429  0.25039  0.04650  Biso   1.000  O
  O7       1.0000 0.22116  0.74939  0.30079  Biso   1.000  O
  O8       1.0000 0.22166  0.74678  0.04867  Biso   1.000  O
  O9       1.0000 0.51846  0.28325  0.19870  Biso   1.000  O
  O10      1.0000 0.53101  0.18033  0.42876  Biso   1.000  O
  O11      1.0000 0.96833  0.82634  0.17002  Biso   1.000  O
  O12      1.0000 0.96815  0.67164  0.41983  Biso   1.000  O
  O13      1.0000 0.77653  0.24644  0.45400  Biso   1.000  O
  O14      1.0000 0.77596  0.26016  0.20486  Biso   1.000  O
  O15      1.0000 0.72643  0.74776  0.45836  Biso   1.000  O
  O16      1.0000 0.72763  0.76154  0.21161  Biso   1.000  O
  Hf9      1.0000 0.14243  0.03733  0.67263  Biso   1.000  Hf
  Hf10     1.0000 0.14138  0.45740  0.92281  Biso   1.000  Hf
  Hf11     1.0000 0.36339  0.53757  0.67256  Biso   1.000  Hf
  Hf12     1.0000 0.36047  0.95977  0.92224  Biso   1.000  Hf
  Hf13     1.0000 0.64125  0.03667  0.57843  Biso   1.000  Hf
  Hf14     1.0000 0.64527  0.44942  0.81788  Biso   1.000  Hf
  Hf15     1.0000 0.86510  0.54118  0.57892  Biso   1.000  Hf
  Hf16     1.0000 0.87026  0.96015  0.82722  Biso   1.000  Hf
  O17      1.0000 0.03367  0.32186  0.58221  Biso   1.000  O
  O18      1.0000 0.03982  0.16993  0.83081  Biso   1.000  O
  O19      1.0000 0.47195  0.81719  0.58127  Biso   1.000  O
  O20      1.0000 0.47009  0.67019  0.82640  Biso   1.000  O
  O21      1.0000 0.28018  0.24499  0.79632  Biso   1.000  O
  O22      1.0000 0.27609  0.24609  0.54722  Biso   1.000  O
  O23      1.0000 0.22759  0.74392  0.79669  Biso   1.000  O
  O24      1.0000 0.22743  0.74779  0.54735  Biso   1.000  O
  O25      1.0000 0.53359  0.31774  0.66915  Biso   1.000  O
  O26      1.0000 0.53865  0.13646  0.90812  Biso   1.000  O
  O27      1.0000 0.97321  0.82259  0.66705  Biso   1.000  O
  O28      1.0000 0.97549  0.67234  0.91795  Biso   1.000  O
  O29      1.0000 0.78758  0.25401  0.94624  Biso   1.000  O
  O30      1.0000 0.78052  0.24313  0.69926  Biso   1.000  O
  O31      1.0000 0.74547  0.77571  0.95552  Biso   1.000  O
  O32      1.0000 0.73043  0.74396  0.70596  Biso   1.000  O
  Au1      1.0000 0.56192  0.55772  0.04384  Biso   1.000  Au
