data_image0
_cell_length_a       10.0887
_cell_length_b       10.2356
_cell_length_c       5.04732
_cell_angle_alpha    90.0006
_cell_angle_beta     88.4132
_cell_angle_gamma    90.0002

_symmetry_space_group_name_H-M    "P 1"
_symmetry_int_tables_number       1

loop_
  _symmetry_equiv_pos_as_xyz
  'x, y, z'

loop_
  _atom_site_label
  _atom_site_occupancy
  _atom_site_fract_x
  _atom_site_fract_y
  _atom_site_fract_z
  _atom_site_thermal_displace_type
  _atom_site_B_iso_or_equiv
  _atom_site_type_symbol
  Au1      1.0000 0.12544  0.97757  0.25051  Biso   1.000  Au
  Zr1      1.0000 0.12543  0.25504  0.75049  Biso   1.000  Zr
  Zr2      1.0000 0.37063  0.25211  0.26403  Biso   1.000  Zr
  Zr3      1.0000 0.37531  0.00688  0.77185  Biso   1.000  Zr
  O1       1.0000 0.97828  0.15574  0.93951  Biso   1.000  O
  O2       1.0000 0.01268  0.10385  0.45548  Biso   1.000  O
  O3       1.0000 0.99886  0.35476  0.49469  Biso   1.000  O
  O4       1.0000 0.00321  0.39958  0.99735  Biso   1.000  O
  O5       1.0000 0.27259  0.15574  0.56152  Biso   1.000  O
  O6       1.0000 0.23820  0.10384  0.04554  Biso   1.000  O
  O7       1.0000 0.25201  0.35475  0.00632  Biso   1.000  O
  O8       1.0000 0.24765  0.39957  0.50366  Biso   1.000  O
  Zr4      1.0000 0.12543  0.50541  0.25050  Biso   1.000  Zr
  Zr5      1.0000 0.12544  0.74505  0.75050  Biso   1.000  Zr
  Zr6      1.0000 0.38270  0.75183  0.26758  Biso   1.000  Zr
  Zr7      1.0000 0.37637  0.49637  0.75239  Biso   1.000  Zr
  O9       1.0000 0.00261  0.64385  0.01979  Biso   1.000  O
  O10      1.0000 0.00260  0.60673  0.52116  Biso   1.000  O
  O11      1.0000 0.01063  0.85213  0.45906  Biso   1.000  O
  O12      1.0000 0.99160  0.88847  0.94865  Biso   1.000  O
  O13      1.0000 0.24826  0.64385  0.48123  Biso   1.000  O
  O14      1.0000 0.24828  0.60673  0.97985  Biso   1.000  O
  O15      1.0000 0.24023  0.85212  0.04197  Biso   1.000  O
  O16      1.0000 0.25926  0.88847  0.55237  Biso   1.000  O
  Zr8      1.0000 0.62544  0.99976  0.25048  Biso   1.000  Zr
  Zr9      1.0000 0.62544  0.24859  0.75049  Biso   1.000  Zr
  Zr10     1.0000 0.88023  0.25213  0.23697  Biso   1.000  Zr
  Zr11     1.0000 0.87557  0.00688  0.72915  Biso   1.000  Zr
  O17      1.0000 0.49371  0.14798  0.01382  Biso   1.000  O
  O18      1.0000 0.51154  0.10211  0.52127  Biso   1.000  O
  O19      1.0000 0.50015  0.35387  0.49892  Biso   1.000  O
  O20      1.0000 0.50301  0.39686  0.99634  Biso   1.000  O
  O21      1.0000 0.75716  0.14799  0.48716  Biso   1.000  O
  O22      1.0000 0.73932  0.10210  0.97969  Biso   1.000  O
  O23      1.0000 0.75071  0.35387  0.00207  Biso   1.000  O
  O24      1.0000 0.74786  0.39687  0.50465  Biso   1.000  O
  Zr12     1.0000 0.62543  0.49783  0.25051  Biso   1.000  Zr
  Zr13     1.0000 0.62543  0.74851  0.75051  Biso   1.000  Zr
  Zr14     1.0000 0.86817  0.75184  0.23343  Biso   1.000  Zr
  Zr15     1.0000 0.87450  0.49639  0.74861  Biso   1.000  Zr
  O25      1.0000 0.50120  0.64497  0.00617  Biso   1.000  O
  O26      1.0000 0.49984  0.60522  0.50416  Biso   1.000  O
  O27      1.0000 0.50575  0.85443  0.50766  Biso   1.000  O
  O28      1.0000 0.49562  0.89599  0.01339  Biso   1.000  O
  O29      1.0000 0.74968  0.64497  0.49487  Biso   1.000  O
  O30      1.0000 0.75104  0.60522  0.99687  Biso   1.000  O
  O31      1.0000 0.74511  0.85443  0.99334  Biso   1.000  O
  O32      1.0000 0.75525  0.89600  0.48759  Biso   1.000  O
