data_image0
_cell_length_a       5.00775
_cell_length_b       10.4422
_cell_length_c       10.0931
_cell_angle_alpha    90.131
_cell_angle_beta     88.9252
_cell_angle_gamma    89.9397

_symmetry_space_group_name_H-M    "P 1"
_symmetry_int_tables_number       1

loop_
  _symmetry_equiv_pos_as_xyz
  'x, y, z'

loop_
  _atom_site_label
  _atom_site_occupancy
  _atom_site_fract_x
  _atom_site_fract_y
  _atom_site_fract_z
  _atom_site_thermal_displace_type
  _atom_site_B_iso_or_equiv
  _atom_site_type_symbol
  Au1      1.0000 0.24328  0.02604  0.10403  Biso   1.000  Au
  Zr1      1.0000 0.27745  0.22972  0.37718  Biso   1.000  Zr
  Zr2      1.0000 0.72689  0.26753  0.12864  Biso   1.000  Zr
  Zr3      1.0000 0.73619  0.48399  0.37701  Biso   1.000  Zr
  O1       1.0000 0.08528  0.18246  0.18815  Biso   1.000  O
  O2       1.0000 0.07488  0.06593  0.44616  Biso   1.000  O
  O3       1.0000 0.93173  0.42865  0.19567  Biso   1.000  O
  O4       1.0000 0.93133  0.31557  0.44206  Biso   1.000  O
  O5       1.0000 0.57028  0.12791  0.25713  Biso   1.000  O
  O6       1.0000 0.54000  0.13151  0.50287  Biso   1.000  O
  O7       1.0000 0.46311  0.38196  0.50012  Biso   1.000  O
  O8       1.0000 0.45632  0.36967  0.25088  Biso   1.000  O
  Zr4      1.0000 0.26331  0.01658  0.62888  Biso   1.000  Zr
  Zr5      1.0000 0.26513  0.23932  0.87202  Biso   1.000  Zr
  Zr6      1.0000 0.73299  0.26605  0.62359  Biso   1.000  Zr
  Zr7      1.0000 0.72927  0.48528  0.87516  Biso   1.000  Zr
  O9       1.0000 0.07888  0.19019  0.68825  Biso   1.000  O
  O10      1.0000 0.06954  0.06473  0.90669  Biso   1.000  O
  O11      1.0000 0.92775  0.43435  0.69531  Biso   1.000  O
  O12      1.0000 0.91917  0.31280  0.94253  Biso   1.000  O
  O13      1.0000 0.54260  0.11995  0.75039  Biso   1.000  O
  O14      1.0000 0.52668  0.12853  0.00258  Biso   1.000  O
  O15      1.0000 0.45817  0.38175  0.00034  Biso   1.000  O
  O16      1.0000 0.45920  0.36940  0.74888  Biso   1.000  O
  Zr8      1.0000 0.27122  0.51584  0.12967  Biso   1.000  Zr
  Zr9      1.0000 0.27546  0.73659  0.37652  Biso   1.000  Zr
  Zr10     1.0000 0.73950  0.76303  0.12675  Biso   1.000  Zr
  Zr11     1.0000 0.73653  0.98505  0.37561  Biso   1.000  Zr
  O17      1.0000 0.07659  0.68291  0.19748  Biso   1.000  O
  O18      1.0000 0.07318  0.56573  0.44612  Biso   1.000  O
  O19      1.0000 0.94623  0.93337  0.19168  Biso   1.000  O
  O20      1.0000 0.93625  0.81646  0.44809  Biso   1.000  O
  O21      1.0000 0.54520  0.61258  0.24908  Biso   1.000  O
  O22      1.0000 0.53997  0.63352  0.49976  Biso   1.000  O
  O23      1.0000 0.46170  0.88412  0.50384  Biso   1.000  O
  O24      1.0000 0.50367  0.85721  0.25944  Biso   1.000  O
  Zr12     1.0000 0.26658  0.51716  0.62512  Biso   1.000  Zr
  Zr13     1.0000 0.25829  0.73165  0.87868  Biso   1.000  Zr
  Zr14     1.0000 0.73161  0.76599  0.62522  Biso   1.000  Zr
  Zr15     1.0000 0.71355  0.98016  0.87311  Biso   1.000  Zr
  O25      1.0000 0.06556  0.68322  0.69876  Biso   1.000  O
  O26      1.0000 0.06395  0.56505  0.94912  Biso   1.000  O
  O27      1.0000 0.91635  0.93450  0.68997  Biso   1.000  O
  O28      1.0000 0.91131  0.81633  0.94115  Biso   1.000  O
  O29      1.0000 0.53320  0.61715  0.75053  Biso   1.000  O
  O30      1.0000 0.53436  0.63321  0.99991  Biso   1.000  O
  O31      1.0000 0.43890  0.88172  0.00872  Biso   1.000  O
  O32      1.0000 0.45194  0.86666  0.75347  Biso   1.000  O
