data_image0
_cell_length_a       10.1981
_cell_length_b       10.3164
_cell_length_c       5.26794
_cell_angle_alpha    89.756
_cell_angle_beta     81.0591
_cell_angle_gamma    89.6034

_symmetry_space_group_name_H-M    "P 1"
_symmetry_int_tables_number       1

loop_
  _symmetry_equiv_pos_as_xyz
  'x, y, z'

loop_
  _atom_site_label
  _atom_site_occupancy
  _atom_site_fract_x
  _atom_site_fract_y
  _atom_site_fract_z
  _atom_site_thermal_displace_type
  _atom_site_B_iso_or_equiv
  _atom_site_type_symbol
  Au1      1.0000 0.12335  0.01325  0.33267  Biso   1.000  Au
  Zr1      1.0000 0.14256  0.22924  0.78954  Biso   1.000  Zr
  Zr2      1.0000 0.36024  0.27041  0.19877  Biso   1.000  Zr
  Zr3      1.0000 0.36203  0.48028  0.70599  Biso   1.000  Zr
  O1       1.0000 0.04289  0.16243  0.16376  Biso   1.000  O
  O2       1.0000 0.02214  0.08790  0.69283  Biso   1.000  O
  O3       1.0000 0.46604  0.41563  0.34328  Biso   1.000  O
  O4       1.0000 0.47086  0.33995  0.84640  Biso   1.000  O
  O5       1.0000 0.26724  0.12108  0.45129  Biso   1.000  O
  O6       1.0000 0.29477  0.13834  0.92986  Biso   1.000  O
  O7       1.0000 0.22459  0.38260  0.01642  Biso   1.000  O
  O8       1.0000 0.22830  0.36902  0.51654  Biso   1.000  O
  Zr4      1.0000 0.14004  0.52190  0.29233  Biso   1.000  Zr
  Zr5      1.0000 0.13714  0.72999  0.79205  Biso   1.000  Zr
  Zr6      1.0000 0.36151  0.77402  0.19888  Biso   1.000  Zr
  Zr7      1.0000 0.36130  0.98194  0.70375  Biso   1.000  Zr
  O9       1.0000 0.03537  0.66879  0.15969  Biso   1.000  O
  O10      1.0000 0.03692  0.58071  0.66004  Biso   1.000  O
  O11      1.0000 0.46451  0.91648  0.34352  Biso   1.000  O
  O12      1.0000 0.46753  0.83453  0.83910  Biso   1.000  O
  O13      1.0000 0.27585  0.63192  0.47911  Biso   1.000  O
  O14      1.0000 0.27566  0.62260  0.97931  Biso   1.000  O
  O15      1.0000 0.22947  0.88141  0.99896  Biso   1.000  O
  O16      1.0000 0.21679  0.87060  0.50695  Biso   1.000  O
  Zr8      1.0000 0.63756  0.02120  0.29305  Biso   1.000  Zr
  Zr9      1.0000 0.63895  0.22972  0.79374  Biso   1.000  Zr
  Zr10     1.0000 0.86490  0.26849  0.21850  Biso   1.000  Zr
  Zr11     1.0000 0.86396  0.47681  0.71437  Biso   1.000  Zr
  O17      1.0000 0.53403  0.16688  0.15558  Biso   1.000  O
  O18      1.0000 0.53704  0.08294  0.65494  Biso   1.000  O
  O19      1.0000 0.96888  0.41396  0.35412  Biso   1.000  O
  O20      1.0000 0.96880  0.33452  0.86321  Biso   1.000  O
  O21      1.0000 0.77537  0.12791  0.48567  Biso   1.000  O
  O22      1.0000 0.77430  0.12060  0.98828  Biso   1.000  O
  O23      1.0000 0.72752  0.37672  0.02467  Biso   1.000  O
  O24      1.0000 0.72784  0.37029  0.52300  Biso   1.000  O
  Zr12     1.0000 0.63786  0.51912  0.29003  Biso   1.000  Zr
  Zr13     1.0000 0.63804  0.72690  0.78806  Biso   1.000  Zr
  Zr14     1.0000 0.85929  0.76755  0.20779  Biso   1.000  Zr
  Zr15     1.0000 0.85386  0.97788  0.72089  Biso   1.000  Zr
  O25      1.0000 0.53445  0.66555  0.15068  Biso   1.000  O
  O26      1.0000 0.53458  0.58397  0.65064  Biso   1.000  O
  O27      1.0000 0.95548  0.92074  0.33993  Biso   1.000  O
  O28      1.0000 0.96158  0.82972  0.84057  Biso   1.000  O
  O29      1.0000 0.77619  0.62645  0.48052  Biso   1.000  O
  O30      1.0000 0.77624  0.62003  0.98118  Biso   1.000  O
  O31      1.0000 0.72118  0.87760  0.02098  Biso   1.000  O
  O32      1.0000 0.72500  0.86942  0.51856  Biso   1.000  O
