data_image0
_cell_length_a       10.0178
_cell_length_b       10.4371
_cell_length_c       5.04834
_cell_angle_alpha    90.1393
_cell_angle_beta     89.1449
_cell_angle_gamma    89.7718

_symmetry_space_group_name_H-M    "P 1"
_symmetry_int_tables_number       1

loop_
  _symmetry_equiv_pos_as_xyz
  'x, y, z'

loop_
  _atom_site_label
  _atom_site_occupancy
  _atom_site_fract_x
  _atom_site_fract_y
  _atom_site_fract_z
  _atom_site_thermal_displace_type
  _atom_site_B_iso_or_equiv
  _atom_site_type_symbol
  Au1      1.0000 0.11838  0.02462  0.21454  Biso   1.000  Au
  Zr1      1.0000 0.13989  0.23671  0.74796  Biso   1.000  Zr
  Zr2      1.0000 0.36861  0.26811  0.26158  Biso   1.000  Zr
  Zr3      1.0000 0.36633  0.48593  0.75584  Biso   1.000  Zr
  O1       1.0000 0.04034  0.18377  0.37335  Biso   1.000  O
  O2       1.0000 0.04001  0.06443  0.81613  Biso   1.000  O
  O3       1.0000 0.46504  0.43440  0.39438  Biso   1.000  O
  O4       1.0000 0.46293  0.31484  0.88712  Biso   1.000  O
  O5       1.0000 0.29277  0.13570  0.53341  Biso   1.000  O
  O6       1.0000 0.26091  0.12753  0.02642  Biso   1.000  O
  O7       1.0000 0.23180  0.38199  0.00142  Biso   1.000  O
  O8       1.0000 0.22793  0.37244  0.49968  Biso   1.000  O
  Zr4      1.0000 0.13407  0.51634  0.25411  Biso   1.000  Zr
  Zr5      1.0000 0.13328  0.73349  0.75653  Biso   1.000  Zr
  Zr6      1.0000 0.36530  0.76629  0.26311  Biso   1.000  Zr
  Zr7      1.0000 0.36109  0.98386  0.75628  Biso   1.000  Zr
  O9       1.0000 0.03487  0.68297  0.39221  Biso   1.000  O
  O10      1.0000 0.03385  0.56442  0.89357  Biso   1.000  O
  O11      1.0000 0.46733  0.93406  0.39748  Biso   1.000  O
  O12      1.0000 0.46133  0.81731  0.89965  Biso   1.000  O
  O13      1.0000 0.26872  0.61462  0.50183  Biso   1.000  O
  O14      1.0000 0.26895  0.63429  0.00332  Biso   1.000  O
  O15      1.0000 0.22064  0.88324  0.02745  Biso   1.000  O
  O16      1.0000 0.24132  0.85881  0.52976  Biso   1.000  O
  Zr8      1.0000 0.63242  0.01549  0.24624  Biso   1.000  Zr
  Zr9      1.0000 0.63309  0.23244  0.74910  Biso   1.000  Zr
  Zr10     1.0000 0.86233  0.26565  0.24445  Biso   1.000  Zr
  Zr11     1.0000 0.86661  0.48268  0.74969  Biso   1.000  Zr
  O17      1.0000 0.54383  0.18827  0.37671  Biso   1.000  O
  O18      1.0000 0.53429  0.06627  0.88724  Biso   1.000  O
  O19      1.0000 0.96519  0.42828  0.38845  Biso   1.000  O
  O20      1.0000 0.96456  0.31451  0.88478  Biso   1.000  O
  O21      1.0000 0.77027  0.11642  0.49064  Biso   1.000  O
  O22      1.0000 0.77288  0.13049  0.98951  Biso   1.000  O
  O23      1.0000 0.72986  0.38121  0.99924  Biso   1.000  O
  O24      1.0000 0.73006  0.36754  0.49952  Biso   1.000  O
  Zr12     1.0000 0.63459  0.51647  0.25505  Biso   1.000  Zr
  Zr13     1.0000 0.63192  0.73442  0.75347  Biso   1.000  Zr
  Zr14     1.0000 0.86794  0.76316  0.24203  Biso   1.000  Zr
  Zr15     1.0000 0.86253  0.98166  0.73896  Biso   1.000  Zr
  O25      1.0000 0.53493  0.68322  0.39843  Biso   1.000  O
  O26      1.0000 0.53494  0.56661  0.89587  Biso   1.000  O
  O27      1.0000 0.96223  0.93450  0.36741  Biso   1.000  O
  O28      1.0000 0.96094  0.81571  0.88004  Biso   1.000  O
  O29      1.0000 0.76992  0.61569  0.49783  Biso   1.000  O
  O30      1.0000 0.76813  0.63183  0.99693  Biso   1.000  O
  O31      1.0000 0.72686  0.88083  0.99325  Biso   1.000  O
  O32      1.0000 0.73426  0.86558  0.49275  Biso   1.000  O
