data_image0
_cell_length_a       10.1859
_cell_length_b       10.3741
_cell_length_c       5.29246
_cell_angle_alpha    89.7462
_cell_angle_beta     90.8698
_cell_angle_gamma    89.7804

_symmetry_space_group_name_H-M    "P 1"
_symmetry_int_tables_number       1

loop_
  _symmetry_equiv_pos_as_xyz
  'x, y, z'

loop_
  _atom_site_label
  _atom_site_occupancy
  _atom_site_fract_x
  _atom_site_fract_y
  _atom_site_fract_z
  _atom_site_thermal_displace_type
  _atom_site_B_iso_or_equiv
  _atom_site_type_symbol
  Zr1      1.0000 0.13769  0.01777  0.34752  Biso   1.000  Zr
  Zr2      1.0000 0.13707  0.22617  0.85395  Biso   1.000  Zr
  Zr3      1.0000 0.34661  0.26519  0.37125  Biso   1.000  Zr
  Zr4      1.0000 0.36244  0.48303  0.84612  Biso   1.000  Zr
  Zr5      1.0000 0.64114  0.01864  0.14934  Biso   1.000  Zr
  Zr6      1.0000 0.64251  0.22163  0.63561  Biso   1.000  Zr
  Zr7      1.0000 0.86396  0.27218  0.15557  Biso   1.000  Zr
  Zr8      1.0000 0.86821  0.48172  0.65911  Biso   1.000  Zr
  O1       1.0000 0.03235  0.16193  0.16789  Biso   1.000  O
  O2       1.0000 0.03321  0.08369  0.66573  Biso   1.000  O
  O3       1.0000 0.45123  0.44597  0.20477  Biso   1.000  O
  O4       1.0000 0.47116  0.33533  0.65778  Biso   1.000  O
  O5       1.0000 0.26973  0.12447  0.60352  Biso   1.000  O
  O6       1.0000 0.27424  0.12095  0.10141  Biso   1.000  O
  O7       1.0000 0.22387  0.37457  0.60358  Biso   1.000  O
  O8       1.0000 0.22604  0.37199  0.09938  Biso   1.000  O
  O9       1.0000 0.51355  0.12504  0.38876  Biso   1.000  O
  O10      1.0000 0.53222  0.07740  0.83567  Biso   1.000  O
  O11      1.0000 0.97253  0.41262  0.33881  Biso   1.000  O
  O12      1.0000 0.97385  0.33646  0.83937  Biso   1.000  O
  O13      1.0000 0.78282  0.12280  0.88990  Biso   1.000  O
  O14      1.0000 0.77826  0.12319  0.39689  Biso   1.000  O
  O15      1.0000 0.74260  0.38636  0.91308  Biso   1.000  O
  O16      1.0000 0.73365  0.37943  0.42189  Biso   1.000  O
  Zr9      1.0000 0.14054  0.52062  0.34130  Biso   1.000  Zr
  Zr10     1.0000 0.13999  0.72951  0.84293  Biso   1.000  Zr
  Zr11     1.0000 0.36384  0.77083  0.34508  Biso   1.000  Zr
  Zr12     1.0000 0.36270  0.97498  0.84987  Biso   1.000  Zr
  Zr13     1.0000 0.64308  0.52994  0.16065  Biso   1.000  Zr
  Zr14     1.0000 0.64140  0.73166  0.65651  Biso   1.000  Zr
  Zr15     1.0000 0.86451  0.77137  0.15806  Biso   1.000  Zr
  Zr16     1.0000 0.86414  0.97771  0.65705  Biso   1.000  Zr
  O17      1.0000 0.03370  0.66211  0.16181  Biso   1.000  O
  O18      1.0000 0.03730  0.58755  0.66107  Biso   1.000  O
  O19      1.0000 0.47120  0.90561  0.15619  Biso   1.000  O
  O20      1.0000 0.46899  0.83359  0.66470  Biso   1.000  O
  O21      1.0000 0.27814  0.62336  0.58991  Biso   1.000  O
  O22      1.0000 0.27433  0.62585  0.08649  Biso   1.000  O
  O23      1.0000 0.22741  0.87345  0.59441  Biso   1.000  O
  O24      1.0000 0.22561  0.87359  0.09577  Biso   1.000  O
  O25      1.0000 0.53870  0.67181  0.33360  Biso   1.000  O
  O26      1.0000 0.53558  0.58327  0.83276  Biso   1.000  O
  O27      1.0000 0.97077  0.91207  0.33635  Biso   1.000  O
  O28      1.0000 0.97028  0.83574  0.83845  Biso   1.000  O
  O29      1.0000 0.77684  0.63002  0.90894  Biso   1.000  O
  O30      1.0000 0.77955  0.62735  0.40944  Biso   1.000  O
  O31      1.0000 0.72816  0.87537  0.91103  Biso   1.000  O
  O32      1.0000 0.72905  0.87454  0.41156  Biso   1.000  O
  Au1      1.0000 0.56199  0.27978  0.09971  Biso   1.000  Au
