data_image0
_cell_length_a       5.14915
_cell_length_b       10.3948
_cell_length_c       10.6074
_cell_angle_alpha    90.3122
_cell_angle_beta     79.5742
_cell_angle_gamma    89.8486

_symmetry_space_group_name_H-M    "P 1"
_symmetry_int_tables_number       1

loop_
  _symmetry_equiv_pos_as_xyz
  'x, y, z'

loop_
  _atom_site_label
  _atom_site_occupancy
  _atom_site_fract_x
  _atom_site_fract_y
  _atom_site_fract_z
  _atom_site_thermal_displace_type
  _atom_site_B_iso_or_equiv
  _atom_site_type_symbol
  Zr1      1.0000 0.26658  0.01917  0.14558  Biso   1.000  Zr
  Zr2      1.0000 0.31286  0.23606  0.40485  Biso   1.000  Zr
  Zr3      1.0000 0.70636  0.27690  0.09811  Biso   1.000  Zr
  Zr4      1.0000 0.72719  0.48012  0.34933  Biso   1.000  Zr
  O1       1.0000 0.05347  0.16227  0.07268  Biso   1.000  O
  O2       1.0000 0.09534  0.05118  0.34596  Biso   1.000  O
  O3       1.0000 0.91862  0.43169  0.15894  Biso   1.000  O
  O4       1.0000 0.97848  0.37020  0.44867  Biso   1.000  O
  O5       1.0000 0.51728  0.13170  0.23607  Biso   1.000  O
  O6       1.0000 0.55122  0.11119  0.49708  Biso   1.000  O
  O7       1.0000 0.43742  0.38220  0.00726  Biso   1.000  O
  O8       1.0000 0.42914  0.38042  0.25781  Biso   1.000  O
  Zr5      1.0000 0.27180  0.01986  0.64639  Biso   1.000  Zr
  Zr6      1.0000 0.26998  0.22854  0.89425  Biso   1.000  Zr
  Zr7      1.0000 0.73454  0.27516  0.61181  Biso   1.000  Zr
  Zr8      1.0000 0.71782  0.48083  0.85741  Biso   1.000  Zr
  O9       1.0000 0.07356  0.16845  0.57749  Biso   1.000  O
  O10      1.0000 0.05900  0.08617  0.82455  Biso   1.000  O
  O11      1.0000 0.93978  0.41211  0.68528  Biso   1.000  O
  O12      1.0000 0.92582  0.33540  0.92219  Biso   1.000  O
  O13      1.0000 0.54470  0.12954  0.74121  Biso   1.000  O
  O14      1.0000 0.54007  0.12453  0.98809  Biso   1.000  O
  O15      1.0000 0.47067  0.37520  0.51382  Biso   1.000  O
  O16      1.0000 0.45212  0.37301  0.76143  Biso   1.000  O
  Zr9      1.0000 0.27146  0.52579  0.14395  Biso   1.000  Zr
  Zr10     1.0000 0.27503  0.72409  0.39629  Biso   1.000  Zr
  Zr11     1.0000 0.71566  0.77220  0.10437  Biso   1.000  Zr
  Zr12     1.0000 0.71675  0.96454  0.35981  Biso   1.000  Zr
  O17      1.0000 0.06558  0.67460  0.07693  Biso   1.000  O
  O18      1.0000 0.06008  0.59055  0.32109  Biso   1.000  O
  O19      1.0000 0.91892  0.91889  0.17443  Biso   1.000  O
  O20      1.0000 0.91886  0.82248  0.42417  Biso   1.000  O
  O21      1.0000 0.54798  0.62984  0.24074  Biso   1.000  O
  O22      1.0000 0.54107  0.61711  0.49069  Biso   1.000  O
  O23      1.0000 0.44513  0.88146  0.01106  Biso   1.000  O
  O24      1.0000 0.44561  0.86704  0.26077  Biso   1.000  O
  Zr13     1.0000 0.27462  0.52142  0.64754  Biso   1.000  Zr
  Zr14     1.0000 0.26898  0.73136  0.89636  Biso   1.000  Zr
  Zr15     1.0000 0.71836  0.76828  0.60691  Biso   1.000  Zr
  Zr16     1.0000 0.71652  0.98043  0.85429  Biso   1.000  Zr
  O25      1.0000 0.05943  0.66061  0.57831  Biso   1.000  O
  O26      1.0000 0.06198  0.58807  0.82839  Biso   1.000  O
  O27      1.0000 0.92670  0.91495  0.67132  Biso   1.000  O
  O28      1.0000 0.92726  0.83818  0.92255  Biso   1.000  O
  O29      1.0000 0.54464  0.62773  0.74080  Biso   1.000  O
  O30      1.0000 0.54493  0.62546  0.99073  Biso   1.000  O
  O31      1.0000 0.44126  0.87175  0.51288  Biso   1.000  O
  O32      1.0000 0.44534  0.87260  0.76144  Biso   1.000  O
  Au1      1.0000 0.87667  0.21876  0.31291  Biso   1.000  Au
