data_image0
_cell_length_a       5.08943
_cell_length_b       10.4061
_cell_length_c       10.2069
_cell_angle_alpha    90.0038
_cell_angle_beta     87.3055
_cell_angle_gamma    90.0255

_symmetry_space_group_name_H-M    "P 1"
_symmetry_int_tables_number       1

loop_
  _symmetry_equiv_pos_as_xyz
  'x, y, z'

loop_
  _atom_site_label
  _atom_site_occupancy
  _atom_site_fract_x
  _atom_site_fract_y
  _atom_site_fract_z
  _atom_site_thermal_displace_type
  _atom_site_B_iso_or_equiv
  _atom_site_type_symbol
  Zr1      1.0000 0.25102  0.94793  0.12547  Biso   1.000  Zr
  Zr2      1.0000 0.28940  0.24817  0.38239  Biso   1.000  Zr
  Zr3      1.0000 0.75016  0.29593  0.12548  Biso   1.000  Zr
  Zr4      1.0000 0.77762  0.00342  0.37427  Biso   1.000  Zr
  O1       1.0000 0.85787  0.16400  0.97772  Biso   1.000  O
  O2       1.0000 0.13650  0.06595  0.29178  Biso   1.000  O
  O3       1.0000 0.01224  0.36286  0.26389  Biso   1.000  O
  O4       1.0000 0.99494  0.41163  0.99816  Biso   1.000  O
  O5       1.0000 0.64402  0.16393  0.27320  Biso   1.000  O
  O6       1.0000 0.36570  0.06597  0.95926  Biso   1.000  O
  O7       1.0000 0.48903  0.36279  0.98690  Biso   1.000  O
  O8       1.0000 0.50612  0.41161  0.25288  Biso   1.000  O
  Zr5      1.0000 0.25087  0.00890  0.62552  Biso   1.000  Zr
  Zr6      1.0000 0.21257  0.24825  0.86848  Biso   1.000  Zr
  Zr7      1.0000 0.75098  0.24963  0.62547  Biso   1.000  Zr
  Zr8      1.0000 0.72418  0.00336  0.87674  Biso   1.000  Zr
  O9       1.0000 0.01475  0.15273  0.50701  Biso   1.000  O
  O10      1.0000 0.98869  0.10634  0.74824  Biso   1.000  O
  O11      1.0000 0.97531  0.35682  0.75102  Biso   1.000  O
  O12      1.0000 0.02658  0.39889  0.50419  Biso   1.000  O
  O13      1.0000 0.48693  0.15278  0.74389  Biso   1.000  O
  O14      1.0000 0.51300  0.10636  0.50266  Biso   1.000  O
  O15      1.0000 0.52679  0.35675  0.49990  Biso   1.000  O
  O16      1.0000 0.47559  0.39895  0.74666  Biso   1.000  O
  Zr9      1.0000 0.25050  0.51392  0.12549  Biso   1.000  Zr
  Zr10     1.0000 0.26941  0.75857  0.38948  Biso   1.000  Zr
  Zr11     1.0000 0.75074  0.74018  0.12544  Biso   1.000  Zr
  Zr12     1.0000 0.77226  0.49580  0.38624  Biso   1.000  Zr
  O17      1.0000 0.06488  0.65776  0.00875  Biso   1.000  O
  O18      1.0000 0.93506  0.59461  0.23563  Biso   1.000  O
  O19      1.0000 0.01657  0.83599  0.25436  Biso   1.000  O
  O20      1.0000 0.95645  0.89563  0.00578  Biso   1.000  O
  O21      1.0000 0.43613  0.65786  0.24195  Biso   1.000  O
  O22      1.0000 0.56591  0.59460  0.01518  Biso   1.000  O
  O23      1.0000 0.48512  0.83599  0.99653  Biso   1.000  O
  O24      1.0000 0.54535  0.89559  0.24517  Biso   1.000  O
  Zr13     1.0000 0.25100  0.50392  0.62550  Biso   1.000  Zr
  Zr14     1.0000 0.23231  0.75852  0.86138  Biso   1.000  Zr
  Zr15     1.0000 0.75089  0.75664  0.62538  Biso   1.000  Zr
  Zr16     1.0000 0.72969  0.49592  0.86480  Biso   1.000  Zr
  O25      1.0000 0.99528  0.64731  0.49552  Biso   1.000  O
  O26      1.0000 0.00386  0.61083  0.74875  Biso   1.000  O
  O27      1.0000 0.97494  0.85971  0.75418  Biso   1.000  O
  O28      1.0000 0.01857  0.89789  0.50729  Biso   1.000  O
  O29      1.0000 0.50641  0.64736  0.75529  Biso   1.000  O
  O30      1.0000 0.49788  0.61084  0.50201  Biso   1.000  O
  O31      1.0000 0.52692  0.85974  0.49672  Biso   1.000  O
  O32      1.0000 0.48329  0.89792  0.74360  Biso   1.000  O
  Au1      1.0000 0.24958  0.19618  0.12545  Biso   1.000  Au
