data_image0
_cell_length_a       10.0887
_cell_length_b       5.04735
_cell_length_c       10.2355
_cell_angle_alpha    90.0025
_cell_angle_beta     90.0006
_cell_angle_gamma    91.5868

_symmetry_space_group_name_H-M    "P 1"
_symmetry_int_tables_number       1

loop_
  _symmetry_equiv_pos_as_xyz
  'x, y, z'

loop_
  _atom_site_label
  _atom_site_occupancy
  _atom_site_fract_x
  _atom_site_fract_y
  _atom_site_fract_z
  _atom_site_thermal_displace_type
  _atom_site_B_iso_or_equiv
  _atom_site_type_symbol
  Au1      1.0000 0.12536  0.00036  0.14783  Biso   1.000  Au
  Zr1      1.0000 0.12532  0.50035  0.38037  Biso   1.000  Zr
  Zr2      1.0000 0.37526  0.47904  0.11852  Biso   1.000  Zr
  Zr3      1.0000 0.38262  0.98323  0.37353  Biso   1.000  Zr
  O1       1.0000 0.97826  0.31131  0.96970  Biso   1.000  O
  O2       1.0000 0.99150  0.30225  0.23697  Biso   1.000  O
  O3       1.0000 0.01051  0.79183  0.27325  Biso   1.000  O
  O4       1.0000 0.01263  0.79536  0.02155  Biso   1.000  O
  O5       1.0000 0.24013  0.20887  0.27331  Biso   1.000  O
  O6       1.0000 0.23815  0.20528  0.02157  Biso   1.000  O
  O7       1.0000 0.27255  0.68932  0.96965  Biso   1.000  O
  O8       1.0000 0.25912  0.69842  0.23690  Biso   1.000  O
  Zr4      1.0000 0.12535  0.00036  0.62001  Biso   1.000  Zr
  Zr5      1.0000 0.12536  0.50039  0.87036  Biso   1.000  Zr
  Zr6      1.0000 0.37629  0.49847  0.62901  Biso   1.000  Zr
  Zr7      1.0000 0.37055  0.98683  0.87329  Biso   1.000  Zr
  O9       1.0000 0.00245  0.23108  0.48158  Biso   1.000  O
  O10      1.0000 0.00314  0.25354  0.72585  Biso   1.000  O
  O11      1.0000 0.99876  0.75618  0.77065  Biso   1.000  O
  O12      1.0000 0.00253  0.72968  0.51869  Biso   1.000  O
  O13      1.0000 0.25194  0.24455  0.77066  Biso   1.000  O
  O14      1.0000 0.24811  0.27114  0.51871  Biso   1.000  O
  O15      1.0000 0.24818  0.76972  0.48154  Biso   1.000  O
  O16      1.0000 0.24756  0.74722  0.72582  Biso   1.000  O
  Zr8      1.0000 0.62537  0.00037  0.12561  Biso   1.000  Zr
  Zr9      1.0000 0.62534  0.50034  0.37690  Biso   1.000  Zr
  Zr10     1.0000 0.87550  0.52174  0.11852  Biso   1.000  Zr
  Zr11     1.0000 0.86806  0.01748  0.37353  Biso   1.000  Zr
  O17      1.0000 0.49366  0.23702  0.97740  Biso   1.000  O
  O18      1.0000 0.49552  0.23733  0.22939  Biso   1.000  O
  O19      1.0000 0.50562  0.74305  0.27093  Biso   1.000  O
  O20      1.0000 0.51150  0.72954  0.02327  Biso   1.000  O
  O21      1.0000 0.74500  0.25753  0.27093  Biso   1.000  O
  O22      1.0000 0.73931  0.27105  0.02325  Biso   1.000  O
  O23      1.0000 0.75712  0.76361  0.97740  Biso   1.000  O
  O24      1.0000 0.75514  0.76324  0.22939  Biso   1.000  O
  Zr12     1.0000 0.62536  0.00032  0.62757  Biso   1.000  Zr
  Zr13     1.0000 0.62536  0.50036  0.87678  Biso   1.000  Zr
  Zr14     1.0000 0.87443  0.50221  0.62900  Biso   1.000  Zr
  Zr15     1.0000 0.88016  0.01395  0.87331  Biso   1.000  Zr
  O25      1.0000 0.50103  0.24473  0.48041  Biso   1.000  O
  O26      1.0000 0.50295  0.25456  0.72851  Biso   1.000  O
  O27      1.0000 0.50007  0.75195  0.77151  Biso   1.000  O
  O28      1.0000 0.49976  0.74669  0.52016  Biso   1.000  O
  O29      1.0000 0.75066  0.24875  0.77150  Biso   1.000  O
  O30      1.0000 0.75088  0.25409  0.52016  Biso   1.000  O
  O31      1.0000 0.74959  0.75606  0.48041  Biso   1.000  O
  O32      1.0000 0.74775  0.74615  0.72851  Biso   1.000  O
