data_image0
_cell_length_a       10.2456
_cell_length_b       10.3692
_cell_length_c       10.5587
_cell_angle_alpha    90.1754
_cell_angle_beta     79.9554
_cell_angle_gamma    89.9283

_symmetry_space_group_name_H-M    "P 1"
_symmetry_int_tables_number       1

loop_
  _symmetry_equiv_pos_as_xyz
  'x, y, z'

loop_
  _atom_site_label
  _atom_site_occupancy
  _atom_site_fract_x
  _atom_site_fract_y
  _atom_site_fract_z
  _atom_site_thermal_displace_type
  _atom_site_B_iso_or_equiv
  _atom_site_type_symbol
  Zr1      1.0000 0.13218  0.02134  0.14361  Biso   1.000  Zr
  Zr2      1.0000 0.13732  0.22851  0.39355  Biso   1.000  Zr
  Zr3      1.0000 0.35478  0.27415  0.09707  Biso   1.000  Zr
  Zr4      1.0000 0.36054  0.47888  0.34976  Biso   1.000  Zr
  O1       1.0000 0.03167  0.16799  0.07637  Biso   1.000  O
  O2       1.0000 0.02916  0.08175  0.32988  Biso   1.000  O
  O3       1.0000 0.45989  0.43026  0.16011  Biso   1.000  O
  O4       1.0000 0.48778  0.36951  0.44688  Biso   1.000  O
  O5       1.0000 0.26041  0.12690  0.23477  Biso   1.000  O
  O6       1.0000 0.27117  0.11307  0.49223  Biso   1.000  O
  O7       1.0000 0.22021  0.38191  0.00529  Biso   1.000  O
  O8       1.0000 0.21340  0.37643  0.25539  Biso   1.000  O
  Zr5      1.0000 0.13780  0.01981  0.64590  Biso   1.000  Zr
  Zr6      1.0000 0.13586  0.22908  0.89295  Biso   1.000  Zr
  Zr7      1.0000 0.36204  0.27561  0.60732  Biso   1.000  Zr
  Zr8      1.0000 0.35999  0.47990  0.85617  Biso   1.000  Zr
  O9       1.0000 0.03621  0.16789  0.57934  Biso   1.000  O
  O10      1.0000 0.03234  0.08319  0.82768  Biso   1.000  O
  O11      1.0000 0.46760  0.41308  0.68250  Biso   1.000  O
  O12      1.0000 0.46481  0.33384  0.92167  Biso   1.000  O
  O13      1.0000 0.27419  0.12965  0.73902  Biso   1.000  O
  O14      1.0000 0.27193  0.12358  0.98644  Biso   1.000  O
  O15      1.0000 0.22769  0.37513  0.50836  Biso   1.000  O
  O16      1.0000 0.22438  0.37250  0.75832  Biso   1.000  O
  Zr9      1.0000 0.13793  0.52329  0.14464  Biso   1.000  Zr
  Zr10     1.0000 0.13747  0.72743  0.39632  Biso   1.000  Zr
  Zr11     1.0000 0.35975  0.77321  0.10450  Biso   1.000  Zr
  Zr12     1.0000 0.36029  0.96728  0.35839  Biso   1.000  Zr
  O17      1.0000 0.03249  0.66889  0.07780  Biso   1.000  O
  O18      1.0000 0.03277  0.58495  0.32730  Biso   1.000  O
  O19      1.0000 0.46355  0.92005  0.17372  Biso   1.000  O
  O20      1.0000 0.46064  0.82294  0.42250  Biso   1.000  O
  O21      1.0000 0.27401  0.63031  0.24058  Biso   1.000  O
  O22      1.0000 0.27262  0.61835  0.49071  Biso   1.000  O
  O23      1.0000 0.22333  0.88009  0.00997  Biso   1.000  O
  O24      1.0000 0.22284  0.87002  0.26101  Biso   1.000  O
  Zr13     1.0000 0.13849  0.52156  0.64494  Biso   1.000  Zr
  Zr14     1.0000 0.13681  0.72948  0.89614  Biso   1.000  Zr
  Zr15     1.0000 0.36043  0.76831  0.60634  Biso   1.000  Zr
  Zr16     1.0000 0.35977  0.97990  0.85384  Biso   1.000  Zr
  O25      1.0000 0.03171  0.66541  0.57854  Biso   1.000  O
  O26      1.0000 0.03354  0.58421  0.82801  Biso   1.000  O
  O27      1.0000 0.46441  0.91640  0.67025  Biso   1.000  O
  O28      1.0000 0.46448  0.83615  0.92185  Biso   1.000  O
  O29      1.0000 0.27438  0.62771  0.74088  Biso   1.000  O
  O30      1.0000 0.27462  0.62443  0.99112  Biso   1.000  O
  O31      1.0000 0.22259  0.87351  0.51197  Biso   1.000  O
  O32      1.0000 0.22372  0.87136  0.76061  Biso   1.000  O
  Zr17     1.0000 0.63961  0.01962  0.14761  Biso   1.000  Zr
  Zr18     1.0000 0.65650  0.23419  0.40657  Biso   1.000  Zr
  Zr19     1.0000 0.85951  0.27352  0.10551  Biso   1.000  Zr
  Zr20     1.0000 0.86356  0.48016  0.35414  Biso   1.000  Zr
  O33      1.0000 0.53032  0.16214  0.07448  Biso   1.000  O
  O34      1.0000 0.55528  0.05305  0.34751  Biso   1.000  O
  O35      1.0000 0.96417  0.41952  0.16982  Biso   1.000  O
  O36      1.0000 0.96530  0.33205  0.42168  Biso   1.000  O
  O37      1.0000 0.77621  0.13136  0.24205  Biso   1.000  O
  O38      1.0000 0.78084  0.11956  0.49559  Biso   1.000  O
  O39      1.0000 0.72268  0.37903  0.01187  Biso   1.000  O
  O40      1.0000 0.72535  0.37380  0.26268  Biso   1.000  O
  Zr21     1.0000 0.63667  0.02138  0.64581  Biso   1.000  Zr
  Zr22     1.0000 0.63790  0.22815  0.89667  Biso   1.000  Zr
  Zr23     1.0000 0.86564  0.27093  0.60981  Biso   1.000  Zr
  Zr24     1.0000 0.86033  0.47970  0.85588  Biso   1.000  Zr
  O41      1.0000 0.53529  0.16921  0.57807  Biso   1.000  O
  O42      1.0000 0.53213  0.08468  0.82619  Biso   1.000  O
  O43      1.0000 0.96702  0.41765  0.67293  Biso   1.000  O
  O44      1.0000 0.96324  0.33357  0.92077  Biso   1.000  O
  O45      1.0000 0.77390  0.12880  0.74266  Biso   1.000  O
  O46      1.0000 0.77406  0.12213  0.99217  Biso   1.000  O
  O47      1.0000 0.73190  0.37828  0.51535  Biso   1.000  O
  O48      1.0000 0.72560  0.37199  0.76292  Biso   1.000  O
  Zr25     1.0000 0.63639  0.52436  0.14440  Biso   1.000  Zr
  Zr26     1.0000 0.63866  0.72582  0.39520  Biso   1.000  Zr
  Zr27     1.0000 0.85918  0.77037  0.10433  Biso   1.000  Zr
  Zr28     1.0000 0.85928  0.97632  0.35530  Biso   1.000  Zr
  O49      1.0000 0.53499  0.67347  0.07793  Biso   1.000  O
  O50      1.0000 0.53200  0.58800  0.32265  Biso   1.000  O
  O51      1.0000 0.96180  0.91641  0.17221  Biso   1.000  O
  O52      1.0000 0.96402  0.83199  0.42222  Biso   1.000  O
  O53      1.0000 0.77555  0.62808  0.24032  Biso   1.000  O
  O54      1.0000 0.77373  0.62036  0.49036  Biso   1.000  O
  O55      1.0000 0.72332  0.88039  0.01077  Biso   1.000  O
  O56      1.0000 0.72443  0.86774  0.25876  Biso   1.000  O
  Zr29     1.0000 0.63768  0.52137  0.64786  Biso   1.000  Zr
  Zr30     1.0000 0.63666  0.73061  0.89544  Biso   1.000  Zr
  Zr31     1.0000 0.85992  0.77161  0.60475  Biso   1.000  Zr
  Zr32     1.0000 0.85969  0.97912  0.85513  Biso   1.000  Zr
  O57      1.0000 0.53285  0.66343  0.57881  Biso   1.000  O
  O58      1.0000 0.53255  0.58579  0.82965  Biso   1.000  O
  O59      1.0000 0.96391  0.91692  0.67162  Biso   1.000  O
  O60      1.0000 0.96423  0.83408  0.92152  Biso   1.000  O
  O61      1.0000 0.77376  0.62902  0.74019  Biso   1.000  O
  O62      1.0000 0.77362  0.62259  0.98981  Biso   1.000  O
  O63      1.0000 0.72241  0.87735  0.51046  Biso   1.000  O
  O64      1.0000 0.72312  0.87263  0.76036  Biso   1.000  O
  Au1      1.0000 0.43855  0.21859  0.31366  Biso   1.000  Au
