data_image0
_cell_length_a       10.1063
_cell_length_b       10.3177
_cell_length_c       5.24858
_cell_angle_alpha    89.6982
_cell_angle_beta     90.8621
_cell_angle_gamma    89.6216

_symmetry_space_group_name_H-M    "P 1"
_symmetry_int_tables_number       1

loop_
  _symmetry_equiv_pos_as_xyz
  'x, y, z'

loop_
  _atom_site_label
  _atom_site_occupancy
  _atom_site_fract_x
  _atom_site_fract_y
  _atom_site_fract_z
  _atom_site_thermal_displace_type
  _atom_site_B_iso_or_equiv
  _atom_site_type_symbol
  Au1      1.0000 0.12369  0.01557  0.37993  Biso   1.000  Au
  Zr1      1.0000 0.14462  0.23085  0.84243  Biso   1.000  Zr
  Zr2      1.0000 0.36085  0.27132  0.33041  Biso   1.000  Zr
  Zr3      1.0000 0.36131  0.47977  0.83938  Biso   1.000  Zr
  Zr4      1.0000 0.63818  0.02181  0.16015  Biso   1.000  Zr
  Zr5      1.0000 0.63806  0.23000  0.66003  Biso   1.000  Zr
  Zr6      1.0000 0.86437  0.26808  0.16843  Biso   1.000  Zr
  Zr7      1.0000 0.86323  0.47712  0.66456  Biso   1.000  Zr
  O1       1.0000 0.04385  0.16434  0.18453  Biso   1.000  O
  O2       1.0000 0.02371  0.08615  0.71391  Biso   1.000  O
  O3       1.0000 0.46759  0.41748  0.16616  Biso   1.000  O
  O4       1.0000 0.46638  0.33241  0.66683  Biso   1.000  O
  O5       1.0000 0.26925  0.11858  0.55773  Biso   1.000  O
  O6       1.0000 0.29809  0.14390  0.04327  Biso   1.000  O
  O7       1.0000 0.22611  0.37348  0.58843  Biso   1.000  O
  O8       1.0000 0.22205  0.38088  0.08896  Biso   1.000  O
  O9       1.0000 0.53567  0.16913  0.32578  Biso   1.000  O
  O10      1.0000 0.53790  0.07916  0.82065  Biso   1.000  O
  O11      1.0000 0.96785  0.41456  0.34142  Biso   1.000  O
  O12      1.0000 0.96925  0.33368  0.85063  Biso   1.000  O
  O13      1.0000 0.77593  0.12405  0.91936  Biso   1.000  O
  O14      1.0000 0.77636  0.12560  0.41810  Biso   1.000  O
  O15      1.0000 0.72646  0.37323  0.91554  Biso   1.000  O
  O16      1.0000 0.72670  0.37450  0.41379  Biso   1.000  O
  Zr8      1.0000 0.13870  0.52136  0.34370  Biso   1.000  Zr
  Zr9      1.0000 0.13722  0.72943  0.84171  Biso   1.000  Zr
  Zr10     1.0000 0.36056  0.77248  0.33045  Biso   1.000  Zr
  Zr11     1.0000 0.36158  0.98080  0.83815  Biso   1.000  Zr
  Zr12     1.0000 0.63975  0.51971  0.15801  Biso   1.000  Zr
  Zr13     1.0000 0.63657  0.72812  0.65483  Biso   1.000  Zr
  Zr14     1.0000 0.85988  0.76841  0.15776  Biso   1.000  Zr
  Zr15     1.0000 0.85417  0.97865  0.67019  Biso   1.000  Zr
  O17      1.0000 0.03414  0.66939  0.17363  Biso   1.000  O
  O18      1.0000 0.03455  0.58047  0.67449  Biso   1.000  O
  O19      1.0000 0.46881  0.91743  0.16516  Biso   1.000  O
  O20      1.0000 0.46338  0.83255  0.66191  Biso   1.000  O
  O21      1.0000 0.27494  0.62680  0.58720  Biso   1.000  O
  O22      1.0000 0.27523  0.62476  0.08804  Biso   1.000  O
  O23      1.0000 0.21741  0.87338  0.57510  Biso   1.000  O
  O24      1.0000 0.23130  0.87345  0.06860  Biso   1.000  O
  O25      1.0000 0.53344  0.66691  0.32450  Biso   1.000  O
  O26      1.0000 0.53376  0.58216  0.82638  Biso   1.000  O
  O27      1.0000 0.95658  0.92298  0.32372  Biso   1.000  O
  O28      1.0000 0.96276  0.82967  0.82625  Biso   1.000  O
  O29      1.0000 0.77569  0.62345  0.91273  Biso   1.000  O
  O30      1.0000 0.77571  0.62446  0.41281  Biso   1.000  O
  O31      1.0000 0.72145  0.87292  0.91218  Biso   1.000  O
  O32      1.0000 0.72496  0.87461  0.41205  Biso   1.000  O
