data_image0
_cell_length_a       10.0905
_cell_length_b       10.3287
_cell_length_c       10.4796
_cell_angle_alpha    89.821
_cell_angle_beta     90.4701
_cell_angle_gamma    89.8306

_symmetry_space_group_name_H-M    "P 1"
_symmetry_int_tables_number       1

loop_
  _symmetry_equiv_pos_as_xyz
  'x, y, z'

loop_
  _atom_site_label
  _atom_site_occupancy
  _atom_site_fract_x
  _atom_site_fract_y
  _atom_site_fract_z
  _atom_site_thermal_displace_type
  _atom_site_B_iso_or_equiv
  _atom_site_type_symbol
  Au1      1.0000 0.12466  0.01681  0.19210  Biso   1.000  Au
  Zr1      1.0000 0.13887  0.23481  0.42089  Biso   1.000  Zr
  Zr2      1.0000 0.35986  0.27055  0.16546  Biso   1.000  Zr
  Zr3      1.0000 0.36092  0.48006  0.41971  Biso   1.000  Zr
  Zr4      1.0000 0.64018  0.02135  0.07852  Biso   1.000  Zr
  Zr5      1.0000 0.63666  0.23015  0.32924  Biso   1.000  Zr
  Zr6      1.0000 0.86491  0.26808  0.08309  Biso   1.000  Zr
  Zr7      1.0000 0.85988  0.47970  0.32977  Biso   1.000  Zr
  O1       1.0000 0.04391  0.16473  0.09416  Biso   1.000  O
  O2       1.0000 0.02471  0.08202  0.36277  Biso   1.000  O
  O3       1.0000 0.46717  0.41754  0.08460  Biso   1.000  O
  O4       1.0000 0.46309  0.32971  0.33630  Biso   1.000  O
  O5       1.0000 0.26979  0.12078  0.28557  Biso   1.000  O
  O6       1.0000 0.29561  0.13996  0.02839  Biso   1.000  O
  O7       1.0000 0.22391  0.37491  0.29365  Biso   1.000  O
  O8       1.0000 0.22225  0.37956  0.04384  Biso   1.000  O
  O9       1.0000 0.53601  0.16913  0.16299  Biso   1.000  O
  O10      1.0000 0.53234  0.08114  0.41303  Biso   1.000  O
  O11      1.0000 0.96539  0.41880  0.16511  Biso   1.000  O
  O12      1.0000 0.96479  0.33405  0.41659  Biso   1.000  O
  O13      1.0000 0.77256  0.12431  0.45841  Biso   1.000  O
  O14      1.0000 0.77673  0.12557  0.20870  Biso   1.000  O
  O15      1.0000 0.72325  0.37482  0.45628  Biso   1.000  O
  O16      1.0000 0.72492  0.37451  0.20628  Biso   1.000  O
  Zr8      1.0000 0.13811  0.02082  0.66689  Biso   1.000  Zr
  Zr9      1.0000 0.14471  0.22477  0.92094  Biso   1.000  Zr
  Zr10     1.0000 0.36165  0.27106  0.66998  Biso   1.000  Zr
  Zr11     1.0000 0.36139  0.47872  0.92022  Biso   1.000  Zr
  Zr12     1.0000 0.63686  0.02122  0.58133  Biso   1.000  Zr
  Zr13     1.0000 0.64019  0.22927  0.83050  Biso   1.000  Zr
  Zr14     1.0000 0.86038  0.27129  0.58110  Biso   1.000  Zr
  Zr15     1.0000 0.86452  0.47684  0.83218  Biso   1.000  Zr
  O17      1.0000 0.03627  0.17417  0.59006  Biso   1.000  O
  O18      1.0000 0.03657  0.07989  0.83587  Biso   1.000  O
  O19      1.0000 0.46591  0.41873  0.58497  Biso   1.000  O
  O20      1.0000 0.46782  0.33271  0.83431  Biso   1.000  O
  O21      1.0000 0.27592  0.12241  0.78705  Biso   1.000  O
  O22      1.0000 0.27645  0.12745  0.53858  Biso   1.000  O
  O23      1.0000 0.22551  0.37270  0.79442  Biso   1.000  O
  O24      1.0000 0.22366  0.37700  0.54427  Biso   1.000  O
  O25      1.0000 0.53446  0.16887  0.66344  Biso   1.000  O
  O26      1.0000 0.53916  0.07975  0.91113  Biso   1.000  O
  O27      1.0000 0.96626  0.41749  0.66711  Biso   1.000  O
  O28      1.0000 0.96898  0.32810  0.92031  Biso   1.000  O
  O29      1.0000 0.77953  0.12407  0.95748  Biso   1.000  O
  O30      1.0000 0.77631  0.12609  0.70693  Biso   1.000  O
  O31      1.0000 0.72700  0.37310  0.95757  Biso   1.000  O
  O32      1.0000 0.72533  0.37576  0.70683  Biso   1.000  O
  Zr16     1.0000 0.13862  0.52164  0.16969  Biso   1.000  Zr
  Zr17     1.0000 0.13525  0.72736  0.42081  Biso   1.000  Zr
  Zr18     1.0000 0.36068  0.77230  0.16555  Biso   1.000  Zr
  Zr19     1.0000 0.36095  0.97916  0.41921  Biso   1.000  Zr
  Zr20     1.0000 0.63944  0.52001  0.07849  Biso   1.000  Zr
  Zr21     1.0000 0.63643  0.72817  0.32797  Biso   1.000  Zr
  Zr22     1.0000 0.86176  0.76918  0.07779  Biso   1.000  Zr
  Zr23     1.0000 0.85312  0.97833  0.33474  Biso   1.000  Zr
  O33      1.0000 0.03627  0.67189  0.08741  Biso   1.000  O
  O34      1.0000 0.03347  0.58044  0.33657  Biso   1.000  O
  O35      1.0000 0.46996  0.91772  0.08435  Biso   1.000  O
  O36      1.0000 0.46143  0.83101  0.33422  Biso   1.000  O
  O37      1.0000 0.27431  0.62706  0.29365  Biso   1.000  O
  O38      1.0000 0.27674  0.62485  0.04346  Biso   1.000  O
  O39      1.0000 0.21732  0.87433  0.28962  Biso   1.000  O
  O40      1.0000 0.23179  0.87275  0.03685  Biso   1.000  O
  O41      1.0000 0.53348  0.66761  0.16274  Biso   1.000  O
  O42      1.0000 0.53333  0.58141  0.41286  Biso   1.000  O
  O43      1.0000 0.95740  0.92448  0.16195  Biso   1.000  O
  O44      1.0000 0.96157  0.82891  0.41250  Biso   1.000  O
  O45      1.0000 0.77438  0.62455  0.45595  Biso   1.000  O
  O46      1.0000 0.77495  0.62546  0.20560  Biso   1.000  O
  O47      1.0000 0.71999  0.87385  0.45646  Biso   1.000  O
  O48      1.0000 0.72510  0.87452  0.20595  Biso   1.000  O
  Zr24     1.0000 0.13877  0.52054  0.67213  Biso   1.000  Zr
  Zr25     1.0000 0.14110  0.73156  0.91952  Biso   1.000  Zr
  Zr26     1.0000 0.36085  0.77079  0.66950  Biso   1.000  Zr
  Zr27     1.0000 0.36187  0.98061  0.91954  Biso   1.000  Zr
  Zr28     1.0000 0.63885  0.52068  0.58009  Biso   1.000  Zr
  Zr29     1.0000 0.63913  0.72927  0.82892  Biso   1.000  Zr
  Zr30     1.0000 0.85978  0.77011  0.58055  Biso   1.000  Zr
  Zr31     1.0000 0.86309  0.97975  0.83010  Biso   1.000  Zr
  O49      1.0000 0.03321  0.66795  0.58685  Biso   1.000  O
  O50      1.0000 0.03631  0.57950  0.83835  Biso   1.000  O
  O51      1.0000 0.46464  0.91832  0.58450  Biso   1.000  O
  O52      1.0000 0.46703  0.83226  0.83330  Biso   1.000  O
  O53      1.0000 0.27663  0.62419  0.79344  Biso   1.000  O
  O54      1.0000 0.27444  0.62515  0.54396  Biso   1.000  O
  O55      1.0000 0.22393  0.87379  0.79015  Biso   1.000  O
  O56      1.0000 0.22357  0.87585  0.54064  Biso   1.000  O
  O57      1.0000 0.53449  0.66828  0.66285  Biso   1.000  O
  O58      1.0000 0.53485  0.58183  0.91351  Biso   1.000  O
  O59      1.0000 0.96450  0.91958  0.66173  Biso   1.000  O
  O60      1.0000 0.96580  0.82963  0.91241  Biso   1.000  O
  O61      1.0000 0.77740  0.62338  0.95651  Biso   1.000  O
  O62      1.0000 0.77685  0.62496  0.70694  Biso   1.000  O
  O63      1.0000 0.72544  0.87385  0.95535  Biso   1.000  O
  O64      1.0000 0.72441  0.87580  0.70585  Biso   1.000  O
