data_image0
_cell_length_a       10.2115
_cell_length_b       10.3014
_cell_length_c       5.2257
_cell_angle_alpha    90.0242
_cell_angle_beta     80.0172
_cell_angle_gamma    90.3021

_symmetry_space_group_name_H-M    "P 1"
_symmetry_int_tables_number       1

loop_
  _symmetry_equiv_pos_as_xyz
  'x, y, z'

loop_
  _atom_site_label
  _atom_site_occupancy
  _atom_site_fract_x
  _atom_site_fract_y
  _atom_site_fract_z
  _atom_site_thermal_displace_type
  _atom_site_B_iso_or_equiv
  _atom_site_type_symbol
  Hf1      1.0000 0.12265  0.01517  0.30078  Biso   1.000  Hf
  Hf2      1.0000 0.14121  0.23635  0.77674  Biso   1.000  Hf
  Hf3      1.0000 0.36869  0.26656  0.26525  Biso   1.000  Hf
  Hf4      1.0000 0.35071  0.47814  0.70329  Biso   1.000  Hf
  O1       1.0000 0.04522  0.16827  0.14758  Biso   1.000  O
  O2       1.0000 0.02941  0.08044  0.66441  Biso   1.000  O
  O3       1.0000 0.45941  0.43025  0.33732  Biso   1.000  O
  O4       1.0000 0.46892  0.32693  0.86011  Biso   1.000  O
  O5       1.0000 0.26185  0.11617  0.46033  Biso   1.000  O
  O6       1.0000 0.31540  0.15129  0.91578  Biso   1.000  O
  O7       1.0000 0.21729  0.38517  0.00977  Biso   1.000  O
  O8       1.0000 0.20293  0.37910  0.50168  Biso   1.000  O
  Hf5      1.0000 0.13821  0.52356  0.28178  Biso   1.000  Hf
  Hf6      1.0000 0.13473  0.72914  0.78934  Biso   1.000  Hf
  Hf7      1.0000 0.35964  0.77202  0.20520  Biso   1.000  Hf
  Hf8      1.0000 0.36513  0.97669  0.69492  Biso   1.000  Hf
  O9       1.0000 0.03183  0.67212  0.15786  Biso   1.000  O
  O10      1.0000 0.03109  0.58573  0.65686  Biso   1.000  O
  O11      1.0000 0.46531  0.92041  0.33714  Biso   1.000  O
  O12      1.0000 0.46116  0.82797  0.83605  Biso   1.000  O
  O13      1.0000 0.27413  0.62898  0.48002  Biso   1.000  O
  O14      1.0000 0.27240  0.62825  0.97853  Biso   1.000  O
  O15      1.0000 0.22621  0.89487  0.01226  Biso   1.000  O
  O16      1.0000 0.22297  0.86733  0.51436  Biso   1.000  O
  Hf9      1.0000 0.64340  0.01807  0.29742  Biso   1.000  Hf
  Hf10     1.0000 0.65062  0.22393  0.79988  Biso   1.000  Hf
  Hf11     1.0000 0.86626  0.27184  0.20936  Biso   1.000  Hf
  Hf12     1.0000 0.86062  0.47887  0.70907  Biso   1.000  Hf
  O17      1.0000 0.54336  0.16791  0.17343  Biso   1.000  O
  O18      1.0000 0.54887  0.06980  0.67461  Biso   1.000  O
  O19      1.0000 0.96002  0.42291  0.33661  Biso   1.000  O
  O20      1.0000 0.96252  0.33164  0.83839  Biso   1.000  O
  O21      1.0000 0.78242  0.12805  0.48372  Biso   1.000  O
  O22      1.0000 0.78077  0.11882  0.98774  Biso   1.000  O
  O23      1.0000 0.72491  0.37641  0.02733  Biso   1.000  O
  O24      1.0000 0.72286  0.36804  0.52485  Biso   1.000  O
  Hf13     1.0000 0.63612  0.52053  0.29913  Biso   1.000  Hf
  Hf14     1.0000 0.63363  0.72508  0.79536  Biso   1.000  Hf
  Hf15     1.0000 0.85589  0.76619  0.20917  Biso   1.000  Hf
  Hf16     1.0000 0.85791  0.97509  0.71612  Biso   1.000  Hf
  O25      1.0000 0.53423  0.67240  0.16979  Biso   1.000  O
  O26      1.0000 0.53270  0.57590  0.67107  Biso   1.000  O
  O27      1.0000 0.95640  0.91301  0.35069  Biso   1.000  O
  O28      1.0000 0.96275  0.83252  0.84658  Biso   1.000  O
  O29      1.0000 0.77237  0.62637  0.48527  Biso   1.000  O
  O30      1.0000 0.77191  0.61894  0.98396  Biso   1.000  O
  O31      1.0000 0.72204  0.87663  0.02221  Biso   1.000  O
  O32      1.0000 0.72117  0.86626  0.52276  Biso   1.000  O
  B1       1.0000 0.39107  0.24387  0.72806  Biso   1.000  B
