data_image0
_cell_length_a       10.1204
_cell_length_b       10.2729
_cell_length_c       5.21703
_cell_angle_alpha    90.1137
_cell_angle_beta     90.9212
_cell_angle_gamma    90.6831

_symmetry_space_group_name_H-M    "P 1"
_symmetry_int_tables_number       1

loop_
  _symmetry_equiv_pos_as_xyz
  'x, y, z'

loop_
  _atom_site_label
  _atom_site_occupancy
  _atom_site_fract_x
  _atom_site_fract_y
  _atom_site_fract_z
  _atom_site_thermal_displace_type
  _atom_site_B_iso_or_equiv
  _atom_site_type_symbol
  Hf1      1.0000 0.14071  0.01987  0.34598  Biso   1.000  Hf
  Hf2      1.0000 0.13772  0.22629  0.84574  Biso   1.000  Hf
  Hf3      1.0000 0.34972  0.27641  0.35593  Biso   1.000  Hf
  Hf4      1.0000 0.35412  0.48367  0.84767  Biso   1.000  Hf
  Hf5      1.0000 0.65033  0.02214  0.15125  Biso   1.000  Hf
  Hf6      1.0000 0.62913  0.23865  0.73110  Biso   1.000  Hf
  Hf7      1.0000 0.86149  0.26153  0.14528  Biso   1.000  Hf
  Hf8      1.0000 0.87275  0.48348  0.65440  Biso   1.000  Hf
  O1       1.0000 0.03820  0.16560  0.17283  Biso   1.000  O
  O2       1.0000 0.04054  0.07686  0.67176  Biso   1.000  O
  O3       1.0000 0.45434  0.42593  0.18777  Biso   1.000  O
  O4       1.0000 0.45617  0.33487  0.69045  Biso   1.000  O
  O5       1.0000 0.27958  0.12527  0.59595  Biso   1.000  O
  O6       1.0000 0.27976  0.12816  0.09585  Biso   1.000  O
  O7       1.0000 0.21754  0.37478  0.59219  Biso   1.000  O
  O8       1.0000 0.21783  0.37806  0.09486  Biso   1.000  O
  O9       1.0000 0.53471  0.17824  0.35044  Biso   1.000  O
  O10      1.0000 0.53725  0.07481  0.83086  Biso   1.000  O
  O11      1.0000 0.95742  0.41728  0.32866  Biso   1.000  O
  O12      1.0000 0.97166  0.33060  0.82553  Biso   1.000  O
  O13      1.0000 0.79292  0.11696  0.88818  Biso   1.000  O
  O14      1.0000 0.78888  0.11687  0.39753  Biso   1.000  O
  O15      1.0000 0.74136  0.38931  0.88940  Biso   1.000  O
  O16      1.0000 0.69239  0.35187  0.36718  Biso   1.000  O
  Hf9      1.0000 0.13649  0.52177  0.33887  Biso   1.000  Hf
  Hf10     1.0000 0.14078  0.73382  0.84560  Biso   1.000  Hf
  Hf11     1.0000 0.36519  0.77346  0.34847  Biso   1.000  Hf
  Hf12     1.0000 0.36417  0.97897  0.85362  Biso   1.000  Hf
  Hf13     1.0000 0.63476  0.52288  0.14333  Biso   1.000  Hf
  Hf14     1.0000 0.63949  0.72887  0.65255  Biso   1.000  Hf
  Hf15     1.0000 0.86285  0.76894  0.15251  Biso   1.000  Hf
  Hf16     1.0000 0.86388  0.97655  0.64874  Biso   1.000  Hf
  O17      1.0000 0.03324  0.66527  0.17028  Biso   1.000  O
  O18      1.0000 0.03892  0.58232  0.67699  Biso   1.000  O
  O19      1.0000 0.46968  0.92231  0.18440  Biso   1.000  O
  O20      1.0000 0.46787  0.83006  0.68103  Biso   1.000  O
  O21      1.0000 0.27351  0.62575  0.58849  Biso   1.000  O
  O22      1.0000 0.27378  0.62897  0.09200  Biso   1.000  O
  O23      1.0000 0.22808  0.87491  0.59607  Biso   1.000  O
  O24      1.0000 0.22734  0.87664  0.09617  Biso   1.000  O
  O25      1.0000 0.53404  0.66896  0.32441  Biso   1.000  O
  O26      1.0000 0.53060  0.58165  0.82541  Biso   1.000  O
  O27      1.0000 0.97204  0.91278  0.32553  Biso   1.000  O
  O28      1.0000 0.96788  0.82953  0.82922  Biso   1.000  O
  O29      1.0000 0.77465  0.62950  0.90113  Biso   1.000  O
  O30      1.0000 0.77293  0.61487  0.40317  Biso   1.000  O
  O31      1.0000 0.72635  0.87497  0.90923  Biso   1.000  O
  O32      1.0000 0.72886  0.86808  0.40580  Biso   1.000  O
  B1       1.0000 0.61495  0.26094  0.20075  Biso   1.000  B
