data_image0
_cell_length_a       5.07514
_cell_length_b       10.2195
_cell_length_c       10.1122
_cell_angle_alpha    89.407
_cell_angle_beta     92.6964
_cell_angle_gamma    88.827

_symmetry_space_group_name_H-M    "P 1"
_symmetry_int_tables_number       1

loop_
  _symmetry_equiv_pos_as_xyz
  'x, y, z'

loop_
  _atom_site_label
  _atom_site_occupancy
  _atom_site_fract_x
  _atom_site_fract_y
  _atom_site_fract_z
  _atom_site_thermal_displace_type
  _atom_site_B_iso_or_equiv
  _atom_site_type_symbol
  Hf1      1.0000 0.22623  0.99102  0.12942  Biso   1.000  Hf
  Hf2      1.0000 0.20041  0.25408  0.34540  Biso   1.000  Hf
  Hf3      1.0000 0.71387  0.22753  0.12162  Biso   1.000  Hf
  Hf4      1.0000 0.76123  0.00002  0.38470  Biso   1.000  Hf
  O1       1.0000 0.97825  0.13326  0.98925  Biso   1.000  O
  O2       1.0000 0.96883  0.09278  0.24730  Biso   1.000  O
  O3       1.0000 0.85867  0.34453  0.27410  Biso   1.000  O
  O4       1.0000 0.09316  0.39925  0.00942  Biso   1.000  O
  O5       1.0000 0.47941  0.13136  0.26216  Biso   1.000  O
  O6       1.0000 0.48804  0.07469  0.00215  Biso   1.000  O
  O7       1.0000 0.61109  0.33616  0.95055  Biso   1.000  O
  O8       1.0000 0.38034  0.38662  0.19896  Biso   1.000  O
  Hf5      1.0000 0.29850  0.01930  0.62227  Biso   1.000  Hf
  Hf6      1.0000 0.27222  0.23184  0.89292  Biso   1.000  Hf
  Hf7      1.0000 0.79659  0.24752  0.63123  Biso   1.000  Hf
  Hf8      1.0000 0.76627  0.00314  0.86628  Biso   1.000  Hf
  O9       1.0000 0.05232  0.14285  0.49565  Biso   1.000  O
  O10      1.0000 0.02018  0.10436  0.74367  Biso   1.000  O
  O11      1.0000 0.07590  0.35494  0.75532  Biso   1.000  O
  O12      1.0000 0.96193  0.39121  0.51201  Biso   1.000  O
  O13      1.0000 0.52540  0.15165  0.75487  Biso   1.000  O
  O14      1.0000 0.56846  0.11459  0.51667  Biso   1.000  O
  O15      1.0000 0.44485  0.37866  0.45336  Biso   1.000  O
  O16      1.0000 0.58980  0.40832  0.70414  Biso   1.000  O
  Hf9      1.0000 0.23404  0.56044  0.11735  Biso   1.000  Hf
  Hf10     1.0000 0.27905  0.76618  0.39992  Biso   1.000  Hf
  Hf11     1.0000 0.73022  0.75647  0.13264  Biso   1.000  Hf
  Hf12     1.0000 0.73348  0.50460  0.37894  Biso   1.000  Hf
  O17      1.0000 0.98949  0.65382  0.98067  Biso   1.000  O
  O18      1.0000 0.91976  0.59505  0.22592  Biso   1.000  O
  O19      1.0000 0.00333  0.84451  0.26886  Biso   1.000  O
  O20      1.0000 0.89461  0.90291  0.03246  Biso   1.000  O
  O21      1.0000 0.45524  0.64160  0.26594  Biso   1.000  O
  O22      1.0000 0.52382  0.59568  0.99596  Biso   1.000  O
  O23      1.0000 0.37798  0.82141  0.04046  Biso   1.000  O
  O24      1.0000 0.50694  0.88934  0.26763  Biso   1.000  O
  Hf13     1.0000 0.26459  0.48437  0.60875  Biso   1.000  Hf
  Hf14     1.0000 0.27479  0.74203  0.86119  Biso   1.000  Hf
  Hf15     1.0000 0.79530  0.73732  0.62453  Biso   1.000  Hf
  Hf16     1.0000 0.78132  0.49730  0.86498  Biso   1.000  Hf
  O25      1.0000 0.00577  0.63663  0.48090  Biso   1.000  O
  O26      1.0000 0.05759  0.60454  0.73529  Biso   1.000  O
  O27      1.0000 0.95311  0.84719  0.77616  Biso   1.000  O
  O28      1.0000 0.03598  0.88960  0.52118  Biso   1.000  O
  O29      1.0000 0.56639  0.65169  0.76262  Biso   1.000  O
  O30      1.0000 0.51225  0.62027  0.51569  Biso   1.000  O
  O31      1.0000 0.53451  0.86989  0.52003  Biso   1.000  O
  O32      1.0000 0.44520  0.90493  0.77942  Biso   1.000  O
  B1       1.0000 0.22676  0.31316  0.10713  Biso   1.000  B
