data_image0
_cell_length_a       10.0064
_cell_length_b       5.1864
_cell_length_c       10.0572
_cell_angle_alpha    90.3063
_cell_angle_beta     89.3607
_cell_angle_gamma    90.7389

_symmetry_space_group_name_H-M    "P 1"
_symmetry_int_tables_number       1

loop_
  _symmetry_equiv_pos_as_xyz
  'x, y, z'

loop_
  _atom_site_label
  _atom_site_occupancy
  _atom_site_fract_x
  _atom_site_fract_y
  _atom_site_fract_z
  _atom_site_thermal_displace_type
  _atom_site_B_iso_or_equiv
  _atom_site_type_symbol
  Hf1      1.0000 0.13538  0.03701  0.11274  Biso   1.000  Hf
  Hf2      1.0000 0.13542  0.45144  0.39744  Biso   1.000  Hf
  Hf3      1.0000 0.36651  0.51762  0.11781  Biso   1.000  Hf
  Hf4      1.0000 0.37564  0.96912  0.37906  Biso   1.000  Hf
  O1       1.0000 0.02236  0.36930  0.22221  Biso   1.000  O
  O2       1.0000 0.03484  0.12881  0.45513  Biso   1.000  O
  O3       1.0000 0.45591  0.85946  0.19684  Biso   1.000  O
  O4       1.0000 0.46456  0.62727  0.44322  Biso   1.000  O
  O5       1.0000 0.26189  0.20841  0.25710  Biso   1.000  O
  O6       1.0000 0.27651  0.25669  0.50631  Biso   1.000  O
  O7       1.0000 0.23242  0.76382  0.49606  Biso   1.000  O
  O8       1.0000 0.19722  0.68197  0.22874  Biso   1.000  O
  Hf5      1.0000 0.13711  0.03167  0.63282  Biso   1.000  Hf
  Hf6      1.0000 0.13612  0.47584  0.88900  Biso   1.000  Hf
  Hf7      1.0000 0.36909  0.53122  0.62912  Biso   1.000  Hf
  Hf8      1.0000 0.37601  0.97072  0.86846  Biso   1.000  Hf
  O9       1.0000 0.04017  0.37317  0.69291  Biso   1.000  O
  O10      1.0000 0.03702  0.13174  0.94235  Biso   1.000  O
  O11      1.0000 0.46724  0.86864  0.68671  Biso   1.000  O
  O12      1.0000 0.47006  0.63024  0.94293  Biso   1.000  O
  O13      1.0000 0.27042  0.24091  0.75293  Biso   1.000  O
  O14      1.0000 0.29017  0.24656  0.99132  Biso   1.000  O
  O15      1.0000 0.24465  0.77828  0.99354  Biso   1.000  O
  O16      1.0000 0.23145  0.73677  0.74958  Biso   1.000  O
  Hf9      1.0000 0.63126  0.03408  0.12719  Biso   1.000  Hf
  Hf10     1.0000 0.63724  0.47086  0.37519  Biso   1.000  Hf
  Hf11     1.0000 0.86362  0.54864  0.11659  Biso   1.000  Hf
  Hf12     1.0000 0.86725  0.97338  0.37336  Biso   1.000  Hf
  O17      1.0000 0.53041  0.35900  0.19762  Biso   1.000  O
  O18      1.0000 0.53902  0.13267  0.44593  Biso   1.000  O
  O19      1.0000 0.95608  0.88803  0.19085  Biso   1.000  O
  O20      1.0000 0.96686  0.63948  0.44790  Biso   1.000  O
  O21      1.0000 0.76622  0.24025  0.24936  Biso   1.000  O
  O22      1.0000 0.77178  0.27137  0.49866  Biso   1.000  O
  O23      1.0000 0.73159  0.76877  0.49694  Biso   1.000  O
  O24      1.0000 0.72619  0.73979  0.24708  Biso   1.000  O
  Hf13     1.0000 0.63992  0.03606  0.62446  Biso   1.000  Hf
  Hf14     1.0000 0.63820  0.46745  0.87502  Biso   1.000  Hf
  Hf15     1.0000 0.87229  0.53773  0.62720  Biso   1.000  Hf
  Hf16     1.0000 0.86335  0.97274  0.87245  Biso   1.000  Hf
  O25      1.0000 0.53656  0.36509  0.69660  Biso   1.000  O
  O26      1.0000 0.54455  0.12838  0.94368  Biso   1.000  O
  O27      1.0000 0.96317  0.87629  0.69407  Biso   1.000  O
  O28      1.0000 0.95081  0.63150  0.92511  Biso   1.000  O
  O29      1.0000 0.77259  0.24135  0.74805  Biso   1.000  O
  O30      1.0000 0.77141  0.26493  0.00027  Biso   1.000  O
  O31      1.0000 0.72793  0.76690  0.99958  Biso   1.000  O
  O32      1.0000 0.72826  0.74187  0.74723  Biso   1.000  O
  B1       1.0000 0.11052  0.51900  0.14199  Biso   1.000  B
