data_image0
_cell_length_a       10.1355
_cell_length_b       10.2997
_cell_length_c       10.452
_cell_angle_alpha    89.9902
_cell_angle_beta     80.3601
_cell_angle_gamma    90.1202

_symmetry_space_group_name_H-M    "P 1"
_symmetry_int_tables_number       1

loop_
  _symmetry_equiv_pos_as_xyz
  'x, y, z'

loop_
  _atom_site_label
  _atom_site_occupancy
  _atom_site_fract_x
  _atom_site_fract_y
  _atom_site_fract_z
  _atom_site_thermal_displace_type
  _atom_site_B_iso_or_equiv
  _atom_site_type_symbol
  Hf1      1.0000 0.13343  0.01944  0.14153  Biso   1.000  Hf
  Hf2      1.0000 0.14188  0.23351  0.38750  Biso   1.000  Hf
  Hf3      1.0000 0.36320  0.26751  0.11959  Biso   1.000  Hf
  Hf4      1.0000 0.35198  0.47811  0.34745  Biso   1.000  Hf
  O1       1.0000 0.03387  0.17048  0.08022  Biso   1.000  O
  O2       1.0000 0.03293  0.08178  0.32901  Biso   1.000  O
  O3       1.0000 0.45633  0.43229  0.16287  Biso   1.000  O
  O4       1.0000 0.47171  0.33315  0.42567  Biso   1.000  O
  O5       1.0000 0.26531  0.11719  0.23427  Biso   1.000  O
  O6       1.0000 0.32065  0.15339  0.45334  Biso   1.000  O
  O7       1.0000 0.22257  0.37814  0.01023  Biso   1.000  O
  O8       1.0000 0.19966  0.37981  0.25496  Biso   1.000  O
  Hf5      1.0000 0.12810  0.01599  0.65498  Biso   1.000  Hf
  Hf6      1.0000 0.13917  0.22981  0.89874  Biso   1.000  Hf
  Hf7      1.0000 0.36171  0.27510  0.61540  Biso   1.000  Hf
  Hf8      1.0000 0.36161  0.47682  0.86057  Biso   1.000  Hf
  O9       1.0000 0.05051  0.16876  0.57527  Biso   1.000  O
  O10      1.0000 0.03295  0.07927  0.83483  Biso   1.000  O
  O11      1.0000 0.46608  0.41904  0.67460  Biso   1.000  O
  O12      1.0000 0.46392  0.32893  0.92436  Biso   1.000  O
  O13      1.0000 0.27418  0.12730  0.73453  Biso   1.000  O
  O14      1.0000 0.27496  0.11958  0.98746  Biso   1.000  O
  O15      1.0000 0.22689  0.38165  0.51431  Biso   1.000  O
  O16      1.0000 0.22473  0.37177  0.76338  Biso   1.000  O
  Hf9      1.0000 0.13614  0.52164  0.14191  Biso   1.000  Hf
  Hf10     1.0000 0.13617  0.72883  0.39481  Biso   1.000  Hf
  Hf11     1.0000 0.35932  0.77048  0.10379  Biso   1.000  Hf
  Hf12     1.0000 0.36528  0.97531  0.34755  Biso   1.000  Hf
  O17      1.0000 0.03324  0.67131  0.07852  Biso   1.000  O
  O18      1.0000 0.03138  0.58576  0.32888  Biso   1.000  O
  O19      1.0000 0.46480  0.91922  0.16814  Biso   1.000  O
  O20      1.0000 0.46086  0.82563  0.41768  Biso   1.000  O
  O21      1.0000 0.27292  0.62941  0.23978  Biso   1.000  O
  O22      1.0000 0.27238  0.62512  0.48953  Biso   1.000  O
  O23      1.0000 0.22282  0.87752  0.00820  Biso   1.000  O
  O24      1.0000 0.22314  0.86764  0.25814  Biso   1.000  O
  Hf13     1.0000 0.13970  0.52407  0.64631  Biso   1.000  Hf
  Hf14     1.0000 0.13689  0.72839  0.89570  Biso   1.000  Hf
  Hf15     1.0000 0.36121  0.77166  0.60325  Biso   1.000  Hf
  Hf16     1.0000 0.36091  0.97785  0.85421  Biso   1.000  Hf
  O25      1.0000 0.03469  0.67153  0.58184  Biso   1.000  O
  O26      1.0000 0.03513  0.58010  0.83078  Biso   1.000  O
  O27      1.0000 0.46350  0.91954  0.66925  Biso   1.000  O
  O28      1.0000 0.46282  0.83011  0.91930  Biso   1.000  O
  O29      1.0000 0.27707  0.62901  0.74059  Biso   1.000  O
  O30      1.0000 0.27552  0.62155  0.99030  Biso   1.000  O
  O31      1.0000 0.22697  0.89630  0.50816  Biso   1.000  O
  O32      1.0000 0.22241  0.86968  0.75921  Biso   1.000  O
  Hf17     1.0000 0.64210  0.01915  0.14668  Biso   1.000  Hf
  Hf18     1.0000 0.64999  0.22411  0.39741  Biso   1.000  Hf
  Hf19     1.0000 0.85983  0.27231  0.10452  Biso   1.000  Hf
  Hf20     1.0000 0.86051  0.47883  0.35391  Biso   1.000  Hf
  O33      1.0000 0.53767  0.16694  0.08380  Biso   1.000  O
  O34      1.0000 0.54826  0.06788  0.33487  Biso   1.000  O
  O35      1.0000 0.95766  0.42371  0.16779  Biso   1.000  O
  O36      1.0000 0.96416  0.33220  0.42080  Biso   1.000  O
  O37      1.0000 0.78027  0.12857  0.24071  Biso   1.000  O
  O38      1.0000 0.78074  0.11903  0.49228  Biso   1.000  O
  O39      1.0000 0.72182  0.37868  0.01091  Biso   1.000  O
  O40      1.0000 0.72066  0.36885  0.26147  Biso   1.000  O
  Hf21     1.0000 0.63840  0.02111  0.64646  Biso   1.000  Hf
  Hf22     1.0000 0.63656  0.22873  0.89792  Biso   1.000  Hf
  Hf23     1.0000 0.86698  0.27068  0.60482  Biso   1.000  Hf
  Hf24     1.0000 0.86061  0.47762  0.85555  Biso   1.000  Hf
  O41      1.0000 0.53823  0.17101  0.58198  Biso   1.000  O
  O42      1.0000 0.53563  0.07988  0.83075  Biso   1.000  O
  O43      1.0000 0.96657  0.41801  0.67110  Biso   1.000  O
  O44      1.0000 0.96344  0.33034  0.92024  Biso   1.000  O
  O45      1.0000 0.77796  0.12840  0.74075  Biso   1.000  O
  O46      1.0000 0.77600  0.12070  0.99176  Biso   1.000  O
  O47      1.0000 0.72629  0.37691  0.51224  Biso   1.000  O
  O48      1.0000 0.72547  0.36961  0.75998  Biso   1.000  O
  Hf25     1.0000 0.63529  0.52133  0.14706  Biso   1.000  Hf
  Hf26     1.0000 0.63608  0.72562  0.39558  Biso   1.000  Hf
  Hf27     1.0000 0.85847  0.76859  0.10417  Biso   1.000  Hf
  Hf28     1.0000 0.86225  0.97645  0.35413  Biso   1.000  Hf
  O49      1.0000 0.53646  0.67330  0.08212  Biso   1.000  O
  O50      1.0000 0.53285  0.57732  0.33216  Biso   1.000  O
  O51      1.0000 0.96054  0.91639  0.17061  Biso   1.000  O
  O52      1.0000 0.96364  0.83214  0.42337  Biso   1.000  O
  O53      1.0000 0.77345  0.62748  0.24149  Biso   1.000  O
  O54      1.0000 0.77482  0.61990  0.49134  Biso   1.000  O
  O55      1.0000 0.72246  0.87824  0.00963  Biso   1.000  O
  O56      1.0000 0.72300  0.86722  0.25974  Biso   1.000  O
  Hf29     1.0000 0.63993  0.52072  0.64755  Biso   1.000  Hf
  Hf30     1.0000 0.63700  0.72798  0.89678  Biso   1.000  Hf
  Hf31     1.0000 0.85739  0.76963  0.60457  Biso   1.000  Hf
  Hf32     1.0000 0.85623  0.97804  0.85772  Biso   1.000  Hf
  O57      1.0000 0.53477  0.66896  0.58256  Biso   1.000  O
  O58      1.0000 0.53694  0.57898  0.83263  Biso   1.000  O
  O59      1.0000 0.95902  0.91793  0.67344  Biso   1.000  O
  O60      1.0000 0.96221  0.83057  0.91923  Biso   1.000  O
  O61      1.0000 0.77642  0.62805  0.74105  Biso   1.000  O
  O62      1.0000 0.77442  0.61970  0.99083  Biso   1.000  O
  O63      1.0000 0.72167  0.87821  0.51005  Biso   1.000  O
  O64      1.0000 0.72091  0.86986  0.76039  Biso   1.000  O
  B1       1.0000 0.39573  0.24762  0.35721  Biso   1.000  B
