data_image0
_cell_length_a       10.027
_cell_length_b       5.11396
_cell_length_c       10.5424
_cell_angle_alpha    90.0092
_cell_angle_beta     90.7698
_cell_angle_gamma    89.8053

_symmetry_space_group_name_H-M    "P 1"
_symmetry_int_tables_number       1

loop_
  _symmetry_equiv_pos_as_xyz
  'x, y, z'

loop_
  _atom_site_label
  _atom_site_occupancy
  _atom_site_fract_x
  _atom_site_fract_y
  _atom_site_fract_z
  _atom_site_thermal_displace_type
  _atom_site_B_iso_or_equiv
  _atom_site_type_symbol
  Hf1      1.0000 0.13498  0.04044  0.17314  Biso   1.000  Hf
  Hf2      1.0000 0.13764  0.45310  0.42731  Biso   1.000  Hf
  Hf3      1.0000 0.34413  0.55068  0.18318  Biso   1.000  Hf
  Hf4      1.0000 0.35844  0.95450  0.42472  Biso   1.000  Hf
  Hf5      1.0000 0.65182  0.08145  0.06225  Biso   1.000  Hf
  Hf6      1.0000 0.63825  0.45271  0.34078  Biso   1.000  Hf
  Hf7      1.0000 0.85612  0.54162  0.07074  Biso   1.000  Hf
  Hf8      1.0000 0.86468  0.95908  0.33140  Biso   1.000  Hf
  O1       1.0000 0.03425  0.33459  0.08685  Biso   1.000  O
  O2       1.0000 0.03035  0.16431  0.33804  Biso   1.000  O
  O3       1.0000 0.49227  0.76553  0.07161  Biso   1.000  O
  O4       1.0000 0.46294  0.66707  0.33548  Biso   1.000  O
  O5       1.0000 0.27256  0.24738  0.29649  Biso   1.000  O
  O6       1.0000 0.28060  0.24857  0.05162  Biso   1.000  O
  O7       1.0000 0.20977  0.74576  0.30300  Biso   1.000  O
  O8       1.0000 0.22417  0.75680  0.04780  Biso   1.000  O
  O9       1.0000 0.52968  0.35050  0.16907  Biso   1.000  O
  O10      1.0000 0.53014  0.17038  0.41914  Biso   1.000  O
  O11      1.0000 0.95397  0.83556  0.16800  Biso   1.000  O
  O12      1.0000 0.96428  0.66006  0.41768  Biso   1.000  O
  O13      1.0000 0.77646  0.24384  0.45889  Biso   1.000  O
  O14      1.0000 0.77255  0.24355  0.20953  Biso   1.000  O
  O15      1.0000 0.72187  0.74863  0.45097  Biso   1.000  O
  O16      1.0000 0.69387  0.72023  0.18385  Biso   1.000  O
  Hf9      1.0000 0.14438  0.04034  0.67287  Biso   1.000  Hf
  Hf10     1.0000 0.14202  0.45196  0.92546  Biso   1.000  Hf
  Hf11     1.0000 0.36475  0.54036  0.67424  Biso   1.000  Hf
  Hf12     1.0000 0.36104  0.95455  0.92194  Biso   1.000  Hf
  Hf13     1.0000 0.63890  0.04148  0.58230  Biso   1.000  Hf
  Hf14     1.0000 0.64275  0.46859  0.83465  Biso   1.000  Hf
  Hf15     1.0000 0.86246  0.53930  0.57984  Biso   1.000  Hf
  Hf16     1.0000 0.87070  0.95834  0.82141  Biso   1.000  Hf
  O17      1.0000 0.03485  0.32792  0.58710  Biso   1.000  O
  O18      1.0000 0.04181  0.16613  0.83317  Biso   1.000  O
  O19      1.0000 0.46918  0.82456  0.58290  Biso   1.000  O
  O20      1.0000 0.47141  0.67893  0.83134  Biso   1.000  O
  O21      1.0000 0.28366  0.24263  0.79863  Biso   1.000  O
  O22      1.0000 0.27987  0.25055  0.54921  Biso   1.000  O
  O23      1.0000 0.22675  0.74245  0.79932  Biso   1.000  O
  O24      1.0000 0.22450  0.74919  0.54888  Biso   1.000  O
  O25      1.0000 0.53570  0.32741  0.67140  Biso   1.000  O
  O26      1.0000 0.53078  0.16983  0.91545  Biso   1.000  O
  O27      1.0000 0.97302  0.82761  0.66318  Biso   1.000  O
  O28      1.0000 0.97288  0.66779  0.91717  Biso   1.000  O
  O29      1.0000 0.79564  0.24685  0.94451  Biso   1.000  O
  O30      1.0000 0.77896  0.25350  0.70499  Biso   1.000  O
  O31      1.0000 0.73580  0.78160  0.94411  Biso   1.000  O
  O32      1.0000 0.72655  0.74958  0.70178  Biso   1.000  O
  B1       1.0000 0.59469  0.56283  0.09787  Biso   1.000  B
