data_image0
_cell_length_a       4.99009
_cell_length_b       10.1054
_cell_length_c       9.95042
_cell_angle_alpha    90.0015
_cell_angle_beta     89.9998
_cell_angle_gamma    90.0003

_symmetry_space_group_name_H-M    "P 1"
_symmetry_int_tables_number       1

loop_
  _symmetry_equiv_pos_as_xyz
  'x, y, z'

loop_
  _atom_site_label
  _atom_site_occupancy
  _atom_site_fract_x
  _atom_site_fract_y
  _atom_site_fract_z
  _atom_site_thermal_displace_type
  _atom_site_B_iso_or_equiv
  _atom_site_type_symbol
  B1       1.0000 0.24986  0.00005  0.12491  Biso   1.000  B
  Hf1      1.0000 0.26477  0.24292  0.36968  Biso   1.000  Hf
  Hf2      1.0000 0.74979  0.25638  0.12490  Biso   1.000  Hf
  Hf3      1.0000 0.74982  0.00005  0.36975  Biso   1.000  Hf
  O1       1.0000 0.92094  0.15638  0.97536  Biso   1.000  O
  O2       1.0000 0.08018  0.08397  0.21933  Biso   1.000  O
  O3       1.0000 0.00869  0.34861  0.25388  Biso   1.000  O
  O4       1.0000 0.99070  0.39998  0.00574  Biso   1.000  O
  O5       1.0000 0.57875  0.15638  0.27447  Biso   1.000  O
  O6       1.0000 0.41954  0.08398  0.03050  Biso   1.000  O
  O7       1.0000 0.49091  0.34862  0.99594  Biso   1.000  O
  O8       1.0000 0.50890  0.39997  0.24408  Biso   1.000  O
  Hf4      1.0000 0.24981  0.00005  0.62491  Biso   1.000  Hf
  Hf5      1.0000 0.23485  0.24293  0.88012  Biso   1.000  Hf
  Hf6      1.0000 0.74981  0.24942  0.62490  Biso   1.000  Hf
  Hf7      1.0000 0.74982  0.00006  0.88007  Biso   1.000  Hf
  O9       1.0000 0.98715  0.14135  0.47816  Biso   1.000  O
  O10      1.0000 0.00067  0.10854  0.73558  Biso   1.000  O
  O11      1.0000 0.00256  0.35686  0.75654  Biso   1.000  O
  O12      1.0000 0.99196  0.39171  0.50792  Biso   1.000  O
  O13      1.0000 0.51248  0.14135  0.77166  Biso   1.000  O
  O14      1.0000 0.49896  0.10853  0.51424  Biso   1.000  O
  O15      1.0000 0.49706  0.35685  0.49327  Biso   1.000  O
  O16      1.0000 0.50766  0.39171  0.74189  Biso   1.000  O
  Hf8      1.0000 0.24980  0.50005  0.12491  Biso   1.000  Hf
  Hf9      1.0000 0.23485  0.75718  0.36970  Biso   1.000  Hf
  Hf10     1.0000 0.74979  0.74372  0.12492  Biso   1.000  Hf
  Hf11     1.0000 0.74981  0.50005  0.38092  Biso   1.000  Hf
  O17      1.0000 0.00869  0.65150  0.99594  Biso   1.000  O
  O18      1.0000 0.99070  0.60013  0.24408  Biso   1.000  O
  O19      1.0000 0.92094  0.84373  0.27446  Biso   1.000  O
  O20      1.0000 0.08018  0.91613  0.03049  Biso   1.000  O
  O21      1.0000 0.49091  0.65149  0.25388  Biso   1.000  O
  O22      1.0000 0.50890  0.60013  0.00574  Biso   1.000  O
  O23      1.0000 0.57875  0.84373  0.97535  Biso   1.000  O
  O24      1.0000 0.41954  0.91613  0.21932  Biso   1.000  O
  Hf12     1.0000 0.24981  0.50006  0.62491  Biso   1.000  Hf
  Hf13     1.0000 0.26477  0.75719  0.88014  Biso   1.000  Hf
  Hf14     1.0000 0.74981  0.75069  0.62491  Biso   1.000  Hf
  Hf15     1.0000 0.74980  0.50006  0.86889  Biso   1.000  Hf
  O25      1.0000 0.00256  0.64325  0.49327  Biso   1.000  O
  O26      1.0000 0.99196  0.60840  0.74190  Biso   1.000  O
  O27      1.0000 0.98716  0.85876  0.77166  Biso   1.000  O
  O28      1.0000 0.00067  0.89157  0.51424  Biso   1.000  O
  O29      1.0000 0.49706  0.64326  0.75655  Biso   1.000  O
  O30      1.0000 0.50766  0.60839  0.50792  Biso   1.000  O
  O31      1.0000 0.51248  0.85876  0.47816  Biso   1.000  O
  O32      1.0000 0.49897  0.89157  0.73558  Biso   1.000  O
