data_image0
_cell_length_a       10.1703
_cell_length_b       10.2242
_cell_length_c       5.21587
_cell_angle_alpha    90.1577
_cell_angle_beta     80.2697
_cell_angle_gamma    90.1652

_symmetry_space_group_name_H-M    "P 1"
_symmetry_int_tables_number       1

loop_
  _symmetry_equiv_pos_as_xyz
  'x, y, z'

loop_
  _atom_site_label
  _atom_site_occupancy
  _atom_site_fract_x
  _atom_site_fract_y
  _atom_site_fract_z
  _atom_site_thermal_displace_type
  _atom_site_B_iso_or_equiv
  _atom_site_type_symbol
  B1       1.0000 0.02241  0.05637  0.33604  Biso   1.000  B
  Hf1      1.0000 0.14582  0.22362  0.78480  Biso   1.000  Hf
  Hf2      1.0000 0.35860  0.26449  0.20973  Biso   1.000  Hf
  Hf3      1.0000 0.36068  0.47625  0.70700  Biso   1.000  Hf
  O1       1.0000 0.02926  0.14589  0.14008  Biso   1.000  O
  O2       1.0000 0.03161  0.09365  0.58919  Biso   1.000  O
  O3       1.0000 0.46646  0.41414  0.34334  Biso   1.000  O
  O4       1.0000 0.46837  0.33441  0.84464  Biso   1.000  O
  O5       1.0000 0.29011  0.13386  0.50071  Biso   1.000  O
  O6       1.0000 0.28584  0.12830  0.96615  Biso   1.000  O
  O7       1.0000 0.22194  0.37470  0.01537  Biso   1.000  O
  O8       1.0000 0.22213  0.36898  0.51639  Biso   1.000  O
  Hf4      1.0000 0.14164  0.52048  0.29019  Biso   1.000  Hf
  Hf5      1.0000 0.14510  0.73136  0.78849  Biso   1.000  Hf
  Hf6      1.0000 0.35868  0.77530  0.20872  Biso   1.000  Hf
  Hf7      1.0000 0.35834  0.97627  0.70783  Biso   1.000  Hf
  O9       1.0000 0.03768  0.67121  0.16516  Biso   1.000  O
  O10      1.0000 0.03705  0.58093  0.65911  Biso   1.000  O
  O11      1.0000 0.47268  0.91287  0.34785  Biso   1.000  O
  O12      1.0000 0.47584  0.83815  0.84904  Biso   1.000  O
  O13      1.0000 0.27844  0.62360  0.47730  Biso   1.000  O
  O14      1.0000 0.27742  0.61716  0.98030  Biso   1.000  O
  O15      1.0000 0.23467  0.87060  0.00127  Biso   1.000  O
  O16      1.0000 0.23421  0.86293  0.52095  Biso   1.000  O
  Hf8      1.0000 0.63883  0.02134  0.29702  Biso   1.000  Hf
  Hf9      1.0000 0.63816  0.22893  0.79212  Biso   1.000  Hf
  Hf10     1.0000 0.85806  0.27433  0.20725  Biso   1.000  Hf
  Hf11     1.0000 0.86649  0.47750  0.70919  Biso   1.000  Hf
  O17      1.0000 0.53810  0.16750  0.16030  Biso   1.000  O
  O18      1.0000 0.54002  0.08004  0.66159  Biso   1.000  O
  O19      1.0000 0.96876  0.41209  0.34494  Biso   1.000  O
  O20      1.0000 0.96819  0.32883  0.84872  Biso   1.000  O
  O21      1.0000 0.77871  0.13008  0.48093  Biso   1.000  O
  O22      1.0000 0.77715  0.12091  0.98105  Biso   1.000  O
  O23      1.0000 0.72654  0.37970  0.02037  Biso   1.000  O
  O24      1.0000 0.72551  0.37170  0.51980  Biso   1.000  O
  Hf12     1.0000 0.63769  0.52148  0.29530  Biso   1.000  Hf
  Hf13     1.0000 0.63970  0.72679  0.79750  Biso   1.000  Hf
  Hf14     1.0000 0.86572  0.76935  0.20791  Biso   1.000  Hf
  Hf15     1.0000 0.85619  0.97671  0.72276  Biso   1.000  Hf
  O25      1.0000 0.53572  0.66503  0.15744  Biso   1.000  O
  O26      1.0000 0.53470  0.58272  0.65890  Biso   1.000  O
  O27      1.0000 0.96358  0.93610  0.32852  Biso   1.000  O
  O28      1.0000 0.96855  0.83571  0.83767  Biso   1.000  O
  O29      1.0000 0.77833  0.62786  0.48321  Biso   1.000  O
  O30      1.0000 0.78101  0.62236  0.98571  Biso   1.000  O
  O31      1.0000 0.72677  0.87734  0.02714  Biso   1.000  O
  O32      1.0000 0.73256  0.87007  0.52501  Biso   1.000  O
