data_image0
_cell_length_a       4.99379
_cell_length_b       10.3514
_cell_length_c       9.9759
_cell_angle_alpha    89.9451
_cell_angle_beta     89.6541
_cell_angle_gamma    90.4931

_symmetry_space_group_name_H-M    "P 1"
_symmetry_int_tables_number       1

loop_
  _symmetry_equiv_pos_as_xyz
  'x, y, z'

loop_
  _atom_site_label
  _atom_site_occupancy
  _atom_site_fract_x
  _atom_site_fract_y
  _atom_site_fract_z
  _atom_site_thermal_displace_type
  _atom_site_B_iso_or_equiv
  _atom_site_type_symbol
  B1       1.0000 0.04687  0.05591  0.11259  Biso   1.000  B
  Hf1      1.0000 0.27682  0.22800  0.37346  Biso   1.000  Hf
  Hf2      1.0000 0.71383  0.27034  0.12611  Biso   1.000  Hf
  Hf3      1.0000 0.73556  0.48209  0.37702  Biso   1.000  Hf
  O1       1.0000 0.07887  0.17310  0.18021  Biso   1.000  O
  O2       1.0000 0.06945  0.06686  0.44612  Biso   1.000  O
  O3       1.0000 0.92872  0.42975  0.19651  Biso   1.000  O
  O4       1.0000 0.93478  0.31387  0.44544  Biso   1.000  O
  O5       1.0000 0.57443  0.13349  0.25856  Biso   1.000  O
  O6       1.0000 0.53753  0.13124  0.50249  Biso   1.000  O
  O7       1.0000 0.46297  0.37943  0.49996  Biso   1.000  O
  O8       1.0000 0.44480  0.37101  0.24969  Biso   1.000  O
  Hf4      1.0000 0.26358  0.01269  0.62505  Biso   1.000  Hf
  Hf5      1.0000 0.27147  0.23065  0.88074  Biso   1.000  Hf
  Hf6      1.0000 0.73566  0.26372  0.62723  Biso   1.000  Hf
  Hf7      1.0000 0.73450  0.48299  0.87473  Biso   1.000  Hf
  O9       1.0000 0.06049  0.17743  0.70683  Biso   1.000  O
  O10      1.0000 0.06182  0.06356  0.97318  Biso   1.000  O
  O11      1.0000 0.93037  0.43233  0.69303  Biso   1.000  O
  O12      1.0000 0.93250  0.31789  0.94486  Biso   1.000  O
  O13      1.0000 0.52951  0.11356  0.74953  Biso   1.000  O
  O14      1.0000 0.56055  0.13775  0.99196  Biso   1.000  O
  O15      1.0000 0.45775  0.38245  0.00049  Biso   1.000  O
  O16      1.0000 0.46072  0.36391  0.75119  Biso   1.000  O
  Hf8      1.0000 0.26764  0.51791  0.12790  Biso   1.000  Hf
  Hf9      1.0000 0.28307  0.73566  0.37400  Biso   1.000  Hf
  Hf10     1.0000 0.73946  0.76547  0.12131  Biso   1.000  Hf
  Hf11     1.0000 0.72679  0.98657  0.37055  Biso   1.000  Hf
  O17      1.0000 0.08181  0.68823  0.19421  Biso   1.000  O
  O18      1.0000 0.07769  0.56524  0.44339  Biso   1.000  O
  O19      1.0000 0.94526  0.95163  0.17928  Biso   1.000  O
  O20      1.0000 0.94541  0.82045  0.44545  Biso   1.000  O
  O21      1.0000 0.54758  0.61253  0.24841  Biso   1.000  O
  O22      1.0000 0.54874  0.63227  0.49871  Biso   1.000  O
  O23      1.0000 0.46695  0.88355  0.50044  Biso   1.000  O
  O24      1.0000 0.51154  0.85583  0.25735  Biso   1.000  O
  Hf12     1.0000 0.27124  0.51563  0.62441  Biso   1.000  Hf
  Hf13     1.0000 0.27649  0.73278  0.87702  Biso   1.000  Hf
  Hf14     1.0000 0.74145  0.76708  0.62451  Biso   1.000  Hf
  Hf15     1.0000 0.71774  0.98158  0.87964  Biso   1.000  Hf
  O25      1.0000 0.07651  0.68235  0.69269  Biso   1.000  O
  O26      1.0000 0.07299  0.56557  0.94588  Biso   1.000  O
  O27      1.0000 0.92843  0.93306  0.69991  Biso   1.000  O
  O28      1.0000 0.93771  0.81684  0.94055  Biso   1.000  O
  O29      1.0000 0.54466  0.61613  0.74875  Biso   1.000  O
  O30      1.0000 0.54787  0.62817  0.99997  Biso   1.000  O
  O31      1.0000 0.47509  0.87128  0.99515  Biso   1.000  O
  O32      1.0000 0.45857  0.86629  0.74717  Biso   1.000  O
