data_image0
_cell_length_a       10.1451
_cell_length_b       10.2581
_cell_length_c       5.24605
_cell_angle_alpha    89.9695
_cell_angle_beta     90.4703
_cell_angle_gamma    90.1516

_symmetry_space_group_name_H-M    "P 1"
_symmetry_int_tables_number       1

loop_
  _symmetry_equiv_pos_as_xyz
  'x, y, z'

loop_
  _atom_site_label
  _atom_site_occupancy
  _atom_site_fract_x
  _atom_site_fract_y
  _atom_site_fract_z
  _atom_site_thermal_displace_type
  _atom_site_B_iso_or_equiv
  _atom_site_type_symbol
  B1       1.0000 0.02247  0.05626  0.34530  Biso   1.000  B
  Zr1      1.0000 0.14125  0.52034  0.34584  Biso   1.000  Zr
  Zr2      1.0000 0.14589  0.22352  0.83995  Biso   1.000  Zr
  Zr3      1.0000 0.14549  0.73241  0.84262  Biso   1.000  Zr
  Zr4      1.0000 0.35750  0.26466  0.34461  Biso   1.000  Zr
  Zr5      1.0000 0.35834  0.77493  0.34478  Biso   1.000  Zr
  Zr6      1.0000 0.36053  0.47654  0.84673  Biso   1.000  Zr
  Zr7      1.0000 0.35899  0.97654  0.84403  Biso   1.000  Zr
  Zr8      1.0000 0.63941  0.02022  0.15921  Biso   1.000  Zr
  Zr9      1.0000 0.63762  0.52113  0.16230  Biso   1.000  Zr
  Zr10     1.0000 0.63784  0.22909  0.65701  Biso   1.000  Zr
  Zr11     1.0000 0.63957  0.72717  0.65813  Biso   1.000  Zr
  Zr12     1.0000 0.85897  0.27398  0.15647  Biso   1.000  Zr
  Zr13     1.0000 0.86609  0.76924  0.15800  Biso   1.000  Zr
  Zr14     1.0000 0.86652  0.47774  0.66115  Biso   1.000  Zr
  Zr15     1.0000 0.85612  0.97753  0.67072  Biso   1.000  Zr
  O1       1.0000 0.02988  0.14385  0.14943  Biso   1.000  O
  O2       1.0000 0.03507  0.66954  0.17687  Biso   1.000  O
  O3       1.0000 0.02973  0.09608  0.59776  Biso   1.000  O
  O4       1.0000 0.03496  0.58292  0.67145  Biso   1.000  O
  O5       1.0000 0.46922  0.40955  0.16516  Biso   1.000  O
  O6       1.0000 0.47708  0.90778  0.15981  Biso   1.000  O
  O7       1.0000 0.47166  0.33911  0.66250  Biso   1.000  O
  O8       1.0000 0.47858  0.84402  0.65356  Biso   1.000  O
  O9       1.0000 0.28513  0.12893  0.60857  Biso   1.000  O
  O10      1.0000 0.27823  0.62042  0.59161  Biso   1.000  O
  O11      1.0000 0.28773  0.13333  0.07227  Biso   1.000  O
  O12      1.0000 0.27517  0.61994  0.09436  Biso   1.000  O
  O13      1.0000 0.22427  0.37160  0.59358  Biso   1.000  O
  O14      1.0000 0.23365  0.86641  0.59870  Biso   1.000  O
  O15      1.0000 0.22169  0.37296  0.09146  Biso   1.000  O
  O16      1.0000 0.23877  0.86620  0.07850  Biso   1.000  O
  O17      1.0000 0.53274  0.16135  0.33841  Biso   1.000  O
  O18      1.0000 0.53228  0.66062  0.34186  Biso   1.000  O
  O19      1.0000 0.53674  0.08632  0.83887  Biso   1.000  O
  O20      1.0000 0.53165  0.58770  0.84166  Biso   1.000  O
  O21      1.0000 0.97112  0.40913  0.34013  Biso   1.000  O
  O22      1.0000 0.96575  0.93588  0.31815  Biso   1.000  O
  O23      1.0000 0.97030  0.33094  0.84368  Biso   1.000  O
  O24      1.0000 0.96979  0.83758  0.82873  Biso   1.000  O
  O25      1.0000 0.77867  0.12318  0.91052  Biso   1.000  O
  O26      1.0000 0.77818  0.62440  0.91603  Biso   1.000  O
  O27      1.0000 0.77614  0.12651  0.41090  Biso   1.000  O
  O28      1.0000 0.77826  0.62520  0.41321  Biso   1.000  O
  O29      1.0000 0.72732  0.37432  0.91186  Biso   1.000  O
  O30      1.0000 0.72688  0.87278  0.91654  Biso   1.000  O
  O31      1.0000 0.72704  0.37600  0.40975  Biso   1.000  O
  O32      1.0000 0.73371  0.87415  0.41729  Biso   1.000  O
