data_image0
_cell_length_a       10.0534
_cell_length_b       10.4365
_cell_length_c       10.0909
_cell_angle_alpha    90.185
_cell_angle_beta     89.6289
_cell_angle_gamma    90.4082

_symmetry_space_group_name_H-M    "P 1"
_symmetry_int_tables_number       1

loop_
  _symmetry_equiv_pos_as_xyz
  'x, y, z'

loop_
  _atom_site_label
  _atom_site_occupancy
  _atom_site_fract_x
  _atom_site_fract_y
  _atom_site_fract_z
  _atom_site_thermal_displace_type
  _atom_site_B_iso_or_equiv
  _atom_site_type_symbol
  Zr1      1.0000 0.14130  0.01707  0.12219  Biso   1.000  Zr
  Zr2      1.0000 0.13548  0.22698  0.39969  Biso   1.000  Zr
  Zr3      1.0000 0.36575  0.26089  0.11838  Biso   1.000  Zr
  Zr4      1.0000 0.37461  0.48755  0.37819  Biso   1.000  Zr
  O1       1.0000 0.02455  0.18383  0.22289  Biso   1.000  O
  O2       1.0000 0.03546  0.06444  0.45641  Biso   1.000  O
  O3       1.0000 0.45545  0.43064  0.19723  Biso   1.000  O
  O4       1.0000 0.46452  0.31594  0.44495  Biso   1.000  O
  O5       1.0000 0.26731  0.11531  0.25802  Biso   1.000  O
  O6       1.0000 0.27550  0.12862  0.50847  Biso   1.000  O
  O7       1.0000 0.23343  0.38322  0.49491  Biso   1.000  O
  O8       1.0000 0.19213  0.34532  0.22919  Biso   1.000  O
  Zr5      1.0000 0.13784  0.01543  0.63492  Biso   1.000  Zr
  Zr6      1.0000 0.13613  0.23759  0.89063  Biso   1.000  Zr
  Zr7      1.0000 0.36792  0.26636  0.63142  Biso   1.000  Zr
  Zr8      1.0000 0.37032  0.48954  0.87075  Biso   1.000  Zr
  O9       1.0000 0.03786  0.18442  0.69572  Biso   1.000  O
  O10      1.0000 0.03690  0.06777  0.95040  Biso   1.000  O
  O11      1.0000 0.46535  0.43486  0.69195  Biso   1.000  O
  O12      1.0000 0.46610  0.31545  0.93975  Biso   1.000  O
  O13      1.0000 0.27003  0.11912  0.75572  Biso   1.000  O
  O14      1.0000 0.29046  0.12004  0.99517  Biso   1.000  O
  O15      1.0000 0.24255  0.39207  0.99414  Biso   1.000  O
  O16      1.0000 0.22841  0.36876  0.74858  Biso   1.000  O
  Zr9      1.0000 0.12731  0.51839  0.11813  Biso   1.000  Zr
  Zr10     1.0000 0.13376  0.73305  0.37594  Biso   1.000  Zr
  Zr11     1.0000 0.36581  0.76256  0.12630  Biso   1.000  Zr
  Zr12     1.0000 0.36778  0.98153  0.37716  Biso   1.000  Zr
  O17      1.0000 0.03552  0.68535  0.19314  Biso   1.000  O
  O18      1.0000 0.03458  0.56673  0.44404  Biso   1.000  O
  O19      1.0000 0.46585  0.93146  0.19554  Biso   1.000  O
  O20      1.0000 0.46630  0.81482  0.44566  Biso   1.000  O
  O21      1.0000 0.26455  0.60684  0.24861  Biso   1.000  O
  O22      1.0000 0.27036  0.63289  0.49801  Biso   1.000  O
  O23      1.0000 0.23047  0.88214  0.50108  Biso   1.000  O
  O24      1.0000 0.23413  0.86282  0.25021  Biso   1.000  O
  Zr13     1.0000 0.13323  0.51525  0.62487  Biso   1.000  Zr
  Zr14     1.0000 0.13332  0.73579  0.87467  Biso   1.000  Zr
  Zr15     1.0000 0.36784  0.76449  0.62499  Biso   1.000  Zr
  Zr16     1.0000 0.37171  0.98031  0.87470  Biso   1.000  Zr
  O25      1.0000 0.03707  0.68508  0.69234  Biso   1.000  O
  O26      1.0000 0.03440  0.56620  0.94062  Biso   1.000  O
  O27      1.0000 0.46699  0.93270  0.69178  Biso   1.000  O
  O28      1.0000 0.46746  0.81498  0.94833  Biso   1.000  O
  O29      1.0000 0.26848  0.61791  0.74756  Biso   1.000  O
  O30      1.0000 0.26714  0.63635  0.99719  Biso   1.000  O
  O31      1.0000 0.23110  0.88071  0.99993  Biso   1.000  O
  O32      1.0000 0.23419  0.86630  0.75053  Biso   1.000  O
  Zr17     1.0000 0.63367  0.01679  0.12543  Biso   1.000  Zr
  Zr18     1.0000 0.63398  0.23353  0.37560  Biso   1.000  Zr
  Zr19     1.0000 0.86183  0.27177  0.11637  Biso   1.000  Zr
  Zr20     1.0000 0.86533  0.48453  0.37562  Biso   1.000  Zr
  O33      1.0000 0.53354  0.18210  0.19350  Biso   1.000  O
  O34      1.0000 0.53782  0.06483  0.44366  Biso   1.000  O
  O35      1.0000 0.95183  0.44227  0.18994  Biso   1.000  O
  O36      1.0000 0.96754  0.31970  0.45032  Biso   1.000  O
  O37      1.0000 0.76928  0.11856  0.24744  Biso   1.000  O
  O38      1.0000 0.77143  0.13530  0.49838  Biso   1.000  O
  O39      1.0000 0.73016  0.38337  0.49826  Biso   1.000  O
  O40      1.0000 0.72550  0.36871  0.24815  Biso   1.000  O
  Zr21     1.0000 0.63651  0.01682  0.62480  Biso   1.000  Zr
  Zr22     1.0000 0.63489  0.23309  0.87464  Biso   1.000  Zr
  Zr23     1.0000 0.86968  0.26666  0.62905  Biso   1.000  Zr
  Zr24     1.0000 0.86235  0.48605  0.87335  Biso   1.000  Zr
  O41      1.0000 0.53699  0.18350  0.69374  Biso   1.000  O
  O42      1.0000 0.54329  0.06286  0.94090  Biso   1.000  O
  O43      1.0000 0.96069  0.43930  0.69074  Biso   1.000  O
  O44      1.0000 0.95064  0.31590  0.92513  Biso   1.000  O
  O45      1.0000 0.77159  0.11698  0.74835  Biso   1.000  O
  O46      1.0000 0.77105  0.13299  0.99766  Biso   1.000  O
  O47      1.0000 0.72560  0.38374  0.99935  Biso   1.000  O
  O48      1.0000 0.72772  0.36920  0.74804  Biso   1.000  O
  Zr25     1.0000 0.63112  0.51601  0.12895  Biso   1.000  Zr
  Zr26     1.0000 0.63713  0.73702  0.37651  Biso   1.000  Zr
  Zr27     1.0000 0.86750  0.76779  0.12651  Biso   1.000  Zr
  Zr28     1.0000 0.86815  0.98732  0.37365  Biso   1.000  Zr
  O49      1.0000 0.53109  0.67991  0.20165  Biso   1.000  O
  O50      1.0000 0.53631  0.56786  0.44855  Biso   1.000  O
  O51      1.0000 0.96892  0.93596  0.19576  Biso   1.000  O
  O52      1.0000 0.96459  0.81708  0.44306  Biso   1.000  O
  O53      1.0000 0.76685  0.61932  0.25122  Biso   1.000  O
  O54      1.0000 0.76911  0.63423  0.50000  Biso   1.000  O
  O55      1.0000 0.73367  0.88502  0.49890  Biso   1.000  O
  O56      1.0000 0.73184  0.86868  0.24931  Biso   1.000  O
  Zr29     1.0000 0.63744  0.51619  0.62659  Biso   1.000  Zr
  Zr30     1.0000 0.63628  0.73533  0.87729  Biso   1.000  Zr
  Zr31     1.0000 0.86893  0.76750  0.62503  Biso   1.000  Zr
  Zr32     1.0000 0.86696  0.98529  0.87657  Biso   1.000  Zr
  O57      1.0000 0.53418  0.68180  0.69945  Biso   1.000  O
  O58      1.0000 0.53560  0.56769  0.94998  Biso   1.000  O
  O59      1.0000 0.96792  0.93184  0.70036  Biso   1.000  O
  O60      1.0000 0.96467  0.81692  0.94549  Biso   1.000  O
  O61      1.0000 0.76973  0.62004  0.74947  Biso   1.000  O
  O62      1.0000 0.76832  0.63318  0.00185  Biso   1.000  O
  O63      1.0000 0.73278  0.88308  0.00023  Biso   1.000  O
  O64      1.0000 0.73179  0.86803  0.74922  Biso   1.000  O
  B1       1.0000 0.11050  0.26046  0.14504  Biso   1.000  B
