data_image0
_cell_length_a       10.096
_cell_length_b       10.309
_cell_length_c       10.5589
_cell_angle_alpha    90.0233
_cell_angle_beta     90.4036
_cell_angle_gamma    90.0033

_symmetry_space_group_name_H-M    "P 1"
_symmetry_int_tables_number       1

loop_
  _symmetry_equiv_pos_as_xyz
  'x, y, z'

loop_
  _atom_site_label
  _atom_site_occupancy
  _atom_site_fract_x
  _atom_site_fract_y
  _atom_site_fract_z
  _atom_site_thermal_displace_type
  _atom_site_B_iso_or_equiv
  _atom_site_type_symbol
  Zr1      1.0000 0.13598  0.02101  0.17219  Biso   1.000  Zr
  Zr2      1.0000 0.13582  0.22694  0.42657  Biso   1.000  Zr
  Zr3      1.0000 0.34359  0.27019  0.18126  Biso   1.000  Zr
  Zr4      1.0000 0.36016  0.48000  0.42339  Biso   1.000  Zr
  Zr5      1.0000 0.64449  0.02921  0.07056  Biso   1.000  Zr
  Zr6      1.0000 0.63796  0.22673  0.34199  Biso   1.000  Zr
  Zr7      1.0000 0.85355  0.26728  0.07114  Biso   1.000  Zr
  Zr8      1.0000 0.86503  0.47960  0.33062  Biso   1.000  Zr
  O1       1.0000 0.03385  0.16879  0.08622  Biso   1.000  O
  O2       1.0000 0.03213  0.08242  0.33602  Biso   1.000  O
  O3       1.0000 0.49129  0.37749  0.06987  Biso   1.000  O
  O4       1.0000 0.46308  0.33654  0.33220  Biso   1.000  O
  O5       1.0000 0.27416  0.12418  0.29783  Biso   1.000  O
  O6       1.0000 0.27598  0.12615  0.04829  Biso   1.000  O
  O7       1.0000 0.21599  0.37418  0.29841  Biso   1.000  O
  O8       1.0000 0.23061  0.37942  0.04939  Biso   1.000  O
  O9       1.0000 0.52955  0.17523  0.17036  Biso   1.000  O
  O10      1.0000 0.53080  0.08460  0.41886  Biso   1.000  O
  O11      1.0000 0.95328  0.41843  0.16629  Biso   1.000  O
  O12      1.0000 0.96596  0.33268  0.41907  Biso   1.000  O
  O13      1.0000 0.77583  0.12295  0.45962  Biso   1.000  O
  O14      1.0000 0.77238  0.12583  0.21036  Biso   1.000  O
  O15      1.0000 0.72297  0.37477  0.45056  Biso   1.000  O
  O16      1.0000 0.69137  0.35880  0.18308  Biso   1.000  O
  Zr9      1.0000 0.14204  0.02044  0.67317  Biso   1.000  Zr
  Zr10     1.0000 0.13782  0.22756  0.92211  Biso   1.000  Zr
  Zr11     1.0000 0.36408  0.27015  0.67241  Biso   1.000  Zr
  Zr12     1.0000 0.36028  0.47769  0.91854  Biso   1.000  Zr
  Zr13     1.0000 0.63953  0.02076  0.58345  Biso   1.000  Zr
  Zr14     1.0000 0.64237  0.23203  0.83611  Biso   1.000  Zr
  Zr15     1.0000 0.86110  0.27029  0.58171  Biso   1.000  Zr
  Zr16     1.0000 0.86628  0.48176  0.82378  Biso   1.000  Zr
  O17      1.0000 0.03374  0.16585  0.58802  Biso   1.000  O
  O18      1.0000 0.03849  0.08129  0.83494  Biso   1.000  O
  O19      1.0000 0.46913  0.41372  0.58134  Biso   1.000  O
  O20      1.0000 0.47087  0.33940  0.83005  Biso   1.000  O
  O21      1.0000 0.27933  0.12433  0.79755  Biso   1.000  O
  O22      1.0000 0.27690  0.12396  0.54749  Biso   1.000  O
  O23      1.0000 0.22575  0.37351  0.79751  Biso   1.000  O
  O24      1.0000 0.22532  0.37536  0.54758  Biso   1.000  O
  O25      1.0000 0.53511  0.16556  0.66855  Biso   1.000  O
  O26      1.0000 0.53522  0.08000  0.91123  Biso   1.000  O
  O27      1.0000 0.97026  0.41600  0.66529  Biso   1.000  O
  O28      1.0000 0.97076  0.33480  0.91526  Biso   1.000  O
  O29      1.0000 0.79315  0.11702  0.94767  Biso   1.000  O
  O30      1.0000 0.77766  0.12581  0.70644  Biso   1.000  O
  O31      1.0000 0.73395  0.38913  0.94495  Biso   1.000  O
  O32      1.0000 0.72580  0.37583  0.70166  Biso   1.000  O
  Zr17     1.0000 0.13391  0.52230  0.17145  Biso   1.000  Zr
  Zr18     1.0000 0.13962  0.72963  0.42223  Biso   1.000  Zr
  Zr19     1.0000 0.36189  0.77323  0.17213  Biso   1.000  Zr
  Zr20     1.0000 0.36031  0.97622  0.42429  Biso   1.000  Zr
  Zr21     1.0000 0.64605  0.53238  0.07092  Biso   1.000  Zr
  Zr22     1.0000 0.63909  0.72864  0.32801  Biso   1.000  Zr
  Zr23     1.0000 0.86151  0.77479  0.07832  Biso   1.000  Zr
  Zr24     1.0000 0.85900  0.97837  0.32932  Biso   1.000  Zr
  O33      1.0000 0.03265  0.66665  0.08530  Biso   1.000  O
  O34      1.0000 0.03271  0.58099  0.33745  Biso   1.000  O
  O35      1.0000 0.46977  0.91947  0.08616  Biso   1.000  O
  O36      1.0000 0.46786  0.83433  0.33382  Biso   1.000  O
  O37      1.0000 0.27252  0.62433  0.29510  Biso   1.000  O
  O38      1.0000 0.27745  0.62360  0.04679  Biso   1.000  O
  O39      1.0000 0.22438  0.87464  0.29689  Biso   1.000  O
  O40      1.0000 0.22484  0.87573  0.04751  Biso   1.000  O
  O41      1.0000 0.52892  0.65872  0.16812  Biso   1.000  O
  O42      1.0000 0.53145  0.58651  0.41802  Biso   1.000  O
  O43      1.0000 0.96611  0.91792  0.16634  Biso   1.000  O
  O44      1.0000 0.96639  0.83142  0.41356  Biso   1.000  O
  O45      1.0000 0.77575  0.62419  0.45327  Biso   1.000  O
  O46      1.0000 0.77582  0.62326  0.20351  Biso   1.000  O
  O47      1.0000 0.72371  0.87454  0.45475  Biso   1.000  O
  O48      1.0000 0.72482  0.87458  0.20399  Biso   1.000  O
  Zr25     1.0000 0.14146  0.52106  0.67092  Biso   1.000  Zr
  Zr26     1.0000 0.14163  0.72885  0.92299  Biso   1.000  Zr
  Zr27     1.0000 0.36199  0.77050  0.67319  Biso   1.000  Zr
  Zr28     1.0000 0.36289  0.97884  0.92372  Biso   1.000  Zr
  Zr29     1.0000 0.63922  0.52158  0.57816  Biso   1.000  Zr
  Zr30     1.0000 0.63968  0.73109  0.82689  Biso   1.000  Zr
  Zr31     1.0000 0.86255  0.77072  0.57699  Biso   1.000  Zr
  Zr32     1.0000 0.86516  0.97621  0.82600  Biso   1.000  Zr
  O49      1.0000 0.03411  0.66500  0.58322  Biso   1.000  O
  O50      1.0000 0.03741  0.58567  0.83356  Biso   1.000  O
  O51      1.0000 0.46810  0.91352  0.58462  Biso   1.000  O
  O52      1.0000 0.46796  0.83398  0.83469  Biso   1.000  O
  O53      1.0000 0.27994  0.62175  0.79655  Biso   1.000  O
  O54      1.0000 0.27705  0.62596  0.54644  Biso   1.000  O
  O55      1.0000 0.22553  0.87250  0.79717  Biso   1.000  O
  O56      1.0000 0.22457  0.87440  0.54670  Biso   1.000  O
  O57      1.0000 0.53250  0.66292  0.66917  Biso   1.000  O
  O58      1.0000 0.53013  0.58735  0.92099  Biso   1.000  O
  O59      1.0000 0.96995  0.91481  0.66365  Biso   1.000  O
  O60      1.0000 0.97003  0.83401  0.91796  Biso   1.000  O
  O61      1.0000 0.77778  0.63117  0.95140  Biso   1.000  O
  O62      1.0000 0.77722  0.62695  0.70288  Biso   1.000  O
  O63      1.0000 0.72553  0.87654  0.95375  Biso   1.000  O
  O64      1.0000 0.72534  0.87461  0.70398  Biso   1.000  O
  B1       1.0000 0.59288  0.27853  0.09829  Biso   1.000  B
