data_image0
_cell_length_a       5.07666
_cell_length_b       10.2552
_cell_length_c       10.1426
_cell_angle_alpha    88.9267
_cell_angle_beta     91.9628
_cell_angle_gamma    90.9964

_symmetry_space_group_name_H-M    "P 1"
_symmetry_int_tables_number       1

loop_
  _symmetry_equiv_pos_as_xyz
  'x, y, z'

loop_
  _atom_site_label
  _atom_site_occupancy
  _atom_site_fract_x
  _atom_site_fract_y
  _atom_site_fract_z
  _atom_site_thermal_displace_type
  _atom_site_B_iso_or_equiv
  _atom_site_type_symbol
  Zr1      1.0000 0.22631  0.01781  0.14219  Biso   1.000  Zr
  Zr2      1.0000 0.19698  0.26527  0.34839  Biso   1.000  Zr
  Zr3      1.0000 0.66172  0.24342  0.13696  Biso   1.000  Zr
  Zr4      1.0000 0.74431  0.99573  0.38395  Biso   1.000  Zr
  O1       1.0000 0.00713  0.16743  0.00868  Biso   1.000  O
  O2       1.0000 0.94777  0.11559  0.25127  Biso   1.000  O
  O3       1.0000 0.93190  0.38149  0.24446  Biso   1.000  O
  O4       1.0000 0.11116  0.38881  0.00496  Biso   1.000  O
  O5       1.0000 0.47060  0.13357  0.28642  Biso   1.000  O
  O6       1.0000 0.51260  0.08852  0.01218  Biso   1.000  O
  O7       1.0000 0.60966  0.34274  0.96628  Biso   1.000  O
  O8       1.0000 0.45846  0.40095  0.24404  Biso   1.000  O
  Zr5      1.0000 0.25337  0.00414  0.62956  Biso   1.000  Zr
  Zr6      1.0000 0.29501  0.24828  0.85868  Biso   1.000  Zr
  Zr7      1.0000 0.75702  0.24715  0.61470  Biso   1.000  Zr
  Zr8      1.0000 0.74700  0.98928  0.87326  Biso   1.000  Zr
  O9       1.0000 0.03471  0.14503  0.50044  Biso   1.000  O
  O10      1.0000 0.04021  0.09727  0.76176  Biso   1.000  O
  O11      1.0000 0.01141  0.35206  0.74903  Biso   1.000  O
  O12      1.0000 0.99167  0.39324  0.49396  Biso   1.000  O
  O13      1.0000 0.54927  0.13857  0.76115  Biso   1.000  O
  O14      1.0000 0.55621  0.08639  0.53071  Biso   1.000  O
  O15      1.0000 0.49800  0.34437  0.48455  Biso   1.000  O
  O16      1.0000 0.51658  0.38929  0.73207  Biso   1.000  O
  Zr9      1.0000 0.22892  0.53189  0.13695  Biso   1.000  Zr
  Zr10     1.0000 0.23555  0.74987  0.38407  Biso   1.000  Zr
  Zr11     1.0000 0.75013  0.76511  0.12944  Biso   1.000  Zr
  Zr12     1.0000 0.72285  0.50295  0.37630  Biso   1.000  Zr
  O17      1.0000 0.99668  0.64650  0.99606  Biso   1.000  O
  O18      1.0000 0.97702  0.62526  0.25217  Biso   1.000  O
  O19      1.0000 0.00676  0.87000  0.26428  Biso   1.000  O
  O20      1.0000 0.99882  0.90560  0.01726  Biso   1.000  O
  O21      1.0000 0.48537  0.65207  0.25701  Biso   1.000  O
  O22      1.0000 0.50543  0.59702  0.00697  Biso   1.000  O
  O23      1.0000 0.52026  0.84404  0.98277  Biso   1.000  O
  O24      1.0000 0.51385  0.89839  0.23549  Biso   1.000  O
  Zr13     1.0000 0.24188  0.49054  0.62319  Biso   1.000  Zr
  Zr14     1.0000 0.26961  0.73843  0.86941  Biso   1.000  Zr
  Zr15     1.0000 0.75796  0.74675  0.62760  Biso   1.000  Zr
  Zr16     1.0000 0.76111  0.49971  0.87405  Biso   1.000  Zr
  O25      1.0000 0.97880  0.64103  0.49723  Biso   1.000  O
  O26      1.0000 0.02292  0.60075  0.74482  Biso   1.000  O
  O27      1.0000 0.98877  0.84803  0.76574  Biso   1.000  O
  O28      1.0000 0.01360  0.88772  0.51399  Biso   1.000  O
  O29      1.0000 0.52642  0.63529  0.75860  Biso   1.000  O
  O30      1.0000 0.48073  0.60048  0.50538  Biso   1.000  O
  O31      1.0000 0.52066  0.84609  0.48910  Biso   1.000  O
  O32      1.0000 0.49890  0.88387  0.74129  Biso   1.000  O
  B1       1.0000 0.15511  0.26660  0.07372  Biso   1.000  B
