data_image0
_cell_length_a       10.055
_cell_length_b       10.4149
_cell_length_c       10.051
_cell_angle_alpha    89.9239
_cell_angle_beta     89.8904
_cell_angle_gamma    90.2122

_symmetry_space_group_name_H-M    "P 1"
_symmetry_int_tables_number       1

loop_
  _symmetry_equiv_pos_as_xyz
  'x, y, z'

loop_
  _atom_site_label
  _atom_site_occupancy
  _atom_site_fract_x
  _atom_site_fract_y
  _atom_site_fract_z
  _atom_site_thermal_displace_type
  _atom_site_B_iso_or_equiv
  _atom_site_type_symbol
  B1       1.0000 0.01934  0.05429  0.11494  Biso   1.000  B
  Zr1      1.0000 0.13540  0.01453  0.62698  Biso   1.000  Zr
  Zr2      1.0000 0.13490  0.51478  0.12621  Biso   1.000  Zr
  Zr3      1.0000 0.13540  0.51593  0.62573  Biso   1.000  Zr
  Zr4      1.0000 0.63576  0.01629  0.12310  Biso   1.000  Zr
  Zr5      1.0000 0.62949  0.01257  0.62222  Biso   1.000  Zr
  Zr6      1.0000 0.63294  0.51824  0.12668  Biso   1.000  Zr
  Zr7      1.0000 0.63421  0.51465  0.62405  Biso   1.000  Zr
  Zr8      1.0000 0.13891  0.22955  0.37304  Biso   1.000  Zr
  Zr9      1.0000 0.13701  0.23263  0.88309  Biso   1.000  Zr
  Zr10     1.0000 0.13787  0.73504  0.37537  Biso   1.000  Zr
  Zr11     1.0000 0.13728  0.73482  0.87893  Biso   1.000  Zr
  Zr12     1.0000 0.63240  0.23382  0.37528  Biso   1.000  Zr
  Zr13     1.0000 0.63236  0.23240  0.87311  Biso   1.000  Zr
  Zr14     1.0000 0.63590  0.73614  0.37323  Biso   1.000  Zr
  Zr15     1.0000 0.63500  0.73446  0.87393  Biso   1.000  Zr
  Zr16     1.0000 0.36446  0.26245  0.12736  Biso   1.000  Zr
  Zr17     1.0000 0.36516  0.26544  0.62752  Biso   1.000  Zr
  Zr18     1.0000 0.36342  0.76607  0.12559  Biso   1.000  Zr
  Zr19     1.0000 0.36761  0.76683  0.62668  Biso   1.000  Zr
  Zr20     1.0000 0.85811  0.27318  0.12355  Biso   1.000  Zr
  Zr21     1.0000 0.86842  0.26265  0.62489  Biso   1.000  Zr
  Zr22     1.0000 0.87135  0.76564  0.11966  Biso   1.000  Zr
  Zr23     1.0000 0.86920  0.76405  0.62267  Biso   1.000  Zr
  Zr24     1.0000 0.36629  0.48358  0.37600  Biso   1.000  Zr
  Zr25     1.0000 0.36655  0.48373  0.87662  Biso   1.000  Zr
  Zr26     1.0000 0.36215  0.98324  0.36945  Biso   1.000  Zr
  Zr27     1.0000 0.36119  0.98245  0.88328  Biso   1.000  Zr
  Zr28     1.0000 0.86756  0.48399  0.37653  Biso   1.000  Zr
  Zr29     1.0000 0.86819  0.48422  0.87310  Biso   1.000  Zr
  Zr30     1.0000 0.86657  0.98774  0.37603  Biso   1.000  Zr
  Zr31     1.0000 0.86491  0.98388  0.86991  Biso   1.000  Zr
  O1       1.0000 0.03208  0.16903  0.18553  Biso   1.000  O
  O2       1.0000 0.02787  0.17454  0.71289  Biso   1.000  O
  O3       1.0000 0.03769  0.68665  0.19259  Biso   1.000  O
  O4       1.0000 0.03687  0.68285  0.69243  Biso   1.000  O
  O5       1.0000 0.54138  0.18598  0.19046  Biso   1.000  O
  O6       1.0000 0.53424  0.18275  0.69277  Biso   1.000  O
  O7       1.0000 0.53699  0.68364  0.19587  Biso   1.000  O
  O8       1.0000 0.53620  0.68216  0.69514  Biso   1.000  O
  O9       1.0000 0.03412  0.06833  0.44917  Biso   1.000  O
  O10      1.0000 0.02735  0.06421  0.97740  Biso   1.000  O
  O11      1.0000 0.03625  0.56565  0.44518  Biso   1.000  O
  O12      1.0000 0.03511  0.56670  0.94596  Biso   1.000  O
  O13      1.0000 0.53460  0.06654  0.44264  Biso   1.000  O
  O14      1.0000 0.53660  0.06571  0.94463  Biso   1.000  O
  O15      1.0000 0.53680  0.56663  0.44333  Biso   1.000  O
  O16      1.0000 0.53653  0.56635  0.94465  Biso   1.000  O
  O17      1.0000 0.46422  0.43306  0.19534  Biso   1.000  O
  O18      1.0000 0.46424  0.43373  0.69387  Biso   1.000  O
  O19      1.0000 0.47195  0.93205  0.19687  Biso   1.000  O
  O20      1.0000 0.46448  0.93291  0.69983  Biso   1.000  O
  O21      1.0000 0.96588  0.42912  0.19678  Biso   1.000  O
  O22      1.0000 0.96669  0.43041  0.69357  Biso   1.000  O
  O23      1.0000 0.96879  0.94972  0.17932  Biso   1.000  O
  O24      1.0000 0.96542  0.93182  0.69428  Biso   1.000  O
  O25      1.0000 0.46515  0.31650  0.44633  Biso   1.000  O
  O26      1.0000 0.46627  0.31740  0.94251  Biso   1.000  O
  O27      1.0000 0.47100  0.81845  0.45120  Biso   1.000  O
  O28      1.0000 0.47160  0.81817  0.94809  Biso   1.000  O
  O29      1.0000 0.96664  0.31379  0.44351  Biso   1.000  O
  O30      1.0000 0.96647  0.31803  0.94783  Biso   1.000  O
  O31      1.0000 0.96618  0.81885  0.43870  Biso   1.000  O
  O32      1.0000 0.96313  0.81565  0.93732  Biso   1.000  O
  O33      1.0000 0.28397  0.12926  0.25819  Biso   1.000  O
  O34      1.0000 0.26726  0.11639  0.75106  Biso   1.000  O
  O35      1.0000 0.26882  0.61242  0.24919  Biso   1.000  O
  O36      1.0000 0.27031  0.61734  0.75014  Biso   1.000  O
  O37      1.0000 0.77170  0.11965  0.24744  Biso   1.000  O
  O38      1.0000 0.76524  0.11326  0.74536  Biso   1.000  O
  O39      1.0000 0.77315  0.61701  0.24720  Biso   1.000  O
  O40      1.0000 0.77104  0.61490  0.74662  Biso   1.000  O
  O41      1.0000 0.26731  0.13237  0.50319  Biso   1.000  O
  O42      1.0000 0.27818  0.13666  0.99411  Biso   1.000  O
  O43      1.0000 0.27235  0.63212  0.49951  Biso   1.000  O
  O44      1.0000 0.27193  0.62744  0.00030  Biso   1.000  O
  O45      1.0000 0.76943  0.13258  0.49697  Biso   1.000  O
  O46      1.0000 0.77078  0.13503  0.99545  Biso   1.000  O
  O47      1.0000 0.76974  0.63349  0.49717  Biso   1.000  O
  O48      1.0000 0.77071  0.63448  0.99787  Biso   1.000  O
  O49      1.0000 0.23041  0.38067  0.49950  Biso   1.000  O
  O50      1.0000 0.23112  0.38180  0.00070  Biso   1.000  O
  O51      1.0000 0.23105  0.88243  0.50172  Biso   1.000  O
  O52      1.0000 0.23644  0.87122  0.99690  Biso   1.000  O
  O53      1.0000 0.73220  0.38219  0.49876  Biso   1.000  O
  O54      1.0000 0.73077  0.38465  0.99821  Biso   1.000  O
  O55      1.0000 0.73351  0.88414  0.49658  Biso   1.000  O
  O56      1.0000 0.73347  0.88516  0.99510  Biso   1.000  O
  O57      1.0000 0.22644  0.36767  0.24865  Biso   1.000  O
  O58      1.0000 0.22935  0.36542  0.75183  Biso   1.000  O
  O59      1.0000 0.24552  0.85583  0.25854  Biso   1.000  O
  O60      1.0000 0.22943  0.86800  0.74919  Biso   1.000  O
  O61      1.0000 0.72789  0.37050  0.24940  Biso   1.000  O
  O62      1.0000 0.73270  0.36427  0.74756  Biso   1.000  O
  O63      1.0000 0.74027  0.86759  0.24577  Biso   1.000  O
  O64      1.0000 0.73216  0.86471  0.74558  Biso   1.000  O
