data_image0
_cell_length_a       10.2238
_cell_length_b       10.3326
_cell_length_c       10.5762
_cell_angle_alpha    90.0863
_cell_angle_beta     79.7332
_cell_angle_gamma    89.8695

_symmetry_space_group_name_H-M    "P 1"
_symmetry_int_tables_number       1

loop_
  _symmetry_equiv_pos_as_xyz
  'x, y, z'

loop_
  _atom_site_label
  _atom_site_occupancy
  _atom_site_fract_x
  _atom_site_fract_y
  _atom_site_fract_z
  _atom_site_thermal_displace_type
  _atom_site_B_iso_or_equiv
  _atom_site_type_symbol
  Zr1      1.0000 0.13313  0.02060  0.14092  Biso   1.000  Zr
  Zr2      1.0000 0.14600  0.23204  0.38650  Biso   1.000  Zr
  Zr3      1.0000 0.35789  0.26908  0.11153  Biso   1.000  Zr
  Zr4      1.0000 0.35583  0.47089  0.34663  Biso   1.000  Zr
  O1       1.0000 0.03024  0.16799  0.07825  Biso   1.000  O
  O2       1.0000 0.03328  0.08291  0.32707  Biso   1.000  O
  O3       1.0000 0.46286  0.42205  0.16662  Biso   1.000  O
  O4       1.0000 0.47201  0.32546  0.42575  Biso   1.000  O
  O5       1.0000 0.26873  0.11503  0.23181  Biso   1.000  O
  O6       1.0000 0.31177  0.14382  0.46322  Biso   1.000  O
  O7       1.0000 0.22236  0.37861  0.00868  Biso   1.000  O
  O8       1.0000 0.20563  0.37851  0.25243  Biso   1.000  O
  Zr5      1.0000 0.13098  0.01705  0.65281  Biso   1.000  Zr
  Zr6      1.0000 0.13790  0.22970  0.89678  Biso   1.000  Zr
  Zr7      1.0000 0.36192  0.27372  0.61619  Biso   1.000  Zr
  Zr8      1.0000 0.36110  0.47858  0.85771  Biso   1.000  Zr
  O9       1.0000 0.05087  0.16811  0.57367  Biso   1.000  O
  O10      1.0000 0.03171  0.08203  0.83139  Biso   1.000  O
  O11      1.0000 0.46838  0.41694  0.67345  Biso   1.000  O
  O12      1.0000 0.46425  0.33290  0.92330  Biso   1.000  O
  O13      1.0000 0.27367  0.12732  0.73625  Biso   1.000  O
  O14      1.0000 0.27302  0.12175  0.98698  Biso   1.000  O
  O15      1.0000 0.22989  0.37849  0.51171  Biso   1.000  O
  O16      1.0000 0.22467  0.37258  0.76235  Biso   1.000  O
  Zr9      1.0000 0.13624  0.52264  0.14121  Biso   1.000  Zr
  Zr10     1.0000 0.13767  0.72395  0.39569  Biso   1.000  Zr
  Zr11     1.0000 0.35947  0.76926  0.10350  Biso   1.000  Zr
  Zr12     1.0000 0.35404  0.96892  0.34806  Biso   1.000  Zr
  O17      1.0000 0.03141  0.67056  0.07773  Biso   1.000  O
  O18      1.0000 0.03185  0.58512  0.32684  Biso   1.000  O
  O19      1.0000 0.46727  0.91478  0.17573  Biso   1.000  O
  O20      1.0000 0.46681  0.83815  0.42231  Biso   1.000  O
  O21      1.0000 0.27483  0.62550  0.23880  Biso   1.000  O
  O22      1.0000 0.27534  0.62250  0.48868  Biso   1.000  O
  O23      1.0000 0.22365  0.87784  0.00893  Biso   1.000  O
  O24      1.0000 0.22137  0.86532  0.25806  Biso   1.000  O
  Zr13     1.0000 0.14164  0.52316  0.64532  Biso   1.000  Zr
  Zr14     1.0000 0.13652  0.72899  0.89556  Biso   1.000  Zr
  Zr15     1.0000 0.36117  0.77226  0.60424  Biso   1.000  Zr
  Zr16     1.0000 0.36119  0.97794  0.85476  Biso   1.000  Zr
  O25      1.0000 0.03357  0.66640  0.57943  Biso   1.000  O
  O26      1.0000 0.03456  0.58271  0.82896  Biso   1.000  O
  O27      1.0000 0.46577  0.91623  0.67285  Biso   1.000  O
  O28      1.0000 0.46573  0.83424  0.92362  Biso   1.000  O
  O29      1.0000 0.27654  0.62918  0.73992  Biso   1.000  O
  O30      1.0000 0.27509  0.62263  0.98986  Biso   1.000  O
  O31      1.0000 0.22341  0.88730  0.50882  Biso   1.000  O
  O32      1.0000 0.22348  0.87098  0.76005  Biso   1.000  O
  Zr17     1.0000 0.63841  0.02365  0.14337  Biso   1.000  Zr
  Zr18     1.0000 0.65791  0.22943  0.40346  Biso   1.000  Zr
  Zr19     1.0000 0.85852  0.27305  0.10557  Biso   1.000  Zr
  Zr20     1.0000 0.86282  0.47891  0.35437  Biso   1.000  Zr
  O33      1.0000 0.53141  0.16387  0.07504  Biso   1.000  O
  O34      1.0000 0.51026  0.12261  0.31808  Biso   1.000  O
  O35      1.0000 0.96021  0.42127  0.16904  Biso   1.000  O
  O36      1.0000 0.96690  0.33262  0.42145  Biso   1.000  O
  O37      1.0000 0.76863  0.12589  0.24456  Biso   1.000  O
  O38      1.0000 0.78405  0.11857  0.49385  Biso   1.000  O
  O39      1.0000 0.72208  0.37867  0.01197  Biso   1.000  O
  O40      1.0000 0.72293  0.37108  0.26328  Biso   1.000  O
  Zr21     1.0000 0.63998  0.01996  0.64780  Biso   1.000  Zr
  Zr22     1.0000 0.63705  0.23008  0.89560  Biso   1.000  Zr
  Zr23     1.0000 0.87013  0.27084  0.60627  Biso   1.000  Zr
  Zr24     1.0000 0.86110  0.47865  0.85592  Biso   1.000  Zr
  O41      1.0000 0.53864  0.16538  0.57753  Biso   1.000  O
  O42      1.0000 0.53373  0.08380  0.82768  Biso   1.000  O
  O43      1.0000 0.96969  0.41601  0.67318  Biso   1.000  O
  O44      1.0000 0.96356  0.33260  0.92289  Biso   1.000  O
  O45      1.0000 0.77793  0.12870  0.74126  Biso   1.000  O
  O46      1.0000 0.77381  0.12237  0.99254  Biso   1.000  O
  O47      1.0000 0.72799  0.37665  0.51307  Biso   1.000  O
  O48      1.0000 0.72699  0.37171  0.76031  Biso   1.000  O
  Zr25     1.0000 0.63677  0.52215  0.14742  Biso   1.000  Zr
  Zr26     1.0000 0.63664  0.72631  0.39584  Biso   1.000  Zr
  Zr27     1.0000 0.85693  0.77128  0.10524  Biso   1.000  Zr
  Zr28     1.0000 0.86375  0.97470  0.35527  Biso   1.000  Zr
  O49      1.0000 0.53422  0.66859  0.07959  Biso   1.000  O
  O50      1.0000 0.53154  0.57894  0.33116  Biso   1.000  O
  O51      1.0000 0.96126  0.91536  0.17258  Biso   1.000  O
  O52      1.0000 0.96605  0.83182  0.42416  Biso   1.000  O
  O53      1.0000 0.77314  0.62974  0.24153  Biso   1.000  O
  O54      1.0000 0.77470  0.62036  0.49094  Biso   1.000  O
  O55      1.0000 0.72089  0.88104  0.01108  Biso   1.000  O
  O56      1.0000 0.71835  0.87373  0.26199  Biso   1.000  O
  Zr29     1.0000 0.64070  0.52260  0.64766  Biso   1.000  Zr
  Zr30     1.0000 0.63815  0.72790  0.89660  Biso   1.000  Zr
  Zr31     1.0000 0.85897  0.76994  0.60495  Biso   1.000  Zr
  Zr32     1.0000 0.85697  0.97868  0.85733  Biso   1.000  Zr
  O57      1.0000 0.53338  0.66731  0.57945  Biso   1.000  O
  O58      1.0000 0.53461  0.58334  0.82938  Biso   1.000  O
  O59      1.0000 0.96262  0.91631  0.67434  Biso   1.000  O
  O60      1.0000 0.96259  0.83346  0.92166  Biso   1.000  O
  O61      1.0000 0.77678  0.62821  0.74106  Biso   1.000  O
  O62      1.0000 0.77481  0.62187  0.99129  Biso   1.000  O
  O63      1.0000 0.72325  0.87701  0.51075  Biso   1.000  O
  O64      1.0000 0.72307  0.87069  0.76153  Biso   1.000  O
  B1       1.0000 0.40879  0.22201  0.36417  Biso   1.000  B
