data_image0
_cell_length_a       10.075
_cell_length_b       10.075
_cell_length_c       5.02124
_cell_angle_alpha    91.0108
_cell_angle_beta     88.9884
_cell_angle_gamma    91.6067

_symmetry_space_group_name_H-M    "P 1"
_symmetry_int_tables_number       1

loop_
  _symmetry_equiv_pos_as_xyz
  'x, y, z'

loop_
  _atom_site_label
  _atom_site_occupancy
  _atom_site_fract_x
  _atom_site_fract_y
  _atom_site_fract_z
  _atom_site_thermal_displace_type
  _atom_site_B_iso_or_equiv
  _atom_site_type_symbol
  B1       1.0000 0.13266  0.99208  0.28820  Biso   1.000  B
  Zr1      1.0000 0.12492  0.49471  0.24466  Biso   1.000  Zr
  Zr2      1.0000 0.63003  0.99981  0.24467  Biso   1.000  Zr
  Zr3      1.0000 0.62134  0.50340  0.24277  Biso   1.000  Zr
  Zr4      1.0000 0.11634  0.24916  0.73447  Biso   1.000  Zr
  Zr5      1.0000 0.12801  0.74945  0.74722  Biso   1.000  Zr
  Zr6      1.0000 0.61657  0.25408  0.73801  Biso   1.000  Zr
  Zr7      1.0000 0.62754  0.74973  0.74740  Biso   1.000  Zr
  Zr8      1.0000 0.36306  0.23949  0.25739  Biso   1.000  Zr
  Zr9      1.0000 0.37132  0.75342  0.23795  Biso   1.000  Zr
  Zr10     1.0000 0.86549  0.25924  0.21343  Biso   1.000  Zr
  Zr11     1.0000 0.88526  0.76168  0.25740  Biso   1.000  Zr
  Zr12     1.0000 0.37529  0.99673  0.74722  Biso   1.000  Zr
  Zr13     1.0000 0.37501  0.49720  0.74740  Biso   1.000  Zr
  Zr14     1.0000 0.87558  0.00839  0.73449  Biso   1.000  Zr
  Zr15     1.0000 0.87065  0.50817  0.73800  Biso   1.000  Zr
  O1       1.0000 0.97712  0.14762  0.95507  Biso   1.000  O
  O2       1.0000 0.98714  0.64823  0.98314  Biso   1.000  O
  O3       1.0000 0.47650  0.13761  0.98312  Biso   1.000  O
  O4       1.0000 0.48840  0.63635  0.00156  Biso   1.000  O
  O5       1.0000 0.04642  0.07832  0.46869  Biso   1.000  O
  O6       1.0000 0.01009  0.60727  0.48646  Biso   1.000  O
  O7       1.0000 0.51746  0.11464  0.48644  Biso   1.000  O
  O8       1.0000 0.51116  0.61357  0.50863  Biso   1.000  O
  O9       1.0000 0.98733  0.34936  0.49180  Biso   1.000  O
  O10      1.0000 0.96909  0.84356  0.60018  Biso   1.000  O
  O11      1.0000 0.48519  0.36257  0.49457  Biso   1.000  O
  O12      1.0000 0.48117  0.86406  0.50112  Biso   1.000  O
  O13      1.0000 0.00226  0.39690  0.98419  Biso   1.000  O
  O14      1.0000 0.04453  0.90168  0.12308  Biso   1.000  O
  O15      1.0000 0.50486  0.38748  0.98855  Biso   1.000  O
  O16      1.0000 0.52137  0.88701  0.99124  Biso   1.000  O
  O17      1.0000 0.28117  0.15565  0.60017  Biso   1.000  O
  O18      1.0000 0.26067  0.64358  0.50112  Biso   1.000  O
  O19      1.0000 0.77537  0.13741  0.49182  Biso   1.000  O
  O20      1.0000 0.76216  0.63955  0.49455  Biso   1.000  O
  O21      1.0000 0.22307  0.08020  0.12308  Biso   1.000  O
  O22      1.0000 0.23774  0.60336  0.99125  Biso   1.000  O
  O23      1.0000 0.72784  0.12246  0.98420  Biso   1.000  O
  O24      1.0000 0.73726  0.61986  0.98853  Biso   1.000  O
  O25      1.0000 0.25206  0.34682  0.99459  Biso   1.000  O
  O26      1.0000 0.27984  0.84490  0.93652  Biso   1.000  O
  O27      1.0000 0.75348  0.37124  0.97937  Biso   1.000  O
  O28      1.0000 0.77791  0.87266  0.99460  Biso   1.000  O
  O29      1.0000 0.23676  0.39151  0.49594  Biso   1.000  O
  O30      1.0000 0.21927  0.90548  0.45567  Biso   1.000  O
  O31      1.0000 0.73593  0.38881  0.48441  Biso   1.000  O
  O32      1.0000 0.73324  0.88798  0.49595  Biso   1.000  O
