data_image0
_cell_length_a       10.0703
_cell_length_b       5.01959
_cell_length_c       10.0663
_cell_angle_alpha    89.9953
_cell_angle_beta     91.3372
_cell_angle_gamma    90.0021

_symmetry_space_group_name_H-M    "P 1"
_symmetry_int_tables_number       1

loop_
  _symmetry_equiv_pos_as_xyz
  'x, y, z'

loop_
  _atom_site_label
  _atom_site_occupancy
  _atom_site_fract_x
  _atom_site_fract_y
  _atom_site_fract_z
  _atom_site_thermal_displace_type
  _atom_site_B_iso_or_equiv
  _atom_site_type_symbol
  B1       1.0000 0.12502  0.03742  0.12507  Biso   1.000  B
  Zr1      1.0000 0.12505  0.99600  0.62506  Biso   1.000  Zr
  Zr2      1.0000 0.62503  0.99573  0.12504  Biso   1.000  Zr
  Zr3      1.0000 0.62507  0.99632  0.62503  Biso   1.000  Zr
  Zr4      1.0000 0.11985  0.49380  0.37475  Biso   1.000  Zr
  Zr5      1.0000 0.13028  0.49375  0.87535  Biso   1.000  Zr
  Zr6      1.0000 0.62017  0.49572  0.37715  Biso   1.000  Zr
  Zr7      1.0000 0.62995  0.49567  0.87294  Biso   1.000  Zr
  Zr8      1.0000 0.37501  0.49330  0.11977  Biso   1.000  Zr
  Zr9      1.0000 0.37699  0.49571  0.62019  Biso   1.000  Zr
  Zr10     1.0000 0.87509  0.49333  0.13031  Biso   1.000  Zr
  Zr11     1.0000 0.87313  0.49575  0.62989  Biso   1.000  Zr
  Zr12     1.0000 0.36463  0.00971  0.36462  Biso   1.000  Zr
  Zr13     1.0000 0.37691  0.97987  0.87315  Biso   1.000  Zr
  Zr14     1.0000 0.87324  0.97994  0.37689  Biso   1.000  Zr
  Zr15     1.0000 0.88548  0.00970  0.88547  Biso   1.000  Zr
  O1       1.0000 0.96907  0.35023  0.96916  Biso   1.000  O
  O2       1.0000 0.98810  0.25142  0.47801  Biso   1.000  O
  O3       1.0000 0.47798  0.25057  0.98845  Biso   1.000  O
  O4       1.0000 0.48643  0.24777  0.48680  Biso   1.000  O
  O5       1.0000 0.03800  0.21056  0.21216  Biso   1.000  O
  O6       1.0000 0.01198  0.24450  0.73270  Biso   1.000  O
  O7       1.0000 0.51761  0.24437  0.23849  Biso   1.000  O
  O8       1.0000 0.51264  0.25013  0.73777  Biso   1.000  O
  O9       1.0000 0.97419  0.69681  0.27565  Biso   1.000  O
  O10      1.0000 0.99222  0.74164  0.77469  Biso   1.000  O
  O11      1.0000 0.47518  0.74189  0.25752  Biso   1.000  O
  O12      1.0000 0.49155  0.74432  0.75823  Biso   1.000  O
  O13      1.0000 0.03590  0.87186  0.03554  Biso   1.000  O
  O14      1.0000 0.00757  0.74200  0.52083  Biso   1.000  O
  O15      1.0000 0.52115  0.74146  0.00724  Biso   1.000  O
  O16      1.0000 0.50943  0.74157  0.50914  Biso   1.000  O
  O17      1.0000 0.28103  0.35024  0.28093  Biso   1.000  O
  O18      1.0000 0.26202  0.25140  0.77210  Biso   1.000  O
  O19      1.0000 0.77210  0.25060  0.26164  Biso   1.000  O
  O20      1.0000 0.76368  0.24775  0.76329  Biso   1.000  O
  O21      1.0000 0.21204  0.21062  0.03798  Biso   1.000  O
  O22      1.0000 0.23814  0.24447  0.51740  Biso   1.000  O
  O23      1.0000 0.73248  0.24435  0.01161  Biso   1.000  O
  O24      1.0000 0.73748  0.25022  0.51232  Biso   1.000  O
  O25      1.0000 0.27588  0.69688  0.97446  Biso   1.000  O
  O26      1.0000 0.25791  0.74161  0.47541  Biso   1.000  O
  O27      1.0000 0.77490  0.74186  0.99253  Biso   1.000  O
  O28      1.0000 0.75857  0.74440  0.49183  Biso   1.000  O
  O29      1.0000 0.21416  0.87188  0.21462  Biso   1.000  O
  O30      1.0000 0.24257  0.74200  0.72926  Biso   1.000  O
  O31      1.0000 0.72895  0.74149  0.24282  Biso   1.000  O
  O32      1.0000 0.74070  0.74154  0.74093  Biso   1.000  O
