data_image0
_cell_length_a       10.0039
_cell_length_b       5.20824
_cell_length_c       10.0733
_cell_angle_alpha    89.6926
_cell_angle_beta     88.8166
_cell_angle_gamma    89.5688

_symmetry_space_group_name_H-M    "P 1"
_symmetry_int_tables_number       1

loop_
  _symmetry_equiv_pos_as_xyz
  'x, y, z'

loop_
  _atom_site_label
  _atom_site_occupancy
  _atom_site_fract_x
  _atom_site_fract_y
  _atom_site_fract_z
  _atom_site_thermal_displace_type
  _atom_site_B_iso_or_equiv
  _atom_site_type_symbol
  B1       1.0000 0.07988  0.92078  0.05042  Biso   1.000  B
  Zr1      1.0000 0.13404  0.03173  0.62987  Biso   1.000  Zr
  Zr2      1.0000 0.63636  0.03166  0.12584  Biso   1.000  Zr
  Zr3      1.0000 0.62676  0.03165  0.62037  Biso   1.000  Zr
  Zr4      1.0000 0.14020  0.46592  0.37430  Biso   1.000  Zr
  Zr5      1.0000 0.13484  0.45826  0.88133  Biso   1.000  Zr
  Zr6      1.0000 0.63626  0.47970  0.37202  Biso   1.000  Zr
  Zr7      1.0000 0.62668  0.47022  0.87524  Biso   1.000  Zr
  Zr8      1.0000 0.36381  0.52741  0.13273  Biso   1.000  Zr
  Zr9      1.0000 0.36426  0.53852  0.63078  Biso   1.000  Zr
  Zr10     1.0000 0.86950  0.51852  0.11822  Biso   1.000  Zr
  Zr11     1.0000 0.86827  0.53008  0.62122  Biso   1.000  Zr
  Zr12     1.0000 0.36419  0.97092  0.37632  Biso   1.000  Zr
  Zr13     1.0000 0.35991  0.98112  0.88598  Biso   1.000  Zr
  Zr14     1.0000 0.87351  0.98150  0.37416  Biso   1.000  Zr
  Zr15     1.0000 0.85645  0.96552  0.86628  Biso   1.000  Zr
  O1       1.0000 0.02906  0.39312  0.20778  Biso   1.000  O
  O2       1.0000 0.02792  0.35612  0.70800  Biso   1.000  O
  O3       1.0000 0.54204  0.37581  0.19336  Biso   1.000  O
  O4       1.0000 0.53098  0.36939  0.69892  Biso   1.000  O
  O5       1.0000 0.03444  0.13985  0.45405  Biso   1.000  O
  O6       1.0000 0.03545  0.10108  0.95631  Biso   1.000  O
  O7       1.0000 0.53684  0.14560  0.44320  Biso   1.000  O
  O8       1.0000 0.53263  0.13942  0.94904  Biso   1.000  O
  O9       1.0000 0.47681  0.85998  0.20281  Biso   1.000  O
  O10      1.0000 0.46140  0.87511  0.70243  Biso   1.000  O
  O11      1.0000 0.99777  0.87364  0.16004  Biso   1.000  O
  O12      1.0000 0.96348  0.86149  0.69405  Biso   1.000  O
  O13      1.0000 0.47439  0.64644  0.45805  Biso   1.000  O
  O14      1.0000 0.45530  0.64677  0.94790  Biso   1.000  O
  O15      1.0000 0.97070  0.64752  0.44548  Biso   1.000  O
  O16      1.0000 0.95969  0.62360  0.93672  Biso   1.000  O
  O17      1.0000 0.28468  0.24497  0.25680  Biso   1.000  O
  O18      1.0000 0.26552  0.23289  0.75210  Biso   1.000  O
  O19      1.0000 0.77270  0.22709  0.24419  Biso   1.000  O
  O20      1.0000 0.76198  0.22840  0.74330  Biso   1.000  O
  O21      1.0000 0.27090  0.26746  0.50572  Biso   1.000  O
  O22      1.0000 0.27479  0.28671  0.99648  Biso   1.000  O
  O23      1.0000 0.77156  0.27529  0.49290  Biso   1.000  O
  O24      1.0000 0.77010  0.26512  0.99247  Biso   1.000  O
  O25      1.0000 0.23155  0.76731  0.50831  Biso   1.000  O
  O26      1.0000 0.19933  0.78782  0.01669  Biso   1.000  O
  O27      1.0000 0.73599  0.77924  0.49478  Biso   1.000  O
  O28      1.0000 0.72545  0.76499  0.99431  Biso   1.000  O
  O29      1.0000 0.24860  0.72044  0.26475  Biso   1.000  O
  O30      1.0000 0.22787  0.73441  0.76208  Biso   1.000  O
  O31      1.0000 0.75096  0.73605  0.24562  Biso   1.000  O
  O32      1.0000 0.72848  0.72886  0.74487  Biso   1.000  O
