data_image0
_cell_length_a       10.1792
_cell_length_b       10.403
_cell_length_c       5.28221
_cell_angle_alpha    89.4548
_cell_angle_beta     80.7687
_cell_angle_gamma    90.4563

_symmetry_space_group_name_H-M    "P 1"
_symmetry_int_tables_number       1

loop_
  _symmetry_equiv_pos_as_xyz
  'x, y, z'

loop_
  _atom_site_label
  _atom_site_occupancy
  _atom_site_fract_x
  _atom_site_fract_y
  _atom_site_fract_z
  _atom_site_thermal_displace_type
  _atom_site_B_iso_or_equiv
  _atom_site_type_symbol
  Ba1      1.0000 0.09719  0.99441  0.26796  Biso   1.000  Ba
  Hf1      1.0000 0.14662  0.52044  0.28482  Biso   1.000  Hf
  Hf2      1.0000 0.63746  0.03075  0.30046  Biso   1.000  Hf
  Hf3      1.0000 0.63233  0.51230  0.28914  Biso   1.000  Hf
  Hf4      1.0000 0.14017  0.23055  0.79194  Biso   1.000  Hf
  Hf5      1.0000 0.15598  0.72662  0.77727  Biso   1.000  Hf
  Hf6      1.0000 0.63710  0.23475  0.79700  Biso   1.000  Hf
  Hf7      1.0000 0.63166  0.71984  0.78567  Biso   1.000  Hf
  Hf8      1.0000 0.35228  0.26099  0.20679  Biso   1.000  Hf
  Hf9      1.0000 0.37100  0.77382  0.20032  Biso   1.000  Hf
  Hf10     1.0000 0.86592  0.27987  0.20879  Biso   1.000  Hf
  Hf11     1.0000 0.86940  0.73907  0.15527  Biso   1.000  Hf
  Hf12     1.0000 0.36009  0.47255  0.70291  Biso   1.000  Hf
  Hf13     1.0000 0.36181  0.98421  0.69698  Biso   1.000  Hf
  Hf14     1.0000 0.86669  0.47839  0.69244  Biso   1.000  Hf
  Hf15     1.0000 0.85627  0.99132  0.76992  Biso   1.000  Hf
  O1       1.0000 0.04238  0.20960  0.17432  Biso   1.000  O
  O2       1.0000 0.05313  0.68308  0.16717  Biso   1.000  O
  O3       1.0000 0.53235  0.16796  0.15486  Biso   1.000  O
  O4       1.0000 0.53861  0.66123  0.14304  Biso   1.000  O
  O5       1.0000 0.02794  0.07764  0.74024  Biso   1.000  O
  O6       1.0000 0.03871  0.58387  0.65977  Biso   1.000  O
  O7       1.0000 0.54009  0.08726  0.65319  Biso   1.000  O
  O8       1.0000 0.53137  0.58043  0.64669  Biso   1.000  O
  O9       1.0000 0.46286  0.41019  0.34278  Biso   1.000  O
  O10      1.0000 0.47577  0.91615  0.34167  Biso   1.000  O
  O11      1.0000 0.95790  0.44284  0.31872  Biso   1.000  O
  O12      1.0000 0.86119  0.88100  0.43308  Biso   1.000  O
  O13      1.0000 0.46726  0.33411  0.84197  Biso   1.000  O
  O14      1.0000 0.48546  0.84232  0.83695  Biso   1.000  O
  O15      1.0000 0.95998  0.33156  0.82118  Biso   1.000  O
  O16      1.0000 0.97880  0.83776  0.85110  Biso   1.000  O
  O17      1.0000 0.27788  0.13181  0.48992  Biso   1.000  O
  O18      1.0000 0.28269  0.62403  0.46811  Biso   1.000  O
  O19      1.0000 0.78577  0.13109  0.49712  Biso   1.000  O
  O20      1.0000 0.76753  0.63392  0.46657  Biso   1.000  O
  O21      1.0000 0.28321  0.12611  0.96268  Biso   1.000  O
  O22      1.0000 0.28212  0.61576  0.97103  Biso   1.000  O
  O23      1.0000 0.77173  0.12979  0.00744  Biso   1.000  O
  O24      1.0000 0.77610  0.61470  0.95844  Biso   1.000  O
  O25      1.0000 0.22629  0.38137  0.01199  Biso   1.000  O
  O26      1.0000 0.25056  0.86462  0.98090  Biso   1.000  O
  O27      1.0000 0.72299  0.38161  0.01530  Biso   1.000  O
  O28      1.0000 0.73360  0.87847  0.04453  Biso   1.000  O
  O29      1.0000 0.21928  0.37254  0.51265  Biso   1.000  O
  O30      1.0000 0.24230  0.85852  0.51056  Biso   1.000  O
  O31      1.0000 0.72460  0.37269  0.51604  Biso   1.000  O
  O32      1.0000 0.72069  0.88561  0.54947  Biso   1.000  O
