data_image0
_cell_length_a       5.13452
_cell_length_b       10.584
_cell_length_c       10.1657
_cell_angle_alpha    89.8336
_cell_angle_beta     88.6827
_cell_angle_gamma    87.7755

_symmetry_space_group_name_H-M    "P 1"
_symmetry_int_tables_number       1

loop_
  _symmetry_equiv_pos_as_xyz
  'x, y, z'

loop_
  _atom_site_label
  _atom_site_occupancy
  _atom_site_fract_x
  _atom_site_fract_y
  _atom_site_fract_z
  _atom_site_thermal_displace_type
  _atom_site_B_iso_or_equiv
  _atom_site_type_symbol
  Hf1      1.0000 0.25300  0.94787  0.11854  Biso   1.000  Hf
  Hf2      1.0000 0.28211  0.22663  0.40245  Biso   1.000  Hf
  Hf3      1.0000 0.77072  0.31107  0.12238  Biso   1.000  Hf
  Hf4      1.0000 0.78838  0.01411  0.35060  Biso   1.000  Hf
  O1       1.0000 0.91110  0.17218  0.97572  Biso   1.000  O
  O2       1.0000 0.12986  0.07121  0.26979  Biso   1.000  O
  O3       1.0000 0.00093  0.35208  0.28525  Biso   1.000  O
  O4       1.0000 0.00151  0.43542  0.02157  Biso   1.000  O
  O5       1.0000 0.63421  0.17418  0.26680  Biso   1.000  O
  O6       1.0000 0.41308  0.06926  0.96897  Biso   1.000  O
  O7       1.0000 0.52563  0.35389  0.95807  Biso   1.000  O
  O8       1.0000 0.52275  0.43083  0.23467  Biso   1.000  O
  Hf5      1.0000 0.21795  0.97912  0.60282  Biso   1.000  Hf
  Hf6      1.0000 0.25515  0.23361  0.85251  Biso   1.000  Hf
  Hf7      1.0000 0.79790  0.26043  0.63403  Biso   1.000  Hf
  Hf8      1.0000 0.74909  0.02189  0.86691  Biso   1.000  Hf
  O9       1.0000 0.98289  0.13157  0.50185  Biso   1.000  O
  O10      1.0000 0.04061  0.10762  0.74195  Biso   1.000  O
  O11      1.0000 0.00988  0.36819  0.76763  Biso   1.000  O
  O12      1.0000 0.04657  0.38333  0.52249  Biso   1.000  O
  O13      1.0000 0.55112  0.15634  0.74167  Biso   1.000  O
  O14      1.0000 0.47463  0.06314  0.48233  Biso   1.000  O
  O15      1.0000 0.57414  0.32221  0.48237  Biso   1.000  O
  O16      1.0000 0.52930  0.40965  0.71629  Biso   1.000  O
  Hf9      1.0000 0.25577  0.54541  0.13256  Biso   1.000  Hf
  Hf10     1.0000 0.18180  0.72569  0.39498  Biso   1.000  Hf
  Hf11     1.0000 0.73999  0.74977  0.13131  Biso   1.000  Hf
  Hf12     1.0000 0.76018  0.47717  0.39463  Biso   1.000  Hf
  O17      1.0000 0.05993  0.67742  0.02049  Biso   1.000  O
  O18      1.0000 0.95511  0.60405  0.26428  Biso   1.000  O
  O19      1.0000 0.02591  0.84198  0.24670  Biso   1.000  O
  O20      1.0000 0.96651  0.90581  0.99057  Biso   1.000  O
  O21      1.0000 0.43824  0.68109  0.24443  Biso   1.000  O
  O22      1.0000 0.56749  0.59678  0.01829  Biso   1.000  O
  O23      1.0000 0.47718  0.82787  0.99889  Biso   1.000  O
  O24      1.0000 0.57191  0.91370  0.22616  Biso   1.000  O
  Hf13     1.0000 0.22633  0.51053  0.63996  Biso   1.000  Hf
  Hf14     1.0000 0.21874  0.76666  0.86483  Biso   1.000  Hf
  Hf15     1.0000 0.71895  0.76207  0.64111  Biso   1.000  Hf
  Hf16     1.0000 0.72804  0.49682  0.86821  Biso   1.000  Hf
  O25      1.0000 0.92110  0.62857  0.51755  Biso   1.000  O
  O26      1.0000 0.98547  0.62267  0.76599  Biso   1.000  O
  O27      1.0000 0.97077  0.86829  0.74418  Biso   1.000  O
  O28      1.0000 0.94154  0.88066  0.49589  Biso   1.000  O
  O29      1.0000 0.47953  0.64767  0.75492  Biso   1.000  O
  O30      1.0000 0.41637  0.56954  0.47783  Biso   1.000  O
  O31      1.0000 0.41858  0.81373  0.52175  Biso   1.000  O
  O32      1.0000 0.47590  0.90370  0.74932  Biso   1.000  O
  Ba1      1.0000 0.27555  0.23713  0.12502  Biso   1.000  Ba
