data_image0
_cell_length_a       10.1117
_cell_length_b       5.1474
_cell_length_c       10.1117
_cell_angle_alpha    90.0002
_cell_angle_beta     90
_cell_angle_gamma    89.9999

_symmetry_space_group_name_H-M    "P 1"
_symmetry_int_tables_number       1

loop_
  _symmetry_equiv_pos_as_xyz
  'x, y, z'

loop_
  _atom_site_label
  _atom_site_occupancy
  _atom_site_fract_x
  _atom_site_fract_y
  _atom_site_fract_z
  _atom_site_thermal_displace_type
  _atom_site_B_iso_or_equiv
  _atom_site_type_symbol
  Ba1      1.0000 0.12558  0.00068  0.12558  Biso   1.000  Ba
  Hf1      1.0000 0.12558  0.00068  0.62558  Biso   1.000  Hf
  Hf2      1.0000 0.62558  0.00068  0.12558  Biso   1.000  Hf
  Hf3      1.0000 0.62558  0.00068  0.62558  Biso   1.000  Hf
  Hf4      1.0000 0.12558  0.50068  0.38121  Biso   1.000  Hf
  Hf5      1.0000 0.12558  0.50068  0.86996  Biso   1.000  Hf
  Hf6      1.0000 0.62558  0.50068  0.37542  Biso   1.000  Hf
  Hf7      1.0000 0.62558  0.50067  0.87575  Biso   1.000  Hf
  Hf8      1.0000 0.38120  0.50068  0.12558  Biso   1.000  Hf
  Hf9      1.0000 0.37542  0.50068  0.62559  Biso   1.000  Hf
  Hf10     1.0000 0.86996  0.50068  0.12558  Biso   1.000  Hf
  Hf11     1.0000 0.87574  0.50067  0.62559  Biso   1.000  Hf
  Hf12     1.0000 0.37872  0.00696  0.37872  Biso   1.000  Hf
  Hf13     1.0000 0.37872  0.99440  0.87245  Biso   1.000  Hf
  Hf14     1.0000 0.87245  0.99440  0.37872  Biso   1.000  Hf
  Hf15     1.0000 0.87244  0.00696  0.87244  Biso   1.000  Hf
  O1       1.0000 0.99461  0.30542  0.99462  Biso   1.000  O
  O2       1.0000 0.00702  0.29825  0.51299  Biso   1.000  O
  O3       1.0000 0.51299  0.29825  0.00702  Biso   1.000  O
  O4       1.0000 0.50313  0.29998  0.50313  Biso   1.000  O
  O5       1.0000 0.98317  0.23901  0.26799  Biso   1.000  O
  O6       1.0000 0.99929  0.20177  0.75425  Biso   1.000  O
  O7       1.0000 0.49691  0.20177  0.25187  Biso   1.000  O
  O8       1.0000 0.49983  0.20277  0.75133  Biso   1.000  O
  O9       1.0000 0.99462  0.69594  0.25655  Biso   1.000  O
  O10      1.0000 0.00702  0.70310  0.73817  Biso   1.000  O
  O11      1.0000 0.51299  0.70310  0.24414  Biso   1.000  O
  O12      1.0000 0.50314  0.70137  0.74803  Biso   1.000  O
  O13      1.0000 0.98318  0.76235  0.98317  Biso   1.000  O
  O14      1.0000 0.99929  0.79958  0.49691  Biso   1.000  O
  O15      1.0000 0.49692  0.79958  0.99929  Biso   1.000  O
  O16      1.0000 0.49983  0.79858  0.49983  Biso   1.000  O
  O17      1.0000 0.25655  0.30542  0.25655  Biso   1.000  O
  O18      1.0000 0.24414  0.29825  0.73817  Biso   1.000  O
  O19      1.0000 0.73817  0.29826  0.24414  Biso   1.000  O
  O20      1.0000 0.74803  0.29998  0.74803  Biso   1.000  O
  O21      1.0000 0.26798  0.23900  0.98317  Biso   1.000  O
  O22      1.0000 0.25187  0.20177  0.49691  Biso   1.000  O
  O23      1.0000 0.75424  0.20177  0.99929  Biso   1.000  O
  O24      1.0000 0.75133  0.20277  0.49983  Biso   1.000  O
  O25      1.0000 0.25655  0.69594  0.99462  Biso   1.000  O
  O26      1.0000 0.24415  0.70310  0.51299  Biso   1.000  O
  O27      1.0000 0.73817  0.70310  0.00702  Biso   1.000  O
  O28      1.0000 0.74803  0.70137  0.50314  Biso   1.000  O
  O29      1.0000 0.26799  0.76236  0.26799  Biso   1.000  O
  O30      1.0000 0.25188  0.79958  0.75425  Biso   1.000  O
  O31      1.0000 0.75425  0.79959  0.25188  Biso   1.000  O
  O32      1.0000 0.75133  0.79858  0.75133  Biso   1.000  O
