data_image0
_cell_length_a       10.0653
_cell_length_b       10.277
_cell_length_c       10.5621
_cell_angle_alpha    89.9734
_cell_angle_beta     90.7749
_cell_angle_gamma    90.1657

_symmetry_space_group_name_H-M    "P 1"
_symmetry_int_tables_number       1

loop_
  _symmetry_equiv_pos_as_xyz
  'x, y, z'

loop_
  _atom_site_label
  _atom_site_occupancy
  _atom_site_fract_x
  _atom_site_fract_y
  _atom_site_fract_z
  _atom_site_thermal_displace_type
  _atom_site_B_iso_or_equiv
  _atom_site_type_symbol
  Hf1      1.0000 0.13985  0.02030  0.17258  Biso   1.000  Hf
  Hf2      1.0000 0.13684  0.22724  0.42746  Biso   1.000  Hf
  Hf3      1.0000 0.34348  0.27388  0.19229  Biso   1.000  Hf
  Hf4      1.0000 0.36218  0.47964  0.42386  Biso   1.000  Hf
  Hf5      1.0000 0.63981  0.00469  0.08034  Biso   1.000  Hf
  Hf6      1.0000 0.63419  0.22038  0.33141  Biso   1.000  Hf
  Hf7      1.0000 0.87129  0.27151  0.07506  Biso   1.000  Hf
  Hf8      1.0000 0.85856  0.47772  0.32618  Biso   1.000  Hf
  O1       1.0000 0.03783  0.16300  0.08118  Biso   1.000  O
  O2       1.0000 0.02984  0.08882  0.33042  Biso   1.000  O
  O3       1.0000 0.44169  0.44713  0.10857  Biso   1.000  O
  O4       1.0000 0.46409  0.33075  0.34005  Biso   1.000  O
  O5       1.0000 0.26864  0.12424  0.30341  Biso   1.000  O
  O6       1.0000 0.28403  0.12846  0.04715  Biso   1.000  O
  O7       1.0000 0.21515  0.37798  0.30573  Biso   1.000  O
  O8       1.0000 0.21881  0.37668  0.04910  Biso   1.000  O
  O9       1.0000 0.51762  0.11888  0.20315  Biso   1.000  O
  O10      1.0000 0.52903  0.08830  0.43355  Biso   1.000  O
  O11      1.0000 0.96781  0.41373  0.17040  Biso   1.000  O
  O12      1.0000 0.96832  0.33772  0.41869  Biso   1.000  O
  O13      1.0000 0.77591  0.12231  0.45144  Biso   1.000  O
  O14      1.0000 0.77325  0.12913  0.20012  Biso   1.000  O
  O15      1.0000 0.72445  0.37411  0.45312  Biso   1.000  O
  O16      1.0000 0.71772  0.37673  0.20153  Biso   1.000  O
  Hf9      1.0000 0.14015  0.02057  0.67368  Biso   1.000  Hf
  Hf10     1.0000 0.14453  0.22862  0.92192  Biso   1.000  Hf
  Hf11     1.0000 0.36310  0.27325  0.67351  Biso   1.000  Hf
  Hf12     1.0000 0.35818  0.48636  0.92662  Biso   1.000  Hf
  Hf13     1.0000 0.64131  0.01601  0.57764  Biso   1.000  Hf
  Hf14     1.0000 0.65211  0.22651  0.80110  Biso   1.000  Hf
  Hf15     1.0000 0.86485  0.27310  0.57322  Biso   1.000  Hf
  Hf16     1.0000 0.86694  0.48063  0.82799  Biso   1.000  Hf
  O17      1.0000 0.03157  0.16140  0.58173  Biso   1.000  O
  O18      1.0000 0.03579  0.08586  0.83230  Biso   1.000  O
  O19      1.0000 0.47059  0.41403  0.58112  Biso   1.000  O
  O20      1.0000 0.47355  0.34128  0.82678  Biso   1.000  O
  O21      1.0000 0.27900  0.12448  0.79620  Biso   1.000  O
  O22      1.0000 0.27542  0.12482  0.54906  Biso   1.000  O
  O23      1.0000 0.22690  0.37422  0.79886  Biso   1.000  O
  O24      1.0000 0.22566  0.37542  0.55003  Biso   1.000  O
  O25      1.0000 0.53210  0.16123  0.66362  Biso   1.000  O
  O26      1.0000 0.53868  0.06870  0.90347  Biso   1.000  O
  O27      1.0000 0.97174  0.41226  0.66891  Biso   1.000  O
  O28      1.0000 0.97534  0.33546  0.91708  Biso   1.000  O
  O29      1.0000 0.77680  0.12581  0.94957  Biso   1.000  O
  O30      1.0000 0.78555  0.12019  0.69504  Biso   1.000  O
  O31      1.0000 0.74082  0.38493  0.95195  Biso   1.000  O
  O32      1.0000 0.73061  0.37742  0.69881  Biso   1.000  O
  Hf17     1.0000 0.13876  0.52350  0.17331  Biso   1.000  Hf
  Hf18     1.0000 0.13751  0.72848  0.42232  Biso   1.000  Hf
  Hf19     1.0000 0.35960  0.77264  0.17467  Biso   1.000  Hf
  Hf20     1.0000 0.36223  0.97820  0.42605  Biso   1.000  Hf
  Hf21     1.0000 0.63931  0.53593  0.07997  Biso   1.000  Hf
  Hf22     1.0000 0.63938  0.73085  0.33089  Biso   1.000  Hf
  Hf23     1.0000 0.86508  0.77056  0.07871  Biso   1.000  Hf
  Hf24     1.0000 0.86344  0.98045  0.32791  Biso   1.000  Hf
  O33      1.0000 0.03282  0.66321  0.08127  Biso   1.000  O
  O34      1.0000 0.02983  0.58780  0.33130  Biso   1.000  O
  O35      1.0000 0.46820  0.90390  0.07549  Biso   1.000  O
  O36      1.0000 0.46896  0.83901  0.33370  Biso   1.000  O
  O37      1.0000 0.27380  0.62665  0.29644  Biso   1.000  O
  O38      1.0000 0.27312  0.63189  0.04427  Biso   1.000  O
  O39      1.0000 0.22424  0.87508  0.29711  Biso   1.000  O
  O40      1.0000 0.22259  0.87898  0.04732  Biso   1.000  O
  O41      1.0000 0.53541  0.67408  0.17009  Biso   1.000  O
  O42      1.0000 0.53232  0.58707  0.41687  Biso   1.000  O
  O43      1.0000 0.96883  0.91555  0.16837  Biso   1.000  O
  O44      1.0000 0.96822  0.83782  0.41942  Biso   1.000  O
  O45      1.0000 0.77696  0.62409  0.45413  Biso   1.000  O
  O46      1.0000 0.77856  0.62788  0.20594  Biso   1.000  O
  O47      1.0000 0.72580  0.87393  0.45656  Biso   1.000  O
  O48      1.0000 0.72901  0.87286  0.20762  Biso   1.000  O
  Hf25     1.0000 0.14088  0.52044  0.67263  Biso   1.000  Hf
  Hf26     1.0000 0.13922  0.73185  0.92149  Biso   1.000  Hf
  Hf27     1.0000 0.36276  0.76880  0.67199  Biso   1.000  Hf
  Hf28     1.0000 0.36438  0.97552  0.91958  Biso   1.000  Hf
  Hf29     1.0000 0.64065  0.52193  0.57547  Biso   1.000  Hf
  Hf30     1.0000 0.64081  0.72800  0.82606  Biso   1.000  Hf
  Hf31     1.0000 0.86457  0.77060  0.57965  Biso   1.000  Hf
  Hf32     1.0000 0.86389  0.97965  0.83007  Biso   1.000  Hf
  O49      1.0000 0.03404  0.66280  0.58192  Biso   1.000  O
  O50      1.0000 0.03596  0.58769  0.83209  Biso   1.000  O
  O51      1.0000 0.47043  0.90873  0.58332  Biso   1.000  O
  O52      1.0000 0.46743  0.82940  0.83126  Biso   1.000  O
  O53      1.0000 0.27686  0.62491  0.79559  Biso   1.000  O
  O54      1.0000 0.27614  0.62462  0.54532  Biso   1.000  O
  O55      1.0000 0.22563  0.87352  0.79558  Biso   1.000  O
  O56      1.0000 0.22520  0.87529  0.54670  Biso   1.000  O
  O57      1.0000 0.53381  0.66141  0.66728  Biso   1.000  O
  O58      1.0000 0.53289  0.58634  0.91998  Biso   1.000  O
  O59      1.0000 0.97061  0.91151  0.67054  Biso   1.000  O
  O60      1.0000 0.96978  0.83821  0.92018  Biso   1.000  O
  O61      1.0000 0.77860  0.62921  0.95242  Biso   1.000  O
  O62      1.0000 0.77853  0.62518  0.70340  Biso   1.000  O
  O63      1.0000 0.72749  0.87200  0.95583  Biso   1.000  O
  O64      1.0000 0.72729  0.87327  0.70720  Biso   1.000  O
  Ba1      1.0000 0.55537  0.26313  0.03299  Biso   1.000  Ba
