data_image0
_cell_length_a       5.1796
_cell_length_b       10.369
_cell_length_c       10.2479
_cell_angle_alpha    89.5066
_cell_angle_beta     94.7367
_cell_angle_gamma    91.6021

_symmetry_space_group_name_H-M    "P 1"
_symmetry_int_tables_number       1

loop_
  _symmetry_equiv_pos_as_xyz
  'x, y, z'

loop_
  _atom_site_label
  _atom_site_occupancy
  _atom_site_fract_x
  _atom_site_fract_y
  _atom_site_fract_z
  _atom_site_thermal_displace_type
  _atom_site_B_iso_or_equiv
  _atom_site_type_symbol
  Hf1      1.0000 0.28861  0.97257  0.09152  Biso   1.000  Hf
  Hf2      1.0000 0.22249  0.22277  0.39127  Biso   1.000  Hf
  Hf3      1.0000 0.54486  0.24670  0.19278  Biso   1.000  Hf
  Hf4      1.0000 0.75948  0.50224  0.40027  Biso   1.000  Hf
  O1       1.0000 0.82671  0.15711  0.29136  Biso   1.000  O
  O2       1.0000 0.10786  0.04779  0.46079  Biso   1.000  O
  O3       1.0000 0.71820  0.42515  0.22212  Biso   1.000  O
  O4       1.0000 0.98826  0.34645  0.47381  Biso   1.000  O
  O5       1.0000 0.25329  0.11799  0.21406  Biso   1.000  O
  O6       1.0000 0.56985  0.13129  0.50811  Biso   1.000  O
  O7       1.0000 0.49470  0.37691  0.48914  Biso   1.000  O
  O8       1.0000 0.23634  0.37366  0.23895  Biso   1.000  O
  Hf5      1.0000 0.30133  0.01089  0.63013  Biso   1.000  Hf
  Hf6      1.0000 0.32712  0.23687  0.84665  Biso   1.000  Hf
  Hf7      1.0000 0.78152  0.27729  0.63041  Biso   1.000  Hf
  Hf8      1.0000 0.80442  0.51964  0.82723  Biso   1.000  Hf
  O9       1.0000 0.13153  0.18346  0.66683  Biso   1.000  O
  O10      1.0000 0.10278  0.08287  0.93084  Biso   1.000  O
  O11      1.0000 0.90767  0.48704  0.63938  Biso   1.000  O
  O12      1.0000 0.97091  0.33546  0.82222  Biso   1.000  O
  O13      1.0000 0.58920  0.12143  0.75845  Biso   1.000  O
  O14      1.0000 0.58035  0.09872  0.02042  Biso   1.000  O
  O15      1.0000 0.44240  0.34857  0.00852  Biso   1.000  O
  O16      1.0000 0.50224  0.37899  0.73847  Biso   1.000  O
  Hf9      1.0000 0.37387  0.51838  0.12880  Biso   1.000  Hf
  Hf10     1.0000 0.26448  0.75784  0.35918  Biso   1.000  Hf
  Hf11     1.0000 0.79045  0.76097  0.13520  Biso   1.000  Hf
  Hf12     1.0000 0.76482  0.98610  0.38781  Biso   1.000  Hf
  O17      1.0000 0.11906  0.66116  0.18633  Biso   1.000  O
  O18      1.0000 0.10573  0.58922  0.42954  Biso   1.000  O
  O19      1.0000 0.02912  0.89205  0.24086  Biso   1.000  O
  O20      1.0000 0.95613  0.81538  0.47313  Biso   1.000  O
  O21      1.0000 0.58846  0.64447  0.26064  Biso   1.000  O
  O22      1.0000 0.54994  0.63521  0.50045  Biso   1.000  O
  O23      1.0000 0.48404  0.88587  0.49722  Biso   1.000  O
  O24      1.0000 0.53469  0.88374  0.24020  Biso   1.000  O
  Hf13     1.0000 0.29112  0.50079  0.58924  Biso   1.000  Hf
  Hf14     1.0000 0.30663  0.71751  0.88307  Biso   1.000  Hf
  Hf15     1.0000 0.73393  0.77416  0.62618  Biso   1.000  Hf
  Hf16     1.0000 0.76954  0.97876  0.87622  Biso   1.000  Hf
  O25      1.0000 0.97140  0.69103  0.76628  Biso   1.000  O
  O26      1.0000 0.12539  0.55371  0.95726  Biso   1.000  O
  O27      1.0000 0.95613  0.93715  0.70657  Biso   1.000  O
  O28      1.0000 0.03065  0.84228  0.98395  Biso   1.000  O
  O29      1.0000 0.47419  0.62134  0.73671  Biso   1.000  O
  O30      1.0000 0.61751  0.61491  0.99342  Biso   1.000  O
  O31      1.0000 0.53774  0.85451  0.99419  Biso   1.000  O
  O32      1.0000 0.48472  0.86623  0.75232  Biso   1.000  O
  Ba1      1.0000 0.95307  0.27806  0.05134  Biso   1.000  Ba
