data_image0
_cell_length_a       10.0826
_cell_length_b       5.18429
_cell_length_c       10.5585
_cell_angle_alpha    89.6139
_cell_angle_beta     90.7016
_cell_angle_gamma    90.413

_symmetry_space_group_name_H-M    "P 1"
_symmetry_int_tables_number       1

loop_
  _symmetry_equiv_pos_as_xyz
  'x, y, z'

loop_
  _atom_site_label
  _atom_site_occupancy
  _atom_site_fract_x
  _atom_site_fract_y
  _atom_site_fract_z
  _atom_site_thermal_displace_type
  _atom_site_B_iso_or_equiv
  _atom_site_type_symbol
  Ba1      1.0000 0.10428  0.98512  0.14987  Biso   1.000  Ba
  Hf1      1.0000 0.14192  0.04570  0.66898  Biso   1.000  Hf
  Hf2      1.0000 0.14313  0.45438  0.42087  Biso   1.000  Hf
  Hf3      1.0000 0.15132  0.45944  0.91486  Biso   1.000  Hf
  Hf4      1.0000 0.36145  0.52031  0.16983  Biso   1.000  Hf
  Hf5      1.0000 0.36028  0.54551  0.66685  Biso   1.000  Hf
  Hf6      1.0000 0.35933  0.95535  0.41397  Biso   1.000  Hf
  Hf7      1.0000 0.36593  0.95743  0.91850  Biso   1.000  Hf
  Hf8      1.0000 0.63409  0.04825  0.07497  Biso   1.000  Hf
  Hf9      1.0000 0.63396  0.04125  0.58380  Biso   1.000  Hf
  Hf10     1.0000 0.63609  0.45261  0.33383  Biso   1.000  Hf
  Hf11     1.0000 0.63719  0.46356  0.82415  Biso   1.000  Hf
  Hf12     1.0000 0.86480  0.49960  0.05822  Biso   1.000  Hf
  Hf13     1.0000 0.86681  0.54626  0.58367  Biso   1.000  Hf
  Hf14     1.0000 0.85817  0.98403  0.35905  Biso   1.000  Hf
  Hf15     1.0000 0.86432  0.95447  0.82531  Biso   1.000  Hf
  O1       1.0000 0.04850  0.43316  0.09271  Biso   1.000  O
  O2       1.0000 0.04042  0.35643  0.59803  Biso   1.000  O
  O3       1.0000 0.02601  0.16538  0.36195  Biso   1.000  O
  O4       1.0000 0.03964  0.15169  0.84517  Biso   1.000  O
  O5       1.0000 0.47846  0.81924  0.07837  Biso   1.000  O
  O6       1.0000 0.46759  0.82489  0.57756  Biso   1.000  O
  O7       1.0000 0.48055  0.68675  0.32406  Biso   1.000  O
  O8       1.0000 0.47199  0.67890  0.82329  Biso   1.000  O
  O9       1.0000 0.28287  0.24334  0.29882  Biso   1.000  O
  O10      1.0000 0.27888  0.24919  0.78851  Biso   1.000  O
  O11      1.0000 0.28605  0.24369  0.03268  Biso   1.000  O
  O12      1.0000 0.27727  0.25160  0.54288  Biso   1.000  O
  O13      1.0000 0.23667  0.71671  0.29904  Biso   1.000  O
  O14      1.0000 0.22614  0.74879  0.78802  Biso   1.000  O
  O15      1.0000 0.25317  0.71664  0.02720  Biso   1.000  O
  O16      1.0000 0.22350  0.75923  0.54257  Biso   1.000  O
  O17      1.0000 0.53738  0.32395  0.17001  Biso   1.000  O
  O18      1.0000 0.53102  0.32889  0.66625  Biso   1.000  O
  O19      1.0000 0.53492  0.17044  0.41887  Biso   1.000  O
  O20      1.0000 0.53713  0.17751  0.91636  Biso   1.000  O
  O21      1.0000 0.85738  0.81587  0.17696  Biso   1.000  O
  O22      1.0000 0.96390  0.85724  0.65937  Biso   1.000  O
  O23      1.0000 0.96519  0.66774  0.41576  Biso   1.000  O
  O24      1.0000 0.96923  0.65990  0.90491  Biso   1.000  O
  O25      1.0000 0.78067  0.22368  0.95325  Biso   1.000  O
  O26      1.0000 0.77151  0.25888  0.46754  Biso   1.000  O
  O27      1.0000 0.78090  0.27563  0.21195  Biso   1.000  O
  O28      1.0000 0.77619  0.25606  0.70929  Biso   1.000  O
  O29      1.0000 0.72625  0.73493  0.95472  Biso   1.000  O
  O30      1.0000 0.72416  0.75168  0.46399  Biso   1.000  O
  O31      1.0000 0.71804  0.78815  0.21612  Biso   1.000  O
  O32      1.0000 0.72652  0.75203  0.70598  Biso   1.000  O
