data_image0
_cell_length_a       10.1126
_cell_length_b       10.3479
_cell_length_c       5.32995
_cell_angle_alpha    89.6171
_cell_angle_beta     91.2232
_cell_angle_gamma    90.4373

_symmetry_space_group_name_H-M    "P 1"
_symmetry_int_tables_number       1

loop_
  _symmetry_equiv_pos_as_xyz
  'x, y, z'

loop_
  _atom_site_label
  _atom_site_occupancy
  _atom_site_fract_x
  _atom_site_fract_y
  _atom_site_fract_z
  _atom_site_thermal_displace_type
  _atom_site_B_iso_or_equiv
  _atom_site_type_symbol
  Hf1      1.0000 0.14197  0.02048  0.34969  Biso   1.000  Hf
  Hf2      1.0000 0.14258  0.22703  0.85361  Biso   1.000  Hf
  Hf3      1.0000 0.34447  0.27675  0.38022  Biso   1.000  Hf
  Hf4      1.0000 0.35814  0.48803  0.85656  Biso   1.000  Hf
  Hf5      1.0000 0.64243  0.00060  0.15368  Biso   1.000  Hf
  Hf6      1.0000 0.64109  0.21409  0.59938  Biso   1.000  Hf
  Hf7      1.0000 0.87540  0.27343  0.14773  Biso   1.000  Hf
  Hf8      1.0000 0.86430  0.47963  0.65771  Biso   1.000  Hf
  O1       1.0000 0.03731  0.15988  0.16068  Biso   1.000  O
  O2       1.0000 0.03413  0.08892  0.66060  Biso   1.000  O
  O3       1.0000 0.44379  0.44643  0.20788  Biso   1.000  O
  O4       1.0000 0.46664  0.33471  0.67117  Biso   1.000  O
  O5       1.0000 0.27302  0.12506  0.60628  Biso   1.000  O
  O6       1.0000 0.28295  0.12781  0.10056  Biso   1.000  O
  O7       1.0000 0.21947  0.37813  0.61320  Biso   1.000  O
  O8       1.0000 0.21824  0.37716  0.10550  Biso   1.000  O
  O9       1.0000 0.52002  0.10724  0.38658  Biso   1.000  O
  O10      1.0000 0.53485  0.06936  0.83917  Biso   1.000  O
  O11      1.0000 0.97101  0.41182  0.34753  Biso   1.000  O
  O12      1.0000 0.97619  0.33638  0.83837  Biso   1.000  O
  O13      1.0000 0.77558  0.12668  0.88914  Biso   1.000  O
  O14      1.0000 0.78441  0.12110  0.38207  Biso   1.000  O
  O15      1.0000 0.74675  0.39147  0.92136  Biso   1.000  O
  O16      1.0000 0.72264  0.37697  0.40699  Biso   1.000  O
  Hf9      1.0000 0.13949  0.52332  0.34817  Biso   1.000  Hf
  Hf10     1.0000 0.13724  0.73134  0.84446  Biso   1.000  Hf
  Hf11     1.0000 0.36151  0.77043  0.34918  Biso   1.000  Hf
  Hf12     1.0000 0.36327  0.97293  0.84851  Biso   1.000  Hf
  Hf13     1.0000 0.64327  0.53791  0.16119  Biso   1.000  Hf
  Hf14     1.0000 0.64118  0.73100  0.65817  Biso   1.000  Hf
  Hf15     1.0000 0.86847  0.77200  0.15919  Biso   1.000  Hf
  Hf16     1.0000 0.86585  0.98234  0.65688  Biso   1.000  Hf
  O17      1.0000 0.03306  0.66192  0.16174  Biso   1.000  O
  O18      1.0000 0.03299  0.58992  0.66282  Biso   1.000  O
  O19      1.0000 0.47220  0.89325  0.14365  Biso   1.000  O
  O20      1.0000 0.46915  0.83511  0.65865  Biso   1.000  O
  O21      1.0000 0.27416  0.62687  0.59255  Biso   1.000  O
  O22      1.0000 0.27199  0.63075  0.08799  Biso   1.000  O
  O23      1.0000 0.22618  0.87417  0.59558  Biso   1.000  O
  O24      1.0000 0.22414  0.87836  0.09887  Biso   1.000  O
  O25      1.0000 0.53589  0.66903  0.34468  Biso   1.000  O
  O26      1.0000 0.53343  0.58772  0.84218  Biso   1.000  O
  O27      1.0000 0.97304  0.91282  0.34411  Biso   1.000  O
  O28      1.0000 0.97164  0.84135  0.84518  Biso   1.000  O
  O29      1.0000 0.77791  0.63221  0.90824  Biso   1.000  O
  O30      1.0000 0.78098  0.62732  0.41271  Biso   1.000  O
  O31      1.0000 0.73059  0.87284  0.90894  Biso   1.000  O
  O32      1.0000 0.73233  0.87041  0.41507  Biso   1.000  O
  Ba1      1.0000 0.56148  0.26579  0.06618  Biso   1.000  Ba
