data_image0
_cell_length_a       10.1537
_cell_length_b       10.326
_cell_length_c       10.5746
_cell_angle_alpha    89.9092
_cell_angle_beta     79.6336
_cell_angle_gamma    90.1219

_symmetry_space_group_name_H-M    "P 1"
_symmetry_int_tables_number       1

loop_
  _symmetry_equiv_pos_as_xyz
  'x, y, z'

loop_
  _atom_site_label
  _atom_site_occupancy
  _atom_site_fract_x
  _atom_site_fract_y
  _atom_site_fract_z
  _atom_site_thermal_displace_type
  _atom_site_B_iso_or_equiv
  _atom_site_type_symbol
  Hf1      1.0000 0.13216  0.02035  0.14491  Biso   1.000  Hf
  Hf2      1.0000 0.13327  0.22623  0.39260  Biso   1.000  Hf
  Hf3      1.0000 0.34343  0.27153  0.07689  Biso   1.000  Hf
  Hf4      1.0000 0.35794  0.49267  0.35658  Biso   1.000  Hf
  O1       1.0000 0.03200  0.16727  0.07510  Biso   1.000  O
  O2       1.0000 0.02693  0.08250  0.32798  Biso   1.000  O
  O3       1.0000 0.45608  0.43545  0.15431  Biso   1.000  O
  O4       1.0000 0.48178  0.37491  0.45471  Biso   1.000  O
  O5       1.0000 0.26380  0.12445  0.23197  Biso   1.000  O
  O6       1.0000 0.28510  0.12418  0.47993  Biso   1.000  O
  O7       1.0000 0.21004  0.38669  0.00102  Biso   1.000  O
  O8       1.0000 0.22527  0.36934  0.25673  Biso   1.000  O
  Hf5      1.0000 0.14072  0.02201  0.64353  Biso   1.000  Hf
  Hf6      1.0000 0.13182  0.22862  0.88937  Biso   1.000  Hf
  Hf7      1.0000 0.36356  0.28101  0.60675  Biso   1.000  Hf
  Hf8      1.0000 0.35857  0.48324  0.85499  Biso   1.000  Hf
  O9       1.0000 0.04026  0.16813  0.57784  Biso   1.000  O
  O10      1.0000 0.03185  0.08325  0.82455  Biso   1.000  O
  O11      1.0000 0.46750  0.41613  0.68645  Biso   1.000  O
  O12      1.0000 0.46398  0.33400  0.91599  Biso   1.000  O
  O13      1.0000 0.27448  0.12929  0.73542  Biso   1.000  O
  O14      1.0000 0.26752  0.11969  0.98095  Biso   1.000  O
  O15      1.0000 0.22438  0.37933  0.50735  Biso   1.000  O
  O16      1.0000 0.22269  0.37304  0.75723  Biso   1.000  O
  Hf9      1.0000 0.13867  0.52173  0.14817  Biso   1.000  Hf
  Hf10     1.0000 0.13431  0.72973  0.39707  Biso   1.000  Hf
  Hf11     1.0000 0.35873  0.77386  0.10393  Biso   1.000  Hf
  Hf12     1.0000 0.36460  0.96544  0.35733  Biso   1.000  Hf
  O17      1.0000 0.03315  0.66477  0.07861  Biso   1.000  O
  O18      1.0000 0.03300  0.58308  0.32912  Biso   1.000  O
  O19      1.0000 0.46501  0.91660  0.17547  Biso   1.000  O
  O20      1.0000 0.46080  0.82025  0.42405  Biso   1.000  O
  O21      1.0000 0.27320  0.63215  0.24235  Biso   1.000  O
  O22      1.0000 0.27109  0.62481  0.49369  Biso   1.000  O
  O23      1.0000 0.22188  0.87944  0.01037  Biso   1.000  O
  O24      1.0000 0.22128  0.86976  0.26080  Biso   1.000  O
  Hf13     1.0000 0.13721  0.52224  0.64642  Biso   1.000  Hf
  Hf14     1.0000 0.13676  0.72819  0.89772  Biso   1.000  Hf
  Hf15     1.0000 0.36067  0.76947  0.60687  Biso   1.000  Hf
  Hf16     1.0000 0.35919  0.97799  0.85135  Biso   1.000  Hf
  O25      1.0000 0.03085  0.66580  0.57852  Biso   1.000  O
  O26      1.0000 0.03274  0.58445  0.82820  Biso   1.000  O
  O27      1.0000 0.46452  0.91594  0.67019  Biso   1.000  O
  O28      1.0000 0.46412  0.83669  0.92214  Biso   1.000  O
  O29      1.0000 0.27496  0.62806  0.74184  Biso   1.000  O
  O30      1.0000 0.27601  0.62535  0.99296  Biso   1.000  O
  O31      1.0000 0.22317  0.87862  0.51181  Biso   1.000  O
  O32      1.0000 0.22239  0.87036  0.76055  Biso   1.000  O
  Hf17     1.0000 0.64206  0.01423  0.14921  Biso   1.000  Hf
  Hf18     1.0000 0.65896  0.22877  0.41941  Biso   1.000  Hf
  Hf19     1.0000 0.85838  0.27214  0.10700  Biso   1.000  Hf
  Hf20     1.0000 0.86021  0.47855  0.35472  Biso   1.000  Hf
  O33      1.0000 0.52613  0.15529  0.06539  Biso   1.000  O
  O34      1.0000 0.55935  0.04957  0.35084  Biso   1.000  O
  O35      1.0000 0.96472  0.41554  0.17419  Biso   1.000  O
  O36      1.0000 0.96305  0.33111  0.42332  Biso   1.000  O
  O37      1.0000 0.77666  0.13004  0.24350  Biso   1.000  O
  O38      1.0000 0.78808  0.11438  0.50172  Biso   1.000  O
  O39      1.0000 0.71999  0.37757  0.01445  Biso   1.000  O
  O40      1.0000 0.71918  0.37003  0.26583  Biso   1.000  O
  Hf21     1.0000 0.63822  0.01986  0.64769  Biso   1.000  Hf
  Hf22     1.0000 0.63739  0.22484  0.89701  Biso   1.000  Hf
  Hf23     1.0000 0.86568  0.27136  0.61165  Biso   1.000  Hf
  Hf24     1.0000 0.85846  0.47892  0.85684  Biso   1.000  Hf
  O41      1.0000 0.53744  0.17106  0.58467  Biso   1.000  O
  O42      1.0000 0.53174  0.08322  0.82419  Biso   1.000  O
  O43      1.0000 0.96709  0.41657  0.67530  Biso   1.000  O
  O44      1.0000 0.95998  0.33258  0.92182  Biso   1.000  O
  O45      1.0000 0.77579  0.12864  0.74518  Biso   1.000  O
  O46      1.0000 0.77558  0.12057  0.99383  Biso   1.000  O
  O47      1.0000 0.73192  0.37981  0.51982  Biso   1.000  O
  O48      1.0000 0.72475  0.37177  0.76461  Biso   1.000  O
  Hf25     1.0000 0.63372  0.52520  0.14334  Biso   1.000  Hf
  Hf26     1.0000 0.63998  0.72511  0.39729  Biso   1.000  Hf
  Hf27     1.0000 0.86032  0.76823  0.10469  Biso   1.000  Hf
  Hf28     1.0000 0.85548  0.97551  0.35520  Biso   1.000  Hf
  O49      1.0000 0.53580  0.67606  0.07819  Biso   1.000  O
  O50      1.0000 0.53280  0.58967  0.32183  Biso   1.000  O
  O51      1.0000 0.96168  0.91331  0.17466  Biso   1.000  O
  O52      1.0000 0.96311  0.83363  0.42359  Biso   1.000  O
  O53      1.0000 0.77707  0.62550  0.24089  Biso   1.000  O
  O54      1.0000 0.77475  0.61968  0.49085  Biso   1.000  O
  O55      1.0000 0.72430  0.87769  0.01040  Biso   1.000  O
  O56      1.0000 0.72426  0.86383  0.25815  Biso   1.000  O
  Hf29     1.0000 0.63790  0.52231  0.65018  Biso   1.000  Hf
  Hf30     1.0000 0.63675  0.73091  0.89682  Biso   1.000  Hf
  Hf31     1.0000 0.86018  0.77261  0.60571  Biso   1.000  Hf
  Hf32     1.0000 0.86022  0.97790  0.85544  Biso   1.000  Hf
  O57      1.0000 0.53267  0.66336  0.58005  Biso   1.000  O
  O58      1.0000 0.53253  0.58726  0.83119  Biso   1.000  O
  O59      1.0000 0.96578  0.91625  0.67313  Biso   1.000  O
  O60      1.0000 0.96559  0.83406  0.92382  Biso   1.000  O
  O61      1.0000 0.77482  0.62987  0.74113  Biso   1.000  O
  O62      1.0000 0.77399  0.62119  0.99001  Biso   1.000  O
  O63      1.0000 0.72120  0.87460  0.51138  Biso   1.000  O
  O64      1.0000 0.72303  0.87287  0.76105  Biso   1.000  O
  Ba1      1.0000 0.45915  0.23883  0.28108  Biso   1.000  Ba
