data_image0
_cell_length_a       10.0919
_cell_length_b       10.3871
_cell_length_c       5.26527
_cell_angle_alpha    89.371
_cell_angle_beta     90.5507
_cell_angle_gamma    90.5032

_symmetry_space_group_name_H-M    "P 1"
_symmetry_int_tables_number       1

loop_
  _symmetry_equiv_pos_as_xyz
  'x, y, z'

loop_
  _atom_site_label
  _atom_site_occupancy
  _atom_site_fract_x
  _atom_site_fract_y
  _atom_site_fract_z
  _atom_site_thermal_displace_type
  _atom_site_B_iso_or_equiv
  _atom_site_type_symbol
  Ba1      1.0000 0.09900  0.99224  0.29817  Biso   1.000  Ba
  Hf1      1.0000 0.14618  0.51983  0.33989  Biso   1.000  Hf
  Hf2      1.0000 0.14061  0.22945  0.84201  Biso   1.000  Hf
  Hf3      1.0000 0.15542  0.72617  0.83030  Biso   1.000  Hf
  Hf4      1.0000 0.35183  0.26147  0.34081  Biso   1.000  Hf
  Hf5      1.0000 0.36905  0.77115  0.33168  Biso   1.000  Hf
  Hf6      1.0000 0.36152  0.47297  0.83926  Biso   1.000  Hf
  Hf7      1.0000 0.36464  0.98288  0.82587  Biso   1.000  Hf
  Hf8      1.0000 0.63249  0.03185  0.16589  Biso   1.000  Hf
  Hf9      1.0000 0.63315  0.51400  0.15770  Biso   1.000  Hf
  Hf10     1.0000 0.63838  0.23624  0.65956  Biso   1.000  Hf
  Hf11     1.0000 0.63444  0.72262  0.65664  Biso   1.000  Hf
  Hf12     1.0000 0.86697  0.28111  0.15750  Biso   1.000  Hf
  Hf13     1.0000 0.87061  0.74025  0.11404  Biso   1.000  Hf
  Hf14     1.0000 0.86611  0.47957  0.64582  Biso   1.000  Hf
  Hf15     1.0000 0.85379  0.99327  0.71860  Biso   1.000  Hf
  O1       1.0000 0.04061  0.20721  0.19069  Biso   1.000  O
  O2       1.0000 0.05289  0.68502  0.18869  Biso   1.000  O
  O3       1.0000 0.02559  0.07673  0.75140  Biso   1.000  O
  O4       1.0000 0.03821  0.58243  0.67572  Biso   1.000  O
  O5       1.0000 0.46768  0.40862  0.16175  Biso   1.000  O
  O6       1.0000 0.47690  0.91485  0.15615  Biso   1.000  O
  O7       1.0000 0.46772  0.33673  0.65869  Biso   1.000  O
  O8       1.0000 0.48450  0.84518  0.64320  Biso   1.000  O
  O9       1.0000 0.27571  0.12628  0.59300  Biso   1.000  O
  O10      1.0000 0.28365  0.61811  0.58298  Biso   1.000  O
  O11      1.0000 0.28698  0.13099  0.06728  Biso   1.000  O
  O12      1.0000 0.28005  0.61805  0.08480  Biso   1.000  O
  O13      1.0000 0.22197  0.37338  0.58390  Biso   1.000  O
  O14      1.0000 0.24135  0.85917  0.58252  Biso   1.000  O
  O15      1.0000 0.22429  0.37826  0.08486  Biso   1.000  O
  O16      1.0000 0.25206  0.85983  0.05363  Biso   1.000  O
  O17      1.0000 0.53263  0.16858  0.33720  Biso   1.000  O
  O18      1.0000 0.53405  0.65848  0.33929  Biso   1.000  O
  O19      1.0000 0.54036  0.08687  0.83031  Biso   1.000  O
  O20      1.0000 0.53034  0.58703  0.84175  Biso   1.000  O
  O21      1.0000 0.96035  0.44253  0.30396  Biso   1.000  O
  O22      1.0000 0.85839  0.89170  0.36918  Biso   1.000  O
  O23      1.0000 0.96216  0.33188  0.80748  Biso   1.000  O
  O24      1.0000 0.97785  0.83592  0.83808  Biso   1.000  O
  O25      1.0000 0.77385  0.13183  0.94058  Biso   1.000  O
  O26      1.0000 0.77540  0.61496  0.89594  Biso   1.000  O
  O27      1.0000 0.77973  0.12966  0.43734  Biso   1.000  O
  O28      1.0000 0.77396  0.63125  0.40368  Biso   1.000  O
  O29      1.0000 0.72302  0.37813  0.90468  Biso   1.000  O
  O30      1.0000 0.73039  0.86822  0.92927  Biso   1.000  O
  O31      1.0000 0.72615  0.37781  0.40701  Biso   1.000  O
  O32      1.0000 0.71707  0.88924  0.43126  Biso   1.000  O
