data_image0
_cell_length_a       10.1933
_cell_length_b       5.18185
_cell_length_c       10.4724
_cell_angle_alpha    90.2438
_cell_angle_beta     81.0885
_cell_angle_gamma    90.5045

_symmetry_space_group_name_H-M    "P 1"
_symmetry_int_tables_number       1

loop_
  _symmetry_equiv_pos_as_xyz
  'x, y, z'

loop_
  _atom_site_label
  _atom_site_occupancy
  _atom_site_fract_x
  _atom_site_fract_y
  _atom_site_fract_z
  _atom_site_thermal_displace_type
  _atom_site_B_iso_or_equiv
  _atom_site_type_symbol
  Ba1      1.0000 0.11414  0.99533  0.12704  Biso   1.000  Ba
  Hf1      1.0000 0.14126  0.04315  0.64447  Biso   1.000  Hf
  Hf2      1.0000 0.64071  0.03625  0.14766  Biso   1.000  Hf
  Hf3      1.0000 0.63964  0.04276  0.64789  Biso   1.000  Hf
  Hf4      1.0000 0.14063  0.44759  0.39306  Biso   1.000  Hf
  Hf5      1.0000 0.14284  0.46494  0.89154  Biso   1.000  Hf
  Hf6      1.0000 0.63149  0.45342  0.40076  Biso   1.000  Hf
  Hf7      1.0000 0.64366  0.45958  0.89426  Biso   1.000  Hf
  Hf8      1.0000 0.36747  0.52090  0.10681  Biso   1.000  Hf
  Hf9      1.0000 0.36011  0.54323  0.60241  Biso   1.000  Hf
  Hf10     1.0000 0.85450  0.52822  0.10243  Biso   1.000  Hf
  Hf11     1.0000 0.86551  0.54377  0.60418  Biso   1.000  Hf
  Hf12     1.0000 0.35849  0.95455  0.35054  Biso   1.000  Hf
  Hf13     1.0000 0.36972  0.95839  0.85011  Biso   1.000  Hf
  Hf14     1.0000 0.85092  0.96159  0.36808  Biso   1.000  Hf
  Hf15     1.0000 0.86352  0.95864  0.85325  Biso   1.000  Hf
  O1       1.0000 0.04297  0.43454  0.08739  Biso   1.000  O
  O2       1.0000 0.03843  0.34564  0.58401  Biso   1.000  O
  O3       1.0000 0.54308  0.33148  0.07798  Biso   1.000  O
  O4       1.0000 0.53309  0.33439  0.58213  Biso   1.000  O
  O5       1.0000 0.02526  0.15524  0.34477  Biso   1.000  O
  O6       1.0000 0.04023  0.15722  0.83631  Biso   1.000  O
  O7       1.0000 0.53446  0.15792  0.33010  Biso   1.000  O
  O8       1.0000 0.54251  0.15975  0.82910  Biso   1.000  O
  O9       1.0000 0.46953  0.82914  0.16915  Biso   1.000  O
  O10      1.0000 0.46638  0.83730  0.66832  Biso   1.000  O
  O11      1.0000 0.89861  0.88462  0.17069  Biso   1.000  O
  O12      1.0000 0.96468  0.84745  0.66794  Biso   1.000  O
  O13      1.0000 0.46334  0.66025  0.42172  Biso   1.000  O
  O14      1.0000 0.47778  0.66579  0.91585  Biso   1.000  O
  O15      1.0000 0.96201  0.65841  0.41545  Biso   1.000  O
  O16      1.0000 0.96549  0.66685  0.91617  Biso   1.000  O
  O17      1.0000 0.28207  0.24825  0.24539  Biso   1.000  O
  O18      1.0000 0.27784  0.26014  0.73688  Biso   1.000  O
  O19      1.0000 0.76929  0.27591  0.24807  Biso   1.000  O
  O20      1.0000 0.78042  0.26189  0.74094  Biso   1.000  O
  O21      1.0000 0.27449  0.23952  0.49107  Biso   1.000  O
  O22      1.0000 0.28485  0.24758  0.97780  Biso   1.000  O
  O23      1.0000 0.77131  0.24398  0.49648  Biso   1.000  O
  O24      1.0000 0.78066  0.23773  0.99104  Biso   1.000  O
  O25      1.0000 0.25490  0.73110  0.99259  Biso   1.000  O
  O26      1.0000 0.22323  0.75873  0.50916  Biso   1.000  O
  O27      1.0000 0.72445  0.75482  0.00791  Biso   1.000  O
  O28      1.0000 0.72312  0.75640  0.51485  Biso   1.000  O
  O29      1.0000 0.23751  0.70899  0.26161  Biso   1.000  O
  O30      1.0000 0.22505  0.74490  0.75641  Biso   1.000  O
  O31      1.0000 0.71008  0.74920  0.26970  Biso   1.000  O
  O32      1.0000 0.72823  0.74256  0.75854  Biso   1.000  O
