data_image0
_cell_length_a       5.07278
_cell_length_b       10.4048
_cell_length_c       10.7114
_cell_angle_alpha    90.0643
_cell_angle_beta     79.0227
_cell_angle_gamma    90.4393

_symmetry_space_group_name_H-M    "P 1"
_symmetry_int_tables_number       1

loop_
  _symmetry_equiv_pos_as_xyz
  'x, y, z'

loop_
  _atom_site_label
  _atom_site_occupancy
  _atom_site_fract_x
  _atom_site_fract_y
  _atom_site_fract_z
  _atom_site_thermal_displace_type
  _atom_site_B_iso_or_equiv
  _atom_site_type_symbol
  Hf1      1.0000 0.27867  0.01001  0.14985  Biso   1.000  Hf
  Hf2      1.0000 0.31332  0.23026  0.42531  Biso   1.000  Hf
  Hf3      1.0000 0.67532  0.26973  0.07982  Biso   1.000  Hf
  Hf4      1.0000 0.71001  0.48999  0.35523  Biso   1.000  Hf
  O1       1.0000 0.02516  0.14643  0.05189  Biso   1.000  O
  O2       1.0000 0.08552  0.05372  0.35573  Biso   1.000  O
  O3       1.0000 0.90306  0.44638  0.14938  Biso   1.000  O
  O4       1.0000 0.96346  0.35346  0.45319  Biso   1.000  O
  O5       1.0000 0.53238  0.12975  0.24140  Biso   1.000  O
  O6       1.0000 0.58411  0.11577  0.49832  Biso   1.000  O
  O7       1.0000 0.40448  0.38420  0.00682  Biso   1.000  O
  O8       1.0000 0.45638  0.37027  0.26372  Biso   1.000  O
  Hf5      1.0000 0.28080  0.01767  0.64737  Biso   1.000  Hf
  Hf6      1.0000 0.25332  0.22209  0.89017  Biso   1.000  Hf
  Hf7      1.0000 0.73535  0.27788  0.61494  Biso   1.000  Hf
  Hf8      1.0000 0.70788  0.48231  0.85775  Biso   1.000  Hf
  O9       1.0000 0.08214  0.16957  0.59186  Biso   1.000  O
  O10      1.0000 0.05611  0.08007  0.81905  Biso   1.000  O
  O11      1.0000 0.93255  0.41992  0.68605  Biso   1.000  O
  O12      1.0000 0.90651  0.33041  0.91327  Biso   1.000  O
  O13      1.0000 0.54551  0.12742  0.74317  Biso   1.000  O
  O14      1.0000 0.52297  0.11818  0.98654  Biso   1.000  O
  O15      1.0000 0.46569  0.38181  0.51857  Biso   1.000  O
  O16      1.0000 0.44315  0.37256  0.76195  Biso   1.000  O
  Hf9      1.0000 0.26573  0.53069  0.14332  Biso   1.000  Hf
  Hf10     1.0000 0.27149  0.72693  0.39907  Biso   1.000  Hf
  Hf11     1.0000 0.71719  0.77309  0.10604  Biso   1.000  Hf
  Hf12     1.0000 0.72294  0.96936  0.36178  Biso   1.000  Hf
  O17      1.0000 0.07360  0.68106  0.08111  Biso   1.000  O
  O18      1.0000 0.06687  0.58288  0.32596  Biso   1.000  O
  O19      1.0000 0.92182  0.91711  0.17916  Biso   1.000  O
  O20      1.0000 0.91510  0.81897  0.42399  Biso   1.000  O
  O21      1.0000 0.54889  0.63290  0.24489  Biso   1.000  O
  O22      1.0000 0.54059  0.62159  0.49379  Biso   1.000  O
  O23      1.0000 0.44810  0.87841  0.01130  Biso   1.000  O
  O24      1.0000 0.43977  0.86713  0.26021  Biso   1.000  O
  Hf13     1.0000 0.27417  0.52324  0.65174  Biso   1.000  Hf
  Hf14     1.0000 0.26907  0.73097  0.89810  Biso   1.000  Hf
  Hf15     1.0000 0.71962  0.76902  0.60698  Biso   1.000  Hf
  Hf16     1.0000 0.71452  0.97674  0.85336  Biso   1.000  Hf
  O25      1.0000 0.06050  0.66297  0.58041  Biso   1.000  O
  O26      1.0000 0.06101  0.58713  0.83295  Biso   1.000  O
  O27      1.0000 0.92767  0.91285  0.67215  Biso   1.000  O
  O28      1.0000 0.92819  0.83703  0.92468  Biso   1.000  O
  O29      1.0000 0.54736  0.62919  0.74290  Biso   1.000  O
  O30      1.0000 0.54763  0.62566  0.99222  Biso   1.000  O
  O31      1.0000 0.44104  0.87433  0.51287  Biso   1.000  O
  O32      1.0000 0.44131  0.87080  0.76220  Biso   1.000  O
  Ba1      1.0000 0.99461  0.25006  0.25246  Biso   1.000  Ba
