data_image0
_cell_length_a       10.0595
_cell_length_b       10.3037
_cell_length_c       10.4981
_cell_angle_alpha    89.7278
_cell_angle_beta     90.3088
_cell_angle_gamma    90.2467

_symmetry_space_group_name_H-M    "P 1"
_symmetry_int_tables_number       1

loop_
  _symmetry_equiv_pos_as_xyz
  'x, y, z'

loop_
  _atom_site_label
  _atom_site_occupancy
  _atom_site_fract_x
  _atom_site_fract_y
  _atom_site_fract_z
  _atom_site_thermal_displace_type
  _atom_site_B_iso_or_equiv
  _atom_site_type_symbol
  Ba1      1.0000 0.09884  0.98704  0.14919  Biso   1.000  Ba
  Hf1      1.0000 0.13986  0.02212  0.67121  Biso   1.000  Hf
  Hf2      1.0000 0.14433  0.51878  0.17170  Biso   1.000  Hf
  Hf3      1.0000 0.14098  0.52230  0.67020  Biso   1.000  Hf
  Hf4      1.0000 0.14001  0.22639  0.42102  Biso   1.000  Hf
  Hf5      1.0000 0.13887  0.23101  0.92062  Biso   1.000  Hf
  Hf6      1.0000 0.14035  0.72881  0.42083  Biso   1.000  Hf
  Hf7      1.0000 0.15183  0.72719  0.91714  Biso   1.000  Hf
  Hf8      1.0000 0.35313  0.26117  0.17056  Biso   1.000  Hf
  Hf9      1.0000 0.36054  0.27088  0.67093  Biso   1.000  Hf
  Hf10     1.0000 0.37087  0.76938  0.17085  Biso   1.000  Hf
  Hf11     1.0000 0.36048  0.77260  0.66760  Biso   1.000  Hf
  Hf12     1.0000 0.36009  0.47627  0.41977  Biso   1.000  Hf
  Hf13     1.0000 0.36200  0.47520  0.92150  Biso   1.000  Hf
  Hf14     1.0000 0.36043  0.98046  0.41652  Biso   1.000  Hf
  Hf15     1.0000 0.36635  0.98131  0.91905  Biso   1.000  Hf
  Hf16     1.0000 0.64017  0.02981  0.07648  Biso   1.000  Hf
  Hf17     1.0000 0.63346  0.02158  0.58451  Biso   1.000  Hf
  Hf18     1.0000 0.63279  0.51422  0.07916  Biso   1.000  Hf
  Hf19     1.0000 0.63872  0.52038  0.57817  Biso   1.000  Hf
  Hf20     1.0000 0.63517  0.23356  0.33002  Biso   1.000  Hf
  Hf21     1.0000 0.64130  0.23121  0.82788  Biso   1.000  Hf
  Hf22     1.0000 0.63933  0.72298  0.33289  Biso   1.000  Hf
  Hf23     1.0000 0.63429  0.72929  0.82497  Biso   1.000  Hf
  Hf24     1.0000 0.86315  0.27689  0.07829  Biso   1.000  Hf
  Hf25     1.0000 0.86464  0.27451  0.57992  Biso   1.000  Hf
  Hf26     1.0000 0.86621  0.74100  0.05640  Biso   1.000  Hf
  Hf27     1.0000 0.86365  0.77068  0.58082  Biso   1.000  Hf
  Hf28     1.0000 0.86422  0.48102  0.32839  Biso   1.000  Hf
  Hf29     1.0000 0.86313  0.47680  0.82368  Biso   1.000  Hf
  Hf30     1.0000 0.85410  0.99355  0.35671  Biso   1.000  Hf
  Hf31     1.0000 0.86160  0.97964  0.83033  Biso   1.000  Hf
  O1       1.0000 0.03691  0.19726  0.08612  Biso   1.000  O
  O2       1.0000 0.03656  0.17437  0.59432  Biso   1.000  O
  O3       1.0000 0.04834  0.68167  0.09201  Biso   1.000  O
  O4       1.0000 0.03637  0.67000  0.58702  Biso   1.000  O
  O5       1.0000 0.02283  0.08255  0.36040  Biso   1.000  O
  O6       1.0000 0.03715  0.07882  0.84125  Biso   1.000  O
  O7       1.0000 0.03755  0.58259  0.33558  Biso   1.000  O
  O8       1.0000 0.03397  0.58480  0.83679  Biso   1.000  O
  O9       1.0000 0.46643  0.40885  0.08196  Biso   1.000  O
  O10      1.0000 0.46822  0.41382  0.58166  Biso   1.000  O
  O11      1.0000 0.47917  0.91486  0.08032  Biso   1.000  O
  O12      1.0000 0.46596  0.91424  0.57987  Biso   1.000  O
  O13      1.0000 0.46539  0.33648  0.33089  Biso   1.000  O
  O14      1.0000 0.46897  0.33508  0.83076  Biso   1.000  O
  O15      1.0000 0.48272  0.84300  0.32672  Biso   1.000  O
  O16      1.0000 0.46993  0.83833  0.82611  Biso   1.000  O
  O17      1.0000 0.27798  0.12634  0.30109  Biso   1.000  O
  O18      1.0000 0.27678  0.12363  0.79071  Biso   1.000  O
  O19      1.0000 0.28163  0.61822  0.29302  Biso   1.000  O
  O20      1.0000 0.27941  0.62323  0.79258  Biso   1.000  O
  O21      1.0000 0.28528  0.12996  0.03300  Biso   1.000  O
  O22      1.0000 0.27662  0.12556  0.54480  Biso   1.000  O
  O23      1.0000 0.27850  0.61729  0.04412  Biso   1.000  O
  O24      1.0000 0.27669  0.62629  0.54310  Biso   1.000  O
  O25      1.0000 0.22051  0.37169  0.29333  Biso   1.000  O
  O26      1.0000 0.22437  0.37470  0.79349  Biso   1.000  O
  O27      1.0000 0.23967  0.85863  0.29998  Biso   1.000  O
  O28      1.0000 0.22533  0.87315  0.78992  Biso   1.000  O
  O29      1.0000 0.22371  0.37642  0.04403  Biso   1.000  O
  O30      1.0000 0.22375  0.37730  0.54408  Biso   1.000  O
  O31      1.0000 0.25463  0.85627  0.02910  Biso   1.000  O
  O32      1.0000 0.22262  0.87855  0.54366  Biso   1.000  O
  O33      1.0000 0.53399  0.16687  0.16625  Biso   1.000  O
  O34      1.0000 0.53228  0.16585  0.66793  Biso   1.000  O
  O35      1.0000 0.53637  0.65918  0.17119  Biso   1.000  O
  O36      1.0000 0.53176  0.66442  0.66484  Biso   1.000  O
  O37      1.0000 0.53464  0.08558  0.41763  Biso   1.000  O
  O38      1.0000 0.53977  0.08570  0.91422  Biso   1.000  O
  O39      1.0000 0.53231  0.58523  0.41854  Biso   1.000  O
  O40      1.0000 0.53024  0.58662  0.91919  Biso   1.000  O
  O41      1.0000 0.96075  0.43373  0.15783  Biso   1.000  O
  O42      1.0000 0.96652  0.42401  0.66071  Biso   1.000  O
  O43      1.0000 0.85546  0.89799  0.17793  Biso   1.000  O
  O44      1.0000 0.96515  0.91847  0.66721  Biso   1.000  O
  O45      1.0000 0.96552  0.33360  0.41395  Biso   1.000  O
  O46      1.0000 0.96294  0.33226  0.90581  Biso   1.000  O
  O47      1.0000 0.96612  0.83430  0.41324  Biso   1.000  O
  O48      1.0000 0.97935  0.84071  0.92515  Biso   1.000  O
  O49      1.0000 0.78180  0.12418  0.95824  Biso   1.000  O
  O50      1.0000 0.76868  0.13057  0.46697  Biso   1.000  O
  O51      1.0000 0.77270  0.61367  0.94862  Biso   1.000  O
  O52      1.0000 0.77837  0.62384  0.45556  Biso   1.000  O
  O53      1.0000 0.77870  0.13152  0.21372  Biso   1.000  O
  O54      1.0000 0.77753  0.12694  0.70996  Biso   1.000  O
  O55      1.0000 0.77680  0.63159  0.20422  Biso   1.000  O
  O56      1.0000 0.77521  0.62764  0.70375  Biso   1.000  O
  O57      1.0000 0.72221  0.37385  0.95319  Biso   1.000  O
  O58      1.0000 0.72435  0.37723  0.45451  Biso   1.000  O
  O59      1.0000 0.72898  0.86735  0.95542  Biso   1.000  O
  O60      1.0000 0.72385  0.87381  0.46383  Biso   1.000  O
  O61      1.0000 0.72356  0.37945  0.20624  Biso   1.000  O
  O62      1.0000 0.72551  0.37586  0.70276  Biso   1.000  O
  O63      1.0000 0.71510  0.88941  0.21445  Biso   1.000  O
  O64      1.0000 0.72463  0.87655  0.70777  Biso   1.000  O
