data_image0
_cell_length_a       10.085
_cell_length_b       5.17164
_cell_length_c       10.7543
_cell_angle_alpha    88.8558
_cell_angle_beta     91.4823
_cell_angle_gamma    90.7245

_symmetry_space_group_name_H-M    "P 1"
_symmetry_int_tables_number       1

loop_
  _symmetry_equiv_pos_as_xyz
  'x, y, z'

loop_
  _atom_site_label
  _atom_site_occupancy
  _atom_site_fract_x
  _atom_site_fract_y
  _atom_site_fract_z
  _atom_site_thermal_displace_type
  _atom_site_B_iso_or_equiv
  _atom_site_type_symbol
  Hf1      1.0000 0.13622  0.04614  0.17617  Biso   1.000  Hf
  Hf2      1.0000 0.13722  0.44715  0.42670  Biso   1.000  Hf
  Hf3      1.0000 0.35019  0.55503  0.19482  Biso   1.000  Hf
  Hf4      1.0000 0.36143  0.95139  0.42805  Biso   1.000  Hf
  Hf5      1.0000 0.64718  0.07062  0.08872  Biso   1.000  Hf
  Hf6      1.0000 0.63918  0.45348  0.33397  Biso   1.000  Hf
  Hf7      1.0000 0.86803  0.54663  0.07820  Biso   1.000  Hf
  Hf8      1.0000 0.86152  0.95281  0.32871  Biso   1.000  Hf
  O1       1.0000 0.03350  0.31638  0.07792  Biso   1.000  O
  O2       1.0000 0.02986  0.17623  0.33162  Biso   1.000  O
  O3       1.0000 0.43967  0.89375  0.11257  Biso   1.000  O
  O4       1.0000 0.46816  0.67033  0.34060  Biso   1.000  O
  O5       1.0000 0.26931  0.25032  0.30193  Biso   1.000  O
  O6       1.0000 0.28049  0.28082  0.04637  Biso   1.000  O
  O7       1.0000 0.21974  0.75185  0.30739  Biso   1.000  O
  O8       1.0000 0.21263  0.76451  0.05355  Biso   1.000  O
  O9       1.0000 0.52363  0.31154  0.19437  Biso   1.000  O
  O10      1.0000 0.53051  0.17062  0.42533  Biso   1.000  O
  O11      1.0000 0.96941  0.82086  0.17806  Biso   1.000  O
  O12      1.0000 0.97219  0.67494  0.42505  Biso   1.000  O
  O13      1.0000 0.77734  0.24006  0.45113  Biso   1.000  O
  O14      1.0000 0.78526  0.25811  0.20745  Biso   1.000  O
  O15      1.0000 0.72996  0.73903  0.45748  Biso   1.000  O
  O16      1.0000 0.72013  0.75114  0.21043  Biso   1.000  O
  Hf9      1.0000 0.14371  0.03379  0.67632  Biso   1.000  Hf
  Hf10     1.0000 0.14121  0.46702  0.92287  Biso   1.000  Hf
  Hf11     1.0000 0.36251  0.53348  0.67089  Biso   1.000  Hf
  Hf12     1.0000 0.34968  0.98282  0.93525  Biso   1.000  Hf
  Hf13     1.0000 0.64291  0.01834  0.56909  Biso   1.000  Hf
  Hf14     1.0000 0.64593  0.42180  0.78813  Biso   1.000  Hf
  Hf15     1.0000 0.87222  0.53713  0.57771  Biso   1.000  Hf
  Hf16     1.0000 0.87045  0.96121  0.83108  Biso   1.000  Hf
  O17      1.0000 0.03482  0.31214  0.58150  Biso   1.000  O
  O18      1.0000 0.03657  0.17910  0.83022  Biso   1.000  O
  O19      1.0000 0.47586  0.79179  0.57019  Biso   1.000  O
  O20      1.0000 0.48540  0.66333  0.80096  Biso   1.000  O
  O21      1.0000 0.27547  0.25573  0.79642  Biso   1.000  O
  O22      1.0000 0.27532  0.23725  0.54637  Biso   1.000  O
  O23      1.0000 0.23216  0.75072  0.80307  Biso   1.000  O
  O24      1.0000 0.22568  0.74339  0.55310  Biso   1.000  O
  O25      1.0000 0.52443  0.27292  0.66191  Biso   1.000  O
  O26      1.0000 0.53293  0.13591  0.92004  Biso   1.000  O
  O27      1.0000 0.97658  0.81151  0.67572  Biso   1.000  O
  O28      1.0000 0.97547  0.67713  0.92095  Biso   1.000  O
  O29      1.0000 0.77212  0.28803  0.94083  Biso   1.000  O
  O30      1.0000 0.78414  0.22085  0.68922  Biso   1.000  O
  O31      1.0000 0.75417  0.81206  0.97288  Biso   1.000  O
  O32      1.0000 0.73655  0.72959  0.70401  Biso   1.000  O
  Ba1      1.0000 0.54978  0.56983  0.00995  Biso   1.000  Ba
