data_image0
_cell_length_a       10.1639
_cell_length_b       5.21064
_cell_length_c       10.7928
_cell_angle_alpha    89.1762
_cell_angle_beta     91.656
_cell_angle_gamma    90.6441

_symmetry_space_group_name_H-M    "P 1"
_symmetry_int_tables_number       1

loop_
  _symmetry_equiv_pos_as_xyz
  'x, y, z'

loop_
  _atom_site_label
  _atom_site_occupancy
  _atom_site_fract_x
  _atom_site_fract_y
  _atom_site_fract_z
  _atom_site_thermal_displace_type
  _atom_site_B_iso_or_equiv
  _atom_site_type_symbol
  Zr1      1.0000 0.13623  0.04658  0.17557  Biso   1.000  Zr
  Zr2      1.0000 0.13768  0.44754  0.42687  Biso   1.000  Zr
  Zr3      1.0000 0.34846  0.55487  0.19488  Biso   1.000  Zr
  Zr4      1.0000 0.36183  0.95191  0.42895  Biso   1.000  Zr
  Zr5      1.0000 0.64679  0.06279  0.08793  Biso   1.000  Zr
  Zr6      1.0000 0.63888  0.45223  0.33385  Biso   1.000  Zr
  Zr7      1.0000 0.86817  0.54500  0.07782  Biso   1.000  Zr
  Zr8      1.0000 0.86160  0.95317  0.32795  Biso   1.000  Zr
  O1       1.0000 0.03268  0.31503  0.07768  Biso   1.000  O
  O2       1.0000 0.02902  0.17712  0.33126  Biso   1.000  O
  O3       1.0000 0.43996  0.88810  0.11141  Biso   1.000  O
  O4       1.0000 0.46844  0.67141  0.34020  Biso   1.000  O
  O5       1.0000 0.26842  0.25095  0.30251  Biso   1.000  O
  O6       1.0000 0.27919  0.27826  0.04675  Biso   1.000  O
  O7       1.0000 0.21992  0.75323  0.30789  Biso   1.000  O
  O8       1.0000 0.21283  0.76264  0.05390  Biso   1.000  O
  O9       1.0000 0.52387  0.30636  0.19484  Biso   1.000  O
  O10      1.0000 0.52952  0.17374  0.42705  Biso   1.000  O
  O11      1.0000 0.96929  0.82173  0.17681  Biso   1.000  O
  O12      1.0000 0.97312  0.67635  0.42473  Biso   1.000  O
  O13      1.0000 0.77649  0.24235  0.45080  Biso   1.000  O
  O14      1.0000 0.78385  0.25524  0.20647  Biso   1.000  O
  O15      1.0000 0.73083  0.74270  0.45572  Biso   1.000  O
  O16      1.0000 0.72136  0.74570  0.20771  Biso   1.000  O
  Zr9      1.0000 0.14357  0.03576  0.67612  Biso   1.000  Zr
  Zr10     1.0000 0.14128  0.46720  0.92277  Biso   1.000  Zr
  Zr11     1.0000 0.36316  0.53625  0.67234  Biso   1.000  Zr
  Zr12     1.0000 0.35043  0.98051  0.93428  Biso   1.000  Zr
  Zr13     1.0000 0.64363  0.02237  0.56966  Biso   1.000  Zr
  Zr14     1.0000 0.64944  0.43188  0.78921  Biso   1.000  Zr
  Zr15     1.0000 0.87243  0.53957  0.57656  Biso   1.000  Zr
  Zr16     1.0000 0.87039  0.96177  0.83116  Biso   1.000  Zr
  O17      1.0000 0.03448  0.31323  0.58087  Biso   1.000  O
  O18      1.0000 0.03616  0.17921  0.83036  Biso   1.000  O
  O19      1.0000 0.47712  0.79486  0.57154  Biso   1.000  O
  O20      1.0000 0.48459  0.66742  0.80448  Biso   1.000  O
  O21      1.0000 0.27502  0.25714  0.79682  Biso   1.000  O
  O22      1.0000 0.27510  0.23858  0.54752  Biso   1.000  O
  O23      1.0000 0.23166  0.75113  0.80302  Biso   1.000  O
  O24      1.0000 0.22743  0.74392  0.55354  Biso   1.000  O
  O25      1.0000 0.52688  0.27945  0.66429  Biso   1.000  O
  O26      1.0000 0.53157  0.13454  0.92103  Biso   1.000  O
  O27      1.0000 0.97759  0.81275  0.67570  Biso   1.000  O
  O28      1.0000 0.97545  0.67754  0.92138  Biso   1.000  O
  O29      1.0000 0.77103  0.28115  0.94289  Biso   1.000  O
  O30      1.0000 0.78543  0.22535  0.69001  Biso   1.000  O
  O31      1.0000 0.74983  0.79817  0.96663  Biso   1.000  O
  O32      1.0000 0.73786  0.73489  0.70159  Biso   1.000  O
  Ba1      1.0000 0.54876  0.56072  0.01197  Biso   1.000  Ba
