data_image0
_cell_length_a       10.2115
_cell_length_b       10.4084
_cell_length_c       10.493
_cell_angle_alpha    90.0418
_cell_angle_beta     80.879
_cell_angle_gamma    90.2304

_symmetry_space_group_name_H-M    "P 1"
_symmetry_int_tables_number       1

loop_
  _symmetry_equiv_pos_as_xyz
  'x, y, z'

loop_
  _atom_site_label
  _atom_site_occupancy
  _atom_site_fract_x
  _atom_site_fract_y
  _atom_site_fract_z
  _atom_site_thermal_displace_type
  _atom_site_B_iso_or_equiv
  _atom_site_type_symbol
  Ba1      1.0000 0.11311  0.99536  0.12862  Biso   1.000  Ba
  Zr1      1.0000 0.14000  0.02114  0.64505  Biso   1.000  Zr
  Zr2      1.0000 0.13958  0.52052  0.14385  Biso   1.000  Zr
  Zr3      1.0000 0.14048  0.52142  0.64396  Biso   1.000  Zr
  Zr4      1.0000 0.64376  0.02239  0.14584  Biso   1.000  Zr
  Zr5      1.0000 0.63913  0.02288  0.64790  Biso   1.000  Zr
  Zr6      1.0000 0.63562  0.51594  0.14724  Biso   1.000  Zr
  Zr7      1.0000 0.63901  0.51940  0.64555  Biso   1.000  Zr
  Zr8      1.0000 0.13890  0.22522  0.39241  Biso   1.000  Zr
  Zr9      1.0000 0.13904  0.23304  0.89371  Biso   1.000  Zr
  Zr10     1.0000 0.13987  0.72749  0.39461  Biso   1.000  Zr
  Zr11     1.0000 0.14300  0.72762  0.89278  Biso   1.000  Zr
  Zr12     1.0000 0.63556  0.23159  0.39702  Biso   1.000  Zr
  Zr13     1.0000 0.64018  0.22990  0.89708  Biso   1.000  Zr
  Zr14     1.0000 0.63411  0.72404  0.39877  Biso   1.000  Zr
  Zr15     1.0000 0.64211  0.72864  0.89188  Biso   1.000  Zr
  Zr16     1.0000 0.35764  0.26453  0.10481  Biso   1.000  Zr
  Zr17     1.0000 0.36021  0.27051  0.60363  Biso   1.000  Zr
  Zr18     1.0000 0.37134  0.76701  0.10655  Biso   1.000  Zr
  Zr19     1.0000 0.36101  0.77233  0.60375  Biso   1.000  Zr
  Zr20     1.0000 0.85955  0.27507  0.10601  Biso   1.000  Zr
  Zr21     1.0000 0.86319  0.27225  0.60508  Biso   1.000  Zr
  Zr22     1.0000 0.85559  0.75958  0.10146  Biso   1.000  Zr
  Zr23     1.0000 0.86336  0.77080  0.60408  Biso   1.000  Zr
  Zr24     1.0000 0.35724  0.47632  0.35316  Biso   1.000  Zr
  Zr25     1.0000 0.36372  0.47713  0.85469  Biso   1.000  Zr
  Zr26     1.0000 0.36161  0.98054  0.35231  Biso   1.000  Zr
  Zr27     1.0000 0.36667  0.98092  0.85095  Biso   1.000  Zr
  Zr28     1.0000 0.86251  0.47949  0.35575  Biso   1.000  Zr
  Zr29     1.0000 0.86237  0.47839  0.85287  Biso   1.000  Zr
  Zr30     1.0000 0.84932  0.98199  0.36799  Biso   1.000  Zr
  Zr31     1.0000 0.86279  0.97931  0.85626  Biso   1.000  Zr
  O1       1.0000 0.03941  0.20031  0.08277  Biso   1.000  O
  O2       1.0000 0.03680  0.17174  0.58311  Biso   1.000  O
  O3       1.0000 0.04250  0.68678  0.08954  Biso   1.000  O
  O4       1.0000 0.03764  0.67220  0.58225  Biso   1.000  O
  O5       1.0000 0.53772  0.16879  0.08104  Biso   1.000  O
  O6       1.0000 0.53446  0.17031  0.58232  Biso   1.000  O
  O7       1.0000 0.54249  0.66755  0.07914  Biso   1.000  O
  O8       1.0000 0.53484  0.66815  0.58188  Biso   1.000  O
  O9       1.0000 0.02565  0.07645  0.34466  Biso   1.000  O
  O10      1.0000 0.03916  0.07765  0.83587  Biso   1.000  O
  O11      1.0000 0.03823  0.57766  0.33213  Biso   1.000  O
  O12      1.0000 0.03735  0.57967  0.83272  Biso   1.000  O
  O13      1.0000 0.53850  0.07850  0.33212  Biso   1.000  O
  O14      1.0000 0.54068  0.07972  0.83078  Biso   1.000  O
  O15      1.0000 0.53245  0.57809  0.33093  Biso   1.000  O
  O16      1.0000 0.53812  0.57842  0.83066  Biso   1.000  O
  O17      1.0000 0.46258  0.41588  0.16969  Biso   1.000  O
  O18      1.0000 0.46442  0.41933  0.66862  Biso   1.000  O
  O19      1.0000 0.47080  0.91932  0.16803  Biso   1.000  O
  O20      1.0000 0.46586  0.92025  0.66838  Biso   1.000  O
  O21      1.0000 0.95723  0.43378  0.16385  Biso   1.000  O
  O22      1.0000 0.96431  0.42356  0.66647  Biso   1.000  O
  O23      1.0000 0.89959  0.93916  0.17029  Biso   1.000  O
  O24      1.0000 0.96468  0.92043  0.67018  Biso   1.000  O
  O25      1.0000 0.46154  0.32911  0.41875  Biso   1.000  O
  O26      1.0000 0.46658  0.32956  0.91870  Biso   1.000  O
  O27      1.0000 0.46542  0.83005  0.42106  Biso   1.000  O
  O28      1.0000 0.47500  0.83165  0.91612  Biso   1.000  O
  O29      1.0000 0.96250  0.32815  0.41668  Biso   1.000  O
  O30      1.0000 0.96057  0.32912  0.91285  Biso   1.000  O
  O31      1.0000 0.96243  0.82908  0.41424  Biso   1.000  O
  O32      1.0000 0.97086  0.83498  0.92574  Biso   1.000  O
  O33      1.0000 0.28084  0.13209  0.24758  Biso   1.000  O
  O34      1.0000 0.27621  0.12930  0.73765  Biso   1.000  O
  O35      1.0000 0.27780  0.62236  0.23835  Biso   1.000  O
  O36      1.0000 0.27735  0.62909  0.73937  Biso   1.000  O
  O37      1.0000 0.77185  0.13782  0.24717  Biso   1.000  O
  O38      1.0000 0.77873  0.13014  0.74279  Biso   1.000  O
  O39      1.0000 0.77208  0.62863  0.24251  Biso   1.000  O
  O40      1.0000 0.77744  0.62956  0.73909  Biso   1.000  O
  O41      1.0000 0.27436  0.12026  0.49184  Biso   1.000  O
  O42      1.0000 0.28370  0.12676  0.97853  Biso   1.000  O
  O43      1.0000 0.27554  0.62053  0.48985  Biso   1.000  O
  O44      1.0000 0.27546  0.61787  0.98970  Biso   1.000  O
  O45      1.0000 0.77170  0.12323  0.49643  Biso   1.000  O
  O46      1.0000 0.77822  0.12141  0.99274  Biso   1.000  O
  O47      1.0000 0.77524  0.62033  0.49126  Biso   1.000  O
  O48      1.0000 0.77880  0.61921  0.98928  Biso   1.000  O
  O49      1.0000 0.22685  0.38058  0.00720  Biso   1.000  O
  O50      1.0000 0.22251  0.37877  0.50777  Biso   1.000  O
  O51      1.0000 0.25151  0.86438  0.99424  Biso   1.000  O
  O52      1.0000 0.22480  0.87962  0.50980  Biso   1.000  O
  O53      1.0000 0.72337  0.38003  0.00910  Biso   1.000  O
  O54      1.0000 0.72475  0.37924  0.51034  Biso   1.000  O
  O55      1.0000 0.72558  0.87623  0.00713  Biso   1.000  O
  O56      1.0000 0.72234  0.87842  0.51379  Biso   1.000  O
  O57      1.0000 0.21973  0.37037  0.25656  Biso   1.000  O
  O58      1.0000 0.22471  0.37232  0.75754  Biso   1.000  O
  O59      1.0000 0.24043  0.85630  0.26306  Biso   1.000  O
  O60      1.0000 0.22528  0.87088  0.75748  Biso   1.000  O
  O61      1.0000 0.72283  0.37444  0.26152  Biso   1.000  O
  O62      1.0000 0.72539  0.37107  0.75883  Biso   1.000  O
  O63      1.0000 0.71456  0.86958  0.26553  Biso   1.000  O
  O64      1.0000 0.72807  0.87104  0.75878  Biso   1.000  O
