data_image0
_cell_length_a       10.1621
_cell_length_b       10.3247
_cell_length_c       5.07652
_cell_angle_alpha    89.9988
_cell_angle_beta     90.0004
_cell_angle_gamma    89.9983

_symmetry_space_group_name_H-M    "P 1"
_symmetry_int_tables_number       1

loop_
  _symmetry_equiv_pos_as_xyz
  'x, y, z'

loop_
  _atom_site_label
  _atom_site_occupancy
  _atom_site_fract_x
  _atom_site_fract_y
  _atom_site_fract_z
  _atom_site_thermal_displace_type
  _atom_site_B_iso_or_equiv
  _atom_site_type_symbol
  Ba1      1.0000 0.12537  0.99992  0.25355  Biso   1.000  Ba
  Zr1      1.0000 0.12536  0.49992  0.25355  Biso   1.000  Zr
  Zr2      1.0000 0.62537  0.99992  0.25359  Biso   1.000  Zr
  Zr3      1.0000 0.62536  0.49992  0.25355  Biso   1.000  Zr
  Zr4      1.0000 0.12532  0.25714  0.75355  Biso   1.000  Zr
  Zr5      1.0000 0.12540  0.74270  0.75356  Biso   1.000  Zr
  Zr6      1.0000 0.62536  0.24913  0.75359  Biso   1.000  Zr
  Zr7      1.0000 0.62538  0.75071  0.75360  Biso   1.000  Zr
  Zr8      1.0000 0.37825  0.25380  0.24981  Biso   1.000  Zr
  Zr9      1.0000 0.37827  0.74603  0.25733  Biso   1.000  Zr
  Zr10     1.0000 0.87246  0.25381  0.25732  Biso   1.000  Zr
  Zr11     1.0000 0.87248  0.74604  0.24984  Biso   1.000  Zr
  Zr12     1.0000 0.38017  0.99989  0.75356  Biso   1.000  Zr
  Zr13     1.0000 0.37630  0.49991  0.75354  Biso   1.000  Zr
  Zr14     1.0000 0.87056  0.99995  0.75356  Biso   1.000  Zr
  Zr15     1.0000 0.87442  0.49993  0.75353  Biso   1.000  Zr
  O1       1.0000 0.99536  0.15492  0.00122  Biso   1.000  O
  O2       1.0000 0.00582  0.64157  0.02409  Biso   1.000  O
  O3       1.0000 0.51024  0.14888  0.02023  Biso   1.000  O
  O4       1.0000 0.50545  0.64577  0.00679  Biso   1.000  O
  O5       1.0000 0.98379  0.12210  0.53550  Biso   1.000  O
  O6       1.0000 0.99929  0.60207  0.51860  Biso   1.000  O
  O7       1.0000 0.50004  0.10217  0.51194  Biso   1.000  O
  O8       1.0000 0.49678  0.60253  0.50370  Biso   1.000  O
  O9       1.0000 0.00580  0.35832  0.48300  Biso   1.000  O
  O10      1.0000 0.99540  0.84496  0.50593  Biso   1.000  O
  O11      1.0000 0.50544  0.35405  0.50034  Biso   1.000  O
  O12      1.0000 0.51029  0.85094  0.48684  Biso   1.000  O
  O13      1.0000 0.99929  0.39781  0.98847  Biso   1.000  O
  O14      1.0000 0.98383  0.87779  0.97162  Biso   1.000  O
  O15      1.0000 0.49676  0.39728  0.00345  Biso   1.000  O
  O16      1.0000 0.50010  0.89765  0.99511  Biso   1.000  O
  O17      1.0000 0.25532  0.15488  0.50590  Biso   1.000  O
  O18      1.0000 0.24493  0.64152  0.48302  Biso   1.000  O
  O19      1.0000 0.74043  0.14889  0.48684  Biso   1.000  O
  O20      1.0000 0.74529  0.64578  0.50035  Biso   1.000  O
  O21      1.0000 0.26691  0.12206  0.97158  Biso   1.000  O
  O22      1.0000 0.25144  0.60203  0.98849  Biso   1.000  O
  O23      1.0000 0.75064  0.10220  0.99513  Biso   1.000  O
  O24      1.0000 0.75396  0.60255  0.00345  Biso   1.000  O
  O25      1.0000 0.24491  0.35827  0.02410  Biso   1.000  O
  O26      1.0000 0.25538  0.84492  0.00120  Biso   1.000  O
  O27      1.0000 0.74527  0.35407  0.00676  Biso   1.000  O
  O28      1.0000 0.74049  0.85095  0.02026  Biso   1.000  O
  O29      1.0000 0.25143  0.39778  0.51862  Biso   1.000  O
  O30      1.0000 0.26694  0.87775  0.53549  Biso   1.000  O
  O31      1.0000 0.75395  0.39729  0.50368  Biso   1.000  O
  O32      1.0000 0.75068  0.89766  0.51199  Biso   1.000  O
