data_image0
_cell_length_a       5.19328
_cell_length_b       10.4256
_cell_length_c       10.3052
_cell_angle_alpha    88.9952
_cell_angle_beta     94.5166
_cell_angle_gamma    90.4894

_symmetry_space_group_name_H-M    "P 1"
_symmetry_int_tables_number       1

loop_
  _symmetry_equiv_pos_as_xyz
  'x, y, z'

loop_
  _atom_site_label
  _atom_site_occupancy
  _atom_site_fract_x
  _atom_site_fract_y
  _atom_site_fract_z
  _atom_site_thermal_displace_type
  _atom_site_B_iso_or_equiv
  _atom_site_type_symbol
  Zr1      1.0000 0.28839  0.97219  0.09638  Biso   1.000  Zr
  Zr2      1.0000 0.21417  0.22290  0.39701  Biso   1.000  Zr
  Zr3      1.0000 0.54056  0.24064  0.18897  Biso   1.000  Zr
  Zr4      1.0000 0.75172  0.49833  0.40434  Biso   1.000  Zr
  O1       1.0000 0.86549  0.15358  0.26612  Biso   1.000  O
  O2       1.0000 0.06143  0.05495  0.47076  Biso   1.000  O
  O3       1.0000 0.71282  0.41757  0.22451  Biso   1.000  O
  O4       1.0000 0.92306  0.32401  0.45744  Biso   1.000  O
  O5       1.0000 0.36009  0.08503  0.26077  Biso   1.000  O
  O6       1.0000 0.54803  0.13841  0.50583  Biso   1.000  O
  O7       1.0000 0.45796  0.38671  0.49584  Biso   1.000  O
  O8       1.0000 0.23408  0.36218  0.23953  Biso   1.000  O
  Zr5      1.0000 0.29885  0.01301  0.62714  Biso   1.000  Zr
  Zr6      1.0000 0.32909  0.23630  0.84830  Biso   1.000  Zr
  Zr7      1.0000 0.76785  0.27545  0.62972  Biso   1.000  Zr
  Zr8      1.0000 0.82278  0.52237  0.81996  Biso   1.000  Zr
  O9       1.0000 0.13086  0.18664  0.66984  Biso   1.000  O
  O10      1.0000 0.08751  0.08856  0.94185  Biso   1.000  O
  O11      1.0000 0.90140  0.47531  0.62724  Biso   1.000  O
  O12      1.0000 0.97591  0.33954  0.82134  Biso   1.000  O
  O13      1.0000 0.59042  0.12352  0.75547  Biso   1.000  O
  O14      1.0000 0.56533  0.10784  0.01738  Biso   1.000  O
  O15      1.0000 0.43238  0.34837  0.01148  Biso   1.000  O
  O16      1.0000 0.50122  0.38555  0.74509  Biso   1.000  O
  Zr9      1.0000 0.37624  0.51650  0.13045  Biso   1.000  Zr
  Zr10     1.0000 0.26686  0.75417  0.36172  Biso   1.000  Zr
  Zr11     1.0000 0.79149  0.75550  0.13458  Biso   1.000  Zr
  Zr12     1.0000 0.74582  0.99237  0.36886  Biso   1.000  Zr
  O17      1.0000 0.11844  0.65775  0.19212  Biso   1.000  O
  O18      1.0000 0.09799  0.58533  0.43308  Biso   1.000  O
  O19      1.0000 0.01957  0.89621  0.23179  Biso   1.000  O
  O20      1.0000 0.95437  0.81893  0.46543  Biso   1.000  O
  O21      1.0000 0.58991  0.63474  0.26016  Biso   1.000  O
  O22      1.0000 0.54131  0.64481  0.49951  Biso   1.000  O
  O23      1.0000 0.48211  0.89286  0.49348  Biso   1.000  O
  O24      1.0000 0.53152  0.86435  0.23834  Biso   1.000  O
  Zr13     1.0000 0.29268  0.51942  0.60371  Biso   1.000  Zr
  Zr14     1.0000 0.31427  0.72278  0.88284  Biso   1.000  Zr
  Zr15     1.0000 0.74603  0.78199  0.62295  Biso   1.000  Zr
  Zr16     1.0000 0.76968  0.98206  0.87839  Biso   1.000  Zr
  O25      1.0000 0.02822  0.67575  0.73582  Biso   1.000  O
  O26      1.0000 0.12584  0.56036  0.95618  Biso   1.000  O
  O27      1.0000 0.96719  0.93337  0.71429  Biso   1.000  O
  O28      1.0000 0.03490  0.83847  0.98003  Biso   1.000  O
  O29      1.0000 0.51847  0.63339  0.73781  Biso   1.000  O
  O30      1.0000 0.61497  0.61537  0.99432  Biso   1.000  O
  O31      1.0000 0.54069  0.86035  0.99497  Biso   1.000  O
  O32      1.0000 0.49256  0.87127  0.75108  Biso   1.000  O
  Ba1      1.0000 0.94432  0.29250  0.04756  Biso   1.000  Ba
