data_image0
_cell_length_a       10.2504
_cell_length_b       5.2256
_cell_length_c       10.5184
_cell_angle_alpha    90.2117
_cell_angle_beta     81.165
_cell_angle_gamma    90.5278

_symmetry_space_group_name_H-M    "P 1"
_symmetry_int_tables_number       1

loop_
  _symmetry_equiv_pos_as_xyz
  'x, y, z'

loop_
  _atom_site_label
  _atom_site_occupancy
  _atom_site_fract_x
  _atom_site_fract_y
  _atom_site_fract_z
  _atom_site_thermal_displace_type
  _atom_site_B_iso_or_equiv
  _atom_site_type_symbol
  Ba1      1.0000 0.11422  0.99802  0.12714  Biso   1.000  Ba
  Zr1      1.0000 0.14126  0.04321  0.64394  Biso   1.000  Zr
  Zr2      1.0000 0.64052  0.03661  0.14668  Biso   1.000  Zr
  Zr3      1.0000 0.63960  0.04248  0.64783  Biso   1.000  Zr
  Zr4      1.0000 0.14029  0.44853  0.39254  Biso   1.000  Zr
  Zr5      1.0000 0.14213  0.46601  0.89097  Biso   1.000  Zr
  Zr6      1.0000 0.63181  0.45321  0.40024  Biso   1.000  Zr
  Zr7      1.0000 0.64364  0.46008  0.89389  Biso   1.000  Zr
  Zr8      1.0000 0.36694  0.52152  0.10632  Biso   1.000  Zr
  Zr9      1.0000 0.36002  0.54318  0.60254  Biso   1.000  Zr
  Zr10     1.0000 0.85558  0.52638  0.10265  Biso   1.000  Zr
  Zr11     1.0000 0.86574  0.54408  0.60534  Biso   1.000  Zr
  Zr12     1.0000 0.35827  0.95476  0.35078  Biso   1.000  Zr
  Zr13     1.0000 0.36917  0.95755  0.85046  Biso   1.000  Zr
  Zr14     1.0000 0.85169  0.96293  0.36974  Biso   1.000  Zr
  Zr15     1.0000 0.86346  0.95854  0.85405  Biso   1.000  Zr
  O1       1.0000 0.04323  0.43998  0.08871  Biso   1.000  O
  O2       1.0000 0.03916  0.34946  0.58584  Biso   1.000  O
  O3       1.0000 0.54223  0.33166  0.07847  Biso   1.000  O
  O4       1.0000 0.53287  0.33448  0.58180  Biso   1.000  O
  O5       1.0000 0.02569  0.15422  0.34615  Biso   1.000  O
  O6       1.0000 0.04078  0.15353  0.83823  Biso   1.000  O
  O7       1.0000 0.53436  0.15665  0.33049  Biso   1.000  O
  O8       1.0000 0.54203  0.15869  0.82943  Biso   1.000  O
  O9       1.0000 0.46991  0.82885  0.16870  Biso   1.000  O
  O10      1.0000 0.46647  0.83749  0.66815  Biso   1.000  O
  O11      1.0000 0.89946  0.88537  0.17070  Biso   1.000  O
  O12      1.0000 0.96423  0.85145  0.66660  Biso   1.000  O
  O13      1.0000 0.46428  0.65996  0.42104  Biso   1.000  O
  O14      1.0000 0.47801  0.66408  0.91544  Biso   1.000  O
  O15      1.0000 0.96203  0.65760  0.41568  Biso   1.000  O
  O16      1.0000 0.96387  0.66201  0.91360  Biso   1.000  O
  O17      1.0000 0.28054  0.24665  0.24492  Biso   1.000  O
  O18      1.0000 0.27734  0.26064  0.73698  Biso   1.000  O
  O19      1.0000 0.76861  0.27435  0.24832  Biso   1.000  O
  O20      1.0000 0.77972  0.26165  0.74142  Biso   1.000  O
  O21      1.0000 0.27404  0.24052  0.49079  Biso   1.000  O
  O22      1.0000 0.28302  0.24488  0.97867  Biso   1.000  O
  O23      1.0000 0.77100  0.24476  0.49712  Biso   1.000  O
  O24      1.0000 0.77971  0.23751  0.99158  Biso   1.000  O
  O25      1.0000 0.25429  0.72944  0.99172  Biso   1.000  O
  O26      1.0000 0.22431  0.75945  0.50856  Biso   1.000  O
  O27      1.0000 0.72501  0.75424  0.00802  Biso   1.000  O
  O28      1.0000 0.72329  0.75653  0.51470  Biso   1.000  O
  O29      1.0000 0.23781  0.70897  0.26120  Biso   1.000  O
  O30      1.0000 0.22529  0.74512  0.75561  Biso   1.000  O
  O31      1.0000 0.71428  0.74983  0.26788  Biso   1.000  O
  O32      1.0000 0.72879  0.74285  0.75837  Biso   1.000  O
