data_image0
_cell_length_a       10.2447
_cell_length_b       10.478
_cell_length_c       5.3075
_cell_angle_alpha    89.4679
_cell_angle_beta     80.8312
_cell_angle_gamma    90.4626

_symmetry_space_group_name_H-M    "P 1"
_symmetry_int_tables_number       1

loop_
  _symmetry_equiv_pos_as_xyz
  'x, y, z'

loop_
  _atom_site_label
  _atom_site_occupancy
  _atom_site_fract_x
  _atom_site_fract_y
  _atom_site_fract_z
  _atom_site_thermal_displace_type
  _atom_site_B_iso_or_equiv
  _atom_site_type_symbol
  Ba1      1.0000 0.09821  0.99502  0.26804  Biso   1.000  Ba
  Zr1      1.0000 0.14635  0.52052  0.28426  Biso   1.000  Zr
  Zr2      1.0000 0.63732  0.03073  0.30034  Biso   1.000  Zr
  Zr3      1.0000 0.63253  0.51273  0.28857  Biso   1.000  Zr
  Zr4      1.0000 0.13967  0.23076  0.79012  Biso   1.000  Zr
  Zr5      1.0000 0.15602  0.72697  0.77642  Biso   1.000  Zr
  Zr6      1.0000 0.63750  0.23478  0.79614  Biso   1.000  Zr
  Zr7      1.0000 0.63152  0.72091  0.78558  Biso   1.000  Zr
  Zr8      1.0000 0.35221  0.26125  0.20716  Biso   1.000  Zr
  Zr9      1.0000 0.37077  0.77377  0.20118  Biso   1.000  Zr
  Zr10     1.0000 0.86565  0.27969  0.21055  Biso   1.000  Zr
  Zr11     1.0000 0.87008  0.73817  0.15568  Biso   1.000  Zr
  Zr12     1.0000 0.36041  0.47282  0.70367  Biso   1.000  Zr
  Zr13     1.0000 0.36133  0.98466  0.69782  Biso   1.000  Zr
  Zr14     1.0000 0.86645  0.47853  0.69420  Biso   1.000  Zr
  Zr15     1.0000 0.85599  0.99065  0.77146  Biso   1.000  Zr
  O1       1.0000 0.04117  0.20981  0.17505  Biso   1.000  O
  O2       1.0000 0.05412  0.68520  0.17005  Biso   1.000  O
  O3       1.0000 0.53185  0.16760  0.15501  Biso   1.000  O
  O4       1.0000 0.53756  0.66128  0.14333  Biso   1.000  O
  O5       1.0000 0.02779  0.07698  0.74062  Biso   1.000  O
  O6       1.0000 0.03853  0.58353  0.66254  Biso   1.000  O
  O7       1.0000 0.53918  0.08731  0.65378  Biso   1.000  O
  O8       1.0000 0.53111  0.58088  0.64690  Biso   1.000  O
  O9       1.0000 0.46355  0.41036  0.34257  Biso   1.000  O
  O10      1.0000 0.47594  0.91577  0.34327  Biso   1.000  O
  O11      1.0000 0.95787  0.44426  0.31722  Biso   1.000  O
  O12      1.0000 0.86216  0.88373  0.42855  Biso   1.000  O
  O13      1.0000 0.46746  0.33396  0.84168  Biso   1.000  O
  O14      1.0000 0.48575  0.84260  0.83782  Biso   1.000  O
  O15      1.0000 0.95991  0.33103  0.81868  Biso   1.000  O
  O16      1.0000 0.97852  0.83725  0.85050  Biso   1.000  O
  O17      1.0000 0.27646  0.13157  0.48893  Biso   1.000  O
  O18      1.0000 0.28198  0.62406  0.46880  Biso   1.000  O
  O19      1.0000 0.78384  0.13203  0.49841  Biso   1.000  O
  O20      1.0000 0.76746  0.63429  0.46816  Biso   1.000  O
  O21      1.0000 0.28201  0.12642  0.96281  Biso   1.000  O
  O22      1.0000 0.28138  0.61600  0.97146  Biso   1.000  O
  O23      1.0000 0.77136  0.12947  0.00786  Biso   1.000  O
  O24      1.0000 0.77465  0.61443  0.96079  Biso   1.000  O
  O25      1.0000 0.22644  0.38107  0.01153  Biso   1.000  O
  O26      1.0000 0.25073  0.86508  0.98111  Biso   1.000  O
  O27      1.0000 0.72355  0.38112  0.01597  Biso   1.000  O
  O28      1.0000 0.73321  0.87737  0.04283  Biso   1.000  O
  O29      1.0000 0.22015  0.37276  0.51173  Biso   1.000  O
  O30      1.0000 0.24188  0.85919  0.51045  Biso   1.000  O
  O31      1.0000 0.72515  0.37347  0.51647  Biso   1.000  O
  O32      1.0000 0.72375  0.88602  0.54650  Biso   1.000  O
