data_image0
_cell_length_a       10.1448
_cell_length_b       10.3499
_cell_length_c       10.6195
_cell_angle_alpha    89.9885
_cell_angle_beta     90.8289
_cell_angle_gamma    90.1808

_symmetry_space_group_name_H-M    "P 1"
_symmetry_int_tables_number       1

loop_
  _symmetry_equiv_pos_as_xyz
  'x, y, z'

loop_
  _atom_site_label
  _atom_site_occupancy
  _atom_site_fract_x
  _atom_site_fract_y
  _atom_site_fract_z
  _atom_site_thermal_displace_type
  _atom_site_B_iso_or_equiv
  _atom_site_type_symbol
  Zr1      1.0000 0.13996  0.02039  0.17227  Biso   1.000  Zr
  Zr2      1.0000 0.13715  0.22726  0.42744  Biso   1.000  Zr
  Zr3      1.0000 0.34292  0.27440  0.19143  Biso   1.000  Zr
  Zr4      1.0000 0.36230  0.47940  0.42407  Biso   1.000  Zr
  Zr5      1.0000 0.64006  0.00433  0.08065  Biso   1.000  Zr
  Zr6      1.0000 0.63429  0.22057  0.33143  Biso   1.000  Zr
  Zr7      1.0000 0.87158  0.27139  0.07539  Biso   1.000  Zr
  Zr8      1.0000 0.85843  0.47775  0.32630  Biso   1.000  Zr
  O1       1.0000 0.03676  0.16193  0.08037  Biso   1.000  O
  O2       1.0000 0.02894  0.08995  0.32939  Biso   1.000  O
  O3       1.0000 0.44216  0.44584  0.10645  Biso   1.000  O
  O4       1.0000 0.46459  0.33190  0.33870  Biso   1.000  O
  O5       1.0000 0.26783  0.12475  0.30324  Biso   1.000  O
  O6       1.0000 0.28253  0.12819  0.04710  Biso   1.000  O
  O7       1.0000 0.21575  0.37820  0.30599  Biso   1.000  O
  O8       1.0000 0.21855  0.37666  0.04919  Biso   1.000  O
  O9       1.0000 0.51728  0.11992  0.20249  Biso   1.000  O
  O10      1.0000 0.52818  0.08942  0.43418  Biso   1.000  O
  O11      1.0000 0.96827  0.41293  0.17109  Biso   1.000  O
  O12      1.0000 0.96928  0.33881  0.41956  Biso   1.000  O
  O13      1.0000 0.77506  0.12266  0.45099  Biso   1.000  O
  O14      1.0000 0.77186  0.12874  0.19988  Biso   1.000  O
  O15      1.0000 0.72547  0.37453  0.45284  Biso   1.000  O
  O16      1.0000 0.71865  0.37663  0.20121  Biso   1.000  O
  Zr9      1.0000 0.14024  0.02070  0.67353  Biso   1.000  Zr
  Zr10     1.0000 0.14428  0.22876  0.92168  Biso   1.000  Zr
  Zr11     1.0000 0.36333  0.27312  0.67414  Biso   1.000  Zr
  Zr12     1.0000 0.35752  0.48662  0.92633  Biso   1.000  Zr
  Zr13     1.0000 0.64148  0.01609  0.57713  Biso   1.000  Zr
  Zr14     1.0000 0.65277  0.22669  0.80112  Biso   1.000  Zr
  Zr15     1.0000 0.86510  0.27325  0.57304  Biso   1.000  Zr
  Zr16     1.0000 0.86695  0.48053  0.82817  Biso   1.000  Zr
  O17      1.0000 0.03088  0.16048  0.58060  Biso   1.000  O
  O18      1.0000 0.03495  0.08692  0.83131  Biso   1.000  O
  O19      1.0000 0.47171  0.41299  0.58095  Biso   1.000  O
  O20      1.0000 0.47347  0.34042  0.82853  Biso   1.000  O
  O21      1.0000 0.27788  0.12489  0.79638  Biso   1.000  O
  O22      1.0000 0.27477  0.12456  0.54932  Biso   1.000  O
  O23      1.0000 0.22767  0.37486  0.79901  Biso   1.000  O
  O24      1.0000 0.22687  0.37497  0.55053  Biso   1.000  O
  O25      1.0000 0.53178  0.16011  0.66503  Biso   1.000  O
  O26      1.0000 0.53689  0.07008  0.90643  Biso   1.000  O
  O27      1.0000 0.97278  0.41141  0.66987  Biso   1.000  O
  O28      1.0000 0.97579  0.33623  0.91813  Biso   1.000  O
  O29      1.0000 0.77601  0.12606  0.94937  Biso   1.000  O
  O30      1.0000 0.78498  0.11981  0.69458  Biso   1.000  O
  O31      1.0000 0.74071  0.38441  0.95138  Biso   1.000  O
  O32      1.0000 0.73183  0.37710  0.69844  Biso   1.000  O
  Zr17     1.0000 0.13838  0.52381  0.17309  Biso   1.000  Zr
  Zr18     1.0000 0.13756  0.72835  0.42217  Biso   1.000  Zr
  Zr19     1.0000 0.35963  0.77264  0.17481  Biso   1.000  Zr
  Zr20     1.0000 0.36232  0.97818  0.42577  Biso   1.000  Zr
  Zr21     1.0000 0.63986  0.53665  0.07973  Biso   1.000  Zr
  Zr22     1.0000 0.63956  0.73078  0.33114  Biso   1.000  Zr
  Zr23     1.0000 0.86530  0.77073  0.07894  Biso   1.000  Zr
  Zr24     1.0000 0.86392  0.98051  0.32820  Biso   1.000  Zr
  O33      1.0000 0.03180  0.66226  0.08031  Biso   1.000  O
  O34      1.0000 0.02906  0.58871  0.33052  Biso   1.000  O
  O35      1.0000 0.46899  0.90274  0.07529  Biso   1.000  O
  O36      1.0000 0.46993  0.83996  0.33294  Biso   1.000  O
  O37      1.0000 0.27286  0.62684  0.29657  Biso   1.000  O
  O38      1.0000 0.27199  0.63150  0.04456  Biso   1.000  O
  O39      1.0000 0.22528  0.87550  0.29725  Biso   1.000  O
  O40      1.0000 0.22360  0.87844  0.04767  Biso   1.000  O
  O41      1.0000 0.53476  0.67290  0.17098  Biso   1.000  O
  O42      1.0000 0.53151  0.58801  0.41793  Biso   1.000  O
  O43      1.0000 0.96990  0.91469  0.16907  Biso   1.000  O
  O44      1.0000 0.96931  0.83871  0.42021  Biso   1.000  O
  O45      1.0000 0.77607  0.62452  0.45410  Biso   1.000  O
  O46      1.0000 0.77806  0.62780  0.20606  Biso   1.000  O
  O47      1.0000 0.72709  0.87430  0.45633  Biso   1.000  O
  O48      1.0000 0.73022  0.87241  0.20766  Biso   1.000  O
  Zr25     1.0000 0.14082  0.52055  0.67233  Biso   1.000  Zr
  Zr26     1.0000 0.13914  0.73189  0.92115  Biso   1.000  Zr
  Zr27     1.0000 0.36286  0.76920  0.67185  Biso   1.000  Zr
  Zr28     1.0000 0.36418  0.97572  0.92008  Biso   1.000  Zr
  Zr29     1.0000 0.64074  0.52209  0.57569  Biso   1.000  Zr
  Zr30     1.0000 0.64081  0.72808  0.82581  Biso   1.000  Zr
  Zr31     1.0000 0.86479  0.77077  0.57994  Biso   1.000  Zr
  Zr32     1.0000 0.86403  0.97967  0.83025  Biso   1.000  Zr
  O49      1.0000 0.03326  0.66204  0.58110  Biso   1.000  O
  O50      1.0000 0.03513  0.58851  0.83129  Biso   1.000  O
  O51      1.0000 0.47155  0.90765  0.58194  Biso   1.000  O
  O52      1.0000 0.46858  0.83072  0.83022  Biso   1.000  O
  O53      1.0000 0.27579  0.62575  0.79558  Biso   1.000  O
  O54      1.0000 0.27524  0.62433  0.54551  Biso   1.000  O
  O55      1.0000 0.22658  0.87413  0.79580  Biso   1.000  O
  O56      1.0000 0.22632  0.87506  0.54679  Biso   1.000  O
  O57      1.0000 0.53313  0.66073  0.66789  Biso   1.000  O
  O58      1.0000 0.53235  0.58685  0.92014  Biso   1.000  O
  O59      1.0000 0.97159  0.91064  0.67132  Biso   1.000  O
  O60      1.0000 0.97078  0.83924  0.92091  Biso   1.000  O
  O61      1.0000 0.77794  0.62953  0.95224  Biso   1.000  O
  O62      1.0000 0.77776  0.62500  0.70324  Biso   1.000  O
  O63      1.0000 0.72862  0.87239  0.95577  Biso   1.000  O
  O64      1.0000 0.72826  0.87314  0.70692  Biso   1.000  O
  Ba1      1.0000 0.55720  0.26374  0.03407  Biso   1.000  Ba
