data_image0
_cell_length_a       10.1276
_cell_length_b       10.3807
_cell_length_c       10.5506
_cell_angle_alpha    89.7339
_cell_angle_beta     90.3337
_cell_angle_gamma    90.2562

_symmetry_space_group_name_H-M    "P 1"
_symmetry_int_tables_number       1

loop_
  _symmetry_equiv_pos_as_xyz
  'x, y, z'

loop_
  _atom_site_label
  _atom_site_occupancy
  _atom_site_fract_x
  _atom_site_fract_y
  _atom_site_fract_z
  _atom_site_thermal_displace_type
  _atom_site_B_iso_or_equiv
  _atom_site_type_symbol
  Ba1      1.0000 0.10046  0.98796  0.14971  Biso   1.000  Ba
  Zr1      1.0000 0.13969  0.02194  0.67081  Biso   1.000  Zr
  Zr2      1.0000 0.14406  0.51870  0.17132  Biso   1.000  Zr
  Zr3      1.0000 0.14077  0.52236  0.66985  Biso   1.000  Zr
  Zr4      1.0000 0.13972  0.22651  0.42071  Biso   1.000  Zr
  Zr5      1.0000 0.13880  0.23092  0.91985  Biso   1.000  Zr
  Zr6      1.0000 0.14020  0.72870  0.42014  Biso   1.000  Zr
  Zr7      1.0000 0.15183  0.72764  0.91707  Biso   1.000  Zr
  Zr8      1.0000 0.35291  0.26110  0.17020  Biso   1.000  Zr
  Zr9      1.0000 0.36043  0.27095  0.67058  Biso   1.000  Zr
  Zr10     1.0000 0.37111  0.76926  0.17053  Biso   1.000  Zr
  Zr11     1.0000 0.36041  0.77243  0.66716  Biso   1.000  Zr
  Zr12     1.0000 0.35998  0.47627  0.41930  Biso   1.000  Zr
  Zr13     1.0000 0.36197  0.47533  0.92120  Biso   1.000  Zr
  Zr14     1.0000 0.36038  0.98057  0.41630  Biso   1.000  Zr
  Zr15     1.0000 0.36639  0.98142  0.91871  Biso   1.000  Zr
  Zr16     1.0000 0.64052  0.02956  0.07716  Biso   1.000  Zr
  Zr17     1.0000 0.63334  0.02149  0.58519  Biso   1.000  Zr
  Zr18     1.0000 0.63295  0.51409  0.07980  Biso   1.000  Zr
  Zr19     1.0000 0.63877  0.52027  0.57865  Biso   1.000  Zr
  Zr20     1.0000 0.63513  0.23349  0.33045  Biso   1.000  Zr
  Zr21     1.0000 0.64132  0.23122  0.82849  Biso   1.000  Zr
  Zr22     1.0000 0.63932  0.72307  0.33326  Biso   1.000  Zr
  Zr23     1.0000 0.63419  0.72925  0.82545  Biso   1.000  Zr
  Zr24     1.0000 0.86324  0.27650  0.07879  Biso   1.000  Zr
  Zr25     1.0000 0.86444  0.27436  0.58043  Biso   1.000  Zr
  Zr26     1.0000 0.86646  0.74102  0.05688  Biso   1.000  Zr
  Zr27     1.0000 0.86339  0.77046  0.58130  Biso   1.000  Zr
  Zr28     1.0000 0.86400  0.48098  0.32889  Biso   1.000  Zr
  Zr29     1.0000 0.86316  0.47680  0.82448  Biso   1.000  Zr
  Zr30     1.0000 0.85401  0.99325  0.35718  Biso   1.000  Zr
  Zr31     1.0000 0.86134  0.97935  0.83071  Biso   1.000  Zr
  O1       1.0000 0.03625  0.19749  0.08628  Biso   1.000  O
  O2       1.0000 0.03619  0.17457  0.59470  Biso   1.000  O
  O3       1.0000 0.04868  0.68342  0.09344  Biso   1.000  O
  O4       1.0000 0.03609  0.67034  0.58723  Biso   1.000  O
  O5       1.0000 0.02274  0.08196  0.36051  Biso   1.000  O
  O6       1.0000 0.03668  0.07836  0.84165  Biso   1.000  O
  O7       1.0000 0.03748  0.58167  0.33622  Biso   1.000  O
  O8       1.0000 0.03366  0.58489  0.83759  Biso   1.000  O
  O9       1.0000 0.46708  0.40848  0.08150  Biso   1.000  O
  O10      1.0000 0.46874  0.41325  0.58098  Biso   1.000  O
  O11      1.0000 0.48054  0.91383  0.07946  Biso   1.000  O
  O12      1.0000 0.46646  0.91353  0.57909  Biso   1.000  O
  O13      1.0000 0.46564  0.33680  0.33040  Biso   1.000  O
  O14      1.0000 0.46947  0.33569  0.83022  Biso   1.000  O
  O15      1.0000 0.48385  0.84363  0.32567  Biso   1.000  O
  O16      1.0000 0.47061  0.83896  0.82542  Biso   1.000  O
  O17      1.0000 0.27683  0.12642  0.30076  Biso   1.000  O
  O18      1.0000 0.27569  0.12440  0.79071  Biso   1.000  O
  O19      1.0000 0.28074  0.61863  0.29302  Biso   1.000  O
  O20      1.0000 0.27847  0.62376  0.79230  Biso   1.000  O
  O21      1.0000 0.28404  0.12910  0.03323  Biso   1.000  O
  O22      1.0000 0.27572  0.12508  0.54469  Biso   1.000  O
  O23      1.0000 0.27756  0.61703  0.04380  Biso   1.000  O
  O24      1.0000 0.27574  0.62574  0.54293  Biso   1.000  O
  O25      1.0000 0.22115  0.37199  0.29317  Biso   1.000  O
  O26      1.0000 0.22495  0.37508  0.79330  Biso   1.000  O
  O27      1.0000 0.24022  0.85900  0.29963  Biso   1.000  O
  O28      1.0000 0.22640  0.87377  0.78993  Biso   1.000  O
  O29      1.0000 0.22442  0.37582  0.04391  Biso   1.000  O
  O30      1.0000 0.22443  0.37684  0.54389  Biso   1.000  O
  O31      1.0000 0.25479  0.85673  0.02938  Biso   1.000  O
  O32      1.0000 0.22331  0.87797  0.54342  Biso   1.000  O
  O33      1.0000 0.53301  0.16609  0.16655  Biso   1.000  O
  O34      1.0000 0.53148  0.16515  0.66849  Biso   1.000  O
  O35      1.0000 0.53554  0.65849  0.17191  Biso   1.000  O
  O36      1.0000 0.53103  0.66377  0.66537  Biso   1.000  O
  O37      1.0000 0.53379  0.08603  0.41808  Biso   1.000  O
  O38      1.0000 0.53902  0.08648  0.91495  Biso   1.000  O
  O39      1.0000 0.53199  0.58590  0.41900  Biso   1.000  O
  O40      1.0000 0.52938  0.58722  0.92001  Biso   1.000  O
  O41      1.0000 0.96088  0.43452  0.15721  Biso   1.000  O
  O42      1.0000 0.96660  0.42436  0.66055  Biso   1.000  O
  O43      1.0000 0.85868  0.90153  0.17551  Biso   1.000  O
  O44      1.0000 0.96529  0.91869  0.66685  Biso   1.000  O
  O45      1.0000 0.96549  0.33304  0.41367  Biso   1.000  O
  O46      1.0000 0.96307  0.33176  0.90501  Biso   1.000  O
  O47      1.0000 0.96594  0.83375  0.41275  Biso   1.000  O
  O48      1.0000 0.97970  0.84052  0.92519  Biso   1.000  O
  O49      1.0000 0.78075  0.12446  0.95838  Biso   1.000  O
  O50      1.0000 0.76804  0.13066  0.46709  Biso   1.000  O
  O51      1.0000 0.77167  0.61441  0.94906  Biso   1.000  O
  O52      1.0000 0.77761  0.62407  0.45592  Biso   1.000  O
  O53      1.0000 0.77696  0.13165  0.21426  Biso   1.000  O
  O54      1.0000 0.77642  0.12641  0.71018  Biso   1.000  O
  O55      1.0000 0.77615  0.63070  0.20447  Biso   1.000  O
  O56      1.0000 0.77431  0.62710  0.70408  Biso   1.000  O
  O57      1.0000 0.72305  0.37429  0.95348  Biso   1.000  O
  O58      1.0000 0.72503  0.37757  0.45476  Biso   1.000  O
  O59      1.0000 0.72982  0.86759  0.95483  Biso   1.000  O
  O60      1.0000 0.72416  0.87429  0.46413  Biso   1.000  O
  O61      1.0000 0.72431  0.37901  0.20644  Biso   1.000  O
  O62      1.0000 0.72628  0.37534  0.70304  Biso   1.000  O
  O63      1.0000 0.72082  0.88824  0.21347  Biso   1.000  O
  O64      1.0000 0.72542  0.87589  0.70768  Biso   1.000  O
