data_image0
_cell_length_a       5.13668
_cell_length_b       10.4332
_cell_length_c       10.6765
_cell_angle_alpha    89.292
_cell_angle_beta     80.7461
_cell_angle_gamma    90.4481

_symmetry_space_group_name_H-M    "P 1"
_symmetry_int_tables_number       1

loop_
  _symmetry_equiv_pos_as_xyz
  'x, y, z'

loop_
  _atom_site_label
  _atom_site_occupancy
  _atom_site_fract_x
  _atom_site_fract_y
  _atom_site_fract_z
  _atom_site_thermal_displace_type
  _atom_site_B_iso_or_equiv
  _atom_site_type_symbol
  Ba1      1.0000 0.21184  0.98644  0.13096  Biso   1.000  Ba
  Zr1      1.0000 0.27829  0.02680  0.65211  Biso   1.000  Zr
  Zr2      1.0000 0.27361  0.50974  0.14477  Biso   1.000  Zr
  Zr3      1.0000 0.28479  0.52307  0.64281  Biso   1.000  Zr
  Zr4      1.0000 0.27032  0.23074  0.39711  Biso   1.000  Zr
  Zr5      1.0000 0.28174  0.23196  0.89796  Biso   1.000  Zr
  Zr6      1.0000 0.26606  0.72125  0.39792  Biso   1.000  Zr
  Zr7      1.0000 0.30006  0.72999  0.88316  Biso   1.000  Zr
  Zr8      1.0000 0.71468  0.26360  0.10492  Biso   1.000  Zr
  Zr9      1.0000 0.72528  0.27576  0.60588  Biso   1.000  Zr
  Zr10     1.0000 0.74559  0.73287  0.07432  Biso   1.000  Zr
  Zr11     1.0000 0.73008  0.77700  0.60223  Biso   1.000  Zr
  Zr12     1.0000 0.71679  0.47924  0.35275  Biso   1.000  Zr
  Zr13     1.0000 0.73508  0.47203  0.84772  Biso   1.000  Zr
  Zr14     1.0000 0.70991  0.99871  0.37877  Biso   1.000  Zr
  Zr15     1.0000 0.73265  0.98145  0.85477  Biso   1.000  Zr
  O1       1.0000 0.06915  0.19206  0.07642  Biso   1.000  O
  O2       1.0000 0.06475  0.17241  0.58500  Biso   1.000  O
  O3       1.0000 0.10861  0.67283  0.07542  Biso   1.000  O
  O4       1.0000 0.07011  0.66616  0.57447  Biso   1.000  O
  O5       1.0000 0.05805  0.08559  0.34881  Biso   1.000  O
  O6       1.0000 0.08162  0.08245  0.83262  Biso   1.000  O
  O7       1.0000 0.06436  0.58284  0.32536  Biso   1.000  O
  O8       1.0000 0.06810  0.58859  0.82428  Biso   1.000  O
  O9       1.0000 0.91192  0.42650  0.16764  Biso   1.000  O
  O10      1.0000 0.93710  0.42168  0.66725  Biso   1.000  O
  O11      1.0000 0.72972  0.88575  0.20167  Biso   1.000  O
  O12      1.0000 0.94209  0.91427  0.67752  Biso   1.000  O
  O13      1.0000 0.92568  0.33674  0.42135  Biso   1.000  O
  O14      1.0000 0.93385  0.33386  0.91299  Biso   1.000  O
  O15      1.0000 0.94487  0.83985  0.42124  Biso   1.000  O
  O16      1.0000 0.98586  0.84876  0.93462  Biso   1.000  O
  O17      1.0000 0.57015  0.13763  0.25682  Biso   1.000  O
  O18      1.0000 0.55893  0.13149  0.74143  Biso   1.000  O
  O19      1.0000 0.54066  0.63085  0.23392  Biso   1.000  O
  O20      1.0000 0.55712  0.63227  0.73222  Biso   1.000  O
  O21      1.0000 0.53764  0.13128  0.50285  Biso   1.000  O
  O22      1.0000 0.56862  0.12214  0.98279  Biso   1.000  O
  O23      1.0000 0.55134  0.62459  0.48544  Biso   1.000  O
  O24      1.0000 0.55389  0.60571  0.97992  Biso   1.000  O
  O25      1.0000 0.45185  0.37587  0.00864  Biso   1.000  O
  O26      1.0000 0.44903  0.38399  0.50961  Biso   1.000  O
  O27      1.0000 0.51148  0.85223  0.98483  Biso   1.000  O
  O28      1.0000 0.45632  0.88651  0.51890  Biso   1.000  O
  O29      1.0000 0.43657  0.37470  0.26095  Biso   1.000  O
  O30      1.0000 0.45277  0.37410  0.75719  Biso   1.000  O
  O31      1.0000 0.47806  0.87485  0.28240  Biso   1.000  O
  O32      1.0000 0.46090  0.87516  0.75524  Biso   1.000  O
