data_image0
_cell_length_a       10.0204
_cell_length_b       10.3631
_cell_length_c       4.9636
_cell_angle_alpha    90.0451
_cell_angle_beta     89.9515
_cell_angle_gamma    90.336

_symmetry_space_group_name_H-M    "P 1"
_symmetry_int_tables_number       1

loop_
  _symmetry_equiv_pos_as_xyz
  'x, y, z'

loop_
  _atom_site_label
  _atom_site_occupancy
  _atom_site_fract_x
  _atom_site_fract_y
  _atom_site_fract_z
  _atom_site_thermal_displace_type
  _atom_site_B_iso_or_equiv
  _atom_site_type_symbol
  Be1      1.0000 0.03978  0.04704  0.23419  Biso   1.000  Be
  Hf1      1.0000 0.13598  0.51400  0.25484  Biso   1.000  Hf
  Hf2      1.0000 0.63471  0.01486  0.24649  Biso   1.000  Hf
  Hf3      1.0000 0.63512  0.51717  0.25278  Biso   1.000  Hf
  Hf4      1.0000 0.13525  0.22593  0.75531  Biso   1.000  Hf
  Hf5      1.0000 0.13639  0.73255  0.75714  Biso   1.000  Hf
  Hf6      1.0000 0.63424  0.23231  0.74998  Biso   1.000  Hf
  Hf7      1.0000 0.63788  0.73460  0.75043  Biso   1.000  Hf
  Hf8      1.0000 0.36449  0.26454  0.25731  Biso   1.000  Hf
  Hf9      1.0000 0.36557  0.76617  0.25543  Biso   1.000  Hf
  Hf10     1.0000 0.86493  0.26818  0.25164  Biso   1.000  Hf
  Hf11     1.0000 0.87256  0.76818  0.24805  Biso   1.000  Hf
  Hf12     1.0000 0.36539  0.48152  0.75510  Biso   1.000  Hf
  Hf13     1.0000 0.36125  0.98137  0.75618  Biso   1.000  Hf
  Hf14     1.0000 0.86704  0.48405  0.75220  Biso   1.000  Hf
  Hf15     1.0000 0.86930  0.98472  0.74375  Biso   1.000  Hf
  O1       1.0000 0.03097  0.17671  0.39828  Biso   1.000  O
  O2       1.0000 0.03977  0.68407  0.38570  Biso   1.000  O
  O3       1.0000 0.53991  0.18541  0.38046  Biso   1.000  O
  O4       1.0000 0.53798  0.68294  0.39147  Biso   1.000  O
  O5       1.0000 0.03108  0.06739  0.92126  Biso   1.000  O
  O6       1.0000 0.03706  0.56391  0.89147  Biso   1.000  O
  O7       1.0000 0.53761  0.06455  0.88421  Biso   1.000  O
  O8       1.0000 0.53733  0.56564  0.88829  Biso   1.000  O
  O9       1.0000 0.46477  0.43365  0.38997  Biso   1.000  O
  O10      1.0000 0.46864  0.93331  0.39538  Biso   1.000  O
  O11      1.0000 0.96449  0.43292  0.38923  Biso   1.000  O
  O12      1.0000 0.96484  0.93822  0.37816  Biso   1.000  O
  O13      1.0000 0.46662  0.31617  0.88905  Biso   1.000  O
  O14      1.0000 0.47247  0.81751  0.89971  Biso   1.000  O
  O15      1.0000 0.96565  0.31616  0.88942  Biso   1.000  O
  O16      1.0000 0.96366  0.81453  0.87564  Biso   1.000  O
  O17      1.0000 0.28266  0.12726  0.51837  Biso   1.000  O
  O18      1.0000 0.27154  0.61381  0.50174  Biso   1.000  O
  O19      1.0000 0.76954  0.11713  0.49589  Biso   1.000  O
  O20      1.0000 0.77369  0.61730  0.49762  Biso   1.000  O
  O21      1.0000 0.27910  0.13261  0.99579  Biso   1.000  O
  O22      1.0000 0.27371  0.62723  0.00231  Biso   1.000  O
  O23      1.0000 0.77130  0.13434  0.99504  Biso   1.000  O
  O24      1.0000 0.77180  0.63350  0.99895  Biso   1.000  O
  O25      1.0000 0.22974  0.37821  0.00254  Biso   1.000  O
  O26      1.0000 0.23486  0.87222  0.00522  Biso   1.000  O
  O27      1.0000 0.73072  0.38342  0.99903  Biso   1.000  O
  O28      1.0000 0.73442  0.88470  0.99317  Biso   1.000  O
  O29      1.0000 0.22705  0.36742  0.50350  Biso   1.000  O
  O30      1.0000 0.24119  0.85880  0.51968  Biso   1.000  O
  O31      1.0000 0.72993  0.36807  0.49934  Biso   1.000  O
  O32      1.0000 0.73263  0.86611  0.49288  Biso   1.000  O
