data_image0
_cell_length_a       10.1946
_cell_length_b       10.2557
_cell_length_c       5.26947
_cell_angle_alpha    90.244
_cell_angle_beta     79.1532
_cell_angle_gamma    89.9917

_symmetry_space_group_name_H-M    "P 1"
_symmetry_int_tables_number       1

loop_
  _symmetry_equiv_pos_as_xyz
  'x, y, z'

loop_
  _atom_site_label
  _atom_site_occupancy
  _atom_site_fract_x
  _atom_site_fract_y
  _atom_site_fract_z
  _atom_site_thermal_displace_type
  _atom_site_B_iso_or_equiv
  _atom_site_type_symbol
  Hf1      1.0000 0.13126  0.02101  0.28688  Biso   1.000  Hf
  Hf2      1.0000 0.14547  0.23379  0.77790  Biso   1.000  Hf
  Hf3      1.0000 0.35838  0.27253  0.24324  Biso   1.000  Hf
  Hf4      1.0000 0.35727  0.46883  0.69924  Biso   1.000  Hf
  O1       1.0000 0.03941  0.16697  0.14454  Biso   1.000  O
  O2       1.0000 0.03170  0.08556  0.65040  Biso   1.000  O
  O3       1.0000 0.46601  0.42327  0.33891  Biso   1.000  O
  O4       1.0000 0.47375  0.33247  0.86402  Biso   1.000  O
  O5       1.0000 0.26882  0.11484  0.46290  Biso   1.000  O
  O6       1.0000 0.29500  0.13166  0.94842  Biso   1.000  O
  O7       1.0000 0.22393  0.37787  0.02043  Biso   1.000  O
  O8       1.0000 0.20318  0.38055  0.50706  Biso   1.000  O
  Hf5      1.0000 0.13897  0.52399  0.28243  Biso   1.000  Hf
  Hf6      1.0000 0.13626  0.72496  0.79025  Biso   1.000  Hf
  Hf7      1.0000 0.35953  0.76907  0.20595  Biso   1.000  Hf
  Hf8      1.0000 0.35554  0.96791  0.70027  Biso   1.000  Hf
  O9       1.0000 0.02909  0.66648  0.15006  Biso   1.000  O
  O10      1.0000 0.03009  0.58888  0.64802  Biso   1.000  O
  O11      1.0000 0.46787  0.91196  0.35174  Biso   1.000  O
  O12      1.0000 0.46670  0.83756  0.84824  Biso   1.000  O
  O13      1.0000 0.27573  0.62670  0.47757  Biso   1.000  O
  O14      1.0000 0.27419  0.62289  0.97637  Biso   1.000  O
  O15      1.0000 0.22231  0.88135  0.01545  Biso   1.000  O
  O16      1.0000 0.22151  0.86632  0.51546  Biso   1.000  O
  Hf9      1.0000 0.63878  0.02246  0.29690  Biso   1.000  Hf
  Hf10     1.0000 0.65106  0.23080  0.80835  Biso   1.000  Hf
  Hf11     1.0000 0.86564  0.27324  0.21115  Biso   1.000  Hf
  Hf12     1.0000 0.86268  0.47952  0.70936  Biso   1.000  Hf
  O17      1.0000 0.53508  0.16345  0.15800  Biso   1.000  O
  O18      1.0000 0.51831  0.10599  0.64805  Biso   1.000  O
  O19      1.0000 0.96317  0.41962  0.34196  Biso   1.000  O
  O20      1.0000 0.96564  0.33644  0.84627  Biso   1.000  O
  O21      1.0000 0.77333  0.12813  0.48986  Biso   1.000  O
  O22      1.0000 0.77964  0.12015  0.99030  Biso   1.000  O
  O23      1.0000 0.72589  0.37766  0.03006  Biso   1.000  O
  O24      1.0000 0.72458  0.37187  0.52797  Biso   1.000  O
  Hf13     1.0000 0.63763  0.52389  0.29965  Biso   1.000  Hf
  Hf14     1.0000 0.63675  0.72659  0.79456  Biso   1.000  Hf
  Hf15     1.0000 0.85770  0.77163  0.20869  Biso   1.000  Hf
  Hf16     1.0000 0.86205  0.97700  0.71210  Biso   1.000  Hf
  O25      1.0000 0.53332  0.66795  0.15905  Biso   1.000  O
  O26      1.0000 0.53248  0.58207  0.66242  Biso   1.000  O
  O27      1.0000 0.96284  0.91376  0.34941  Biso   1.000  O
  O28      1.0000 0.96553  0.83588  0.84846  Biso   1.000  O
  O29      1.0000 0.77467  0.63099  0.48316  Biso   1.000  O
  O30      1.0000 0.77399  0.62179  0.98230  Biso   1.000  O
  O31      1.0000 0.72201  0.87993  0.02421  Biso   1.000  O
  O32      1.0000 0.72000  0.87407  0.52719  Biso   1.000  O
  Be1      1.0000 0.40657  0.21768  0.73478  Biso   1.000  Be
