data_image0
_cell_length_a       9.96417
_cell_length_b       10.3541
_cell_length_c       10.0067
_cell_angle_alpha    89.9664
_cell_angle_beta     89.6086
_cell_angle_gamma    90.056

_symmetry_space_group_name_H-M    "P 1"
_symmetry_int_tables_number       1

loop_
  _symmetry_equiv_pos_as_xyz
  'x, y, z'

loop_
  _atom_site_label
  _atom_site_occupancy
  _atom_site_fract_x
  _atom_site_fract_y
  _atom_site_fract_z
  _atom_site_thermal_displace_type
  _atom_site_B_iso_or_equiv
  _atom_site_type_symbol
  Be1      1.0000 0.07148  0.94545  0.04693  Biso   1.000  Be
  Hf1      1.0000 0.13502  0.01738  0.63129  Biso   1.000  Hf
  Hf2      1.0000 0.13657  0.51654  0.12786  Biso   1.000  Hf
  Hf3      1.0000 0.13461  0.51580  0.62750  Biso   1.000  Hf
  Hf4      1.0000 0.63288  0.01701  0.12266  Biso   1.000  Hf
  Hf5      1.0000 0.63096  0.01526  0.62019  Biso   1.000  Hf
  Hf6      1.0000 0.63325  0.51730  0.12705  Biso   1.000  Hf
  Hf7      1.0000 0.63432  0.51694  0.62610  Biso   1.000  Hf
  Hf8      1.0000 0.13708  0.23111  0.37563  Biso   1.000  Hf
  Hf9      1.0000 0.13457  0.22985  0.88373  Biso   1.000  Hf
  Hf10     1.0000 0.13799  0.73449  0.37910  Biso   1.000  Hf
  Hf11     1.0000 0.13767  0.73062  0.87745  Biso   1.000  Hf
  Hf12     1.0000 0.63336  0.23311  0.37446  Biso   1.000  Hf
  Hf13     1.0000 0.63191  0.23374  0.87322  Biso   1.000  Hf
  Hf14     1.0000 0.63479  0.73670  0.37626  Biso   1.000  Hf
  Hf15     1.0000 0.63168  0.73505  0.87547  Biso   1.000  Hf
  Hf16     1.0000 0.36329  0.26498  0.12906  Biso   1.000  Hf
  Hf17     1.0000 0.36537  0.26729  0.62791  Biso   1.000  Hf
  Hf18     1.0000 0.36372  0.76755  0.12908  Biso   1.000  Hf
  Hf19     1.0000 0.36701  0.76976  0.62877  Biso   1.000  Hf
  Hf20     1.0000 0.86275  0.26547  0.12415  Biso   1.000  Hf
  Hf21     1.0000 0.86724  0.26588  0.62474  Biso   1.000  Hf
  Hf22     1.0000 0.86471  0.76636  0.12638  Biso   1.000  Hf
  Hf23     1.0000 0.86734  0.76735  0.62263  Biso   1.000  Hf
  Hf24     1.0000 0.36695  0.48400  0.37788  Biso   1.000  Hf
  Hf25     1.0000 0.36607  0.48291  0.87719  Biso   1.000  Hf
  Hf26     1.0000 0.36069  0.98376  0.37257  Biso   1.000  Hf
  Hf27     1.0000 0.35997  0.98445  0.88523  Biso   1.000  Hf
  Hf28     1.0000 0.86631  0.48419  0.37790  Biso   1.000  Hf
  Hf29     1.0000 0.86567  0.48430  0.87551  Biso   1.000  Hf
  Hf30     1.0000 0.87540  0.98788  0.36699  Biso   1.000  Hf
  Hf31     1.0000 0.86123  0.98733  0.87007  Biso   1.000  Hf
  O1       1.0000 0.02339  0.19420  0.21171  Biso   1.000  O
  O2       1.0000 0.03390  0.18323  0.70171  Biso   1.000  O
  O3       1.0000 0.03446  0.68396  0.19802  Biso   1.000  O
  O4       1.0000 0.03566  0.68495  0.69695  Biso   1.000  O
  O5       1.0000 0.54032  0.18723  0.18952  Biso   1.000  O
  O6       1.0000 0.53664  0.18546  0.69156  Biso   1.000  O
  O7       1.0000 0.53598  0.68556  0.19729  Biso   1.000  O
  O8       1.0000 0.53543  0.68398  0.69654  Biso   1.000  O
  O9       1.0000 0.03627  0.06783  0.45273  Biso   1.000  O
  O10      1.0000 0.03532  0.06067  0.94413  Biso   1.000  O
  O11      1.0000 0.03570  0.56609  0.44819  Biso   1.000  O
  O12      1.0000 0.03370  0.56852  0.94766  Biso   1.000  O
  O13      1.0000 0.53544  0.06623  0.44162  Biso   1.000  O
  O14      1.0000 0.53711  0.06525  0.94201  Biso   1.000  O
  O15      1.0000 0.53687  0.56794  0.44544  Biso   1.000  O
  O16      1.0000 0.53540  0.56767  0.94641  Biso   1.000  O
  O17      1.0000 0.46467  0.43437  0.19656  Biso   1.000  O
  O18      1.0000 0.46395  0.43508  0.69559  Biso   1.000  O
  O19      1.0000 0.46720  0.93451  0.19510  Biso   1.000  O
  O20      1.0000 0.46412  0.93563  0.69958  Biso   1.000  O
  O21      1.0000 0.96490  0.43482  0.19604  Biso   1.000  O
  O22      1.0000 0.96418  0.43444  0.69629  Biso   1.000  O
  O23      1.0000 0.97725  0.93506  0.18239  Biso   1.000  O
  O24      1.0000 0.96432  0.93257  0.69521  Biso   1.000  O
  O25      1.0000 0.46518  0.31699  0.44619  Biso   1.000  O
  O26      1.0000 0.46483  0.31768  0.94343  Biso   1.000  O
  O27      1.0000 0.46934  0.81998  0.45240  Biso   1.000  O
  O28      1.0000 0.46047  0.81766  0.94668  Biso   1.000  O
  O29      1.0000 0.96766  0.32040  0.44968  Biso   1.000  O
  O30      1.0000 0.96465  0.31724  0.94699  Biso   1.000  O
  O31      1.0000 0.96596  0.81813  0.44106  Biso   1.000  O
  O32      1.0000 0.97371  0.82655  0.95365  Biso   1.000  O
  O33      1.0000 0.28392  0.13088  0.26001  Biso   1.000  O
  O34      1.0000 0.27156  0.11872  0.75319  Biso   1.000  O
  O35      1.0000 0.27022  0.61416  0.25069  Biso   1.000  O
  O36      1.0000 0.27051  0.61779  0.75128  Biso   1.000  O
  O37      1.0000 0.76843  0.11510  0.24511  Biso   1.000  O
  O38      1.0000 0.76748  0.11632  0.74429  Biso   1.000  O
  O39      1.0000 0.77111  0.61677  0.24933  Biso   1.000  O
  O40      1.0000 0.77004  0.61789  0.74939  Biso   1.000  O
  O41      1.0000 0.27133  0.13074  0.50546  Biso   1.000  O
  O42      1.0000 0.27933  0.13698  0.99766  Biso   1.000  O
  O43      1.0000 0.27279  0.63311  0.50199  Biso   1.000  O
  O44      1.0000 0.27156  0.63120  0.00121  Biso   1.000  O
  O45      1.0000 0.77266  0.13493  0.49435  Biso   1.000  O
  O46      1.0000 0.77075  0.13417  0.99454  Biso   1.000  O
  O47      1.0000 0.77009  0.63428  0.49903  Biso   1.000  O
  O48      1.0000 0.77060  0.63568  0.99857  Biso   1.000  O
  O49      1.0000 0.23127  0.38255  0.50225  Biso   1.000  O
  O50      1.0000 0.22923  0.38262  0.00231  Biso   1.000  O
  O51      1.0000 0.22850  0.88269  0.50626  Biso   1.000  O
  O52      1.0000 0.21738  0.88109  0.00856  Biso   1.000  O
  O53      1.0000 0.72963  0.38359  0.49972  Biso   1.000  O
  O54      1.0000 0.72806  0.38493  0.99877  Biso   1.000  O
  O55      1.0000 0.73568  0.88661  0.49524  Biso   1.000  O
  O56      1.0000 0.73071  0.88268  0.99634  Biso   1.000  O
  O57      1.0000 0.22676  0.37119  0.25169  Biso   1.000  O
  O58      1.0000 0.22836  0.36705  0.75341  Biso   1.000  O
  O59      1.0000 0.24463  0.85572  0.26297  Biso   1.000  O
  O60      1.0000 0.22984  0.86928  0.75547  Biso   1.000  O
  O61      1.0000 0.73073  0.36801  0.25004  Biso   1.000  O
  O62      1.0000 0.73046  0.36739  0.74906  Biso   1.000  O
  O63      1.0000 0.73415  0.86778  0.24713  Biso   1.000  O
  O64      1.0000 0.72964  0.86629  0.74651  Biso   1.000  O
