data_image0
_cell_length_a       9.95917
_cell_length_b       5.19558
_cell_length_c       10.0752
_cell_angle_alpha    90.5641
_cell_angle_beta     89.4955
_cell_angle_gamma    90.0321

_symmetry_space_group_name_H-M    "P 1"
_symmetry_int_tables_number       1

loop_
  _symmetry_equiv_pos_as_xyz
  'x, y, z'

loop_
  _atom_site_label
  _atom_site_occupancy
  _atom_site_fract_x
  _atom_site_fract_y
  _atom_site_fract_z
  _atom_site_thermal_displace_type
  _atom_site_B_iso_or_equiv
  _atom_site_type_symbol
  Hf1      1.0000 0.13747  0.09996  0.11135  Biso   1.000  Hf
  Hf2      1.0000 0.13640  0.44990  0.39818  Biso   1.000  Hf
  Hf3      1.0000 0.35971  0.53284  0.12220  Biso   1.000  Hf
  Hf4      1.0000 0.36588  0.95774  0.37718  Biso   1.000  Hf
  O1       1.0000 0.01734  0.36750  0.22740  Biso   1.000  O
  O2       1.0000 0.03740  0.11961  0.45393  Biso   1.000  O
  O3       1.0000 0.45993  0.86376  0.19647  Biso   1.000  O
  O4       1.0000 0.46411  0.62466  0.44320  Biso   1.000  O
  O5       1.0000 0.26987  0.23502  0.25493  Biso   1.000  O
  O6       1.0000 0.27670  0.24847  0.50638  Biso   1.000  O
  O7       1.0000 0.23143  0.75554  0.50569  Biso   1.000  O
  O8       1.0000 0.21784  0.71446  0.25440  Biso   1.000  O
  Hf5      1.0000 0.13577  0.03028  0.63453  Biso   1.000  Hf
  Hf6      1.0000 0.13783  0.47797  0.88543  Biso   1.000  Hf
  Hf7      1.0000 0.36726  0.53007  0.62929  Biso   1.000  Hf
  Hf8      1.0000 0.37167  0.96638  0.87157  Biso   1.000  Hf
  O9       1.0000 0.03947  0.37219  0.69062  Biso   1.000  O
  O10      1.0000 0.03483  0.14061  0.93807  Biso   1.000  O
  O11      1.0000 0.46697  0.86508  0.68856  Biso   1.000  O
  O12      1.0000 0.46606  0.63145  0.94156  Biso   1.000  O
  O13      1.0000 0.27147  0.24086  0.75195  Biso   1.000  O
  O14      1.0000 0.29209  0.25617  0.98983  Biso   1.000  O
  O15      1.0000 0.23499  0.78710  0.00210  Biso   1.000  O
  O16      1.0000 0.23194  0.73945  0.75376  Biso   1.000  O
  Hf9      1.0000 0.62722  0.02952  0.12275  Biso   1.000  Hf
  Hf10     1.0000 0.63307  0.46047  0.37168  Biso   1.000  Hf
  Hf11     1.0000 0.85328  0.52614  0.11647  Biso   1.000  Hf
  Hf12     1.0000 0.87008  0.96550  0.37288  Biso   1.000  Hf
  O17      1.0000 0.53487  0.36689  0.19099  Biso   1.000  O
  O18      1.0000 0.53651  0.12584  0.44025  Biso   1.000  O
  O19      1.0000 0.98351  0.83938  0.17845  Biso   1.000  O
  O20      1.0000 0.96636  0.63751  0.44791  Biso   1.000  O
  O21      1.0000 0.76827  0.21968  0.24300  Biso   1.000  O
  O22      1.0000 0.77271  0.26292  0.49328  Biso   1.000  O
  O23      1.0000 0.73214  0.76446  0.49435  Biso   1.000  O
  O24      1.0000 0.73399  0.72956  0.24661  Biso   1.000  O
  Hf13     1.0000 0.63699  0.03013  0.62098  Biso   1.000  Hf
  Hf14     1.0000 0.63349  0.46333  0.87099  Biso   1.000  Hf
  Hf15     1.0000 0.86908  0.53126  0.62449  Biso   1.000  Hf
  Hf16     1.0000 0.86417  0.96295  0.87216  Biso   1.000  Hf
  O25      1.0000 0.53780  0.36359  0.69159  Biso   1.000  O
  O26      1.0000 0.54359  0.12529  0.93941  Biso   1.000  O
  O27      1.0000 0.96415  0.86618  0.69584  Biso   1.000  O
  O28      1.0000 0.95581  0.63130  0.93588  Biso   1.000  O
  O29      1.0000 0.77246  0.23332  0.74441  Biso   1.000  O
  O30      1.0000 0.76924  0.25815  0.99497  Biso   1.000  O
  O31      1.0000 0.72587  0.75823  0.99843  Biso   1.000  O
  O32      1.0000 0.72855  0.73519  0.74619  Biso   1.000  O
  Be1      1.0000 0.09764  0.60845  0.16419  Biso   1.000  Be
