data_image0
_cell_length_a       10.1765
_cell_length_b       10.2379
_cell_length_c       5.21599
_cell_angle_alpha    90.1009
_cell_angle_beta     80.1354
_cell_angle_gamma    90.109

_symmetry_space_group_name_H-M    "P 1"
_symmetry_int_tables_number       1

loop_
  _symmetry_equiv_pos_as_xyz
  'x, y, z'

loop_
  _atom_site_label
  _atom_site_occupancy
  _atom_site_fract_x
  _atom_site_fract_y
  _atom_site_fract_z
  _atom_site_thermal_displace_type
  _atom_site_B_iso_or_equiv
  _atom_site_type_symbol
  Be1      1.0000 0.04766  0.04837  0.33248  Biso   1.000  Be
  Hf1      1.0000 0.14180  0.51991  0.28999  Biso   1.000  Hf
  Hf2      1.0000 0.64084  0.02094  0.29482  Biso   1.000  Hf
  Hf3      1.0000 0.63911  0.52062  0.29312  Biso   1.000  Hf
  Hf4      1.0000 0.14159  0.22205  0.78768  Biso   1.000  Hf
  Hf5      1.0000 0.14356  0.73104  0.78974  Biso   1.000  Hf
  Hf6      1.0000 0.63989  0.22857  0.79194  Biso   1.000  Hf
  Hf7      1.0000 0.64003  0.72777  0.79643  Biso   1.000  Hf
  Hf8      1.0000 0.35789  0.26559  0.20913  Biso   1.000  Hf
  Hf9      1.0000 0.35746  0.77517  0.20867  Biso   1.000  Hf
  Hf10     1.0000 0.86247  0.27120  0.20558  Biso   1.000  Hf
  Hf11     1.0000 0.86466  0.77165  0.21075  Biso   1.000  Hf
  Hf12     1.0000 0.35983  0.47659  0.70713  Biso   1.000  Hf
  Hf13     1.0000 0.35743  0.97742  0.70577  Biso   1.000  Hf
  Hf14     1.0000 0.86296  0.47886  0.70838  Biso   1.000  Hf
  Hf15     1.0000 0.86018  0.97736  0.71391  Biso   1.000  Hf
  O1       1.0000 0.03342  0.15988  0.14460  Biso   1.000  O
  O2       1.0000 0.03651  0.66811  0.16183  Biso   1.000  O
  O3       1.0000 0.53693  0.16673  0.15950  Biso   1.000  O
  O4       1.0000 0.53396  0.66501  0.15887  Biso   1.000  O
  O5       1.0000 0.03154  0.08877  0.62711  Biso   1.000  O
  O6       1.0000 0.03555  0.58197  0.65836  Biso   1.000  O
  O7       1.0000 0.53839  0.08103  0.66019  Biso   1.000  O
  O8       1.0000 0.53416  0.58300  0.65871  Biso   1.000  O
  O9       1.0000 0.46691  0.41398  0.34243  Biso   1.000  O
  O10      1.0000 0.47162  0.91398  0.34385  Biso   1.000  O
  O11      1.0000 0.96733  0.41567  0.34151  Biso   1.000  O
  O12      1.0000 0.96144  0.92509  0.33434  Biso   1.000  O
  O13      1.0000 0.46907  0.33477  0.84318  Biso   1.000  O
  O14      1.0000 0.47314  0.83742  0.84645  Biso   1.000  O
  O15      1.0000 0.96808  0.33311  0.84219  Biso   1.000  O
  O16      1.0000 0.96711  0.83238  0.83840  Biso   1.000  O
  O17      1.0000 0.28947  0.13327  0.49735  Biso   1.000  O
  O18      1.0000 0.27773  0.62437  0.47824  Biso   1.000  O
  O19      1.0000 0.77798  0.12966  0.48095  Biso   1.000  O
  O20      1.0000 0.77700  0.62844  0.48254  Biso   1.000  O
  O21      1.0000 0.28723  0.12856  0.96432  Biso   1.000  O
  O22      1.0000 0.27756  0.61898  0.98016  Biso   1.000  O
  O23      1.0000 0.77700  0.12083  0.98066  Biso   1.000  O
  O24      1.0000 0.77768  0.62087  0.98373  Biso   1.000  O
  O25      1.0000 0.22406  0.37732  0.01623  Biso   1.000  O
  O26      1.0000 0.23203  0.87263  0.00350  Biso   1.000  O
  O27      1.0000 0.72624  0.37843  0.01934  Biso   1.000  O
  O28      1.0000 0.72622  0.87710  0.02445  Biso   1.000  O
  O29      1.0000 0.22259  0.36979  0.51679  Biso   1.000  O
  O30      1.0000 0.23284  0.86355  0.52078  Biso   1.000  O
  O31      1.0000 0.72544  0.37152  0.51897  Biso   1.000  O
  O32      1.0000 0.72641  0.87066  0.52495  Biso   1.000  O
