data_image0
_cell_length_a       10.1559
_cell_length_b       10.2376
_cell_length_c       10.4622
_cell_angle_alpha    90.0578
_cell_angle_beta     80.1271
_cell_angle_gamma    90.0365

_symmetry_space_group_name_H-M    "P 1"
_symmetry_int_tables_number       1

loop_
  _symmetry_equiv_pos_as_xyz
  'x, y, z'

loop_
  _atom_site_label
  _atom_site_occupancy
  _atom_site_fract_x
  _atom_site_fract_y
  _atom_site_fract_z
  _atom_site_thermal_displace_type
  _atom_site_B_iso_or_equiv
  _atom_site_type_symbol
  Be1      1.0000 0.04753  0.04934  0.16893  Biso   1.000  Be
  Hf1      1.0000 0.13976  0.02030  0.64458  Biso   1.000  Hf
  Hf2      1.0000 0.14079  0.52071  0.14457  Biso   1.000  Hf
  Hf3      1.0000 0.14059  0.52085  0.64625  Biso   1.000  Hf
  Hf4      1.0000 0.64076  0.02153  0.14640  Biso   1.000  Hf
  Hf5      1.0000 0.63890  0.02048  0.64753  Biso   1.000  Hf
  Hf6      1.0000 0.63781  0.52138  0.14582  Biso   1.000  Hf
  Hf7      1.0000 0.63980  0.52030  0.64659  Biso   1.000  Hf
  Hf8      1.0000 0.14164  0.22511  0.39114  Biso   1.000  Hf
  Hf9      1.0000 0.14210  0.22449  0.89834  Biso   1.000  Hf
  Hf10     1.0000 0.14199  0.72855  0.39380  Biso   1.000  Hf
  Hf11     1.0000 0.14293  0.73245  0.89645  Biso   1.000  Hf
  Hf12     1.0000 0.63896  0.22825  0.39581  Biso   1.000  Hf
  Hf13     1.0000 0.64003  0.22898  0.89610  Biso   1.000  Hf
  Hf14     1.0000 0.63826  0.72825  0.39655  Biso   1.000  Hf
  Hf15     1.0000 0.64022  0.72870  0.89791  Biso   1.000  Hf
  Hf16     1.0000 0.35636  0.26373  0.10552  Biso   1.000  Hf
  Hf17     1.0000 0.36023  0.27014  0.60391  Biso   1.000  Hf
  Hf18     1.0000 0.35602  0.77624  0.10449  Biso   1.000  Hf
  Hf19     1.0000 0.36130  0.77205  0.60320  Biso   1.000  Hf
  Hf20     1.0000 0.86142  0.27185  0.10358  Biso   1.000  Hf
  Hf21     1.0000 0.86243  0.27062  0.60273  Biso   1.000  Hf
  Hf22     1.0000 0.86398  0.77295  0.10486  Biso   1.000  Hf
  Hf23     1.0000 0.86191  0.76970  0.60464  Biso   1.000  Hf
  Hf24     1.0000 0.35975  0.47700  0.35251  Biso   1.000  Hf
  Hf25     1.0000 0.36052  0.47758  0.85512  Biso   1.000  Hf
  Hf26     1.0000 0.35708  0.97921  0.34968  Biso   1.000  Hf
  Hf27     1.0000 0.35846  0.97907  0.85742  Biso   1.000  Hf
  Hf28     1.0000 0.86127  0.47878  0.35361  Biso   1.000  Hf
  Hf29     1.0000 0.86326  0.47852  0.85468  Biso   1.000  Hf
  Hf30     1.0000 0.85869  0.97715  0.35711  Biso   1.000  Hf
  Hf31     1.0000 0.86167  0.97858  0.85415  Biso   1.000  Hf
  O1       1.0000 0.03427  0.16343  0.07761  Biso   1.000  O
  O2       1.0000 0.03252  0.16175  0.57233  Biso   1.000  O
  O3       1.0000 0.03601  0.66902  0.07986  Biso   1.000  O
  O4       1.0000 0.03498  0.66568  0.57944  Biso   1.000  O
  O5       1.0000 0.53688  0.16733  0.07922  Biso   1.000  O
  O6       1.0000 0.53454  0.16634  0.57960  Biso   1.000  O
  O7       1.0000 0.53307  0.66613  0.07881  Biso   1.000  O
  O8       1.0000 0.53458  0.66561  0.57929  Biso   1.000  O
  O9       1.0000 0.03088  0.08810  0.31659  Biso   1.000  O
  O10      1.0000 0.03386  0.08400  0.82635  Biso   1.000  O
  O11      1.0000 0.03357  0.58404  0.32777  Biso   1.000  O
  O12      1.0000 0.03629  0.58176  0.82935  Biso   1.000  O
  O13      1.0000 0.53702  0.08096  0.32983  Biso   1.000  O
  O14      1.0000 0.53693  0.08283  0.82926  Biso   1.000  O
  O15      1.0000 0.53359  0.58243  0.32882  Biso   1.000  O
  O16      1.0000 0.53436  0.58407  0.82898  Biso   1.000  O
  O17      1.0000 0.46579  0.41382  0.17134  Biso   1.000  O
  O18      1.0000 0.46650  0.41594  0.67148  Biso   1.000  O
  O19      1.0000 0.47038  0.91580  0.17077  Biso   1.000  O
  O20      1.0000 0.46670  0.91518  0.67330  Biso   1.000  O
  O21      1.0000 0.96537  0.41744  0.17068  Biso   1.000  O
  O22      1.0000 0.96782  0.41470  0.67147  Biso   1.000  O
  O23      1.0000 0.96104  0.92604  0.16814  Biso   1.000  O
  O24      1.0000 0.96559  0.91587  0.67087  Biso   1.000  O
  O25      1.0000 0.46635  0.33289  0.42168  Biso   1.000  O
  O26      1.0000 0.46913  0.33600  0.92175  Biso   1.000  O
  O27      1.0000 0.46726  0.83400  0.42236  Biso   1.000  O
  O28      1.0000 0.47347  0.83899  0.92349  Biso   1.000  O
  O29      1.0000 0.96641  0.33341  0.41999  Biso   1.000  O
  O30      1.0000 0.96762  0.33313  0.92267  Biso   1.000  O
  O31      1.0000 0.96676  0.83359  0.42068  Biso   1.000  O
  O32      1.0000 0.96617  0.83193  0.91987  Biso   1.000  O
  O33      1.0000 0.28896  0.13566  0.25023  Biso   1.000  O
  O34      1.0000 0.27579  0.12701  0.73857  Biso   1.000  O
  O35      1.0000 0.27687  0.62400  0.23869  Biso   1.000  O
  O36      1.0000 0.27768  0.62892  0.74025  Biso   1.000  O
  O37      1.0000 0.77695  0.12989  0.24084  Biso   1.000  O
  O38      1.0000 0.77772  0.12855  0.73988  Biso   1.000  O
  O39      1.0000 0.77565  0.62926  0.24044  Biso   1.000  O
  O40      1.0000 0.77717  0.62772  0.74087  Biso   1.000  O
  O41      1.0000 0.27520  0.12027  0.49276  Biso   1.000  O
  O42      1.0000 0.28979  0.13142  0.97878  Biso   1.000  O
  O43      1.0000 0.27711  0.62051  0.48977  Biso   1.000  O
  O44      1.0000 0.27731  0.61920  0.99044  Biso   1.000  O
  O45      1.0000 0.77551  0.12032  0.49086  Biso   1.000  O
  O46      1.0000 0.77742  0.12157  0.98993  Biso   1.000  O
  O47      1.0000 0.77627  0.62053  0.49084  Biso   1.000  O
  O48      1.0000 0.77747  0.62137  0.99130  Biso   1.000  O
  O49      1.0000 0.22341  0.37834  0.00944  Biso   1.000  O
  O50      1.0000 0.22397  0.37745  0.50857  Biso   1.000  O
  O51      1.0000 0.23233  0.87212  0.99930  Biso   1.000  O
  O52      1.0000 0.22363  0.87805  0.50957  Biso   1.000  O
  O53      1.0000 0.72524  0.37920  0.00959  Biso   1.000  O
  O54      1.0000 0.72464  0.37798  0.50993  Biso   1.000  O
  O55      1.0000 0.72632  0.87866  0.01069  Biso   1.000  O
  O56      1.0000 0.72391  0.87699  0.51154  Biso   1.000  O
  O57      1.0000 0.22042  0.37201  0.25865  Biso   1.000  O
  O58      1.0000 0.22507  0.36968  0.75958  Biso   1.000  O
  O59      1.0000 0.23301  0.86202  0.26363  Biso   1.000  O
  O60      1.0000 0.22357  0.87186  0.75601  Biso   1.000  O
  O61      1.0000 0.72369  0.37153  0.25981  Biso   1.000  O
  O62      1.0000 0.72560  0.37125  0.75945  Biso   1.000  O
  O63      1.0000 0.72475  0.87109  0.26198  Biso   1.000  O
  O64      1.0000 0.72542  0.87047  0.76020  Biso   1.000  O
