data_image0
_cell_length_a       9.99963
_cell_length_b       10.1698
_cell_length_c       5.02057
_cell_angle_alpha    91.9038
_cell_angle_beta     88.3911
_cell_angle_gamma    88.7296

_symmetry_space_group_name_H-M    "P 1"
_symmetry_int_tables_number       1

loop_
  _symmetry_equiv_pos_as_xyz
  'x, y, z'

loop_
  _atom_site_label
  _atom_site_occupancy
  _atom_site_fract_x
  _atom_site_fract_y
  _atom_site_fract_z
  _atom_site_thermal_displace_type
  _atom_site_B_iso_or_equiv
  _atom_site_type_symbol
  Be1      1.0000 0.16550  0.03155  0.31071  Biso   1.000  Be
  Hf1      1.0000 0.14524  0.51407  0.22656  Biso   1.000  Hf
  Hf2      1.0000 0.62758  0.98331  0.26359  Biso   1.000  Hf
  Hf3      1.0000 0.63540  0.50382  0.23968  Biso   1.000  Hf
  Hf4      1.0000 0.12450  0.26065  0.78360  Biso   1.000  Hf
  Hf5      1.0000 0.14027  0.73951  0.72577  Biso   1.000  Hf
  Hf6      1.0000 0.61950  0.25242  0.74682  Biso   1.000  Hf
  Hf7      1.0000 0.61751  0.75066  0.74867  Biso   1.000  Hf
  Hf8      1.0000 0.35770  0.23497  0.25697  Biso   1.000  Hf
  Hf9      1.0000 0.36602  0.77059  0.21318  Biso   1.000  Hf
  Hf10     1.0000 0.86567  0.23402  0.24244  Biso   1.000  Hf
  Hf11     1.0000 0.87759  0.75052  0.28668  Biso   1.000  Hf
  Hf12     1.0000 0.35999  0.00313  0.73907  Biso   1.000  Hf
  Hf13     1.0000 0.38103  0.48470  0.71402  Biso   1.000  Hf
  Hf14     1.0000 0.86314  0.99449  0.77229  Biso   1.000  Hf
  Hf15     1.0000 0.87283  0.48050  0.73111  Biso   1.000  Hf
  O1       1.0000 0.96621  0.15517  0.89978  Biso   1.000  O
  O2       1.0000 0.04596  0.68856  0.08294  Biso   1.000  O
  O3       1.0000 0.45886  0.16597  0.92027  Biso   1.000  O
  O4       1.0000 0.53553  0.66633  0.07645  Biso   1.000  O
  O5       1.0000 0.99718  0.04877  0.35484  Biso   1.000  O
  O6       1.0000 0.02550  0.58052  0.54767  Biso   1.000  O
  O7       1.0000 0.48270  0.09597  0.43960  Biso   1.000  O
  O8       1.0000 0.52876  0.59145  0.56115  Biso   1.000  O
  O9       1.0000 0.98926  0.31745  0.50353  Biso   1.000  O
  O10      1.0000 0.97553  0.83571  0.62884  Biso   1.000  O
  O11      1.0000 0.49485  0.34502  0.46485  Biso   1.000  O
  O12      1.0000 0.48592  0.84946  0.50921  Biso   1.000  O
  O13      1.0000 0.01308  0.41122  0.00171  Biso   1.000  O
  O14      1.0000 0.93886  0.95301  0.17410  Biso   1.000  O
  O15      1.0000 0.52153  0.41269  0.96271  Biso   1.000  O
  O16      1.0000 0.49783  0.90857  0.99426  Biso   1.000  O
  O17      1.0000 0.23199  0.13810  0.52654  Biso   1.000  O
  O18      1.0000 0.27519  0.63899  0.46866  Biso   1.000  O
  O19      1.0000 0.75342  0.12830  0.50577  Biso   1.000  O
  O20      1.0000 0.76933  0.63789  0.54690  Biso   1.000  O
  O21      1.0000 0.22268  0.10417  0.04233  Biso   1.000  O
  O22      1.0000 0.27486  0.61043  0.97174  Biso   1.000  O
  O23      1.0000 0.71428  0.10443  0.00140  Biso   1.000  O
  O24      1.0000 0.79428  0.59019  0.05365  Biso   1.000  O
  O25      1.0000 0.26412  0.36324  0.99839  Biso   1.000  O
  O26      1.0000 0.26037  0.85651  0.92838  Biso   1.000  O
  O27      1.0000 0.75972  0.34594  0.98019  Biso   1.000  O
  O28      1.0000 0.75593  0.84416  0.00959  Biso   1.000  O
  O29      1.0000 0.23886  0.38728  0.49808  Biso   1.000  O
  O30      1.0000 0.23341  0.90109  0.43890  Biso   1.000  O
  O31      1.0000 0.74506  0.38193  0.48515  Biso   1.000  O
  O32      1.0000 0.73531  0.88354  0.52303  Biso   1.000  O
