data_image0
_cell_length_a       5.02326
_cell_length_b       10.454
_cell_length_c       10.1411
_cell_angle_alpha    90.3922
_cell_angle_beta     89.5704
_cell_angle_gamma    89.9793

_symmetry_space_group_name_H-M    "P 1"
_symmetry_int_tables_number       1

loop_
  _symmetry_equiv_pos_as_xyz
  'x, y, z'

loop_
  _atom_site_label
  _atom_site_occupancy
  _atom_site_fract_x
  _atom_site_fract_y
  _atom_site_fract_z
  _atom_site_thermal_displace_type
  _atom_site_B_iso_or_equiv
  _atom_site_type_symbol
  Zr1      1.0000 0.26231  0.02759  0.11667  Biso   1.000  Zr
  Zr2      1.0000 0.26652  0.22380  0.39540  Biso   1.000  Zr
  Zr3      1.0000 0.67684  0.25959  0.11408  Biso   1.000  Zr
  Zr4      1.0000 0.74184  0.48105  0.37524  Biso   1.000  Zr
  O1       1.0000 0.02335  0.18047  0.22445  Biso   1.000  O
  O2       1.0000 0.07485  0.06055  0.45449  Biso   1.000  O
  O3       1.0000 0.94436  0.41585  0.18047  Biso   1.000  O
  O4       1.0000 0.93384  0.31928  0.45017  Biso   1.000  O
  O5       1.0000 0.51798  0.11739  0.25277  Biso   1.000  O
  O6       1.0000 0.55386  0.12884  0.50322  Biso   1.000  O
  O7       1.0000 0.46881  0.38089  0.49764  Biso   1.000  O
  O8       1.0000 0.41286  0.36304  0.24497  Biso   1.000  O
  Zr5      1.0000 0.27839  0.01378  0.63030  Biso   1.000  Zr
  Zr6      1.0000 0.26995  0.23407  0.88107  Biso   1.000  Zr
  Zr7      1.0000 0.73876  0.26520  0.63124  Biso   1.000  Zr
  Zr8      1.0000 0.74048  0.48544  0.87199  Biso   1.000  Zr
  O9       1.0000 0.07803  0.18234  0.69220  Biso   1.000  O
  O10      1.0000 0.08333  0.06405  0.93876  Biso   1.000  O
  O11      1.0000 0.93434  0.43475  0.69352  Biso   1.000  O
  O12      1.0000 0.91457  0.31460  0.93498  Biso   1.000  O
  O13      1.0000 0.54594  0.11681  0.74906  Biso   1.000  O
  O14      1.0000 0.57373  0.11925  0.98860  Biso   1.000  O
  O15      1.0000 0.46039  0.39207  0.99318  Biso   1.000  O
  O16      1.0000 0.46142  0.36867  0.74796  Biso   1.000  O
  Zr9      1.0000 0.27213  0.53218  0.11908  Biso   1.000  Zr
  Zr10     1.0000 0.27700  0.73540  0.37544  Biso   1.000  Zr
  Zr11     1.0000 0.73376  0.77086  0.12413  Biso   1.000  Zr
  Zr12     1.0000 0.73828  0.98499  0.37132  Biso   1.000  Zr
  O17      1.0000 0.07127  0.68386  0.19663  Biso   1.000  O
  O18      1.0000 0.07057  0.56482  0.44123  Biso   1.000  O
  O19      1.0000 0.93163  0.93545  0.19262  Biso   1.000  O
  O20      1.0000 0.93496  0.81508  0.44077  Biso   1.000  O
  O21      1.0000 0.55304  0.61368  0.24560  Biso   1.000  O
  O22      1.0000 0.54361  0.62918  0.49536  Biso   1.000  O
  O23      1.0000 0.46933  0.88163  0.49812  Biso   1.000  O
  O24      1.0000 0.46623  0.86532  0.24937  Biso   1.000  O
  Zr13     1.0000 0.27512  0.51376  0.62492  Biso   1.000  Zr
  Zr14     1.0000 0.27424  0.73701  0.87199  Biso   1.000  Zr
  Zr15     1.0000 0.74200  0.76357  0.62075  Biso   1.000  Zr
  Zr16     1.0000 0.74011  0.97856  0.87201  Biso   1.000  Zr
  O25      1.0000 0.07802  0.68229  0.69102  Biso   1.000  O
  O26      1.0000 0.07338  0.57167  0.94364  Biso   1.000  O
  O27      1.0000 0.94198  0.92750  0.69429  Biso   1.000  O
  O28      1.0000 0.93664  0.81621  0.94600  Biso   1.000  O
  O29      1.0000 0.54452  0.61728  0.74588  Biso   1.000  O
  O30      1.0000 0.54229  0.63700  0.99618  Biso   1.000  O
  O31      1.0000 0.46243  0.88066  0.99847  Biso   1.000  O
  O32      1.0000 0.47249  0.86528  0.74674  Biso   1.000  O
  Be1      1.0000 0.16612  0.29652  0.16375  Biso   1.000  Be
