data_image0
_cell_length_a       5.12125
_cell_length_b       10.2911
_cell_length_c       10.0597
_cell_angle_alpha    89.2847
_cell_angle_beta     90.3639
_cell_angle_gamma    90.7011

_symmetry_space_group_name_H-M    "P 1"
_symmetry_int_tables_number       1

loop_
  _symmetry_equiv_pos_as_xyz
  'x, y, z'

loop_
  _atom_site_label
  _atom_site_occupancy
  _atom_site_fract_x
  _atom_site_fract_y
  _atom_site_fract_z
  _atom_site_thermal_displace_type
  _atom_site_B_iso_or_equiv
  _atom_site_type_symbol
  Zr1      1.0000 0.23630  0.99298  0.12184  Biso   1.000  Zr
  Zr2      1.0000 0.30456  0.26841  0.39666  Biso   1.000  Zr
  Zr3      1.0000 0.73120  0.24759  0.12487  Biso   1.000  Zr
  Zr4      1.0000 0.78121  0.98103  0.37574  Biso   1.000  Zr
  O1       1.0000 0.04847  0.17115  0.01111  Biso   1.000  O
  O2       1.0000 0.89628  0.08039  0.21598  Biso   1.000  O
  O3       1.0000 0.06381  0.32592  0.22997  Biso   1.000  O
  O4       1.0000 0.90338  0.41552  0.02718  Biso   1.000  O
  O5       1.0000 0.39599  0.15782  0.21948  Biso   1.000  O
  O6       1.0000 0.52223  0.10533  0.98648  Biso   1.000  O
  O7       1.0000 0.40045  0.33948  0.02984  Biso   1.000  O
  O8       1.0000 0.54996  0.38928  0.26556  Biso   1.000  O
  Zr5      1.0000 0.28986  0.02130  0.60427  Biso   1.000  Zr
  Zr6      1.0000 0.27725  0.23782  0.84635  Biso   1.000  Zr
  Zr7      1.0000 0.83576  0.24162  0.61091  Biso   1.000  Zr
  Zr8      1.0000 0.73385  0.99311  0.86066  Biso   1.000  Zr
  O9       1.0000 0.02693  0.12848  0.46871  Biso   1.000  O
  O10      1.0000 0.03321  0.09587  0.74873  Biso   1.000  O
  O11      1.0000 0.96808  0.35940  0.76365  Biso   1.000  O
  O12      1.0000 0.03582  0.39426  0.48587  Biso   1.000  O
  O13      1.0000 0.55558  0.14081  0.73434  Biso   1.000  O
  O14      1.0000 0.54378  0.11883  0.47571  Biso   1.000  O
  O15      1.0000 0.55736  0.37371  0.52345  Biso   1.000  O
  O16      1.0000 0.46886  0.40316  0.78388  Biso   1.000  O
  Zr9      1.0000 0.22734  0.50502  0.12354  Biso   1.000  Zr
  Zr10     1.0000 0.25343  0.74528  0.38047  Biso   1.000  Zr
  Zr11     1.0000 0.72833  0.75586  0.11917  Biso   1.000  Zr
  Zr12     1.0000 0.73914  0.51483  0.39089  Biso   1.000  Zr
  O17      1.0000 0.00156  0.65365  0.01016  Biso   1.000  O
  O18      1.0000 0.03735  0.59037  0.27154  Biso   1.000  O
  O19      1.0000 0.99568  0.84229  0.25102  Biso   1.000  O
  O20      1.0000 0.97913  0.90326  0.99872  Biso   1.000  O
  O21      1.0000 0.52686  0.64734  0.25858  Biso   1.000  O
  O22      1.0000 0.49249  0.60666  0.00465  Biso   1.000  O
  O23      1.0000 0.48117  0.85753  0.99918  Biso   1.000  O
  O24      1.0000 0.48514  0.89524  0.25090  Biso   1.000  O
  Zr13     1.0000 0.25532  0.48724  0.63690  Biso   1.000  Zr
  Zr14     1.0000 0.24070  0.75156  0.86892  Biso   1.000  Zr
  Zr15     1.0000 0.74733  0.75013  0.62568  Biso   1.000  Zr
  Zr16     1.0000 0.75371  0.51211  0.87392  Biso   1.000  Zr
  O25      1.0000 0.98072  0.64365  0.50858  Biso   1.000  O
  O26      1.0000 0.01999  0.60578  0.75750  Biso   1.000  O
  O27      1.0000 0.95552  0.84649  0.76138  Biso   1.000  O
  O28      1.0000 0.03637  0.88636  0.50273  Biso   1.000  O
  O29      1.0000 0.51040  0.64832  0.75491  Biso   1.000  O
  O30      1.0000 0.47457  0.61305  0.50612  Biso   1.000  O
  O31      1.0000 0.52528  0.86332  0.49931  Biso   1.000  O
  O32      1.0000 0.45957  0.89631  0.74905  Biso   1.000  O
  Be1      1.0000 0.22371  0.24774  0.12180  Biso   1.000  Be
