data_image0
_cell_length_a       10.2645
_cell_length_b       5.13797
_cell_length_c       10.5331
_cell_angle_alpha    90.0456
_cell_angle_beta     80.1249
_cell_angle_gamma    90.1343

_symmetry_space_group_name_H-M    "P 1"
_symmetry_int_tables_number       1

loop_
  _symmetry_equiv_pos_as_xyz
  'x, y, z'

loop_
  _atom_site_label
  _atom_site_occupancy
  _atom_site_fract_x
  _atom_site_fract_y
  _atom_site_fract_z
  _atom_site_thermal_displace_type
  _atom_site_B_iso_or_equiv
  _atom_site_type_symbol
  Be1      1.0000 0.04622  0.10269  0.16945  Biso   1.000  Be
  Zr1      1.0000 0.14079  0.03914  0.64418  Biso   1.000  Zr
  Zr2      1.0000 0.64046  0.04292  0.14590  Biso   1.000  Zr
  Zr3      1.0000 0.63975  0.03944  0.64769  Biso   1.000  Zr
  Zr4      1.0000 0.14185  0.44997  0.38982  Biso   1.000  Zr
  Zr5      1.0000 0.14355  0.45419  0.89770  Biso   1.000  Zr
  Zr6      1.0000 0.63823  0.45595  0.39629  Biso   1.000  Zr
  Zr7      1.0000 0.64176  0.45749  0.89727  Biso   1.000  Zr
  Zr8      1.0000 0.35538  0.53701  0.10497  Biso   1.000  Zr
  Zr9      1.0000 0.36046  0.54140  0.60339  Biso   1.000  Zr
  Zr10     1.0000 0.86523  0.54807  0.10528  Biso   1.000  Zr
  Zr11     1.0000 0.86350  0.53854  0.60432  Biso   1.000  Zr
  Zr12     1.0000 0.35794  0.95570  0.34956  Biso   1.000  Zr
  Zr13     1.0000 0.35949  0.95605  0.85719  Biso   1.000  Zr
  Zr14     1.0000 0.85854  0.95544  0.35797  Biso   1.000  Zr
  Zr15     1.0000 0.86401  0.95724  0.85525  Biso   1.000  Zr
  O1       1.0000 0.03458  0.32761  0.07729  Biso   1.000  O
  O2       1.0000 0.03190  0.31770  0.57132  Biso   1.000  O
  O3       1.0000 0.53494  0.32757  0.07747  Biso   1.000  O
  O4       1.0000 0.53285  0.32480  0.57832  Biso   1.000  O
  O5       1.0000 0.02787  0.18275  0.31502  Biso   1.000  O
  O6       1.0000 0.03405  0.17091  0.82444  Biso   1.000  O
  O7       1.0000 0.53504  0.16622  0.32803  Biso   1.000  O
  O8       1.0000 0.53598  0.17135  0.82771  Biso   1.000  O
  O9       1.0000 0.47258  0.82122  0.17252  Biso   1.000  O
  O10      1.0000 0.46925  0.82304  0.67500  Biso   1.000  O
  O11      1.0000 0.96370  0.85228  0.16887  Biso   1.000  O
  O12      1.0000 0.96910  0.82329  0.67301  Biso   1.000  O
  O13      1.0000 0.46904  0.67120  0.42420  Biso   1.000  O
  O14      1.0000 0.47636  0.68250  0.92502  Biso   1.000  O
  O15      1.0000 0.96860  0.67261  0.42102  Biso   1.000  O
  O16      1.0000 0.96965  0.66904  0.92337  Biso   1.000  O
  O17      1.0000 0.28467  0.25710  0.24595  Biso   1.000  O
  O18      1.0000 0.27610  0.25308  0.73821  Biso   1.000  O
  O19      1.0000 0.77577  0.26025  0.24097  Biso   1.000  O
  O20      1.0000 0.77774  0.25451  0.74036  Biso   1.000  O
  O21      1.0000 0.27520  0.24123  0.49066  Biso   1.000  O
  O22      1.0000 0.28775  0.25583  0.98011  Biso   1.000  O
  O23      1.0000 0.77441  0.24056  0.49150  Biso   1.000  O
  O24      1.0000 0.77804  0.24476  0.99073  Biso   1.000  O
  O25      1.0000 0.23484  0.74355  0.99966  Biso   1.000  O
  O26      1.0000 0.22492  0.75349  0.50840  Biso   1.000  O
  O27      1.0000 0.72883  0.75706  0.01101  Biso   1.000  O
  O28      1.0000 0.72577  0.75153  0.51243  Biso   1.000  O
  O29      1.0000 0.23314  0.72449  0.26157  Biso   1.000  O
  O30      1.0000 0.22565  0.74075  0.75649  Biso   1.000  O
  O31      1.0000 0.72648  0.74418  0.26243  Biso   1.000  O
  O32      1.0000 0.72807  0.74231  0.76070  Biso   1.000  O
