data_image0
_cell_length_a       10.1151
_cell_length_b       10.3159
_cell_length_c       5.29016
_cell_angle_alpha    89.9676
_cell_angle_beta     91.0382
_cell_angle_gamma    90.0711

_symmetry_space_group_name_H-M    "P 1"
_symmetry_int_tables_number       1

loop_
  _symmetry_equiv_pos_as_xyz
  'x, y, z'

loop_
  _atom_site_label
  _atom_site_occupancy
  _atom_site_fract_x
  _atom_site_fract_y
  _atom_site_fract_z
  _atom_site_thermal_displace_type
  _atom_site_B_iso_or_equiv
  _atom_site_type_symbol
  Zr1      1.0000 0.13924  0.02021  0.34593  Biso   1.000  Zr
  Zr2      1.0000 0.13481  0.22560  0.85111  Biso   1.000  Zr
  Zr3      1.0000 0.35036  0.26933  0.36371  Biso   1.000  Zr
  Zr4      1.0000 0.36054  0.47783  0.84575  Biso   1.000  Zr
  Zr5      1.0000 0.64418  0.03029  0.15041  Biso   1.000  Zr
  Zr6      1.0000 0.64200  0.22723  0.69338  Biso   1.000  Zr
  Zr7      1.0000 0.85437  0.26617  0.14875  Biso   1.000  Zr
  Zr8      1.0000 0.86610  0.47939  0.64894  Biso   1.000  Zr
  O1       1.0000 0.03382  0.16451  0.17132  Biso   1.000  O
  O2       1.0000 0.03710  0.08120  0.66790  Biso   1.000  O
  O3       1.0000 0.48454  0.39167  0.14752  Biso   1.000  O
  O4       1.0000 0.46700  0.33969  0.66527  Biso   1.000  O
  O5       1.0000 0.27603  0.12428  0.59880  Biso   1.000  O
  O6       1.0000 0.27627  0.12427  0.09799  Biso   1.000  O
  O7       1.0000 0.22035  0.37379  0.60076  Biso   1.000  O
  O8       1.0000 0.22883  0.37736  0.10169  Biso   1.000  O
  O9       1.0000 0.52804  0.16871  0.35321  Biso   1.000  O
  O10      1.0000 0.53268  0.07892  0.83050  Biso   1.000  O
  O11      1.0000 0.96139  0.41511  0.33266  Biso   1.000  O
  O12      1.0000 0.96921  0.33474  0.83371  Biso   1.000  O
  O13      1.0000 0.79477  0.11416  0.90071  Biso   1.000  O
  O14      1.0000 0.77794  0.12683  0.42125  Biso   1.000  O
  O15      1.0000 0.73194  0.38669  0.88891  Biso   1.000  O
  O16      1.0000 0.70508  0.36809  0.38150  Biso   1.000  O
  Zr9      1.0000 0.13628  0.52106  0.34264  Biso   1.000  Zr
  Zr10     1.0000 0.14101  0.72848  0.84523  Biso   1.000  Zr
  Zr11     1.0000 0.36248  0.77244  0.34681  Biso   1.000  Zr
  Zr12     1.0000 0.36263  0.97621  0.85276  Biso   1.000  Zr
  Zr13     1.0000 0.64383  0.53274  0.14442  Biso   1.000  Zr
  Zr14     1.0000 0.64049  0.73176  0.65212  Biso   1.000  Zr
  Zr15     1.0000 0.86332  0.77403  0.15289  Biso   1.000  Zr
  Zr16     1.0000 0.86244  0.97575  0.65253  Biso   1.000  Zr
  O17      1.0000 0.03345  0.66356  0.16535  Biso   1.000  O
  O18      1.0000 0.03377  0.58408  0.66813  Biso   1.000  O
  O19      1.0000 0.46943  0.91507  0.17174  Biso   1.000  O
  O20      1.0000 0.46928  0.83455  0.66699  Biso   1.000  O
  O21      1.0000 0.27526  0.62199  0.59184  Biso   1.000  O
  O22      1.0000 0.27688  0.62349  0.09430  Biso   1.000  O
  O23      1.0000 0.22642  0.87251  0.59518  Biso   1.000  O
  O24      1.0000 0.22477  0.87361  0.09533  Biso   1.000  O
  O25      1.0000 0.52991  0.65884  0.33970  Biso   1.000  O
  O26      1.0000 0.52864  0.59066  0.84227  Biso   1.000  O
  O27      1.0000 0.97046  0.91390  0.33040  Biso   1.000  O
  O28      1.0000 0.97038  0.83286  0.83361  Biso   1.000  O
  O29      1.0000 0.77670  0.62897  0.90120  Biso   1.000  O
  O30      1.0000 0.77719  0.62549  0.40247  Biso   1.000  O
  O31      1.0000 0.72533  0.87456  0.90822  Biso   1.000  O
  O32      1.0000 0.72702  0.87380  0.40585  Biso   1.000  O
  Be1      1.0000 0.59473  0.28370  0.20688  Biso   1.000  Be
