data_image0
_cell_length_a       10.2269
_cell_length_b       10.3365
_cell_length_c       10.5665
_cell_angle_alpha    90.0896
_cell_angle_beta     79.7493
_cell_angle_gamma    90.0377

_symmetry_space_group_name_H-M    "P 1"
_symmetry_int_tables_number       1

loop_
  _symmetry_equiv_pos_as_xyz
  'x, y, z'

loop_
  _atom_site_label
  _atom_site_occupancy
  _atom_site_fract_x
  _atom_site_fract_y
  _atom_site_fract_z
  _atom_site_thermal_displace_type
  _atom_site_B_iso_or_equiv
  _atom_site_type_symbol
  Zr1      1.0000 0.13462  0.02177  0.14205  Biso   1.000  Zr
  Zr2      1.0000 0.14494  0.23262  0.38872  Biso   1.000  Zr
  Zr3      1.0000 0.35616  0.27068  0.11087  Biso   1.000  Zr
  Zr4      1.0000 0.35591  0.46927  0.34691  Biso   1.000  Zr
  O1       1.0000 0.02989  0.16679  0.07658  Biso   1.000  O
  O2       1.0000 0.03341  0.08407  0.32593  Biso   1.000  O
  O3       1.0000 0.46339  0.42156  0.16731  Biso   1.000  O
  O4       1.0000 0.47366  0.33002  0.42760  Biso   1.000  O
  O5       1.0000 0.27131  0.11565  0.23456  Biso   1.000  O
  O6       1.0000 0.29867  0.13308  0.47401  Biso   1.000  O
  O7       1.0000 0.22231  0.37913  0.00739  Biso   1.000  O
  O8       1.0000 0.20224  0.37842  0.25148  Biso   1.000  O
  Zr5      1.0000 0.13622  0.02136  0.64677  Biso   1.000  Zr
  Zr6      1.0000 0.13770  0.22983  0.89612  Biso   1.000  Zr
  Zr7      1.0000 0.36299  0.27403  0.61363  Biso   1.000  Zr
  Zr8      1.0000 0.36146  0.47871  0.85756  Biso   1.000  Zr
  O9       1.0000 0.04360  0.16740  0.57457  Biso   1.000  O
  O10      1.0000 0.03309  0.08419  0.82738  Biso   1.000  O
  O11      1.0000 0.46882  0.41631  0.67547  Biso   1.000  O
  O12      1.0000 0.46533  0.33502  0.92440  Biso   1.000  O
  O13      1.0000 0.27481  0.12816  0.73782  Biso   1.000  O
  O14      1.0000 0.27242  0.12206  0.98767  Biso   1.000  O
  O15      1.0000 0.22783  0.37731  0.51303  Biso   1.000  O
  O16      1.0000 0.22547  0.37291  0.76174  Biso   1.000  O
  Zr9      1.0000 0.13668  0.52314  0.14141  Biso   1.000  Zr
  Zr10     1.0000 0.13781  0.72383  0.39531  Biso   1.000  Zr
  Zr11     1.0000 0.35973  0.76961  0.10346  Biso   1.000  Zr
  Zr12     1.0000 0.35603  0.96745  0.35019  Biso   1.000  Zr
  O17      1.0000 0.03078  0.66950  0.07583  Biso   1.000  O
  O18      1.0000 0.03066  0.58693  0.32529  Biso   1.000  O
  O19      1.0000 0.46804  0.91229  0.17548  Biso   1.000  O
  O20      1.0000 0.46728  0.83624  0.42348  Biso   1.000  O
  O21      1.0000 0.27434  0.62678  0.23876  Biso   1.000  O
  O22      1.0000 0.27404  0.62143  0.48945  Biso   1.000  O
  O23      1.0000 0.22423  0.87808  0.00887  Biso   1.000  O
  O24      1.0000 0.22218  0.86596  0.25837  Biso   1.000  O
  Zr13     1.0000 0.14107  0.52257  0.64486  Biso   1.000  Zr
  Zr14     1.0000 0.13657  0.72958  0.89500  Biso   1.000  Zr
  Zr15     1.0000 0.36093  0.77111  0.60451  Biso   1.000  Zr
  Zr16     1.0000 0.36074  0.97806  0.85477  Biso   1.000  Zr
  O25      1.0000 0.03213  0.66443  0.57796  Biso   1.000  O
  O26      1.0000 0.03364  0.58443  0.82760  Biso   1.000  O
  O27      1.0000 0.46660  0.91459  0.67367  Biso   1.000  O
  O28      1.0000 0.46652  0.83579  0.92374  Biso   1.000  O
  O29      1.0000 0.27606  0.62895  0.74002  Biso   1.000  O
  O30      1.0000 0.27466  0.62328  0.98909  Biso   1.000  O
  O31      1.0000 0.22348  0.88238  0.50888  Biso   1.000  O
  O32      1.0000 0.22394  0.87196  0.75914  Biso   1.000  O
  Zr17     1.0000 0.63786  0.02376  0.14521  Biso   1.000  Zr
  Zr18     1.0000 0.65293  0.22910  0.40214  Biso   1.000  Zr
  Zr19     1.0000 0.85901  0.27316  0.10522  Biso   1.000  Zr
  Zr20     1.0000 0.86227  0.47893  0.35427  Biso   1.000  Zr
  O33      1.0000 0.53097  0.16442  0.07713  Biso   1.000  O
  O34      1.0000 0.51788  0.10669  0.32155  Biso   1.000  O
  O35      1.0000 0.95990  0.42082  0.16912  Biso   1.000  O
  O36      1.0000 0.96652  0.33640  0.42319  Biso   1.000  O
  O37      1.0000 0.77168  0.12709  0.24368  Biso   1.000  O
  O38      1.0000 0.78145  0.11944  0.49307  Biso   1.000  O
  O39      1.0000 0.72279  0.37903  0.01187  Biso   1.000  O
  O40      1.0000 0.72317  0.37082  0.26300  Biso   1.000  O
  Zr21     1.0000 0.63967  0.02045  0.64766  Biso   1.000  Zr
  Zr22     1.0000 0.63628  0.22994  0.89693  Biso   1.000  Zr
  Zr23     1.0000 0.86737  0.27202  0.60608  Biso   1.000  Zr
  Zr24     1.0000 0.86096  0.47901  0.85597  Biso   1.000  Zr
  O41      1.0000 0.53714  0.16434  0.57845  Biso   1.000  O
  O42      1.0000 0.53296  0.08464  0.82790  Biso   1.000  O
  O43      1.0000 0.96898  0.41529  0.67414  Biso   1.000  O
  O44      1.0000 0.96432  0.33400  0.92261  Biso   1.000  O
  O45      1.0000 0.77649  0.12930  0.74136  Biso   1.000  O
  O46      1.0000 0.77341  0.12240  0.99201  Biso   1.000  O
  O47      1.0000 0.72711  0.37702  0.51323  Biso   1.000  O
  O48      1.0000 0.72605  0.37247  0.76102  Biso   1.000  O
  Zr25     1.0000 0.63627  0.52249  0.14781  Biso   1.000  Zr
  Zr26     1.0000 0.63735  0.72571  0.39566  Biso   1.000  Zr
  Zr27     1.0000 0.85791  0.77205  0.10484  Biso   1.000  Zr
  Zr28     1.0000 0.86391  0.97589  0.35510  Biso   1.000  Zr
  O49      1.0000 0.53330  0.66735  0.07799  Biso   1.000  O
  O50      1.0000 0.53231  0.58077  0.32999  Biso   1.000  O
  O51      1.0000 0.96332  0.91480  0.17296  Biso   1.000  O
  O52      1.0000 0.96695  0.83340  0.42401  Biso   1.000  O
  O53      1.0000 0.77395  0.63035  0.24099  Biso   1.000  O
  O54      1.0000 0.77481  0.62092  0.49098  Biso   1.000  O
  O55      1.0000 0.72254  0.88074  0.01084  Biso   1.000  O
  O56      1.0000 0.72057  0.87359  0.26208  Biso   1.000  O
  Zr29     1.0000 0.64032  0.52303  0.64732  Biso   1.000  Zr
  Zr30     1.0000 0.63830  0.72901  0.89664  Biso   1.000  Zr
  Zr31     1.0000 0.86101  0.77157  0.60483  Biso   1.000  Zr
  Zr32     1.0000 0.85960  0.97972  0.85577  Biso   1.000  Zr
  O57      1.0000 0.53299  0.66571  0.57887  Biso   1.000  O
  O58      1.0000 0.53405  0.58558  0.82843  Biso   1.000  O
  O59      1.0000 0.96617  0.91670  0.67302  Biso   1.000  O
  O60      1.0000 0.96426  0.83553  0.92170  Biso   1.000  O
  O61      1.0000 0.77608  0.62904  0.74080  Biso   1.000  O
  O62      1.0000 0.77421  0.62240  0.99072  Biso   1.000  O
  O63      1.0000 0.72443  0.87764  0.51117  Biso   1.000  O
  O64      1.0000 0.72490  0.87185  0.76114  Biso   1.000  O
  Be1      1.0000 0.40719  0.21483  0.36448  Biso   1.000  Be
