data_image0
_cell_length_a       5.11729
_cell_length_b       10.2981
_cell_length_c       10.5447
_cell_angle_alpha    90.1082
_cell_angle_beta     80.0114
_cell_angle_gamma    90.1064

_symmetry_space_group_name_H-M    "P 1"
_symmetry_int_tables_number       1

loop_
  _symmetry_equiv_pos_as_xyz
  'x, y, z'

loop_
  _atom_site_label
  _atom_site_occupancy
  _atom_site_fract_x
  _atom_site_fract_y
  _atom_site_fract_z
  _atom_site_thermal_displace_type
  _atom_site_B_iso_or_equiv
  _atom_site_type_symbol
  Be1      1.0000 0.09485  0.05092  0.16877  Biso   1.000  Be
  Zr1      1.0000 0.27878  0.01952  0.64562  Biso   1.000  Zr
  Zr2      1.0000 0.27872  0.52112  0.14425  Biso   1.000  Zr
  Zr3      1.0000 0.28224  0.51999  0.64629  Biso   1.000  Zr
  Zr4      1.0000 0.28384  0.22570  0.39187  Biso   1.000  Zr
  Zr5      1.0000 0.28398  0.22536  0.89721  Biso   1.000  Zr
  Zr6      1.0000 0.28201  0.72731  0.39442  Biso   1.000  Zr
  Zr7      1.0000 0.28647  0.73081  0.89726  Biso   1.000  Zr
  Zr8      1.0000 0.71277  0.26533  0.10528  Biso   1.000  Zr
  Zr9      1.0000 0.72441  0.26985  0.60317  Biso   1.000  Zr
  Zr10     1.0000 0.72098  0.77756  0.10678  Biso   1.000  Zr
  Zr11     1.0000 0.72481  0.77030  0.60422  Biso   1.000  Zr
  Zr12     1.0000 0.72137  0.47702  0.35273  Biso   1.000  Zr
  Zr13     1.0000 0.72530  0.47748  0.85575  Biso   1.000  Zr
  Zr14     1.0000 0.71197  0.97688  0.35468  Biso   1.000  Zr
  Zr15     1.0000 0.71833  0.97929  0.85653  Biso   1.000  Zr
  O1       1.0000 0.07145  0.16225  0.07623  Biso   1.000  O
  O2       1.0000 0.06338  0.15919  0.57167  Biso   1.000  O
  O3       1.0000 0.06671  0.66644  0.07848  Biso   1.000  O
  O4       1.0000 0.06793  0.66223  0.57799  Biso   1.000  O
  O5       1.0000 0.06671  0.08998  0.31418  Biso   1.000  O
  O6       1.0000 0.06955  0.08536  0.82550  Biso   1.000  O
  O7       1.0000 0.06390  0.58497  0.32623  Biso   1.000  O
  O8       1.0000 0.06941  0.58443  0.82794  Biso   1.000  O
  O9       1.0000 0.93408  0.41151  0.17269  Biso   1.000  O
  O10      1.0000 0.93985  0.41160  0.67357  Biso   1.000  O
  O11      1.0000 0.93822  0.92418  0.16902  Biso   1.000  O
  O12      1.0000 0.93513  0.91235  0.67434  Biso   1.000  O
  O13      1.0000 0.93771  0.33509  0.42218  Biso   1.000  O
  O14      1.0000 0.94156  0.33711  0.92524  Biso   1.000  O
  O15      1.0000 0.94050  0.83689  0.42338  Biso   1.000  O
  O16      1.0000 0.94743  0.83975  0.92395  Biso   1.000  O
  O17      1.0000 0.57857  0.13506  0.25042  Biso   1.000  O
  O18      1.0000 0.55269  0.12661  0.73778  Biso   1.000  O
  O19      1.0000 0.55186  0.62397  0.23865  Biso   1.000  O
  O20      1.0000 0.55524  0.62746  0.74053  Biso   1.000  O
  O21      1.0000 0.54869  0.11959  0.49275  Biso   1.000  O
  O22      1.0000 0.57808  0.13150  0.97805  Biso   1.000  O
  O23      1.0000 0.55317  0.62013  0.48999  Biso   1.000  O
  O24      1.0000 0.55444  0.62024  0.99092  Biso   1.000  O
  O25      1.0000 0.45055  0.37869  0.00971  Biso   1.000  O
  O26      1.0000 0.45198  0.37635  0.50907  Biso   1.000  O
  O27      1.0000 0.47122  0.87157  0.00060  Biso   1.000  O
  O28      1.0000 0.44937  0.87581  0.51189  Biso   1.000  O
  O29      1.0000 0.44326  0.37190  0.25900  Biso   1.000  O
  O30      1.0000 0.45442  0.37018  0.75954  Biso   1.000  O
  O31      1.0000 0.47158  0.86202  0.26631  Biso   1.000  O
  O32      1.0000 0.45053  0.87115  0.75736  Biso   1.000  O
