data_image0
_cell_length_a       10.2353
_cell_length_b       10.3098
_cell_length_c       10.5204
_cell_angle_alpha    90.0622
_cell_angle_beta     80.1419
_cell_angle_gamma    90.0417

_symmetry_space_group_name_H-M    "P 1"
_symmetry_int_tables_number       1

loop_
  _symmetry_equiv_pos_as_xyz
  'x, y, z'

loop_
  _atom_site_label
  _atom_site_occupancy
  _atom_site_fract_x
  _atom_site_fract_y
  _atom_site_fract_z
  _atom_site_thermal_displace_type
  _atom_site_B_iso_or_equiv
  _atom_site_type_symbol
  Be1      1.0000 0.04536  0.05014  0.16887  Biso   1.000  Be
  Zr1      1.0000 0.13976  0.02023  0.64414  Biso   1.000  Zr
  Zr2      1.0000 0.14073  0.52064  0.14419  Biso   1.000  Zr
  Zr3      1.0000 0.14060  0.52090  0.64576  Biso   1.000  Zr
  Zr4      1.0000 0.64075  0.02144  0.14593  Biso   1.000  Zr
  Zr5      1.0000 0.63890  0.02053  0.64720  Biso   1.000  Zr
  Zr6      1.0000 0.63775  0.52136  0.14538  Biso   1.000  Zr
  Zr7      1.0000 0.63985  0.52030  0.64625  Biso   1.000  Zr
  Zr8      1.0000 0.14160  0.22509  0.39073  Biso   1.000  Zr
  Zr9      1.0000 0.14225  0.22451  0.89789  Biso   1.000  Zr
  Zr10     1.0000 0.14202  0.72861  0.39323  Biso   1.000  Zr
  Zr11     1.0000 0.14308  0.73245  0.89599  Biso   1.000  Zr
  Zr12     1.0000 0.63888  0.22832  0.39535  Biso   1.000  Zr
  Zr13     1.0000 0.63999  0.22903  0.89569  Biso   1.000  Zr
  Zr14     1.0000 0.63827  0.72825  0.39619  Biso   1.000  Zr
  Zr15     1.0000 0.64026  0.72882  0.89750  Biso   1.000  Zr
  Zr16     1.0000 0.35614  0.26367  0.10586  Biso   1.000  Zr
  Zr17     1.0000 0.36026  0.27016  0.60434  Biso   1.000  Zr
  Zr18     1.0000 0.35629  0.77611  0.10458  Biso   1.000  Zr
  Zr19     1.0000 0.36140  0.77200  0.60365  Biso   1.000  Zr
  Zr20     1.0000 0.86136  0.27189  0.10404  Biso   1.000  Zr
  Zr21     1.0000 0.86249  0.27062  0.60318  Biso   1.000  Zr
  Zr22     1.0000 0.86424  0.77295  0.10539  Biso   1.000  Zr
  Zr23     1.0000 0.86197  0.76969  0.60516  Biso   1.000  Zr
  Zr24     1.0000 0.35974  0.47700  0.35286  Biso   1.000  Zr
  Zr25     1.0000 0.36072  0.47749  0.85558  Biso   1.000  Zr
  Zr26     1.0000 0.35717  0.97918  0.35018  Biso   1.000  Zr
  Zr27     1.0000 0.35853  0.97923  0.85782  Biso   1.000  Zr
  Zr28     1.0000 0.86129  0.47881  0.35415  Biso   1.000  Zr
  Zr29     1.0000 0.86339  0.47858  0.85515  Biso   1.000  Zr
  Zr30     1.0000 0.85854  0.97723  0.35784  Biso   1.000  Zr
  Zr31     1.0000 0.86177  0.97864  0.85467  Biso   1.000  Zr
  O1       1.0000 0.03362  0.16269  0.07708  Biso   1.000  O
  O2       1.0000 0.03161  0.16053  0.57123  Biso   1.000  O
  O3       1.0000 0.03545  0.66850  0.07950  Biso   1.000  O
  O4       1.0000 0.03437  0.66499  0.57888  Biso   1.000  O
  O5       1.0000 0.53621  0.16636  0.07884  Biso   1.000  O
  O6       1.0000 0.53382  0.16556  0.57917  Biso   1.000  O
  O7       1.0000 0.53236  0.66506  0.07826  Biso   1.000  O
  O8       1.0000 0.53392  0.66471  0.57882  Biso   1.000  O
  O9       1.0000 0.03032  0.08886  0.31516  Biso   1.000  O
  O10      1.0000 0.03311  0.08497  0.82551  Biso   1.000  O
  O11      1.0000 0.03300  0.58464  0.32734  Biso   1.000  O
  O12      1.0000 0.03566  0.58235  0.82885  Biso   1.000  O
  O13      1.0000 0.53637  0.08185  0.32946  Biso   1.000  O
  O14      1.0000 0.53632  0.08373  0.82881  Biso   1.000  O
  O15      1.0000 0.53290  0.58323  0.32832  Biso   1.000  O
  O16      1.0000 0.53376  0.58491  0.82848  Biso   1.000  O
  O17      1.0000 0.46639  0.41298  0.17202  Biso   1.000  O
  O18      1.0000 0.46732  0.41506  0.67208  Biso   1.000  O
  O19      1.0000 0.47114  0.91472  0.17167  Biso   1.000  O
  O20      1.0000 0.46747  0.91431  0.67405  Biso   1.000  O
  O21      1.0000 0.96599  0.41669  0.17115  Biso   1.000  O
  O22      1.0000 0.96860  0.41384  0.67188  Biso   1.000  O
  O23      1.0000 0.96155  0.92640  0.16787  Biso   1.000  O
  O24      1.0000 0.96630  0.91505  0.67126  Biso   1.000  O
  O25      1.0000 0.46701  0.33374  0.42231  Biso   1.000  O
  O26      1.0000 0.46957  0.33663  0.92240  Biso   1.000  O
  O27      1.0000 0.46808  0.83470  0.42309  Biso   1.000  O
  O28      1.0000 0.47432  0.83995  0.92434  Biso   1.000  O
  O29      1.0000 0.96701  0.33412  0.42038  Biso   1.000  O
  O30      1.0000 0.96829  0.33387  0.92322  Biso   1.000  O
  O31      1.0000 0.96726  0.83433  0.42087  Biso   1.000  O
  O32      1.0000 0.96682  0.83248  0.92010  Biso   1.000  O
  O33      1.0000 0.28821  0.13526  0.25033  Biso   1.000  O
  O34      1.0000 0.27498  0.12681  0.73853  Biso   1.000  O
  O35      1.0000 0.27605  0.62379  0.23880  Biso   1.000  O
  O36      1.0000 0.27692  0.62864  0.74023  Biso   1.000  O
  O37      1.0000 0.77618  0.12958  0.24075  Biso   1.000  O
  O38      1.0000 0.77697  0.12828  0.73982  Biso   1.000  O
  O39      1.0000 0.77487  0.62899  0.24046  Biso   1.000  O
  O40      1.0000 0.77645  0.62752  0.74088  Biso   1.000  O
  O41      1.0000 0.27438  0.12064  0.49280  Biso   1.000  O
  O42      1.0000 0.28893  0.13158  0.97870  Biso   1.000  O
  O43      1.0000 0.27636  0.62077  0.48977  Biso   1.000  O
  O44      1.0000 0.27652  0.61932  0.99040  Biso   1.000  O
  O45      1.0000 0.77469  0.12059  0.49082  Biso   1.000  O
  O46      1.0000 0.77662  0.12190  0.98986  Biso   1.000  O
  O47      1.0000 0.77548  0.62078  0.49090  Biso   1.000  O
  O48      1.0000 0.77666  0.62174  0.99132  Biso   1.000  O
  O49      1.0000 0.22407  0.37805  0.00941  Biso   1.000  O
  O50      1.0000 0.22471  0.37716  0.50849  Biso   1.000  O
  O51      1.0000 0.23326  0.87135  0.99896  Biso   1.000  O
  O52      1.0000 0.22461  0.87779  0.50950  Biso   1.000  O
  O53      1.0000 0.72608  0.37894  0.00964  Biso   1.000  O
  O54      1.0000 0.72548  0.37765  0.51005  Biso   1.000  O
  O55      1.0000 0.72722  0.87839  0.01088  Biso   1.000  O
  O56      1.0000 0.72462  0.87670  0.51181  Biso   1.000  O
  O57      1.0000 0.22120  0.37213  0.25856  Biso   1.000  O
  O58      1.0000 0.22591  0.37000  0.75947  Biso   1.000  O
  O59      1.0000 0.23379  0.86216  0.26377  Biso   1.000  O
  O60      1.0000 0.22442  0.87215  0.75596  Biso   1.000  O
  O61      1.0000 0.72450  0.37182  0.25989  Biso   1.000  O
  O62      1.0000 0.72648  0.37155  0.75953  Biso   1.000  O
  O63      1.0000 0.72582  0.87136  0.26221  Biso   1.000  O
  O64      1.0000 0.72628  0.87088  0.76038  Biso   1.000  O
