data_image0
_cell_length_a       10.0781
_cell_length_b       10.2761
_cell_length_c       5.11085
_cell_angle_alpha    90.3574
_cell_angle_beta     90.5014
_cell_angle_gamma    89.5984

_symmetry_space_group_name_H-M    "P 1"
_symmetry_int_tables_number       1

loop_
  _symmetry_equiv_pos_as_xyz
  'x, y, z'

loop_
  _atom_site_label
  _atom_site_occupancy
  _atom_site_fract_x
  _atom_site_fract_y
  _atom_site_fract_z
  _atom_site_thermal_displace_type
  _atom_site_B_iso_or_equiv
  _atom_site_type_symbol
  Zr1      1.0000 0.12300  0.98877  0.23801  Biso   1.000  Zr
  Zr2      1.0000 0.14198  0.25287  0.72046  Biso   1.000  Zr
  Zr3      1.0000 0.39371  0.26113  0.32368  Biso   1.000  Zr
  Zr4      1.0000 0.37512  0.99608  0.76661  Biso   1.000  Zr
  O1       1.0000 0.01445  0.17098  0.03646  Biso   1.000  O
  O2       1.0000 0.98987  0.10677  0.51535  Biso   1.000  O
  O3       1.0000 0.03642  0.34001  0.38676  Biso   1.000  O
  O4       1.0000 0.02694  0.41479  0.89685  Biso   1.000  O
  O5       1.0000 0.22008  0.15718  0.38527  Biso   1.000  O
  O6       1.0000 0.21558  0.07921  0.90417  Biso   1.000  O
  O7       1.0000 0.23824  0.33389  0.05515  Biso   1.000  O
  O8       1.0000 0.26039  0.40856  0.51096  Biso   1.000  O
  Zr5      1.0000 0.12547  0.51168  0.23027  Biso   1.000  Zr
  Zr6      1.0000 0.12654  0.74719  0.73734  Biso   1.000  Zr
  Zr7      1.0000 0.37657  0.74711  0.25766  Biso   1.000  Zr
  Zr8      1.0000 0.39013  0.48364  0.77399  Biso   1.000  Zr
  O9       1.0000 0.00435  0.65584  0.00384  Biso   1.000  O
  O10      1.0000 0.99114  0.60468  0.49005  Biso   1.000  O
  O11      1.0000 0.00582  0.85693  0.49635  Biso   1.000  O
  O12      1.0000 0.98230  0.90234  0.00612  Biso   1.000  O
  O13      1.0000 0.23259  0.65465  0.45700  Biso   1.000  O
  O14      1.0000 0.25611  0.59760  0.96896  Biso   1.000  O
  O15      1.0000 0.23990  0.84516  0.01099  Biso   1.000  O
  O16      1.0000 0.25808  0.89881  0.49513  Biso   1.000  O
  Zr9      1.0000 0.62055  0.99221  0.26539  Biso   1.000  Zr
  Zr10     1.0000 0.60623  0.23603  0.80188  Biso   1.000  Zr
  Zr11     1.0000 0.85763  0.24538  0.26739  Biso   1.000  Zr
  Zr12     1.0000 0.87152  0.00707  0.74744  Biso   1.000  Zr
  O17      1.0000 0.49191  0.12934  0.05184  Biso   1.000  O
  O18      1.0000 0.49683  0.10183  0.52753  Biso   1.000  O
  O19      1.0000 0.53897  0.36791  0.52947  Biso   1.000  O
  O20      1.0000 0.50078  0.38446  0.04888  Biso   1.000  O
  O21      1.0000 0.73722  0.14847  0.52049  Biso   1.000  O
  O22      1.0000 0.75038  0.10406  0.02257  Biso   1.000  O
  O23      1.0000 0.75225  0.35595  0.98255  Biso   1.000  O
  O24      1.0000 0.78817  0.40793  0.46261  Biso   1.000  O
  Zr13     1.0000 0.63248  0.50620  0.27087  Biso   1.000  Zr
  Zr14     1.0000 0.62036  0.74836  0.77006  Biso   1.000  Zr
  Zr15     1.0000 0.87324  0.75321  0.25878  Biso   1.000  Zr
  Zr16     1.0000 0.87295  0.50968  0.76015  Biso   1.000  Zr
  O25      1.0000 0.50872  0.63609  0.02096  Biso   1.000  O
  O26      1.0000 0.49001  0.60535  0.51593  Biso   1.000  O
  O27      1.0000 0.50673  0.85265  0.50280  Biso   1.000  O
  O28      1.0000 0.49045  0.88535  0.01127  Biso   1.000  O
  O29      1.0000 0.74043  0.65051  0.51047  Biso   1.000  O
  O30      1.0000 0.75723  0.60980  0.01738  Biso   1.000  O
  O31      1.0000 0.73470  0.85403  0.02834  Biso   1.000  O
  O32      1.0000 0.75476  0.89623  0.51922  Biso   1.000  O
  Be1      1.0000 0.12518  0.24971  0.20708  Biso   1.000  Be
