data_image0
_cell_length_a       10.1029
_cell_length_b       10.3131
_cell_length_c       10.5457
_cell_angle_alpha    90.0087
_cell_angle_beta     90.4992
_cell_angle_gamma    90.0563

_symmetry_space_group_name_H-M    "P 1"
_symmetry_int_tables_number       1

loop_
  _symmetry_equiv_pos_as_xyz
  'x, y, z'

loop_
  _atom_site_label
  _atom_site_occupancy
  _atom_site_fract_x
  _atom_site_fract_y
  _atom_site_fract_z
  _atom_site_thermal_displace_type
  _atom_site_B_iso_or_equiv
  _atom_site_type_symbol
  Zr1      1.0000 0.13676  0.02132  0.17170  Biso   1.000  Zr
  Zr2      1.0000 0.13593  0.22757  0.42501  Biso   1.000  Zr
  Zr3      1.0000 0.34774  0.27055  0.17925  Biso   1.000  Zr
  Zr4      1.0000 0.36061  0.47984  0.42317  Biso   1.000  Zr
  Zr5      1.0000 0.64418  0.03093  0.07103  Biso   1.000  Zr
  Zr6      1.0000 0.63646  0.22584  0.33985  Biso   1.000  Zr
  Zr7      1.0000 0.85401  0.26664  0.07239  Biso   1.000  Zr
  Zr8      1.0000 0.86176  0.47730  0.32733  Biso   1.000  Zr
  O1       1.0000 0.03370  0.16574  0.08423  Biso   1.000  O
  O2       1.0000 0.03247  0.08284  0.33569  Biso   1.000  O
  O3       1.0000 0.48333  0.39231  0.07342  Biso   1.000  O
  O4       1.0000 0.46390  0.33664  0.33358  Biso   1.000  O
  O5       1.0000 0.27330  0.12461  0.29768  Biso   1.000  O
  O6       1.0000 0.27618  0.12625  0.04721  Biso   1.000  O
  O7       1.0000 0.21818  0.37437  0.29796  Biso   1.000  O
  O8       1.0000 0.22761  0.37841  0.04854  Biso   1.000  O
  O9       1.0000 0.52650  0.16934  0.17335  Biso   1.000  O
  O10      1.0000 0.52997  0.08499  0.42068  Biso   1.000  O
  O11      1.0000 0.95829  0.41588  0.16667  Biso   1.000  O
  O12      1.0000 0.96532  0.33329  0.41790  Biso   1.000  O
  O13      1.0000 0.77449  0.12263  0.45964  Biso   1.000  O
  O14      1.0000 0.77464  0.12744  0.21250  Biso   1.000  O
  O15      1.0000 0.72366  0.37378  0.45185  Biso   1.000  O
  O16      1.0000 0.70250  0.36706  0.19199  Biso   1.000  O
  Zr9      1.0000 0.14139  0.02037  0.67248  Biso   1.000  Zr
  Zr10     1.0000 0.13740  0.22727  0.92184  Biso   1.000  Zr
  Zr11     1.0000 0.36469  0.26988  0.67330  Biso   1.000  Zr
  Zr12     1.0000 0.36136  0.47702  0.92068  Biso   1.000  Zr
  Zr13     1.0000 0.63902  0.02069  0.58327  Biso   1.000  Zr
  Zr14     1.0000 0.64387  0.22999  0.83569  Biso   1.000  Zr
  Zr15     1.0000 0.86112  0.27017  0.58125  Biso   1.000  Zr
  Zr16     1.0000 0.86562  0.48095  0.82544  Biso   1.000  Zr
  O17      1.0000 0.03317  0.16528  0.58617  Biso   1.000  O
  O18      1.0000 0.03798  0.08191  0.83293  Biso   1.000  O
  O19      1.0000 0.46943  0.41354  0.58192  Biso   1.000  O
  O20      1.0000 0.47122  0.33805  0.83182  Biso   1.000  O
  O21      1.0000 0.27857  0.12431  0.79639  Biso   1.000  O
  O22      1.0000 0.27574  0.12389  0.54639  Biso   1.000  O
  O23      1.0000 0.22652  0.37370  0.79720  Biso   1.000  O
  O24      1.0000 0.22580  0.37490  0.54702  Biso   1.000  O
  O25      1.0000 0.53402  0.16390  0.66912  Biso   1.000  O
  O26      1.0000 0.53523  0.07899  0.91081  Biso   1.000  O
  O27      1.0000 0.97026  0.41488  0.66605  Biso   1.000  O
  O28      1.0000 0.97039  0.33519  0.91495  Biso   1.000  O
  O29      1.0000 0.79610  0.11592  0.94693  Biso   1.000  O
  O30      1.0000 0.77790  0.12541  0.70554  Biso   1.000  O
  O31      1.0000 0.73207  0.38752  0.94761  Biso   1.000  O
  O32      1.0000 0.72661  0.37593  0.70241  Biso   1.000  O
  Zr17     1.0000 0.13391  0.52164  0.17117  Biso   1.000  Zr
  Zr18     1.0000 0.13838  0.72833  0.42146  Biso   1.000  Zr
  Zr19     1.0000 0.36184  0.77396  0.17169  Biso   1.000  Zr
  Zr20     1.0000 0.35985  0.97636  0.42375  Biso   1.000  Zr
  Zr21     1.0000 0.64365  0.53291  0.07305  Biso   1.000  Zr
  Zr22     1.0000 0.63939  0.72968  0.32840  Biso   1.000  Zr
  Zr23     1.0000 0.86201  0.77497  0.07840  Biso   1.000  Zr
  Zr24     1.0000 0.85916  0.97856  0.32919  Biso   1.000  Zr
  O33      1.0000 0.03276  0.66576  0.08433  Biso   1.000  O
  O34      1.0000 0.03002  0.58189  0.33512  Biso   1.000  O
  O35      1.0000 0.46869  0.91775  0.08495  Biso   1.000  O
  O36      1.0000 0.46834  0.83563  0.33337  Biso   1.000  O
  O37      1.0000 0.27211  0.62401  0.29484  Biso   1.000  O
  O38      1.0000 0.27678  0.62407  0.04620  Biso   1.000  O
  O39      1.0000 0.22462  0.87413  0.29629  Biso   1.000  O
  O40      1.0000 0.22423  0.87561  0.04680  Biso   1.000  O
  O41      1.0000 0.52966  0.66112  0.16881  Biso   1.000  O
  O42      1.0000 0.53115  0.58718  0.41831  Biso   1.000  O
  O43      1.0000 0.96698  0.91694  0.16727  Biso   1.000  O
  O44      1.0000 0.96694  0.83201  0.41463  Biso   1.000  O
  O45      1.0000 0.77558  0.62299  0.45328  Biso   1.000  O
  O46      1.0000 0.77579  0.62477  0.20349  Biso   1.000  O
  O47      1.0000 0.72424  0.87412  0.45537  Biso   1.000  O
  O48      1.0000 0.72605  0.87491  0.20486  Biso   1.000  O
  Zr25     1.0000 0.14117  0.52040  0.67136  Biso   1.000  Zr
  Zr26     1.0000 0.14159  0.72886  0.92244  Biso   1.000  Zr
  Zr27     1.0000 0.36212  0.77011  0.67273  Biso   1.000  Zr
  Zr28     1.0000 0.36352  0.97877  0.92352  Biso   1.000  Zr
  Zr29     1.0000 0.63925  0.52129  0.57833  Biso   1.000  Zr
  Zr30     1.0000 0.63982  0.73090  0.82706  Biso   1.000  Zr
  Zr31     1.0000 0.86279  0.77018  0.57706  Biso   1.000  Zr
  Zr32     1.0000 0.86471  0.97547  0.82637  Biso   1.000  Zr
  O49      1.0000 0.03367  0.66352  0.58250  Biso   1.000  O
  O50      1.0000 0.03651  0.58602  0.83296  Biso   1.000  O
  O51      1.0000 0.46805  0.91241  0.58348  Biso   1.000  O
  O52      1.0000 0.46863  0.83450  0.83288  Biso   1.000  O
  O53      1.0000 0.27875  0.62240  0.79584  Biso   1.000  O
  O54      1.0000 0.27597  0.62515  0.54581  Biso   1.000  O
  O55      1.0000 0.22613  0.87268  0.79606  Biso   1.000  O
  O56      1.0000 0.22467  0.87389  0.54564  Biso   1.000  O
  O57      1.0000 0.53244  0.66243  0.66850  Biso   1.000  O
  O58      1.0000 0.52998  0.58937  0.92026  Biso   1.000  O
  O59      1.0000 0.97047  0.91332  0.66389  Biso   1.000  O
  O60      1.0000 0.97088  0.83456  0.91841  Biso   1.000  O
  O61      1.0000 0.77730  0.62999  0.95257  Biso   1.000  O
  O62      1.0000 0.77690  0.62663  0.70335  Biso   1.000  O
  O63      1.0000 0.72585  0.87461  0.95415  Biso   1.000  O
  O64      1.0000 0.72561  0.87436  0.70365  Biso   1.000  O
  Be1      1.0000 0.59349  0.28382  0.09823  Biso   1.000  Be
