data_image0
_cell_length_a       10.2553
_cell_length_b       5.1679
_cell_length_c       10.6037
_cell_angle_alpha    89.9942
_cell_angle_beta     79.2206
_cell_angle_gamma    90.0352

_symmetry_space_group_name_H-M    "P 1"
_symmetry_int_tables_number       1

loop_
  _symmetry_equiv_pos_as_xyz
  'x, y, z'

loop_
  _atom_site_label
  _atom_site_occupancy
  _atom_site_fract_x
  _atom_site_fract_y
  _atom_site_fract_z
  _atom_site_thermal_displace_type
  _atom_site_B_iso_or_equiv
  _atom_site_type_symbol
  Zr1      1.0000 0.13354  0.04491  0.13885  Biso   1.000  Zr
  Zr2      1.0000 0.14335  0.45825  0.38929  Biso   1.000  Zr
  Zr3      1.0000 0.35539  0.53703  0.10972  Biso   1.000  Zr
  Zr4      1.0000 0.34943  0.91639  0.34183  Biso   1.000  Zr
  O1       1.0000 0.02701  0.33803  0.07455  Biso   1.000  O
  O2       1.0000 0.03075  0.17501  0.32352  Biso   1.000  O
  O3       1.0000 0.46688  0.83121  0.17014  Biso   1.000  O
  O4       1.0000 0.47046  0.65392  0.42635  Biso   1.000  O
  O5       1.0000 0.26989  0.22849  0.23390  Biso   1.000  O
  O6       1.0000 0.29399  0.26126  0.47704  Biso   1.000  O
  O7       1.0000 0.22277  0.75641  0.00644  Biso   1.000  O
  O8       1.0000 0.20042  0.74691  0.24905  Biso   1.000  O
  Zr5      1.0000 0.14000  0.04725  0.64484  Biso   1.000  Zr
  Zr6      1.0000 0.13601  0.46172  0.89595  Biso   1.000  Zr
  Zr7      1.0000 0.36273  0.54936  0.61386  Biso   1.000  Zr
  Zr8      1.0000 0.36124  0.95732  0.85767  Biso   1.000  Zr
  O9       1.0000 0.04054  0.33183  0.57456  Biso   1.000  O
  O10      1.0000 0.03319  0.17219  0.82596  Biso   1.000  O
  O11      1.0000 0.46955  0.83192  0.67609  Biso   1.000  O
  O12      1.0000 0.46608  0.67364  0.92576  Biso   1.000  O
  O13      1.0000 0.27556  0.25849  0.73847  Biso   1.000  O
  O14      1.0000 0.27189  0.24685  0.98733  Biso   1.000  O
  O15      1.0000 0.22565  0.75984  0.51283  Biso   1.000  O
  O16      1.0000 0.22528  0.74869  0.76129  Biso   1.000  O
  Zr9      1.0000 0.63612  0.04895  0.14717  Biso   1.000  Zr
  Zr10     1.0000 0.65084  0.45826  0.40249  Biso   1.000  Zr
  Zr11     1.0000 0.85660  0.54775  0.10553  Biso   1.000  Zr
  Zr12     1.0000 0.86500  0.95624  0.35484  Biso   1.000  Zr
  O17      1.0000 0.53047  0.32903  0.07748  Biso   1.000  O
  O18      1.0000 0.51752  0.20289  0.32475  Biso   1.000  O
  O19      1.0000 0.95785  0.83881  0.17043  Biso   1.000  O
  O20      1.0000 0.96706  0.67314  0.42473  Biso   1.000  O
  O21      1.0000 0.77000  0.25922  0.24447  Biso   1.000  O
  O22      1.0000 0.78032  0.24064  0.49379  Biso   1.000  O
  O23      1.0000 0.72164  0.76220  0.01268  Biso   1.000  O
  O24      1.0000 0.71943  0.74855  0.26550  Biso   1.000  O
  Zr13     1.0000 0.64159  0.04630  0.64973  Biso   1.000  Zr
  Zr14     1.0000 0.63638  0.46136  0.89819  Biso   1.000  Zr
  Zr15     1.0000 0.86693  0.54637  0.60630  Biso   1.000  Zr
  Zr16     1.0000 0.86048  0.96146  0.85648  Biso   1.000  Zr
  O25      1.0000 0.53647  0.33048  0.58026  Biso   1.000  O
  O26      1.0000 0.53350  0.17347  0.82878  Biso   1.000  O
  O27      1.0000 0.96980  0.83244  0.67461  Biso   1.000  O
  O28      1.0000 0.96362  0.67350  0.92276  Biso   1.000  O
  O29      1.0000 0.77718  0.26109  0.74205  Biso   1.000  O
  O30      1.0000 0.77263  0.24699  0.99255  Biso   1.000  O
  O31      1.0000 0.72642  0.75451  0.51411  Biso   1.000  O
  O32      1.0000 0.72691  0.74725  0.76222  Biso   1.000  O
  Be1      1.0000 0.40496  0.41239  0.36776  Biso   1.000  Be
