data_image0
_cell_length_a       5.14328
_cell_length_b       10.316
_cell_length_c       10.6068
_cell_angle_alpha    90.0918
_cell_angle_beta     79.1713
_cell_angle_gamma    90.0837

_symmetry_space_group_name_H-M    "P 1"
_symmetry_int_tables_number       1

loop_
  _symmetry_equiv_pos_as_xyz
  'x, y, z'

loop_
  _atom_site_label
  _atom_site_occupancy
  _atom_site_fract_x
  _atom_site_fract_y
  _atom_site_fract_z
  _atom_site_thermal_displace_type
  _atom_site_B_iso_or_equiv
  _atom_site_type_symbol
  Zr1      1.0000 0.26725  0.02338  0.14172  Biso   1.000  Zr
  Zr2      1.0000 0.31726  0.23450  0.39446  Biso   1.000  Zr
  Zr3      1.0000 0.70879  0.27152  0.11228  Biso   1.000  Zr
  Zr4      1.0000 0.71324  0.47020  0.34692  Biso   1.000  Zr
  O1       1.0000 0.05255  0.16310  0.07525  Biso   1.000  O
  O2       1.0000 0.03499  0.10684  0.31863  Biso   1.000  O
  O3       1.0000 0.91635  0.42435  0.16534  Biso   1.000  O
  O4       1.0000 0.94973  0.33280  0.42915  Biso   1.000  O
  O5       1.0000 0.52995  0.11466  0.23835  Biso   1.000  O
  O6       1.0000 0.60874  0.13190  0.47726  Biso   1.000  O
  O7       1.0000 0.44236  0.37896  0.00984  Biso   1.000  O
  O8       1.0000 0.40423  0.37856  0.25459  Biso   1.000  O
  Zr5      1.0000 0.27344  0.02073  0.64908  Biso   1.000  Zr
  Zr6      1.0000 0.27031  0.23130  0.89782  Biso   1.000  Zr
  Zr7      1.0000 0.73629  0.27404  0.61475  Biso   1.000  Zr
  Zr8      1.0000 0.72279  0.47890  0.85886  Biso   1.000  Zr
  O9       1.0000 0.09259  0.16457  0.57428  Biso   1.000  O
  O10      1.0000 0.06204  0.08702  0.82645  Biso   1.000  O
  O11      1.0000 0.94469  0.41382  0.67850  Biso   1.000  O
  O12      1.0000 0.92882  0.33647  0.92636  Biso   1.000  O
  O13      1.0000 0.55085  0.12847  0.73890  Biso   1.000  O
  O14      1.0000 0.53982  0.12299  0.98933  Biso   1.000  O
  O15      1.0000 0.46198  0.37696  0.51592  Biso   1.000  O
  O16      1.0000 0.45514  0.37384  0.76277  Biso   1.000  O
  Zr9      1.0000 0.26831  0.52316  0.14408  Biso   1.000  Zr
  Zr10     1.0000 0.27059  0.72126  0.39536  Biso   1.000  Zr
  Zr11     1.0000 0.71406  0.77008  0.10396  Biso   1.000  Zr
  Zr12     1.0000 0.71498  0.96626  0.35141  Biso   1.000  Zr
  O17      1.0000 0.05931  0.66863  0.07532  Biso   1.000  O
  O18      1.0000 0.05600  0.58452  0.32713  Biso   1.000  O
  O19      1.0000 0.93263  0.90923  0.17755  Biso   1.000  O
  O20      1.0000 0.93744  0.83819  0.42608  Biso   1.000  O
  O21      1.0000 0.54420  0.62756  0.23957  Biso   1.000  O
  O22      1.0000 0.54494  0.62206  0.49004  Biso   1.000  O
  O23      1.0000 0.44606  0.87940  0.01009  Biso   1.000  O
  O24      1.0000 0.44007  0.86784  0.26078  Biso   1.000  O
  Zr13     1.0000 0.28423  0.52414  0.64677  Biso   1.000  Zr
  Zr14     1.0000 0.27241  0.72985  0.89644  Biso   1.000  Zr
  Zr15     1.0000 0.72140  0.77151  0.60464  Biso   1.000  Zr
  Zr16     1.0000 0.71874  0.97915  0.85589  Biso   1.000  Zr
  O25      1.0000 0.06021  0.66276  0.57786  Biso   1.000  O
  O26      1.0000 0.06524  0.58794  0.82706  Biso   1.000  O
  O27      1.0000 0.93506  0.91352  0.67577  Biso   1.000  O
  O28      1.0000 0.93196  0.83933  0.92502  Biso   1.000  O
  O29      1.0000 0.55174  0.62915  0.74055  Biso   1.000  O
  O30      1.0000 0.54577  0.62394  0.98988  Biso   1.000  O
  O31      1.0000 0.44808  0.88209  0.51029  Biso   1.000  O
  O32      1.0000 0.44998  0.87248  0.76068  Biso   1.000  O
  Be1      1.0000 0.82505  0.21618  0.36594  Biso   1.000  Be
