data_image0
_cell_length_a       10.0755
_cell_length_b       5.23132
_cell_length_c       10.1029
_cell_angle_alpha    89.5589
_cell_angle_beta     91.0335
_cell_angle_gamma    90.4543

_symmetry_space_group_name_H-M    "P 1"
_symmetry_int_tables_number       1

loop_
  _symmetry_equiv_pos_as_xyz
  'x, y, z'

loop_
  _atom_site_label
  _atom_site_occupancy
  _atom_site_fract_x
  _atom_site_fract_y
  _atom_site_fract_z
  _atom_site_thermal_displace_type
  _atom_site_B_iso_or_equiv
  _atom_site_type_symbol
  Zr1      1.0000 0.13256  0.07254  0.11164  Biso   1.000  Zr
  Zr2      1.0000 0.13196  0.46764  0.38412  Biso   1.000  Zr
  Zr3      1.0000 0.35614  0.52384  0.11800  Biso   1.000  Zr
  Zr4      1.0000 0.36698  0.97046  0.37085  Biso   1.000  Zr
  O1       1.0000 0.01986  0.37669  0.20632  Biso   1.000  O
  O2       1.0000 0.03097  0.14003  0.45133  Biso   1.000  O
  O3       1.0000 0.45463  0.86289  0.19299  Biso   1.000  O
  O4       1.0000 0.46115  0.62815  0.43969  Biso   1.000  O
  O5       1.0000 0.26480  0.23578  0.25018  Biso   1.000  O
  O6       1.0000 0.26970  0.26216  0.49748  Biso   1.000  O
  O7       1.0000 0.23174  0.76754  0.49107  Biso   1.000  O
  O8       1.0000 0.20275  0.71816  0.22920  Biso   1.000  O
  Zr5      1.0000 0.13504  0.02468  0.62607  Biso   1.000  Zr
  Zr6      1.0000 0.14714  0.46188  0.87510  Biso   1.000  Zr
  Zr7      1.0000 0.37094  0.52427  0.62152  Biso   1.000  Zr
  Zr8      1.0000 0.37517  0.95719  0.86793  Biso   1.000  Zr
  O9       1.0000 0.03775  0.35625  0.69360  Biso   1.000  O
  O10      1.0000 0.03587  0.14757  0.93785  Biso   1.000  O
  O11      1.0000 0.47386  0.85504  0.68990  Biso   1.000  O
  O12      1.0000 0.47250  0.62640  0.94448  Biso   1.000  O
  O13      1.0000 0.27365  0.22592  0.74243  Biso   1.000  O
  O14      1.0000 0.29464  0.24214  0.98357  Biso   1.000  O
  O15      1.0000 0.23819  0.77273  0.98962  Biso   1.000  O
  O16      1.0000 0.23984  0.72595  0.74100  Biso   1.000  O
  Zr9      1.0000 0.62481  0.03387  0.12538  Biso   1.000  Zr
  Zr10     1.0000 0.62871  0.46415  0.37722  Biso   1.000  Zr
  Zr11     1.0000 0.84663  0.54185  0.13414  Biso   1.000  Zr
  Zr12     1.0000 0.86543  0.97236  0.37478  Biso   1.000  Zr
  O17      1.0000 0.52877  0.35597  0.19589  Biso   1.000  O
  O18      1.0000 0.53156  0.12847  0.44739  Biso   1.000  O
  O19      1.0000 0.95619  0.88265  0.19976  Biso   1.000  O
  O20      1.0000 0.96722  0.64297  0.45284  Biso   1.000  O
  O21      1.0000 0.76033  0.23836  0.25262  Biso   1.000  O
  O22      1.0000 0.76781  0.26689  0.50063  Biso   1.000  O
  O23      1.0000 0.73175  0.76450  0.50028  Biso   1.000  O
  O24      1.0000 0.71804  0.74221  0.25260  Biso   1.000  O
  Zr13     1.0000 0.64033  0.02545  0.62613  Biso   1.000  Zr
  Zr14     1.0000 0.63560  0.46393  0.87360  Biso   1.000  Zr
  Zr15     1.0000 0.87078  0.52688  0.62714  Biso   1.000  Zr
  Zr16     1.0000 0.86872  0.96487  0.88020  Biso   1.000  Zr
  O25      1.0000 0.54032  0.35999  0.69236  Biso   1.000  O
  O26      1.0000 0.54639  0.12240  0.93881  Biso   1.000  O
  O27      1.0000 0.97512  0.84833  0.71276  Biso   1.000  O
  O28      1.0000 0.99170  0.64504  0.98709  Biso   1.000  O
  O29      1.0000 0.77615  0.22553  0.75172  Biso   1.000  O
  O30      1.0000 0.77306  0.26919  0.00167  Biso   1.000  O
  O31      1.0000 0.73374  0.76501  0.99969  Biso   1.000  O
  O32      1.0000 0.73925  0.72676  0.75146  Biso   1.000  O
  Be1      1.0000 0.09768  0.57466  0.11565  Biso   1.000  Be
