data_image0
_cell_length_a       10.1031
_cell_length_b       5.16434
_cell_length_c       10.5705
_cell_angle_alpha    90.1533
_cell_angle_beta     91.03
_cell_angle_gamma    90.0536

_symmetry_space_group_name_H-M    "P 1"
_symmetry_int_tables_number       1

loop_
  _symmetry_equiv_pos_as_xyz
  'x, y, z'

loop_
  _atom_site_label
  _atom_site_occupancy
  _atom_site_fract_x
  _atom_site_fract_y
  _atom_site_fract_z
  _atom_site_thermal_displace_type
  _atom_site_B_iso_or_equiv
  _atom_site_type_symbol
  Zr1      1.0000 0.13130  0.04093  0.17165  Biso   1.000  Zr
  Zr2      1.0000 0.13517  0.45267  0.42473  Biso   1.000  Zr
  Zr3      1.0000 0.34806  0.54065  0.17962  Biso   1.000  Zr
  Zr4      1.0000 0.35874  0.95234  0.42569  Biso   1.000  Zr
  Zr5      1.0000 0.65014  0.08472  0.06493  Biso   1.000  Zr
  Zr6      1.0000 0.63701  0.45066  0.33967  Biso   1.000  Zr
  Zr7      1.0000 0.85506  0.53954  0.07269  Biso   1.000  Zr
  Zr8      1.0000 0.85848  0.95232  0.32757  Biso   1.000  Zr
  O1       1.0000 0.03448  0.33353  0.08569  Biso   1.000  O
  O2       1.0000 0.02991  0.15728  0.33771  Biso   1.000  O
  O3       1.0000 0.48251  0.79664  0.07747  Biso   1.000  O
  O4       1.0000 0.46349  0.66815  0.33598  Biso   1.000  O
  O5       1.0000 0.27029  0.24636  0.29705  Biso   1.000  O
  O6       1.0000 0.27750  0.24701  0.04855  Biso   1.000  O
  O7       1.0000 0.21814  0.74635  0.29908  Biso   1.000  O
  O8       1.0000 0.22743  0.75476  0.05017  Biso   1.000  O
  O9       1.0000 0.52812  0.34448  0.17075  Biso   1.000  O
  O10      1.0000 0.52941  0.16827  0.41974  Biso   1.000  O
  O11      1.0000 0.95752  0.83540  0.16668  Biso   1.000  O
  O12      1.0000 0.96406  0.65878  0.41527  Biso   1.000  O
  O13      1.0000 0.77464  0.24083  0.45819  Biso   1.000  O
  O14      1.0000 0.77619  0.25253  0.21134  Biso   1.000  O
  O15      1.0000 0.72308  0.74527  0.45319  Biso   1.000  O
  O16      1.0000 0.70577  0.73619  0.19486  Biso   1.000  O
  Zr9      1.0000 0.14340  0.03880  0.67234  Biso   1.000  Zr
  Zr10     1.0000 0.14020  0.45540  0.92293  Biso   1.000  Zr
  Zr11     1.0000 0.36521  0.53735  0.67456  Biso   1.000  Zr
  Zr12     1.0000 0.36344  0.95434  0.92247  Biso   1.000  Zr
  Zr13     1.0000 0.63951  0.04065  0.58289  Biso   1.000  Zr
  Zr14     1.0000 0.64472  0.46437  0.83419  Biso   1.000  Zr
  Zr15     1.0000 0.86248  0.53807  0.57988  Biso   1.000  Zr
  Zr16     1.0000 0.86878  0.95648  0.82378  Biso   1.000  Zr
  O17      1.0000 0.03440  0.32786  0.58566  Biso   1.000  O
  O18      1.0000 0.04192  0.16477  0.83318  Biso   1.000  O
  O19      1.0000 0.46879  0.82511  0.58406  Biso   1.000  O
  O20      1.0000 0.47165  0.67349  0.83316  Biso   1.000  O
  O21      1.0000 0.28157  0.24513  0.79691  Biso   1.000  O
  O22      1.0000 0.27603  0.24582  0.54691  Biso   1.000  O
  O23      1.0000 0.22799  0.74466  0.79814  Biso   1.000  O
  O24      1.0000 0.22559  0.74483  0.54760  Biso   1.000  O
  O25      1.0000 0.53473  0.32636  0.66917  Biso   1.000  O
  O26      1.0000 0.53234  0.16791  0.91291  Biso   1.000  O
  O27      1.0000 0.97271  0.82700  0.66290  Biso   1.000  O
  O28      1.0000 0.97352  0.66881  0.91604  Biso   1.000  O
  O29      1.0000 0.79757  0.24456  0.94370  Biso   1.000  O
  O30      1.0000 0.77903  0.25234  0.70371  Biso   1.000  O
  O31      1.0000 0.73436  0.77563  0.94710  Biso   1.000  O
  O32      1.0000 0.72784  0.74960  0.70191  Biso   1.000  O
  Be1      1.0000 0.59443  0.58541  0.10093  Biso   1.000  Be
