data_image0
_cell_length_a       10.2536
_cell_length_b       10.3117
_cell_length_c       5.24563
_cell_angle_alpha    90.1032
_cell_angle_beta     80.1436
_cell_angle_gamma    90.1233

_symmetry_space_group_name_H-M    "P 1"
_symmetry_int_tables_number       1

loop_
  _symmetry_equiv_pos_as_xyz
  'x, y, z'

loop_
  _atom_site_label
  _atom_site_occupancy
  _atom_site_fract_x
  _atom_site_fract_y
  _atom_site_fract_z
  _atom_site_thermal_displace_type
  _atom_site_B_iso_or_equiv
  _atom_site_type_symbol
  Be1      1.0000 0.04571  0.04898  0.33172  Biso   1.000  Be
  Zr1      1.0000 0.14180  0.51989  0.28910  Biso   1.000  Zr
  Zr2      1.0000 0.64086  0.02092  0.29419  Biso   1.000  Zr
  Zr3      1.0000 0.63911  0.52068  0.29248  Biso   1.000  Zr
  Zr4      1.0000 0.14172  0.22200  0.78677  Biso   1.000  Zr
  Zr5      1.0000 0.14389  0.73108  0.78833  Biso   1.000  Zr
  Zr6      1.0000 0.63977  0.22863  0.79111  Biso   1.000  Zr
  Zr7      1.0000 0.64017  0.72783  0.79582  Biso   1.000  Zr
  Zr8      1.0000 0.35776  0.26572  0.20995  Biso   1.000  Zr
  Zr9      1.0000 0.35751  0.77512  0.20903  Biso   1.000  Zr
  Zr10     1.0000 0.86237  0.27134  0.20652  Biso   1.000  Zr
  Zr11     1.0000 0.86496  0.77166  0.21194  Biso   1.000  Zr
  Zr12     1.0000 0.35989  0.47651  0.70797  Biso   1.000  Zr
  Zr13     1.0000 0.35733  0.97723  0.70679  Biso   1.000  Zr
  Zr14     1.0000 0.86305  0.47891  0.70943  Biso   1.000  Zr
  Zr15     1.0000 0.86026  0.97751  0.71547  Biso   1.000  Zr
  O1       1.0000 0.03266  0.15868  0.14239  Biso   1.000  O
  O2       1.0000 0.03607  0.66773  0.16106  Biso   1.000  O
  O3       1.0000 0.53630  0.16578  0.15875  Biso   1.000  O
  O4       1.0000 0.53329  0.66389  0.15765  Biso   1.000  O
  O5       1.0000 0.03120  0.08966  0.62340  Biso   1.000  O
  O6       1.0000 0.03505  0.58234  0.65763  Biso   1.000  O
  O7       1.0000 0.53771  0.08199  0.65934  Biso   1.000  O
  O8       1.0000 0.53356  0.58395  0.65764  Biso   1.000  O
  O9       1.0000 0.46763  0.41307  0.34408  Biso   1.000  O
  O10      1.0000 0.47252  0.91262  0.34640  Biso   1.000  O
  O11      1.0000 0.96791  0.41499  0.34212  Biso   1.000  O
  O12      1.0000 0.96193  0.92541  0.33370  Biso   1.000  O
  O13      1.0000 0.46948  0.33549  0.84480  Biso   1.000  O
  O14      1.0000 0.47414  0.83853  0.84880  Biso   1.000  O
  O15      1.0000 0.96857  0.33358  0.84300  Biso   1.000  O
  O16      1.0000 0.96754  0.83283  0.83829  Biso   1.000  O
  O17      1.0000 0.28874  0.13286  0.49745  Biso   1.000  O
  O18      1.0000 0.27697  0.62405  0.47831  Biso   1.000  O
  O19      1.0000 0.77728  0.12941  0.48072  Biso   1.000  O
  O20      1.0000 0.77635  0.62827  0.48266  Biso   1.000  O
  O21      1.0000 0.28646  0.12887  0.96424  Biso   1.000  O
  O22      1.0000 0.27684  0.61911  0.98003  Biso   1.000  O
  O23      1.0000 0.77624  0.12115  0.98047  Biso   1.000  O
  O24      1.0000 0.77697  0.62121  0.98392  Biso   1.000  O
  O25      1.0000 0.22463  0.37704  0.01614  Biso   1.000  O
  O26      1.0000 0.23294  0.87198  0.00303  Biso   1.000  O
  O27      1.0000 0.72704  0.37819  0.01961  Biso   1.000  O
  O28      1.0000 0.72705  0.87686  0.02530  Biso   1.000  O
  O29      1.0000 0.22335  0.36999  0.51658  Biso   1.000  O
  O30      1.0000 0.23364  0.86361  0.52083  Biso   1.000  O
  O31      1.0000 0.72624  0.37182  0.51923  Biso   1.000  O
  O32      1.0000 0.72753  0.87105  0.52579  Biso   1.000  O
