data_image0
_cell_length_a       10.1877
_cell_length_b       5.25306
_cell_length_c       10.2714
_cell_angle_alpha    83.8846
_cell_angle_beta     92.338
_cell_angle_gamma    93.428

_symmetry_space_group_name_H-M    "P 1"
_symmetry_int_tables_number       1

loop_
  _symmetry_equiv_pos_as_xyz
  'x, y, z'

loop_
  _atom_site_label
  _atom_site_occupancy
  _atom_site_fract_x
  _atom_site_fract_y
  _atom_site_fract_z
  _atom_site_thermal_displace_type
  _atom_site_B_iso_or_equiv
  _atom_site_type_symbol
  Hf1      1.0000 0.14631  0.95982  0.10525  Biso   1.000  Hf
  Hf2      1.0000 0.11700  0.50834  0.40056  Biso   1.000  Hf
  Hf3      1.0000 0.35128  0.49162  0.12965  Biso   1.000  Hf
  Hf4      1.0000 0.38886  0.98890  0.35130  Biso   1.000  Hf
  O1       1.0000 0.95974  0.41445  0.27578  Biso   1.000  O
  O2       1.0000 0.05030  0.14375  0.44920  Biso   1.000  O
  O3       1.0000 0.45096  0.85168  0.17908  Biso   1.000  O
  O4       1.0000 0.47268  0.65282  0.44096  Biso   1.000  O
  O5       1.0000 0.24528  0.17788  0.23532  Biso   1.000  O
  O6       1.0000 0.27729  0.29834  0.49010  Biso   1.000  O
  O7       1.0000 0.24969  0.79979  0.48760  Biso   1.000  O
  O8       1.0000 0.21809  0.67079  0.23924  Biso   1.000  O
  Hf5      1.0000 0.15306  0.02361  0.61246  Biso   1.000  Hf
  Hf6      1.0000 0.16538  0.41744  0.84185  Biso   1.000  Hf
  Hf7      1.0000 0.37766  0.53207  0.60843  Biso   1.000  Hf
  Hf8      1.0000 0.37641  0.93091  0.87561  Biso   1.000  Hf
  O9       1.0000 0.07572  0.37827  0.65449  Biso   1.000  O
  O10      1.0000 0.06639  0.05841  0.90589  Biso   1.000  O
  O11      1.0000 0.50221  0.80185  0.72712  Biso   1.000  O
  O12      1.0000 0.46276  0.60385  0.96040  Biso   1.000  O
  O13      1.0000 0.29450  0.21350  0.73940  Biso   1.000  O
  O14      1.0000 0.28835  0.20820  0.99242  Biso   1.000  O
  O15      1.0000 0.23211  0.71291  0.98411  Biso   1.000  O
  O16      1.0000 0.25796  0.72285  0.73437  Biso   1.000  O
  Hf9      1.0000 0.62228  0.08414  0.12654  Biso   1.000  Hf
  Hf10     1.0000 0.63417  0.47166  0.40746  Biso   1.000  Hf
  Hf11     1.0000 0.81232  0.62230  0.16676  Biso   1.000  Hf
  Hf12     1.0000 0.87641  0.03413  0.38036  Biso   1.000  Hf
  O17      1.0000 0.49626  0.31638  0.23461  Biso   1.000  O
  O18      1.0000 0.53815  0.12594  0.46814  Biso   1.000  O
  O19      1.0000 0.96394  0.92260  0.21263  Biso   1.000  O
  O20      1.0000 0.97003  0.68844  0.46580  Biso   1.000  O
  O21      1.0000 0.73238  0.27707  0.27075  Biso   1.000  O
  O22      1.0000 0.78568  0.28089  0.51594  Biso   1.000  O
  O23      1.0000 0.73884  0.76932  0.51764  Biso   1.000  O
  O24      1.0000 0.69627  0.79581  0.27398  Biso   1.000  O
  Hf13     1.0000 0.65735  0.01671  0.63696  Biso   1.000  Hf
  Hf14     1.0000 0.60242  0.47946  0.85403  Biso   1.000  Hf
  Hf15     1.0000 0.89047  0.54045  0.64402  Biso   1.000  Hf
  Hf16     1.0000 0.88771  0.91844  0.86390  Biso   1.000  Hf
  O25      1.0000 0.54711  0.34393  0.67598  Biso   1.000  O
  O26      1.0000 0.53875  0.12192  0.93650  Biso   1.000  O
  O27      1.0000 0.97101  0.90265  0.67614  Biso   1.000  O
  O28      1.0000 0.98139  0.55395  0.84768  Biso   1.000  O
  O29      1.0000 0.78459  0.20859  0.76662  Biso   1.000  O
  O30      1.0000 0.70469  0.42813  0.03108  Biso   1.000  O
  O31      1.0000 0.76938  0.92027  0.02505  Biso   1.000  O
  O32      1.0000 0.74814  0.70824  0.76376  Biso   1.000  O
  Bi1      1.0000 0.00556  0.40885  0.06379  Biso   1.000  Bi
