data_image0
_cell_length_a       5.14239
_cell_length_b       10.4751
_cell_length_c       10.5611
_cell_angle_alpha    88.5417
_cell_angle_beta     78.7708
_cell_angle_gamma    89.0117

_symmetry_space_group_name_H-M    "P 1"
_symmetry_int_tables_number       1

loop_
  _symmetry_equiv_pos_as_xyz
  'x, y, z'

loop_
  _atom_site_label
  _atom_site_occupancy
  _atom_site_fract_x
  _atom_site_fract_y
  _atom_site_fract_z
  _atom_site_thermal_displace_type
  _atom_site_B_iso_or_equiv
  _atom_site_type_symbol
  Hf1      1.0000 0.25754  0.00710  0.14241  Biso   1.000  Hf
  Hf2      1.0000 0.37206  0.24611  0.41213  Biso   1.000  Hf
  Hf3      1.0000 0.68788  0.26472  0.09958  Biso   1.000  Hf
  Hf4      1.0000 0.72388  0.49641  0.35848  Biso   1.000  Hf
  O1       1.0000 0.04270  0.15288  0.07034  Biso   1.000  O
  O2       1.0000 0.04526  0.03585  0.32824  Biso   1.000  O
  O3       1.0000 0.93400  0.42683  0.17369  Biso   1.000  O
  O4       1.0000 0.98568  0.39091  0.45585  Biso   1.000  O
  O5       1.0000 0.51461  0.11486  0.23734  Biso   1.000  O
  O6       1.0000 0.56824  0.10086  0.49310  Biso   1.000  O
  O7       1.0000 0.43002  0.37916  0.01329  Biso   1.000  O
  O8       1.0000 0.45723  0.38662  0.26143  Biso   1.000  O
  Hf5      1.0000 0.27509  0.02067  0.64406  Biso   1.000  Hf
  Hf6      1.0000 0.26416  0.22599  0.89303  Biso   1.000  Hf
  Hf7      1.0000 0.75771  0.28375  0.61472  Biso   1.000  Hf
  Hf8      1.0000 0.71503  0.47874  0.86228  Biso   1.000  Hf
  O9       1.0000 0.09287  0.17368  0.57203  Biso   1.000  O
  O10      1.0000 0.05504  0.08831  0.82168  Biso   1.000  O
  O11      1.0000 0.95139  0.40989  0.69446  Biso   1.000  O
  O12      1.0000 0.92224  0.33519  0.93175  Biso   1.000  O
  O13      1.0000 0.54347  0.13222  0.73812  Biso   1.000  O
  O14      1.0000 0.53379  0.12195  0.98748  Biso   1.000  O
  O15      1.0000 0.47838  0.38530  0.52397  Biso   1.000  O
  O16      1.0000 0.45920  0.37442  0.76729  Biso   1.000  O
  Hf9      1.0000 0.27687  0.52568  0.14775  Biso   1.000  Hf
  Hf10     1.0000 0.25980  0.72687  0.39844  Biso   1.000  Hf
  Hf11     1.0000 0.71319  0.76807  0.09918  Biso   1.000  Hf
  Hf12     1.0000 0.68834  0.96005  0.35034  Biso   1.000  Hf
  O17      1.0000 0.06234  0.66806  0.07317  Biso   1.000  O
  O18      1.0000 0.05878  0.59886  0.31866  Biso   1.000  O
  O19      1.0000 0.90794  0.90762  0.16382  Biso   1.000  O
  O20      1.0000 0.90206  0.81973  0.42338  Biso   1.000  O
  O21      1.0000 0.54731  0.63153  0.24291  Biso   1.000  O
  O22      1.0000 0.53305  0.62463  0.49471  Biso   1.000  O
  O23      1.0000 0.44182  0.87690  0.00446  Biso   1.000  O
  O24      1.0000 0.42656  0.86108  0.25453  Biso   1.000  O
  Hf13     1.0000 0.27345  0.52633  0.65353  Biso   1.000  Hf
  Hf14     1.0000 0.26640  0.72889  0.89498  Biso   1.000  Hf
  Hf15     1.0000 0.71457  0.77372  0.60677  Biso   1.000  Hf
  Hf16     1.0000 0.71624  0.98034  0.84899  Biso   1.000  Hf
  O25      1.0000 0.04936  0.66200  0.58225  Biso   1.000  O
  O26      1.0000 0.05879  0.58672  0.83145  Biso   1.000  O
  O27      1.0000 0.92442  0.91962  0.66785  Biso   1.000  O
  O28      1.0000 0.92554  0.83479  0.91530  Biso   1.000  O
  O29      1.0000 0.54196  0.62953  0.74252  Biso   1.000  O
  O30      1.0000 0.54491  0.62143  0.99138  Biso   1.000  O
  O31      1.0000 0.42227  0.87152  0.51111  Biso   1.000  O
  O32      1.0000 0.44412  0.87466  0.75873  Biso   1.000  O
  Bi1      1.0000 0.95508  0.23891  0.30203  Biso   1.000  Bi
