data_image0
_cell_length_a       10.1538
_cell_length_b       10.3223
_cell_length_c       5.24138
_cell_angle_alpha    90.0166
_cell_angle_beta     80.5642
_cell_angle_gamma    90.0389

_symmetry_space_group_name_H-M    "P 1"
_symmetry_int_tables_number       1

loop_
  _symmetry_equiv_pos_as_xyz
  'x, y, z'

loop_
  _atom_site_label
  _atom_site_occupancy
  _atom_site_fract_x
  _atom_site_fract_y
  _atom_site_fract_z
  _atom_site_thermal_displace_type
  _atom_site_B_iso_or_equiv
  _atom_site_type_symbol
  Bi1      1.0000 0.13411  0.01785  0.29261  Biso   1.000  Bi
  Hf1      1.0000 0.13987  0.23174  0.79043  Biso   1.000  Hf
  Hf2      1.0000 0.36211  0.27175  0.20671  Biso   1.000  Hf
  Hf3      1.0000 0.36120  0.47853  0.70681  Biso   1.000  Hf
  O1       1.0000 0.03668  0.18177  0.15896  Biso   1.000  O
  O2       1.0000 0.03155  0.08080  0.67955  Biso   1.000  O
  O3       1.0000 0.46463  0.41834  0.34057  Biso   1.000  O
  O4       1.0000 0.46542  0.33200  0.84011  Biso   1.000  O
  O5       1.0000 0.28119  0.13306  0.48812  Biso   1.000  O
  O6       1.0000 0.28227  0.12535  0.96654  Biso   1.000  O
  O7       1.0000 0.22450  0.38020  0.01679  Biso   1.000  O
  O8       1.0000 0.22315  0.37203  0.51599  Biso   1.000  O
  Hf4      1.0000 0.13844  0.52121  0.29032  Biso   1.000  Hf
  Hf5      1.0000 0.13837  0.72646  0.79153  Biso   1.000  Hf
  Hf6      1.0000 0.36467  0.76907  0.20707  Biso   1.000  Hf
  Hf7      1.0000 0.36463  0.97829  0.70643  Biso   1.000  Hf
  O9       1.0000 0.03663  0.67196  0.16296  Biso   1.000  O
  O10      1.0000 0.03583  0.57961  0.65948  Biso   1.000  O
  O11      1.0000 0.46526  0.91934  0.33874  Biso   1.000  O
  O12      1.0000 0.46828  0.83111  0.84169  Biso   1.000  O
  O13      1.0000 0.27670  0.62658  0.47863  Biso   1.000  O
  O14      1.0000 0.27619  0.61946  0.97997  Biso   1.000  O
  O15      1.0000 0.23206  0.87235  0.00409  Biso   1.000  O
  O16      1.0000 0.22991  0.86390  0.52232  Biso   1.000  O
  Hf8      1.0000 0.63934  0.02166  0.29353  Biso   1.000  Hf
  Hf9      1.0000 0.63837  0.22918  0.79279  Biso   1.000  Hf
  Hf10     1.0000 0.85905  0.27313  0.20907  Biso   1.000  Hf
  Hf11     1.0000 0.86144  0.47831  0.70684  Biso   1.000  Hf
  O17      1.0000 0.53618  0.16926  0.16038  Biso   1.000  O
  O18      1.0000 0.53882  0.07987  0.66050  Biso   1.000  O
  O19      1.0000 0.96169  0.42288  0.33682  Biso   1.000  O
  O20      1.0000 0.96286  0.33193  0.83798  Biso   1.000  O
  O21      1.0000 0.77663  0.13052  0.48369  Biso   1.000  O
  O22      1.0000 0.77507  0.12130  0.98492  Biso   1.000  O
  O23      1.0000 0.72288  0.37938  0.01887  Biso   1.000  O
  O24      1.0000 0.72295  0.37119  0.51963  Biso   1.000  O
  Hf12     1.0000 0.63845  0.51993  0.29174  Biso   1.000  Hf
  Hf13     1.0000 0.63868  0.72715  0.78983  Biso   1.000  Hf
  Hf14     1.0000 0.85863  0.76772  0.20599  Biso   1.000  Hf
  Hf15     1.0000 0.85596  0.97811  0.71789  Biso   1.000  Hf
  O25      1.0000 0.53724  0.66736  0.15867  Biso   1.000  O
  O26      1.0000 0.53519  0.58080  0.65799  Biso   1.000  O
  O27      1.0000 0.94763  0.92082  0.34491  Biso   1.000  O
  O28      1.0000 0.96430  0.83069  0.84018  Biso   1.000  O
  O29      1.0000 0.77534  0.62837  0.47937  Biso   1.000  O
  O30      1.0000 0.77645  0.61986  0.97894  Biso   1.000  O
  O31      1.0000 0.72278  0.87825  0.02097  Biso   1.000  O
  O32      1.0000 0.72039  0.86956  0.52212  Biso   1.000  O
