data_image0
_cell_length_a       5.0262
_cell_length_b       10.252
_cell_length_c       10.0502
_cell_angle_alpha    90.0022
_cell_angle_beta     89.9997
_cell_angle_gamma    90.0021

_symmetry_space_group_name_H-M    "P 1"
_symmetry_int_tables_number       1

loop_
  _symmetry_equiv_pos_as_xyz
  'x, y, z'

loop_
  _atom_site_label
  _atom_site_occupancy
  _atom_site_fract_x
  _atom_site_fract_y
  _atom_site_fract_z
  _atom_site_thermal_displace_type
  _atom_site_B_iso_or_equiv
  _atom_site_type_symbol
  Bi1      1.0000 0.24990  0.99998  0.12493  Biso   1.000  Bi
  Hf1      1.0000 0.24927  0.25227  0.37630  Biso   1.000  Hf
  Hf2      1.0000 0.74990  0.25383  0.12492  Biso   1.000  Hf
  Hf3      1.0000 0.74991  0.99997  0.37743  Biso   1.000  Hf
  O1       1.0000 0.99831  0.15133  0.99807  Biso   1.000  O
  O2       1.0000 0.98683  0.10999  0.25696  Biso   1.000  O
  O3       1.0000 0.00826  0.35418  0.24804  Biso   1.000  O
  O4       1.0000 0.99389  0.39868  0.99977  Biso   1.000  O
  O5       1.0000 0.50151  0.15134  0.25180  Biso   1.000  O
  O6       1.0000 0.51298  0.10998  0.99291  Biso   1.000  O
  O7       1.0000 0.49155  0.35417  0.00181  Biso   1.000  O
  O8       1.0000 0.50594  0.39869  0.25007  Biso   1.000  O
  Hf4      1.0000 0.24991  0.99999  0.62492  Biso   1.000  Hf
  Hf5      1.0000 0.25052  0.25225  0.87353  Biso   1.000  Hf
  Hf6      1.0000 0.74990  0.24889  0.62491  Biso   1.000  Hf
  Hf7      1.0000 0.74991  0.99997  0.87242  Biso   1.000  Hf
  O9       1.0000 0.00881  0.14938  0.50436  Biso   1.000  O
  O10      1.0000 0.99520  0.10111  0.74972  Biso   1.000  O
  O11      1.0000 0.99865  0.35211  0.74825  Biso   1.000  O
  O12      1.0000 0.00206  0.39863  0.49825  Biso   1.000  O
  O13      1.0000 0.49109  0.14938  0.74551  Biso   1.000  O
  O14      1.0000 0.50469  0.10112  0.50016  Biso   1.000  O
  O15      1.0000 0.50121  0.35212  0.50159  Biso   1.000  O
  O16      1.0000 0.49780  0.39862  0.75159  Biso   1.000  O
  Hf8      1.0000 0.24991  0.49998  0.12493  Biso   1.000  Hf
  Hf9      1.0000 0.25050  0.74770  0.37630  Biso   1.000  Hf
  Hf10     1.0000 0.74989  0.74613  0.12492  Biso   1.000  Hf
  Hf11     1.0000 0.74991  0.49998  0.37546  Biso   1.000  Hf
  O17      1.0000 0.00829  0.64578  0.00183  Biso   1.000  O
  O18      1.0000 0.99392  0.60128  0.25009  Biso   1.000  O
  O19      1.0000 0.99828  0.84863  0.25181  Biso   1.000  O
  O20      1.0000 0.98680  0.88997  0.99292  Biso   1.000  O
  O21      1.0000 0.49158  0.64578  0.24806  Biso   1.000  O
  O22      1.0000 0.50597  0.60127  0.99980  Biso   1.000  O
  O23      1.0000 0.50148  0.84862  0.99806  Biso   1.000  O
  O24      1.0000 0.51296  0.88997  0.25695  Biso   1.000  O
  Hf12     1.0000 0.24990  0.49998  0.62495  Biso   1.000  Hf
  Hf13     1.0000 0.24924  0.74771  0.87354  Biso   1.000  Hf
  Hf14     1.0000 0.74986  0.75107  0.62492  Biso   1.000  Hf
  Hf15     1.0000 0.74990  0.49997  0.87441  Biso   1.000  Hf
  O25      1.0000 0.99863  0.64785  0.50161  Biso   1.000  O
  O26      1.0000 0.00203  0.60133  0.75161  Biso   1.000  O
  O27      1.0000 0.00870  0.85058  0.74552  Biso   1.000  O
  O28      1.0000 0.99514  0.89885  0.50016  Biso   1.000  O
  O29      1.0000 0.50117  0.64784  0.74827  Biso   1.000  O
  O30      1.0000 0.49779  0.60133  0.49828  Biso   1.000  O
  O31      1.0000 0.49102  0.85058  0.50435  Biso   1.000  O
  O32      1.0000 0.50459  0.89884  0.74971  Biso   1.000  O
