data_image0
_cell_length_a       10.1975
_cell_length_b       10.3537
_cell_length_c       10.511
_cell_angle_alpha    89.729
_cell_angle_beta     79.5797
_cell_angle_gamma    89.7963

_symmetry_space_group_name_H-M    "P 1"
_symmetry_int_tables_number       1

loop_
  _symmetry_equiv_pos_as_xyz
  'x, y, z'

loop_
  _atom_site_label
  _atom_site_occupancy
  _atom_site_fract_x
  _atom_site_fract_y
  _atom_site_fract_z
  _atom_site_thermal_displace_type
  _atom_site_B_iso_or_equiv
  _atom_site_type_symbol
  Hf1      1.0000 0.13124  0.01938  0.14245  Biso   1.000  Hf
  Hf2      1.0000 0.14191  0.22644  0.39167  Biso   1.000  Hf
  Hf3      1.0000 0.34642  0.26859  0.09379  Biso   1.000  Hf
  Hf4      1.0000 0.35434  0.49127  0.35545  Biso   1.000  Hf
  O1       1.0000 0.03192  0.16833  0.07661  Biso   1.000  O
  O2       1.0000 0.03083  0.08075  0.32970  Biso   1.000  O
  O3       1.0000 0.46055  0.42924  0.16743  Biso   1.000  O
  O4       1.0000 0.48653  0.39432  0.45290  Biso   1.000  O
  O5       1.0000 0.26329  0.11749  0.23182  Biso   1.000  O
  O6       1.0000 0.27492  0.11054  0.48713  Biso   1.000  O
  O7       1.0000 0.21682  0.38105  0.00336  Biso   1.000  O
  O8       1.0000 0.21444  0.37368  0.25356  Biso   1.000  O
  Hf5      1.0000 0.13922  0.01965  0.64499  Biso   1.000  Hf
  Hf6      1.0000 0.13390  0.22858  0.89031  Biso   1.000  Hf
  Hf7      1.0000 0.36584  0.27798  0.60141  Biso   1.000  Hf
  Hf8      1.0000 0.35952  0.47777  0.85527  Biso   1.000  Hf
  O9       1.0000 0.04163  0.16989  0.58002  Biso   1.000  O
  O10      1.0000 0.03196  0.08244  0.82749  Biso   1.000  O
  O11      1.0000 0.47030  0.40759  0.68696  Biso   1.000  O
  O12      1.0000 0.46465  0.33554  0.92738  Biso   1.000  O
  O13      1.0000 0.27463  0.13029  0.73569  Biso   1.000  O
  O14      1.0000 0.26976  0.12288  0.98356  Biso   1.000  O
  O15      1.0000 0.22397  0.37870  0.50783  Biso   1.000  O
  O16      1.0000 0.22436  0.37241  0.75656  Biso   1.000  O
  Hf9      1.0000 0.13839  0.52174  0.14404  Biso   1.000  Hf
  Hf10     1.0000 0.13411  0.72872  0.39754  Biso   1.000  Hf
  Hf11     1.0000 0.35782  0.77099  0.10048  Biso   1.000  Hf
  Hf12     1.0000 0.35364  0.96210  0.35430  Biso   1.000  Hf
  O17      1.0000 0.03346  0.66934  0.07875  Biso   1.000  O
  O18      1.0000 0.03656  0.58366  0.32753  Biso   1.000  O
  O19      1.0000 0.46138  0.91157  0.16747  Biso   1.000  O
  O20      1.0000 0.45576  0.81944  0.42334  Biso   1.000  O
  O21      1.0000 0.27368  0.63088  0.24023  Biso   1.000  O
  O22      1.0000 0.26970  0.62298  0.49343  Biso   1.000  O
  O23      1.0000 0.22245  0.87993  0.00739  Biso   1.000  O
  O24      1.0000 0.21725  0.86604  0.25767  Biso   1.000  O
  Hf13     1.0000 0.13767  0.52255  0.64751  Biso   1.000  Hf
  Hf14     1.0000 0.13641  0.72860  0.89609  Biso   1.000  Hf
  Hf15     1.0000 0.36055  0.77041  0.60674  Biso   1.000  Hf
  Hf16     1.0000 0.35982  0.98030  0.85080  Biso   1.000  Hf
  O25      1.0000 0.02867  0.66493  0.57983  Biso   1.000  O
  O26      1.0000 0.03278  0.58360  0.83004  Biso   1.000  O
  O27      1.0000 0.46428  0.91901  0.66836  Biso   1.000  O
  O28      1.0000 0.46370  0.83478  0.91730  Biso   1.000  O
  O29      1.0000 0.27439  0.62768  0.74095  Biso   1.000  O
  O30      1.0000 0.27413  0.62195  0.98997  Biso   1.000  O
  O31      1.0000 0.21817  0.87278  0.51201  Biso   1.000  O
  O32      1.0000 0.22336  0.87146  0.75984  Biso   1.000  O
  Hf17     1.0000 0.63721  0.01242  0.14774  Biso   1.000  Hf
  Hf18     1.0000 0.67739  0.24019  0.41357  Biso   1.000  Hf
  Hf19     1.0000 0.85964  0.27323  0.10838  Biso   1.000  Hf
  Hf20     1.0000 0.86739  0.48298  0.35633  Biso   1.000  Hf
  O33      1.0000 0.52325  0.15254  0.07139  Biso   1.000  O
  O34      1.0000 0.53632  0.04001  0.33688  Biso   1.000  O
  O35      1.0000 0.96621  0.41993  0.16936  Biso   1.000  O
  O36      1.0000 0.96518  0.32888  0.42191  Biso   1.000  O
  O37      1.0000 0.77668  0.12921  0.24769  Biso   1.000  O
  O38      1.0000 0.78969  0.11439  0.50150  Biso   1.000  O
  O39      1.0000 0.72030  0.37757  0.01737  Biso   1.000  O
  O40      1.0000 0.73374  0.37881  0.26716  Biso   1.000  O
  Hf21     1.0000 0.63771  0.02254  0.64667  Biso   1.000  Hf
  Hf22     1.0000 0.63686  0.22722  0.89963  Biso   1.000  Hf
  Hf23     1.0000 0.87086  0.27114  0.61395  Biso   1.000  Hf
  Hf24     1.0000 0.85864  0.47917  0.85818  Biso   1.000  Hf
  O41      1.0000 0.54131  0.17148  0.57139  Biso   1.000  O
  O42      1.0000 0.53062  0.08837  0.82327  Biso   1.000  O
  O43      1.0000 0.96726  0.41826  0.67604  Biso   1.000  O
  O44      1.0000 0.96053  0.33187  0.92200  Biso   1.000  O
  O45      1.0000 0.77457  0.12962  0.74588  Biso   1.000  O
  O46      1.0000 0.77230  0.12029  0.99594  Biso   1.000  O
  O47      1.0000 0.73804  0.38266  0.52242  Biso   1.000  O
  O48      1.0000 0.72571  0.37177  0.76741  Biso   1.000  O
  Hf25     1.0000 0.63646  0.52713  0.14648  Biso   1.000  Hf
  Hf26     1.0000 0.63699  0.72714  0.39644  Biso   1.000  Hf
  Hf27     1.0000 0.85980  0.76988  0.10409  Biso   1.000  Hf
  Hf28     1.0000 0.85986  0.97623  0.35487  Biso   1.000  Hf
  O49      1.0000 0.53301  0.66905  0.07352  Biso   1.000  O
  O50      1.0000 0.52935  0.59666  0.31896  Biso   1.000  O
  O51      1.0000 0.96038  0.91555  0.17223  Biso   1.000  O
  O52      1.0000 0.96182  0.83054  0.42238  Biso   1.000  O
  O53      1.0000 0.77647  0.62923  0.24148  Biso   1.000  O
  O54      1.0000 0.77311  0.62198  0.49077  Biso   1.000  O
  O55      1.0000 0.72231  0.87714  0.00958  Biso   1.000  O
  O56      1.0000 0.72341  0.86757  0.25867  Biso   1.000  O
  Hf29     1.0000 0.63587  0.52219  0.64995  Biso   1.000  Hf
  Hf30     1.0000 0.63561  0.72922  0.89477  Biso   1.000  Hf
  Hf31     1.0000 0.85822  0.77264  0.60519  Biso   1.000  Hf
  Hf32     1.0000 0.85937  0.97872  0.85479  Biso   1.000  Hf
  O57      1.0000 0.53195  0.66436  0.58062  Biso   1.000  O
  O58      1.0000 0.53114  0.58507  0.82941  Biso   1.000  O
  O59      1.0000 0.96308  0.91781  0.67129  Biso   1.000  O
  O60      1.0000 0.96414  0.83348  0.92117  Biso   1.000  O
  O61      1.0000 0.77290  0.62936  0.74111  Biso   1.000  O
  O62      1.0000 0.77403  0.62180  0.99084  Biso   1.000  O
  O63      1.0000 0.71983  0.87823  0.50987  Biso   1.000  O
  O64      1.0000 0.72213  0.87349  0.76019  Biso   1.000  O
  Bi1      1.0000 0.47154  0.24070  0.29929  Biso   1.000  Bi
