data_image0
_cell_length_a       10.4518
_cell_length_b       10.4122
_cell_length_c       5.14429
_cell_angle_alpha    97.146
_cell_angle_beta     94.1239
_cell_angle_gamma    87.1099

_symmetry_space_group_name_H-M    "P 1"
_symmetry_int_tables_number       1

loop_
  _symmetry_equiv_pos_as_xyz
  'x, y, z'

loop_
  _atom_site_label
  _atom_site_occupancy
  _atom_site_fract_x
  _atom_site_fract_y
  _atom_site_fract_z
  _atom_site_thermal_displace_type
  _atom_site_B_iso_or_equiv
  _atom_site_type_symbol
  Hf1      1.0000 0.11368  0.96343  0.41121  Biso   1.000  Hf
  Hf2      1.0000 0.13158  0.28074  0.58255  Biso   1.000  Hf
  Hf3      1.0000 0.40100  0.26863  0.15029  Biso   1.000  Hf
  Hf4      1.0000 0.40610  0.02635  0.70666  Biso   1.000  Hf
  O1       1.0000 0.91236  0.16562  0.95295  Biso   1.000  O
  O2       1.0000 0.00084  0.13764  0.47206  Biso   1.000  O
  O3       1.0000 0.98984  0.38140  0.36122  Biso   1.000  O
  O4       1.0000 0.04179  0.41869  0.85969  Biso   1.000  O
  O5       1.0000 0.24205  0.10811  0.52311  Biso   1.000  O
  O6       1.0000 0.33001  0.09404  0.04020  Biso   1.000  O
  O7       1.0000 0.29118  0.33468  0.83603  Biso   1.000  O
  O8       1.0000 0.25265  0.38794  0.37408  Biso   1.000  O
  Hf5      1.0000 0.10492  0.51197  0.21678  Biso   1.000  Hf
  Hf6      1.0000 0.14307  0.73882  0.79177  Biso   1.000  Hf
  Hf7      1.0000 0.36445  0.73073  0.29651  Biso   1.000  Hf
  Hf8      1.0000 0.36816  0.48778  0.69651  Biso   1.000  Hf
  O9       1.0000 0.00813  0.66042  0.01850  Biso   1.000  O
  O10      1.0000 0.99866  0.62127  0.50231  Biso   1.000  O
  O11      1.0000 0.99993  0.85787  0.62575  Biso   1.000  O
  O12      1.0000 0.95600  0.90705  0.16260  Biso   1.000  O
  O13      1.0000 0.24047  0.62577  0.49523  Biso   1.000  O
  O14      1.0000 0.26403  0.59771  0.99052  Biso   1.000  O
  O15      1.0000 0.21472  0.83691  0.13591  Biso   1.000  O
  O16      1.0000 0.26425  0.86443  0.62917  Biso   1.000  O
  Hf9      1.0000 0.62689  0.98729  0.29093  Biso   1.000  Hf
  Hf10     1.0000 0.62326  0.27674  0.71949  Biso   1.000  Hf
  Hf11     1.0000 0.83873  0.23275  0.29189  Biso   1.000  Hf
  Hf12     1.0000 0.85704  0.98217  0.85460  Biso   1.000  Hf
  O17      1.0000 0.52220  0.17023  0.91419  Biso   1.000  O
  O18      1.0000 0.49732  0.12376  0.43638  Biso   1.000  O
  O19      1.0000 0.50770  0.37349  0.46012  Biso   1.000  O
  O20      1.0000 0.49906  0.42508  0.97706  Biso   1.000  O
  O21      1.0000 0.74196  0.13985  0.55375  Biso   1.000  O
  O22      1.0000 0.72989  0.08137  0.08077  Biso   1.000  O
  O23      1.0000 0.71941  0.34468  0.06638  Biso   1.000  O
  O24      1.0000 0.75570  0.39805  0.55536  Biso   1.000  O
  Hf13     1.0000 0.63628  0.51279  0.24998  Biso   1.000  Hf
  Hf14     1.0000 0.60066  0.75795  0.76962  Biso   1.000  Hf
  Hf15     1.0000 0.86763  0.75236  0.29457  Biso   1.000  Hf
  Hf16     1.0000 0.88629  0.52538  0.72697  Biso   1.000  Hf
  O25      1.0000 0.52460  0.67016  0.06251  Biso   1.000  O
  O26      1.0000 0.48952  0.61526  0.53207  Biso   1.000  O
  O27      1.0000 0.49783  0.86328  0.47231  Biso   1.000  O
  O28      1.0000 0.51508  0.91685  0.96164  Biso   1.000  O
  O29      1.0000 0.74435  0.64873  0.53562  Biso   1.000  O
  O30      1.0000 0.78376  0.58238  0.05418  Biso   1.000  O
  O31      1.0000 0.74467  0.83161  0.02178  Biso   1.000  O
  O32      1.0000 0.74887  0.88957  0.53591  Biso   1.000  O
  Bi1      1.0000 0.12113  0.12698  0.00099  Biso   1.000  Bi
