data_image0
_cell_length_a       10.2064
_cell_length_b       10.5395
_cell_length_c       5.29603
_cell_angle_alpha    93.6012
_cell_angle_beta     94.0787
_cell_angle_gamma    86.9726

_symmetry_space_group_name_H-M    "P 1"
_symmetry_int_tables_number       1

loop_
  _symmetry_equiv_pos_as_xyz
  'x, y, z'

loop_
  _atom_site_label
  _atom_site_occupancy
  _atom_site_fract_x
  _atom_site_fract_y
  _atom_site_fract_z
  _atom_site_thermal_displace_type
  _atom_site_B_iso_or_equiv
  _atom_site_type_symbol
  Hf1      1.0000 0.13042  0.01694  0.36322  Biso   1.000  Hf
  Hf2      1.0000 0.14520  0.22918  0.88740  Biso   1.000  Hf
  Hf3      1.0000 0.34158  0.24748  0.42403  Biso   1.000  Hf
  Hf4      1.0000 0.38146  0.50180  0.80985  Biso   1.000  Hf
  Hf5      1.0000 0.62421  0.99822  0.20038  Biso   1.000  Hf
  Hf6      1.0000 0.66409  0.25253  0.58622  Biso   1.000  Hf
  Hf7      1.0000 0.86048  0.27084  0.12284  Biso   1.000  Hf
  Hf8      1.0000 0.87526  0.48307  0.64699  Biso   1.000  Hf
  O1       1.0000 0.02814  0.16157  0.17192  Biso   1.000  O
  O2       1.0000 0.03518  0.08557  0.68047  Biso   1.000  O
  O3       1.0000 0.48632  0.45743  0.12173  Biso   1.000  O
  O4       1.0000 0.48342  0.36733  0.57322  Biso   1.000  O
  O5       1.0000 0.26789  0.11223  0.63356  Biso   1.000  O
  O6       1.0000 0.26411  0.10450  0.13694  Biso   1.000  O
  O7       1.0000 0.22987  0.37349  0.65761  Biso   1.000  O
  O8       1.0000 0.22105  0.35672  0.17223  Biso   1.000  O
  O9       1.0000 0.52225  0.13268  0.43701  Biso   1.000  O
  O10      1.0000 0.51935  0.04259  0.88851  Biso   1.000  O
  O11      1.0000 0.97049  0.41444  0.32974  Biso   1.000  O
  O12      1.0000 0.97754  0.33845  0.83830  Biso   1.000  O
  O13      1.0000 0.78462  0.14329  0.83802  Biso   1.000  O
  O14      1.0000 0.77581  0.12651  0.35266  Biso   1.000  O
  O15      1.0000 0.74156  0.39551  0.87329  Biso   1.000  O
  O16      1.0000 0.73778  0.38778  0.37667  Biso   1.000  O
  Hf9      1.0000 0.13418  0.51530  0.33919  Biso   1.000  Hf
  Hf10     1.0000 0.13735  0.72755  0.84498  Biso   1.000  Hf
  Hf11     1.0000 0.35824  0.76202  0.35665  Biso   1.000  Hf
  Hf12     1.0000 0.34947  0.95890  0.88356  Biso   1.000  Hf
  Hf13     1.0000 0.65620  0.54111  0.12667  Biso   1.000  Hf
  Hf14     1.0000 0.64743  0.73799  0.65358  Biso   1.000  Hf
  Hf15     1.0000 0.86830  0.77247  0.16524  Biso   1.000  Hf
  Hf16     1.0000 0.87150  0.98472  0.67100  Biso   1.000  Hf
  O17      1.0000 0.03823  0.66138  0.15941  Biso   1.000  O
  O18      1.0000 0.03907  0.58434  0.66207  Biso   1.000  O
  O19      1.0000 0.45784  0.90059  0.20895  Biso   1.000  O
  O20      1.0000 0.46285  0.82392  0.68685  Biso   1.000  O
  O21      1.0000 0.27288  0.62467  0.57107  Biso   1.000  O
  O22      1.0000 0.27685  0.62044  0.07143  Biso   1.000  O
  O23      1.0000 0.21721  0.86621  0.60945  Biso   1.000  O
  O24      1.0000 0.21860  0.86522  0.11451  Biso   1.000  O
  O25      1.0000 0.54281  0.67609  0.32337  Biso   1.000  O
  O26      1.0000 0.54783  0.59942  0.80128  Biso   1.000  O
  O27      1.0000 0.96659  0.91568  0.34813  Biso   1.000  O
  O28      1.0000 0.96743  0.83863  0.85079  Biso   1.000  O
  O29      1.0000 0.78707  0.63479  0.89571  Biso   1.000  O
  O30      1.0000 0.78846  0.63380  0.40078  Biso   1.000  O
  O31      1.0000 0.72879  0.87955  0.93881  Biso   1.000  O
  O32      1.0000 0.73279  0.87534  0.43917  Biso   1.000  O
  Bi1      1.0000 0.50283  0.25001  0.00512  Biso   1.000  Bi
