data_image0
_cell_length_a       9.97927
_cell_length_b       10.388
_cell_length_c       10.0204
_cell_angle_alpha    90.0282
_cell_angle_beta     90.0365
_cell_angle_gamma    89.9574

_symmetry_space_group_name_H-M    "P 1"
_symmetry_int_tables_number       1

loop_
  _symmetry_equiv_pos_as_xyz
  'x, y, z'

loop_
  _atom_site_label
  _atom_site_occupancy
  _atom_site_fract_x
  _atom_site_fract_y
  _atom_site_fract_z
  _atom_site_thermal_displace_type
  _atom_site_B_iso_or_equiv
  _atom_site_type_symbol
  Bi1      1.0000 0.12825  0.01520  0.12221  Biso   1.000  Bi
  Hf1      1.0000 0.13520  0.23454  0.37842  Biso   1.000  Hf
  Hf2      1.0000 0.36647  0.26782  0.12666  Biso   1.000  Hf
  Hf3      1.0000 0.36564  0.48358  0.37620  Biso   1.000  Hf
  O1       1.0000 0.03315  0.19261  0.19878  Biso   1.000  O
  O2       1.0000 0.03651  0.06511  0.44237  Biso   1.000  O
  O3       1.0000 0.46406  0.43431  0.19513  Biso   1.000  O
  O4       1.0000 0.46334  0.31533  0.44419  Biso   1.000  O
  O5       1.0000 0.27783  0.12432  0.25479  Biso   1.000  O
  O6       1.0000 0.27044  0.13174  0.50126  Biso   1.000  O
  O7       1.0000 0.22993  0.38265  0.50029  Biso   1.000  O
  O8       1.0000 0.22865  0.36894  0.25025  Biso   1.000  O
  Hf4      1.0000 0.13355  0.01623  0.62629  Biso   1.000  Hf
  Hf5      1.0000 0.13446  0.23688  0.87240  Biso   1.000  Hf
  Hf6      1.0000 0.36683  0.26612  0.62564  Biso   1.000  Hf
  Hf7      1.0000 0.36659  0.48361  0.87612  Biso   1.000  Hf
  O9       1.0000 0.03824  0.18683  0.68954  Biso   1.000  O
  O10      1.0000 0.03506  0.06836  0.92808  Biso   1.000  O
  O11      1.0000 0.46452  0.43388  0.69462  Biso   1.000  O
  O12      1.0000 0.46495  0.31650  0.94408  Biso   1.000  O
  O13      1.0000 0.27137  0.11799  0.74836  Biso   1.000  O
  O14      1.0000 0.27427  0.13623  0.99458  Biso   1.000  O
  O15      1.0000 0.22990  0.38346  0.99954  Biso   1.000  O
  O16      1.0000 0.23082  0.36862  0.74876  Biso   1.000  O
  Hf8      1.0000 0.13354  0.51648  0.12619  Biso   1.000  Hf
  Hf9      1.0000 0.13395  0.73272  0.37710  Biso   1.000  Hf
  Hf10     1.0000 0.36853  0.76394  0.12578  Biso   1.000  Hf
  Hf11     1.0000 0.36650  0.98294  0.37639  Biso   1.000  Hf
  O17      1.0000 0.03655  0.68603  0.19440  Biso   1.000  O
  O18      1.0000 0.03619  0.56518  0.44497  Biso   1.000  O
  O19      1.0000 0.46394  0.93462  0.19345  Biso   1.000  O
  O20      1.0000 0.46488  0.81592  0.44636  Biso   1.000  O
  O21      1.0000 0.27015  0.61539  0.24978  Biso   1.000  O
  O22      1.0000 0.27062  0.63229  0.50021  Biso   1.000  O
  O23      1.0000 0.22935  0.88249  0.50060  Biso   1.000  O
  O24      1.0000 0.23766  0.85976  0.25466  Biso   1.000  O
  Hf12     1.0000 0.13394  0.51660  0.62602  Biso   1.000  Hf
  Hf13     1.0000 0.13408  0.73262  0.87565  Biso   1.000  Hf
  Hf14     1.0000 0.36572  0.76641  0.62609  Biso   1.000  Hf
  Hf15     1.0000 0.36865  0.98435  0.87382  Biso   1.000  Hf
  O25      1.0000 0.03632  0.68422  0.69422  Biso   1.000  O
  O26      1.0000 0.03556  0.56662  0.94441  Biso   1.000  O
  O27      1.0000 0.46411  0.93413  0.69373  Biso   1.000  O
  O28      1.0000 0.46562  0.81586  0.94362  Biso   1.000  O
  O29      1.0000 0.27046  0.61740  0.74988  Biso   1.000  O
  O30      1.0000 0.27056  0.63125  0.99991  Biso   1.000  O
  O31      1.0000 0.23605  0.87663  0.99528  Biso   1.000  O
  O32      1.0000 0.22931  0.86761  0.74903  Biso   1.000  O
  Hf16     1.0000 0.63433  0.01590  0.12666  Biso   1.000  Hf
  Hf17     1.0000 0.63341  0.23353  0.37563  Biso   1.000  Hf
  Hf18     1.0000 0.86291  0.26801  0.12616  Biso   1.000  Hf
  Hf19     1.0000 0.86614  0.48344  0.37646  Biso   1.000  Hf
  O33      1.0000 0.53815  0.18526  0.19220  Biso   1.000  O
  O34      1.0000 0.53679  0.06574  0.44445  Biso   1.000  O
  O35      1.0000 0.96192  0.43641  0.19390  Biso   1.000  O
  O36      1.0000 0.96371  0.31680  0.44522  Biso   1.000  O
  O37      1.0000 0.76912  0.11807  0.25155  Biso   1.000  O
  O38      1.0000 0.76981  0.13293  0.50075  Biso   1.000  O
  O39      1.0000 0.72935  0.38233  0.49998  Biso   1.000  O
  O40      1.0000 0.72862  0.36841  0.25050  Biso   1.000  O
  Hf20     1.0000 0.63372  0.01685  0.62599  Biso   1.000  Hf
  Hf21     1.0000 0.63449  0.23325  0.87628  Biso   1.000  Hf
  Hf22     1.0000 0.86598  0.26705  0.62568  Biso   1.000  Hf
  Hf23     1.0000 0.86623  0.48307  0.87611  Biso   1.000  Hf
  O41      1.0000 0.53643  0.18407  0.69492  Biso   1.000  O
  O42      1.0000 0.53863  0.06506  0.94311  Biso   1.000  O
  O43      1.0000 0.96451  0.43429  0.69561  Biso   1.000  O
  O44      1.0000 0.96431  0.31651  0.94534  Biso   1.000  O
  O45      1.0000 0.77063  0.11768  0.74960  Biso   1.000  O
  O46      1.0000 0.77214  0.13135  0.00031  Biso   1.000  O
  O47      1.0000 0.72906  0.38221  0.99988  Biso   1.000  O
  O48      1.0000 0.72993  0.36739  0.75017  Biso   1.000  O
  Hf24     1.0000 0.63372  0.51598  0.12653  Biso   1.000  Hf
  Hf25     1.0000 0.63364  0.73303  0.37748  Biso   1.000  Hf
  Hf26     1.0000 0.86332  0.76349  0.12641  Biso   1.000  Hf
  Hf27     1.0000 0.86368  0.98402  0.37949  Biso   1.000  Hf
  O49      1.0000 0.53722  0.68314  0.19589  Biso   1.000  O
  O50      1.0000 0.53597  0.56528  0.44495  Biso   1.000  O
  O51      1.0000 0.94835  0.93306  0.19597  Biso   1.000  O
  O52      1.0000 0.96353  0.81552  0.44464  Biso   1.000  O
  O53      1.0000 0.77022  0.61716  0.25023  Biso   1.000  O
  O54      1.0000 0.77052  0.63199  0.49994  Biso   1.000  O
  O55      1.0000 0.72890  0.88189  0.50138  Biso   1.000  O
  O56      1.0000 0.72633  0.86681  0.25144  Biso   1.000  O
  Hf28     1.0000 0.63383  0.51606  0.62608  Biso   1.000  Hf
  Hf29     1.0000 0.63391  0.73247  0.87555  Biso   1.000  Hf
  Hf30     1.0000 0.86626  0.76584  0.62557  Biso   1.000  Hf
  Hf31     1.0000 0.86281  0.98143  0.87432  Biso   1.000  Hf
  O57      1.0000 0.53593  0.68358  0.69467  Biso   1.000  O
  O58      1.0000 0.53563  0.56618  0.94584  Biso   1.000  O
  O59      1.0000 0.96199  0.93419  0.69223  Biso   1.000  O
  O60      1.0000 0.96584  0.81784  0.94711  Biso   1.000  O
  O61      1.0000 0.77070  0.61707  0.74963  Biso   1.000  O
  O62      1.0000 0.76997  0.63094  0.99931  Biso   1.000  O
  O63      1.0000 0.72860  0.88028  0.00036  Biso   1.000  O
  O64      1.0000 0.72915  0.86694  0.74995  Biso   1.000  O
