data_image0
_cell_length_a       10.1259
_cell_length_b       10.3034
_cell_length_c       10.4593
_cell_angle_alpha    90.0124
_cell_angle_beta     80.5019
_cell_angle_gamma    90.0146

_symmetry_space_group_name_H-M    "P 1"
_symmetry_int_tables_number       1

loop_
  _symmetry_equiv_pos_as_xyz
  'x, y, z'

loop_
  _atom_site_label
  _atom_site_occupancy
  _atom_site_fract_x
  _atom_site_fract_y
  _atom_site_fract_z
  _atom_site_thermal_displace_type
  _atom_site_B_iso_or_equiv
  _atom_site_type_symbol
  Bi1      1.0000 0.13371  0.01815  0.14666  Biso   1.000  Bi
  Hf1      1.0000 0.13937  0.23001  0.39783  Biso   1.000  Hf
  Hf2      1.0000 0.36136  0.27155  0.10354  Biso   1.000  Hf
  Hf3      1.0000 0.36016  0.47829  0.35349  Biso   1.000  Hf
  O1       1.0000 0.03693  0.18162  0.07819  Biso   1.000  O
  O2       1.0000 0.03038  0.08129  0.33927  Biso   1.000  O
  O3       1.0000 0.46367  0.41924  0.16965  Biso   1.000  O
  O4       1.0000 0.46332  0.32994  0.41916  Biso   1.000  O
  O5       1.0000 0.28155  0.13334  0.24608  Biso   1.000  O
  O6       1.0000 0.27665  0.12044  0.49149  Biso   1.000  O
  O7       1.0000 0.22436  0.38028  0.00827  Biso   1.000  O
  O8       1.0000 0.22196  0.37116  0.25883  Biso   1.000  O
  Hf4      1.0000 0.13911  0.02110  0.64571  Biso   1.000  Hf
  Hf5      1.0000 0.13951  0.23061  0.89303  Biso   1.000  Hf
  Hf6      1.0000 0.36169  0.27131  0.60380  Biso   1.000  Hf
  Hf7      1.0000 0.36220  0.47874  0.85396  Biso   1.000  Hf
  O9       1.0000 0.03689  0.17167  0.58282  Biso   1.000  O
  O10      1.0000 0.03769  0.07890  0.83189  Biso   1.000  O
  O11      1.0000 0.46453  0.41930  0.66955  Biso   1.000  O
  O12      1.0000 0.46582  0.33177  0.91977  Biso   1.000  O
  O13      1.0000 0.27686  0.12944  0.73850  Biso   1.000  O
  O14      1.0000 0.28269  0.12590  0.98234  Biso   1.000  O
  O15      1.0000 0.22341  0.37935  0.50926  Biso   1.000  O
  O16      1.0000 0.22422  0.37173  0.75834  Biso   1.000  O
  Hf8      1.0000 0.13845  0.52125  0.14493  Biso   1.000  Hf
  Hf9      1.0000 0.13809  0.72695  0.39684  Biso   1.000  Hf
  Hf10     1.0000 0.36456  0.76922  0.10379  Biso   1.000  Hf
  Hf11     1.0000 0.36270  0.97841  0.35542  Biso   1.000  Hf
  O17      1.0000 0.03698  0.67237  0.08115  Biso   1.000  O
  O18      1.0000 0.03594  0.57987  0.33041  Biso   1.000  O
  O19      1.0000 0.46401  0.92036  0.16936  Biso   1.000  O
  O20      1.0000 0.46404  0.82957  0.42067  Biso   1.000  O
  O21      1.0000 0.27679  0.62661  0.23966  Biso   1.000  O
  O22      1.0000 0.27615  0.62030  0.49052  Biso   1.000  O
  O23      1.0000 0.23177  0.87246  0.00199  Biso   1.000  O
  O24      1.0000 0.22956  0.86362  0.26246  Biso   1.000  O
  Hf12     1.0000 0.13891  0.52135  0.64592  Biso   1.000  Hf
  Hf13     1.0000 0.13928  0.72803  0.89468  Biso   1.000  Hf
  Hf14     1.0000 0.36097  0.77126  0.60408  Biso   1.000  Hf
  Hf15     1.0000 0.36317  0.97864  0.85200  Biso   1.000  Hf
  O25      1.0000 0.03613  0.67015  0.58151  Biso   1.000  O
  O26      1.0000 0.03636  0.57916  0.83053  Biso   1.000  O
  O27      1.0000 0.46484  0.91940  0.66894  Biso   1.000  O
  O28      1.0000 0.46757  0.83115  0.91896  Biso   1.000  O
  O29      1.0000 0.27666  0.62908  0.74019  Biso   1.000  O
  O30      1.0000 0.27686  0.61990  0.99004  Biso   1.000  O
  O31      1.0000 0.22354  0.87905  0.51000  Biso   1.000  O
  O32      1.0000 0.22380  0.87058  0.75804  Biso   1.000  O
  Hf16     1.0000 0.63908  0.02098  0.14592  Biso   1.000  Hf
  Hf17     1.0000 0.63807  0.22925  0.39624  Biso   1.000  Hf
  Hf18     1.0000 0.85868  0.27269  0.10430  Biso   1.000  Hf
  Hf19     1.0000 0.86128  0.47850  0.35426  Biso   1.000  Hf
  O33      1.0000 0.53677  0.16979  0.08042  Biso   1.000  O
  O34      1.0000 0.53771  0.07904  0.33151  Biso   1.000  O
  O35      1.0000 0.96143  0.42268  0.16850  Biso   1.000  O
  O36      1.0000 0.96375  0.33092  0.42016  Biso   1.000  O
  O37      1.0000 0.77583  0.13034  0.24159  Biso   1.000  O
  O38      1.0000 0.77510  0.12130  0.49229  Biso   1.000  O
  O39      1.0000 0.72280  0.37943  0.00928  Biso   1.000  O
  O40      1.0000 0.72243  0.37123  0.25996  Biso   1.000  O
  Hf20     1.0000 0.63912  0.02201  0.64664  Biso   1.000  Hf
  Hf21     1.0000 0.63928  0.22861  0.89602  Biso   1.000  Hf
  Hf22     1.0000 0.86142  0.27176  0.60459  Biso   1.000  Hf
  Hf23     1.0000 0.86127  0.47840  0.85333  Biso   1.000  Hf
  O41      1.0000 0.53590  0.16972  0.58062  Biso   1.000  O
  O42      1.0000 0.53754  0.08060  0.82967  Biso   1.000  O
  O43      1.0000 0.96372  0.42079  0.66873  Biso   1.000  O
  O44      1.0000 0.96242  0.33004  0.91760  Biso   1.000  O
  O45      1.0000 0.77760  0.12942  0.74104  Biso   1.000  O
  O46      1.0000 0.77685  0.12065  0.99097  Biso   1.000  O
  O47      1.0000 0.72335  0.37914  0.50948  Biso   1.000  O
  O48      1.0000 0.72374  0.37070  0.75918  Biso   1.000  O
  Hf24     1.0000 0.63826  0.52010  0.14601  Biso   1.000  Hf
  Hf25     1.0000 0.63754  0.72693  0.39631  Biso   1.000  Hf
  Hf26     1.0000 0.85812  0.76751  0.10300  Biso   1.000  Hf
  Hf27     1.0000 0.85478  0.97795  0.35856  Biso   1.000  Hf
  O49      1.0000 0.53811  0.66903  0.07967  Biso   1.000  O
  O50      1.0000 0.53487  0.57992  0.32997  Biso   1.000  O
  O51      1.0000 0.94692  0.92106  0.17191  Biso   1.000  O
  O52      1.0000 0.96344  0.83034  0.41917  Biso   1.000  O
  O53      1.0000 0.77523  0.62817  0.24064  Biso   1.000  O
  O54      1.0000 0.77649  0.62073  0.49035  Biso   1.000  O
  O55      1.0000 0.72350  0.87867  0.00910  Biso   1.000  O
  O56      1.0000 0.71881  0.86923  0.26120  Biso   1.000  O
  Hf28     1.0000 0.63897  0.52117  0.64561  Biso   1.000  Hf
  Hf29     1.0000 0.63999  0.72875  0.89440  Biso   1.000  Hf
  Hf30     1.0000 0.86160  0.77155  0.60423  Biso   1.000  Hf
  Hf31     1.0000 0.86214  0.97870  0.85466  Biso   1.000  Hf
  O57      1.0000 0.53556  0.66868  0.58058  Biso   1.000  O
  O58      1.0000 0.53669  0.58061  0.82988  Biso   1.000  O
  O59      1.0000 0.96374  0.92031  0.66951  Biso   1.000  O
  O60      1.0000 0.96442  0.82994  0.91989  Biso   1.000  O
  O61      1.0000 0.77693  0.62939  0.73975  Biso   1.000  O
  O62      1.0000 0.77667  0.61970  0.98973  Biso   1.000  O
  O63      1.0000 0.72232  0.87869  0.51076  Biso   1.000  O
  O64      1.0000 0.72460  0.87102  0.75929  Biso   1.000  O
