data_image0
_cell_length_a       9.99681
_cell_length_b       10.4026
_cell_length_c       10.1468
_cell_angle_alpha    89.2482
_cell_angle_beta     90.74
_cell_angle_gamma    90.3351

_symmetry_space_group_name_H-M    "P 1"
_symmetry_int_tables_number       1

loop_
  _symmetry_equiv_pos_as_xyz
  'x, y, z'

loop_
  _atom_site_label
  _atom_site_occupancy
  _atom_site_fract_x
  _atom_site_fract_y
  _atom_site_fract_z
  _atom_site_thermal_displace_type
  _atom_site_B_iso_or_equiv
  _atom_site_type_symbol
  Hf1      1.0000 0.14773  0.00678  0.11121  Biso   1.000  Hf
  Hf2      1.0000 0.12332  0.24150  0.38643  Biso   1.000  Hf
  Hf3      1.0000 0.36660  0.26820  0.11050  Biso   1.000  Hf
  Hf4      1.0000 0.37011  0.48407  0.37246  Biso   1.000  Hf
  O1       1.0000 0.93036  0.18770  0.28140  Biso   1.000  O
  O2       1.0000 0.04665  0.06202  0.44665  Biso   1.000  O
  O3       1.0000 0.46254  0.43133  0.18706  Biso   1.000  O
  O4       1.0000 0.46504  0.31835  0.44302  Biso   1.000  O
  O5       1.0000 0.26322  0.11881  0.24032  Biso   1.000  O
  O6       1.0000 0.27125  0.13945  0.49309  Biso   1.000  O
  O7       1.0000 0.23445  0.38863  0.49449  Biso   1.000  O
  O8       1.0000 0.23369  0.36169  0.24742  Biso   1.000  O
  Hf5      1.0000 0.13811  0.01108  0.62031  Biso   1.000  Hf
  Hf6      1.0000 0.15652  0.22368  0.85187  Biso   1.000  Hf
  Hf7      1.0000 0.37256  0.26869  0.62031  Biso   1.000  Hf
  Hf8      1.0000 0.37301  0.48815  0.86674  Biso   1.000  Hf
  O9       1.0000 0.05511  0.17894  0.67827  Biso   1.000  O
  O10      1.0000 0.05056  0.05690  0.92701  Biso   1.000  O
  O11      1.0000 0.46446  0.43870  0.68525  Biso   1.000  O
  O12      1.0000 0.45555  0.31236  0.91528  Biso   1.000  O
  O13      1.0000 0.28572  0.11272  0.73886  Biso   1.000  O
  O14      1.0000 0.28991  0.12034  0.98794  Biso   1.000  O
  O15      1.0000 0.24289  0.38813  0.99177  Biso   1.000  O
  O16      1.0000 0.23294  0.36819  0.73894  Biso   1.000  O
  Hf9      1.0000 0.14003  0.51979  0.12764  Biso   1.000  Hf
  Hf10     1.0000 0.13392  0.73811  0.37569  Biso   1.000  Hf
  Hf11     1.0000 0.36607  0.76428  0.12930  Biso   1.000  Hf
  Hf12     1.0000 0.36441  0.98869  0.37640  Biso   1.000  Hf
  O17      1.0000 0.04460  0.68930  0.19355  Biso   1.000  O
  O18      1.0000 0.03056  0.58360  0.45367  Biso   1.000  O
  O19      1.0000 0.45828  0.94011  0.19944  Biso   1.000  O
  O20      1.0000 0.46732  0.81788  0.44136  Biso   1.000  O
  O21      1.0000 0.27520  0.61856  0.25021  Biso   1.000  O
  O22      1.0000 0.27109  0.63398  0.49584  Biso   1.000  O
  O23      1.0000 0.23589  0.88291  0.49695  Biso   1.000  O
  O24      1.0000 0.23155  0.86748  0.24726  Biso   1.000  O
  Hf13     1.0000 0.13102  0.51709  0.62030  Biso   1.000  Hf
  Hf14     1.0000 0.13554  0.72921  0.87281  Biso   1.000  Hf
  Hf15     1.0000 0.37075  0.76254  0.61992  Biso   1.000  Hf
  Hf16     1.0000 0.37223  0.97375  0.86648  Biso   1.000  Hf
  O25      1.0000 0.03958  0.68920  0.69539  Biso   1.000  O
  O26      1.0000 0.03669  0.56123  0.95057  Biso   1.000  O
  O27      1.0000 0.47056  0.92627  0.69130  Biso   1.000  O
  O28      1.0000 0.48177  0.82266  0.96461  Biso   1.000  O
  O29      1.0000 0.26849  0.61502  0.74542  Biso   1.000  O
  O30      1.0000 0.27577  0.63485  0.99790  Biso   1.000  O
  O31      1.0000 0.23782  0.87555  0.99546  Biso   1.000  O
  O32      1.0000 0.23792  0.86120  0.74702  Biso   1.000  O
  Hf17     1.0000 0.62047  0.99151  0.10429  Biso   1.000  Hf
  Hf18     1.0000 0.63819  0.23212  0.42128  Biso   1.000  Hf
  Hf19     1.0000 0.76502  0.24030  0.15866  Biso   1.000  Hf
  Hf20     1.0000 0.86927  0.48459  0.39119  Biso   1.000  Hf
  O33      1.0000 0.55610  0.19189  0.11349  Biso   1.000  O
  O34      1.0000 0.52771  0.06942  0.46106  Biso   1.000  O
  O35      1.0000 0.98698  0.44674  0.23860  Biso   1.000  O
  O36      1.0000 0.97955  0.33309  0.48217  Biso   1.000  O
  O37      1.0000 0.70078  0.09314  0.27675  Biso   1.000  O
  O38      1.0000 0.78554  0.13334  0.51755  Biso   1.000  O
  O39      1.0000 0.73711  0.38017  0.52150  Biso   1.000  O
  O40      1.0000 0.70469  0.37681  0.28034  Biso   1.000  O
  Hf21     1.0000 0.64253  0.01335  0.63363  Biso   1.000  Hf
  Hf22     1.0000 0.63147  0.22974  0.87971  Biso   1.000  Hf
  Hf23     1.0000 0.87896  0.27325  0.65356  Biso   1.000  Hf
  Hf24     1.0000 0.86424  0.48232  0.87922  Biso   1.000  Hf
  O41      1.0000 0.55038  0.19117  0.68011  Biso   1.000  O
  O42      1.0000 0.54948  0.05049  0.91120  Biso   1.000  O
  O43      1.0000 0.95509  0.45695  0.69173  Biso   1.000  O
  O44      1.0000 0.96685  0.30313  0.86515  Biso   1.000  O
  O45      1.0000 0.77591  0.11853  0.76100  Biso   1.000  O
  O46      1.0000 0.77347  0.11244  0.00763  Biso   1.000  O
  O47      1.0000 0.72268  0.37864  0.01113  Biso   1.000  O
  O48      1.0000 0.72419  0.37288  0.76373  Biso   1.000  O
  Hf25     1.0000 0.63383  0.52288  0.13345  Biso   1.000  Hf
  Hf26     1.0000 0.63949  0.73891  0.37765  Biso   1.000  Hf
  Hf27     1.0000 0.87248  0.76477  0.12800  Biso   1.000  Hf
  Hf28     1.0000 0.87214  0.99873  0.36499  Biso   1.000  Hf
  O49      1.0000 0.53796  0.68542  0.19898  Biso   1.000  O
  O50      1.0000 0.53845  0.56826  0.44702  Biso   1.000  O
  O51      1.0000 0.96909  0.94633  0.18543  Biso   1.000  O
  O52      1.0000 0.96651  0.82581  0.44104  Biso   1.000  O
  O53      1.0000 0.77598  0.61714  0.25584  Biso   1.000  O
  O54      1.0000 0.76925  0.63656  0.50573  Biso   1.000  O
  O55      1.0000 0.73208  0.88945  0.49688  Biso   1.000  O
  O56      1.0000 0.73717  0.86249  0.24332  Biso   1.000  O
  Hf29     1.0000 0.63781  0.51945  0.63101  Biso   1.000  Hf
  Hf30     1.0000 0.64095  0.73022  0.87795  Biso   1.000  Hf
  Hf31     1.0000 0.87244  0.77120  0.62148  Biso   1.000  Hf
  Hf32     1.0000 0.87310  0.97900  0.87603  Biso   1.000  Hf
  O57      1.0000 0.53525  0.68169  0.70374  Biso   1.000  O
  O58      1.0000 0.53845  0.56745  0.94928  Biso   1.000  O
  O59      1.0000 0.96910  0.93479  0.69496  Biso   1.000  O
  O60      1.0000 0.97236  0.81221  0.94786  Biso   1.000  O
  O61      1.0000 0.77324  0.61994  0.75712  Biso   1.000  O
  O62      1.0000 0.77382  0.62848  0.00676  Biso   1.000  O
  O63      1.0000 0.73927  0.87179  0.99541  Biso   1.000  O
  O64      1.0000 0.73738  0.86491  0.74900  Biso   1.000  O
  Bi1      1.0000 0.01297  0.26866  0.08280  Biso   1.000  Bi
