data_image0
_cell_length_a       10.2408
_cell_length_b       10.2318
_cell_length_c       10.1445
_cell_angle_alpha    91.9029
_cell_angle_beta     85.5538
_cell_angle_gamma    89.4643

_symmetry_space_group_name_H-M    "P 1"
_symmetry_int_tables_number       1

loop_
  _symmetry_equiv_pos_as_xyz
  'x, y, z'

loop_
  _atom_site_label
  _atom_site_occupancy
  _atom_site_fract_x
  _atom_site_fract_y
  _atom_site_fract_z
  _atom_site_thermal_displace_type
  _atom_site_B_iso_or_equiv
  _atom_site_type_symbol
  Hf1      1.0000 0.13025  0.99838  0.12484  Biso   1.000  Hf
  Hf2      1.0000 0.11656  0.21496  0.43089  Biso   1.000  Hf
  Hf3      1.0000 0.41342  0.23273  0.15960  Biso   1.000  Hf
  Hf4      1.0000 0.37554  0.99557  0.38847  Biso   1.000  Hf
  O1       1.0000 0.04410  0.17121  0.05038  Biso   1.000  O
  O2       1.0000 0.05199  0.07010  0.30564  Biso   1.000  O
  O3       1.0000 0.94239  0.28789  0.30757  Biso   1.000  O
  O4       1.0000 0.98433  0.40694  0.99470  Biso   1.000  O
  O5       1.0000 0.30130  0.16262  0.32458  Biso   1.000  O
  O6       1.0000 0.30020  0.09798  0.05509  Biso   1.000  O
  O7       1.0000 0.23286  0.38477  0.98399  Biso   1.000  O
  O8       1.0000 0.33764  0.41306  0.21582  Biso   1.000  O
  Hf5      1.0000 0.10529  0.97271  0.62704  Biso   1.000  Hf
  Hf6      1.0000 0.11356  0.26144  0.87212  Biso   1.000  Hf
  Hf7      1.0000 0.35417  0.26270  0.63125  Biso   1.000  Hf
  Hf8      1.0000 0.37253  0.00161  0.88107  Biso   1.000  Hf
  O9       1.0000 0.97820  0.11412  0.54753  Biso   1.000  O
  O10      1.0000 0.03836  0.08117  0.79441  Biso   1.000  O
  O11      1.0000 0.96886  0.32475  0.76541  Biso   1.000  O
  O12      1.0000 0.99830  0.37678  0.52137  Biso   1.000  O
  O13      1.0000 0.28487  0.16539  0.80218  Biso   1.000  O
  O14      1.0000 0.23329  0.11062  0.55351  Biso   1.000  O
  O15      1.0000 0.25192  0.36441  0.49079  Biso   1.000  O
  O16      1.0000 0.22264  0.40158  0.73602  Biso   1.000  O
  Hf9      1.0000 0.10709  0.55329  0.06497  Biso   1.000  Hf
  Hf10     1.0000 0.13378  0.75383  0.36047  Biso   1.000  Hf
  Hf11     1.0000 0.38825  0.76535  0.12845  Biso   1.000  Hf
  Hf12     1.0000 0.40236  0.48754  0.37679  Biso   1.000  Hf
  O17      1.0000 0.97766  0.65953  0.96102  Biso   1.000  O
  O18      1.0000 0.96550  0.60978  0.21646  Biso   1.000  O
  O19      1.0000 0.01019  0.85141  0.23719  Biso   1.000  O
  O20      1.0000 0.00546  0.90812  0.99628  Biso   1.000  O
  O21      1.0000 0.22129  0.66426  0.18949  Biso   1.000  O
  O22      1.0000 0.22988  0.62276  0.92217  Biso   1.000  O
  O23      1.0000 0.25293  0.86215  0.99794  Biso   1.000  O
  O24      1.0000 0.26222  0.90278  0.25149  Biso   1.000  O
  Hf13     1.0000 0.12977  0.51425  0.59496  Biso   1.000  Hf
  Hf14     1.0000 0.12936  0.77755  0.86520  Biso   1.000  Hf
  Hf15     1.0000 0.37353  0.74519  0.62114  Biso   1.000  Hf
  Hf16     1.0000 0.37838  0.48619  0.88065  Biso   1.000  Hf
  O25      1.0000 0.00904  0.62923  0.46925  Biso   1.000  O
  O26      1.0000 0.95031  0.57772  0.70578  Biso   1.000  O
  O27      1.0000 0.98494  0.84114  0.74059  Biso   1.000  O
  O28      1.0000 0.99220  0.87295  0.49236  Biso   1.000  O
  O29      1.0000 0.19368  0.67734  0.68956  Biso   1.000  O
  O30      1.0000 0.25726  0.61036  0.45280  Biso   1.000  O
  O31      1.0000 0.24387  0.85875  0.49462  Biso   1.000  O
  O32      1.0000 0.24948  0.90729  0.75069  Biso   1.000  O
  Hf17     1.0000 0.64445  0.00128  0.12638  Biso   1.000  Hf
  Hf18     1.0000 0.61907  0.22837  0.40032  Biso   1.000  Hf
  Hf19     1.0000 0.86161  0.25671  0.12419  Biso   1.000  Hf
  Hf20     1.0000 0.87701  0.99663  0.38456  Biso   1.000  Hf
  O33      1.0000 0.55764  0.15205  0.03149  Biso   1.000  O
  O34      1.0000 0.51997  0.09766  0.27075  Biso   1.000  O
  O35      1.0000 0.55370  0.35116  0.26184  Biso   1.000  O
  O36      1.0000 0.50012  0.39249  0.00291  Biso   1.000  O
  O37      1.0000 0.75804  0.14415  0.26270  Biso   1.000  O
  O38      1.0000 0.80003  0.09085  0.02629  Biso   1.000  O
  O39      1.0000 0.74650  0.34640  0.99023  Biso   1.000  O
  O40      1.0000 0.78227  0.43010  0.21581  Biso   1.000  O
  Hf21     1.0000 0.61387  0.98152  0.62917  Biso   1.000  Hf
  Hf22     1.0000 0.61572  0.25608  0.87013  Biso   1.000  Hf
  Hf23     1.0000 0.85077  0.26073  0.62432  Biso   1.000  Hf
  Hf24     1.0000 0.87034  0.99139  0.86333  Biso   1.000  Hf
  O41      1.0000 0.48915  0.12913  0.52752  Biso   1.000  O
  O42      1.0000 0.53007  0.08768  0.78507  Biso   1.000  O
  O43      1.0000 0.48162  0.34174  0.75929  Biso   1.000  O
  O44      1.0000 0.49509  0.37876  0.51090  Biso   1.000  O
  O45      1.0000 0.77390  0.14725  0.77360  Biso   1.000  O
  O46      1.0000 0.73866  0.10522  0.51431  Biso   1.000  O
  O47      1.0000 0.74382  0.35981  0.48989  Biso   1.000  O
  O48      1.0000 0.72686  0.39904  0.74094  Biso   1.000  O
  Hf25     1.0000 0.63221  0.49948  0.11934  Biso   1.000  Hf
  Hf26     1.0000 0.62836  0.75188  0.36468  Biso   1.000  Hf
  Hf27     1.0000 0.87865  0.76362  0.12361  Biso   1.000  Hf
  Hf28     1.0000 0.89614  0.47957  0.36566  Biso   1.000  Hf
  O49      1.0000 0.47257  0.64913  0.97492  Biso   1.000  O
  O50      1.0000 0.48604  0.61343  0.23659  Biso   1.000  O
  O51      1.0000 0.50626  0.86082  0.25748  Biso   1.000  O
  O52      1.0000 0.50701  0.90090  0.00782  Biso   1.000  O
  O53      1.0000 0.71859  0.66876  0.20228  Biso   1.000  O
  O54      1.0000 0.71853  0.59527  0.95749  Biso   1.000  O
  O55      1.0000 0.75235  0.85207  0.99331  Biso   1.000  O
  O56      1.0000 0.76447  0.90084  0.25221  Biso   1.000  O
  Hf29     1.0000 0.62216  0.50861  0.60680  Biso   1.000  Hf
  Hf30     1.0000 0.62247  0.75663  0.87917  Biso   1.000  Hf
  Hf31     1.0000 0.86687  0.73209  0.60751  Biso   1.000  Hf
  Hf32     1.0000 0.86636  0.48566  0.86465  Biso   1.000  Hf
  O57      1.0000 0.51142  0.63568  0.48518  Biso   1.000  O
  O58      1.0000 0.44558  0.58408  0.71293  Biso   1.000  O
  O59      1.0000 0.48794  0.84223  0.75421  Biso   1.000  O
  O60      1.0000 0.49370  0.88305  0.50844  Biso   1.000  O
  O61      1.0000 0.70066  0.65869  0.71084  Biso   1.000  O
  O62      1.0000 0.75786  0.60267  0.47049  Biso   1.000  O
  O63      1.0000 0.74481  0.85329  0.49434  Biso   1.000  O
  O64      1.0000 0.74299  0.89362  0.74735  Biso   1.000  O
  Bi1      1.0000 0.14084  0.34468  0.20831  Biso   1.000  Bi
