data_image0
_cell_length_a       10.0745
_cell_length_b       10.2787
_cell_length_c       5.24582
_cell_angle_alpha    89.9509
_cell_angle_beta     90.145
_cell_angle_gamma    90.0086

_symmetry_space_group_name_H-M    "P 1"
_symmetry_int_tables_number       1

loop_
  _symmetry_equiv_pos_as_xyz
  'x, y, z'

loop_
  _atom_site_label
  _atom_site_occupancy
  _atom_site_fract_x
  _atom_site_fract_y
  _atom_site_fract_z
  _atom_site_thermal_displace_type
  _atom_site_B_iso_or_equiv
  _atom_site_type_symbol
  Bi1      1.0000 0.13397  0.01745  0.34254  Biso   1.000  Bi
  Hf1      1.0000 0.14024  0.23203  0.84173  Biso   1.000  Hf
  Hf2      1.0000 0.36204  0.27170  0.34091  Biso   1.000  Hf
  Hf3      1.0000 0.36125  0.47880  0.84149  Biso   1.000  Hf
  Hf4      1.0000 0.63906  0.02131  0.16251  Biso   1.000  Hf
  Hf5      1.0000 0.63802  0.22941  0.65775  Biso   1.000  Hf
  Hf6      1.0000 0.85923  0.27309  0.15634  Biso   1.000  Hf
  Hf7      1.0000 0.86150  0.47859  0.65464  Biso   1.000  Hf
  O1       1.0000 0.03380  0.17782  0.16656  Biso   1.000  O
  O2       1.0000 0.02916  0.08415  0.68595  Biso   1.000  O
  O3       1.0000 0.46752  0.41468  0.16453  Biso   1.000  O
  O4       1.0000 0.46750  0.33544  0.66502  Biso   1.000  O
  O5       1.0000 0.28096  0.12690  0.59794  Biso   1.000  O
  O6       1.0000 0.28329  0.13196  0.07627  Biso   1.000  O
  O7       1.0000 0.22373  0.37426  0.58690  Biso   1.000  O
  O8       1.0000 0.22377  0.37778  0.08844  Biso   1.000  O
  O9       1.0000 0.53368  0.16612  0.33314  Biso   1.000  O
  O10      1.0000 0.53706  0.08296  0.83241  Biso   1.000  O
  O11      1.0000 0.96463  0.41932  0.32840  Biso   1.000  O
  O12      1.0000 0.96561  0.33569  0.83039  Biso   1.000  O
  O13      1.0000 0.77583  0.12443  0.91619  Biso   1.000  O
  O14      1.0000 0.77601  0.12715  0.41567  Biso   1.000  O
  O15      1.0000 0.72301  0.37423  0.90822  Biso   1.000  O
  O16      1.0000 0.72316  0.37635  0.40893  Biso   1.000  O
  Hf8      1.0000 0.13839  0.52092  0.34196  Biso   1.000  Hf
  Hf9      1.0000 0.13824  0.72665  0.84234  Biso   1.000  Hf
  Hf10     1.0000 0.36433  0.76860  0.34041  Biso   1.000  Hf
  Hf11     1.0000 0.36534  0.97866  0.84128  Biso   1.000  Hf
  Hf12     1.0000 0.63823  0.51988  0.15482  Biso   1.000  Hf
  Hf13     1.0000 0.63868  0.72779  0.65621  Biso   1.000  Hf
  Hf14     1.0000 0.85904  0.76765  0.15519  Biso   1.000  Hf
  Hf15     1.0000 0.85585  0.97915  0.66751  Biso   1.000  Hf
  O17      1.0000 0.03396  0.66838  0.17046  Biso   1.000  O
  O18      1.0000 0.03310  0.58303  0.66710  Biso   1.000  O
  O19      1.0000 0.46855  0.91592  0.16888  Biso   1.000  O
  O20      1.0000 0.46997  0.83443  0.66343  Biso   1.000  O
  O21      1.0000 0.27653  0.62228  0.58843  Biso   1.000  O
  O22      1.0000 0.27554  0.62331  0.08974  Biso   1.000  O
  O23      1.0000 0.22942  0.86748  0.59375  Biso   1.000  O
  O24      1.0000 0.23326  0.86822  0.07639  Biso   1.000  O
  O25      1.0000 0.53379  0.66315  0.33311  Biso   1.000  O
  O26      1.0000 0.53213  0.58486  0.83393  Biso   1.000  O
  O27      1.0000 0.95043  0.91707  0.33335  Biso   1.000  O
  O28      1.0000 0.96688  0.83400  0.83327  Biso   1.000  O
  O29      1.0000 0.77565  0.62264  0.90767  Biso   1.000  O
  O30      1.0000 0.77559  0.62592  0.40801  Biso   1.000  O
  O31      1.0000 0.72288  0.87267  0.91454  Biso   1.000  O
  O32      1.0000 0.72021  0.87572  0.41535  Biso   1.000  O
