data_image0
_cell_length_a       10.2215
_cell_length_b       5.19789
_cell_length_c       10.5323
_cell_angle_alpha    90.0167
_cell_angle_beta     80.6604
_cell_angle_gamma    89.9939

_symmetry_space_group_name_H-M    "P 1"
_symmetry_int_tables_number       1

loop_
  _symmetry_equiv_pos_as_xyz
  'x, y, z'

loop_
  _atom_site_label
  _atom_site_occupancy
  _atom_site_fract_x
  _atom_site_fract_y
  _atom_site_fract_z
  _atom_site_thermal_displace_type
  _atom_site_B_iso_or_equiv
  _atom_site_type_symbol
  Bi1      1.0000 0.13357  0.03550  0.14591  Biso   1.000  Bi
  Zr1      1.0000 0.13908  0.04196  0.64514  Biso   1.000  Zr
  Zr2      1.0000 0.63846  0.03948  0.14549  Biso   1.000  Zr
  Zr3      1.0000 0.63922  0.04351  0.64601  Biso   1.000  Zr
  Zr4      1.0000 0.13822  0.45690  0.39797  Biso   1.000  Zr
  Zr5      1.0000 0.13984  0.45960  0.89168  Biso   1.000  Zr
  Zr6      1.0000 0.63690  0.45551  0.39627  Biso   1.000  Zr
  Zr7      1.0000 0.64026  0.45806  0.89421  Biso   1.000  Zr
  Zr8      1.0000 0.36461  0.53900  0.10336  Biso   1.000  Zr
  Zr9      1.0000 0.36147  0.54214  0.60422  Biso   1.000  Zr
  Zr10     1.0000 0.85630  0.53754  0.10389  Biso   1.000  Zr
  Zr11     1.0000 0.86198  0.54374  0.60529  Biso   1.000  Zr
  Zr12     1.0000 0.36204  0.95623  0.35534  Biso   1.000  Zr
  Zr13     1.0000 0.36430  0.95772  0.85217  Biso   1.000  Zr
  Zr14     1.0000 0.85509  0.95598  0.35888  Biso   1.000  Zr
  Zr15     1.0000 0.86258  0.95718  0.85459  Biso   1.000  Zr
  O1       1.0000 0.03672  0.36322  0.07839  Biso   1.000  O
  O2       1.0000 0.03640  0.34309  0.58337  Biso   1.000  O
  O3       1.0000 0.53798  0.33710  0.07926  Biso   1.000  O
  O4       1.0000 0.53481  0.33622  0.58022  Biso   1.000  O
  O5       1.0000 0.03052  0.16194  0.33796  Biso   1.000  O
  O6       1.0000 0.03748  0.15663  0.83137  Biso   1.000  O
  O7       1.0000 0.53557  0.15913  0.33061  Biso   1.000  O
  O8       1.0000 0.53723  0.16357  0.82862  Biso   1.000  O
  O9       1.0000 0.46433  0.83881  0.17005  Biso   1.000  O
  O10      1.0000 0.46610  0.83680  0.66939  Biso   1.000  O
  O11      1.0000 0.94588  0.84834  0.17062  Biso   1.000  O
  O12      1.0000 0.96431  0.84133  0.66923  Biso   1.000  O
  O13      1.0000 0.46419  0.66005  0.42076  Biso   1.000  O
  O14      1.0000 0.47021  0.66689  0.91961  Biso   1.000  O
  O15      1.0000 0.96360  0.66292  0.42025  Biso   1.000  O
  O16      1.0000 0.96381  0.66056  0.91870  Biso   1.000  O
  O17      1.0000 0.27972  0.26139  0.24417  Biso   1.000  O
  O18      1.0000 0.27608  0.25804  0.73810  Biso   1.000  O
  O19      1.0000 0.77324  0.25828  0.24170  Biso   1.000  O
  O20      1.0000 0.77702  0.25885  0.74024  Biso   1.000  O
  O21      1.0000 0.27541  0.24072  0.49099  Biso   1.000  O
  O22      1.0000 0.28132  0.24959  0.98280  Biso   1.000  O
  O23      1.0000 0.77439  0.24269  0.49188  Biso   1.000  O
  O24      1.0000 0.77610  0.23995  0.99019  Biso   1.000  O
  O25      1.0000 0.23287  0.74684  0.00168  Biso   1.000  O
  O26      1.0000 0.22447  0.75788  0.50970  Biso   1.000  O
  O27      1.0000 0.72393  0.75710  0.00924  Biso   1.000  O
  O28      1.0000 0.72308  0.75691  0.51088  Biso   1.000  O
  O29      1.0000 0.22835  0.72933  0.26142  Biso   1.000  O
  O30      1.0000 0.22561  0.74319  0.75718  Biso   1.000  O
  O31      1.0000 0.71943  0.73985  0.26174  Biso   1.000  O
  O32      1.0000 0.72595  0.74274  0.75928  Biso   1.000  O
