data_image0
_cell_length_a       10.1318
_cell_length_b       10.6541
_cell_length_c       5.14594
_cell_angle_alpha    87.6893
_cell_angle_beta     92.3649
_cell_angle_gamma    90.8874

_symmetry_space_group_name_H-M    "P 1"
_symmetry_int_tables_number       1

loop_
  _symmetry_equiv_pos_as_xyz
  'x, y, z'

loop_
  _atom_site_label
  _atom_site_occupancy
  _atom_site_fract_x
  _atom_site_fract_y
  _atom_site_fract_z
  _atom_site_thermal_displace_type
  _atom_site_B_iso_or_equiv
  _atom_site_type_symbol
  Zr1      1.0000 0.11193  0.97239  0.21864  Biso   1.000  Zr
  Zr2      1.0000 0.14160  0.19542  0.61779  Biso   1.000  Zr
  Zr3      1.0000 0.37510  0.26228  0.21228  Biso   1.000  Zr
  Zr4      1.0000 0.38130  0.48020  0.71793  Biso   1.000  Zr
  O1       1.0000 0.00568  0.13063  0.32776  Biso   1.000  O
  O2       1.0000 0.04137  0.06086  0.86126  Biso   1.000  O
  O3       1.0000 0.47183  0.42177  0.39374  Biso   1.000  O
  O4       1.0000 0.48719  0.32260  0.91002  Biso   1.000  O
  O5       1.0000 0.26549  0.09057  0.39777  Biso   1.000  O
  O6       1.0000 0.30538  0.14908  0.87390  Biso   1.000  O
  O7       1.0000 0.26853  0.43074  0.03581  Biso   1.000  O
  O8       1.0000 0.23481  0.36220  0.51805  Biso   1.000  O
  Zr5      1.0000 0.12860  0.53616  0.27464  Biso   1.000  Zr
  Zr6      1.0000 0.12698  0.74947  0.75329  Biso   1.000  Zr
  Zr7      1.0000 0.37192  0.76850  0.25481  Biso   1.000  Zr
  Zr8      1.0000 0.37705  0.99038  0.72370  Biso   1.000  Zr
  O9       1.0000 0.02737  0.68041  0.42892  Biso   1.000  O
  O10      1.0000 0.02865  0.57125  0.90106  Biso   1.000  O
  O11      1.0000 0.48026  0.92235  0.40957  Biso   1.000  O
  O12      1.0000 0.47231  0.82043  0.91234  Biso   1.000  O
  O13      1.0000 0.26554  0.61794  0.54319  Biso   1.000  O
  O14      1.0000 0.23697  0.66861  0.05147  Biso   1.000  O
  O15      1.0000 0.24493  0.90058  0.97323  Biso   1.000  O
  O16      1.0000 0.23759  0.85674  0.48464  Biso   1.000  O
  Zr9      1.0000 0.63728  0.01584  0.26577  Biso   1.000  Zr
  Zr10     1.0000 0.63797  0.22985  0.77424  Biso   1.000  Zr
  Zr11     1.0000 0.84921  0.27353  0.31669  Biso   1.000  Zr
  Zr12     1.0000 0.87151  0.48426  0.74080  Biso   1.000  Zr
  O17      1.0000 0.52678  0.17108  0.41890  Biso   1.000  O
  O18      1.0000 0.54345  0.06421  0.91400  Biso   1.000  O
  O19      1.0000 0.93418  0.46799  0.36722  Biso   1.000  O
  O20      1.0000 0.95894  0.29701  0.67424  Biso   1.000  O
  O21      1.0000 0.76342  0.11311  0.53517  Biso   1.000  O
  O22      1.0000 0.77294  0.14034  0.03692  Biso   1.000  O
  O23      1.0000 0.74762  0.38421  0.01218  Biso   1.000  O
  O24      1.0000 0.71322  0.36935  0.51691  Biso   1.000  O
  Zr13     1.0000 0.63599  0.51510  0.25579  Biso   1.000  Zr
  Zr14     1.0000 0.62589  0.73463  0.76455  Biso   1.000  Zr
  Zr15     1.0000 0.85683  0.76141  0.28826  Biso   1.000  Zr
  Zr16     1.0000 0.86502  0.98172  0.77271  Biso   1.000  Zr
  O25      1.0000 0.52647  0.66878  0.42206  Biso   1.000  O
  O26      1.0000 0.52639  0.57297  0.92183  Biso   1.000  O
  O27      1.0000 0.97826  0.90133  0.48819  Biso   1.000  O
  O28      1.0000 0.98814  0.83354  0.99746  Biso   1.000  O
  O29      1.0000 0.75918  0.61848  0.52915  Biso   1.000  O
  O30      1.0000 0.76064  0.64358  0.02261  Biso   1.000  O
  O31      1.0000 0.74062  0.88775  0.02873  Biso   1.000  O
  O32      1.0000 0.73474  0.86524  0.52543  Biso   1.000  O
  Bi1      1.0000 0.09088  0.29223  0.06992  Biso   1.000  Bi
