data_image0
_cell_length_a       5.18345
_cell_length_b       10.5315
_cell_length_c       10.621
_cell_angle_alpha    88.716
_cell_angle_beta     78.6481
_cell_angle_gamma    89.1684

_symmetry_space_group_name_H-M    "P 1"
_symmetry_int_tables_number       1

loop_
  _symmetry_equiv_pos_as_xyz
  'x, y, z'

loop_
  _atom_site_label
  _atom_site_occupancy
  _atom_site_fract_x
  _atom_site_fract_y
  _atom_site_fract_z
  _atom_site_thermal_displace_type
  _atom_site_B_iso_or_equiv
  _atom_site_type_symbol
  Zr1      1.0000 0.25993  0.00713  0.14278  Biso   1.000  Zr
  Zr2      1.0000 0.36808  0.24578  0.41094  Biso   1.000  Zr
  Zr3      1.0000 0.68456  0.26479  0.09803  Biso   1.000  Zr
  Zr4      1.0000 0.72266  0.49599  0.35878  Biso   1.000  Zr
  O1       1.0000 0.04161  0.15422  0.07227  Biso   1.000  O
  O2       1.0000 0.04666  0.03804  0.32931  Biso   1.000  O
  O3       1.0000 0.93624  0.42589  0.17427  Biso   1.000  O
  O4       1.0000 0.98825  0.38674  0.45331  Biso   1.000  O
  O5       1.0000 0.51567  0.11468  0.23831  Biso   1.000  O
  O6       1.0000 0.57281  0.10546  0.49496  Biso   1.000  O
  O7       1.0000 0.42900  0.37927  0.01161  Biso   1.000  O
  O8       1.0000 0.45775  0.38654  0.26010  Biso   1.000  O
  Zr5      1.0000 0.27579  0.02154  0.64448  Biso   1.000  Zr
  Zr6      1.0000 0.26303  0.22638  0.89311  Biso   1.000  Zr
  Zr7      1.0000 0.75471  0.28130  0.61449  Biso   1.000  Zr
  Zr8      1.0000 0.71376  0.47867  0.86109  Biso   1.000  Zr
  O9       1.0000 0.09134  0.17215  0.57191  Biso   1.000  O
  O10      1.0000 0.05302  0.08855  0.82230  Biso   1.000  O
  O11      1.0000 0.95043  0.40887  0.69292  Biso   1.000  O
  O12      1.0000 0.92079  0.33520  0.93103  Biso   1.000  O
  O13      1.0000 0.54195  0.13138  0.73986  Biso   1.000  O
  O14      1.0000 0.53002  0.12150  0.98811  Biso   1.000  O
  O15      1.0000 0.48077  0.38537  0.52260  Biso   1.000  O
  O16      1.0000 0.45832  0.37376  0.76598  Biso   1.000  O
  Zr9      1.0000 0.27760  0.52580  0.14766  Biso   1.000  Zr
  Zr10     1.0000 0.26014  0.72718  0.39847  Biso   1.000  Zr
  Zr11     1.0000 0.71424  0.76829  0.10019  Biso   1.000  Zr
  Zr12     1.0000 0.69105  0.96179  0.35144  Biso   1.000  Zr
  O17      1.0000 0.06117  0.66728  0.07307  Biso   1.000  O
  O18      1.0000 0.05741  0.59897  0.31924  Biso   1.000  O
  O19      1.0000 0.91069  0.90762  0.16497  Biso   1.000  O
  O20      1.0000 0.90424  0.82087  0.42422  Biso   1.000  O
  O21      1.0000 0.54567  0.63144  0.24345  Biso   1.000  O
  O22      1.0000 0.53146  0.62558  0.49493  Biso   1.000  O
  O23      1.0000 0.44395  0.87619  0.00523  Biso   1.000  O
  O24      1.0000 0.42927  0.86213  0.25523  Biso   1.000  O
  Zr13     1.0000 0.27279  0.52587  0.65261  Biso   1.000  Zr
  Zr14     1.0000 0.26646  0.72835  0.89501  Biso   1.000  Zr
  Zr15     1.0000 0.71460  0.77364  0.60702  Biso   1.000  Zr
  Zr16     1.0000 0.71627  0.97933  0.84981  Biso   1.000  Zr
  O25      1.0000 0.04787  0.66124  0.58171  Biso   1.000  O
  O26      1.0000 0.05694  0.58686  0.83047  Biso   1.000  O
  O27      1.0000 0.92634  0.91874  0.66904  Biso   1.000  O
  O28      1.0000 0.92766  0.83525  0.91642  Biso   1.000  O
  O29      1.0000 0.54025  0.62880  0.74257  Biso   1.000  O
  O30      1.0000 0.54411  0.62150  0.99142  Biso   1.000  O
  O31      1.0000 0.42534  0.87340  0.51122  Biso   1.000  O
  O32      1.0000 0.44533  0.87425  0.75911  Biso   1.000  O
  Bi1      1.0000 0.95465  0.24052  0.29795  Biso   1.000  Bi
