data_image0
_cell_length_a       10.1176
_cell_length_b       10.3338
_cell_length_c       10.5205
_cell_angle_alpha    89.9713
_cell_angle_beta     90.0798
_cell_angle_gamma    89.993

_symmetry_space_group_name_H-M    "P 1"
_symmetry_int_tables_number       1

loop_
  _symmetry_equiv_pos_as_xyz
  'x, y, z'

loop_
  _atom_site_label
  _atom_site_occupancy
  _atom_site_fract_x
  _atom_site_fract_y
  _atom_site_fract_z
  _atom_site_thermal_displace_type
  _atom_site_B_iso_or_equiv
  _atom_site_type_symbol
  Bi1      1.0000 0.13378  0.01786  0.17136  Biso   1.000  Bi
  Zr1      1.0000 0.13902  0.02067  0.67090  Biso   1.000  Zr
  Zr2      1.0000 0.13847  0.52097  0.17067  Biso   1.000  Zr
  Zr3      1.0000 0.13867  0.52102  0.67089  Biso   1.000  Zr
  Zr4      1.0000 0.13931  0.23013  0.42311  Biso   1.000  Zr
  Zr5      1.0000 0.13982  0.23101  0.91818  Biso   1.000  Zr
  Zr6      1.0000 0.13800  0.72780  0.42165  Biso   1.000  Zr
  Zr7      1.0000 0.13910  0.72818  0.91992  Biso   1.000  Zr
  Zr8      1.0000 0.36100  0.27149  0.17016  Biso   1.000  Zr
  Zr9      1.0000 0.36206  0.27097  0.67080  Biso   1.000  Zr
  Zr10     1.0000 0.36422  0.76903  0.16997  Biso   1.000  Zr
  Zr11     1.0000 0.36100  0.77065  0.67064  Biso   1.000  Zr
  Zr12     1.0000 0.36105  0.47888  0.42048  Biso   1.000  Zr
  Zr13     1.0000 0.36148  0.47898  0.92089  Biso   1.000  Zr
  Zr14     1.0000 0.36309  0.97871  0.42231  Biso   1.000  Zr
  Zr15     1.0000 0.36334  0.97923  0.91902  Biso   1.000  Zr
  Zr16     1.0000 0.63909  0.02100  0.07959  Biso   1.000  Zr
  Zr17     1.0000 0.63870  0.02122  0.58105  Biso   1.000  Zr
  Zr18     1.0000 0.63841  0.52004  0.07849  Biso   1.000  Zr
  Zr19     1.0000 0.63863  0.52079  0.57849  Biso   1.000  Zr
  Zr20     1.0000 0.63767  0.22961  0.32917  Biso   1.000  Zr
  Zr21     1.0000 0.63915  0.22893  0.82914  Biso   1.000  Zr
  Zr22     1.0000 0.63891  0.72796  0.32959  Biso   1.000  Zr
  Zr23     1.0000 0.63853  0.72873  0.82805  Biso   1.000  Zr
  Zr24     1.0000 0.85927  0.27232  0.07861  Biso   1.000  Zr
  Zr25     1.0000 0.86146  0.27137  0.57924  Biso   1.000  Zr
  Zr26     1.0000 0.85880  0.76775  0.07756  Biso   1.000  Zr
  Zr27     1.0000 0.86164  0.77105  0.57957  Biso   1.000  Zr
  Zr28     1.0000 0.86150  0.47880  0.32892  Biso   1.000  Zr
  Zr29     1.0000 0.86136  0.47870  0.82803  Biso   1.000  Zr
  Zr30     1.0000 0.85499  0.97910  0.33300  Biso   1.000  Zr
  Zr31     1.0000 0.86217  0.97904  0.83002  Biso   1.000  Zr
  O1       1.0000 0.03365  0.17643  0.08192  Biso   1.000  O
  O2       1.0000 0.03383  0.16821  0.58663  Biso   1.000  O
  O3       1.0000 0.03374  0.66825  0.08467  Biso   1.000  O
  O4       1.0000 0.03315  0.66668  0.58503  Biso   1.000  O
  O5       1.0000 0.02819  0.08434  0.34157  Biso   1.000  O
  O6       1.0000 0.03459  0.08256  0.83556  Biso   1.000  O
  O7       1.0000 0.03305  0.58348  0.33450  Biso   1.000  O
  O8       1.0000 0.03317  0.58271  0.83390  Biso   1.000  O
  O9       1.0000 0.46742  0.41529  0.08315  Biso   1.000  O
  O10      1.0000 0.46754  0.41530  0.58308  Biso   1.000  O
  O11      1.0000 0.46832  0.91611  0.08357  Biso   1.000  O
  O12      1.0000 0.46759  0.91571  0.58475  Biso   1.000  O
  O13      1.0000 0.46731  0.33534  0.33300  Biso   1.000  O
  O14      1.0000 0.46755  0.33413  0.83348  Biso   1.000  O
  O15      1.0000 0.46888  0.83442  0.33349  Biso   1.000  O
  O16      1.0000 0.46800  0.83407  0.83236  Biso   1.000  O
  O17      1.0000 0.27990  0.12730  0.30018  Biso   1.000  O
  O18      1.0000 0.27595  0.12430  0.79266  Biso   1.000  O
  O19      1.0000 0.27576  0.62298  0.29440  Biso   1.000  O
  O20      1.0000 0.27564  0.62425  0.79427  Biso   1.000  O
  O21      1.0000 0.28219  0.13159  0.03750  Biso   1.000  O
  O22      1.0000 0.27587  0.12547  0.54563  Biso   1.000  O
  O23      1.0000 0.27542  0.62363  0.04465  Biso   1.000  O
  O24      1.0000 0.27510  0.62518  0.54459  Biso   1.000  O
  O25      1.0000 0.22364  0.37416  0.29432  Biso   1.000  O
  O26      1.0000 0.22526  0.37486  0.79375  Biso   1.000  O
  O27      1.0000 0.22898  0.86860  0.29742  Biso   1.000  O
  O28      1.0000 0.22486  0.87397  0.79300  Biso   1.000  O
  O29      1.0000 0.22404  0.37729  0.04392  Biso   1.000  O
  O30      1.0000 0.22486  0.37599  0.54475  Biso   1.000  O
  O31      1.0000 0.23252  0.86843  0.03866  Biso   1.000  O
  O32      1.0000 0.22476  0.87551  0.54470  Biso   1.000  O
  O33      1.0000 0.53312  0.16613  0.16612  Biso   1.000  O
  O34      1.0000 0.53333  0.16593  0.66646  Biso   1.000  O
  O35      1.0000 0.53367  0.66414  0.16665  Biso   1.000  O
  O36      1.0000 0.53272  0.66511  0.66595  Biso   1.000  O
  O37      1.0000 0.53398  0.08410  0.41724  Biso   1.000  O
  O38      1.0000 0.53531  0.08315  0.91504  Biso   1.000  O
  O39      1.0000 0.53243  0.58412  0.41644  Biso   1.000  O
  O40      1.0000 0.53234  0.58487  0.91662  Biso   1.000  O
  O41      1.0000 0.96496  0.41878  0.16473  Biso   1.000  O
  O42      1.0000 0.96682  0.41709  0.66495  Biso   1.000  O
  O43      1.0000 0.95126  0.91743  0.16532  Biso   1.000  O
  O44      1.0000 0.96658  0.91676  0.66590  Biso   1.000  O
  O45      1.0000 0.96689  0.33440  0.41645  Biso   1.000  O
  O46      1.0000 0.96571  0.33388  0.91401  Biso   1.000  O
  O47      1.0000 0.96613  0.83371  0.41544  Biso   1.000  O
  O48      1.0000 0.96754  0.83343  0.91624  Biso   1.000  O
  O49      1.0000 0.77631  0.12437  0.95618  Biso   1.000  O
  O50      1.0000 0.77446  0.12453  0.45727  Biso   1.000  O
  O51      1.0000 0.77489  0.62303  0.95423  Biso   1.000  O
  O52      1.0000 0.77572  0.62414  0.45525  Biso   1.000  O
  O53      1.0000 0.77491  0.12661  0.20690  Biso   1.000  O
  O54      1.0000 0.77607  0.12584  0.70638  Biso   1.000  O
  O55      1.0000 0.77519  0.62533  0.20500  Biso   1.000  O
  O56      1.0000 0.77543  0.62584  0.70471  Biso   1.000  O
  O57      1.0000 0.72376  0.37442  0.95481  Biso   1.000  O
  O58      1.0000 0.72448  0.37441  0.45500  Biso   1.000  O
  O59      1.0000 0.72448  0.87360  0.95545  Biso   1.000  O
  O60      1.0000 0.72321  0.87369  0.45738  Biso   1.000  O
  O61      1.0000 0.72363  0.37604  0.20525  Biso   1.000  O
  O62      1.0000 0.72471  0.37553  0.70483  Biso   1.000  O
  O63      1.0000 0.72040  0.87532  0.20718  Biso   1.000  O
  O64      1.0000 0.72514  0.87571  0.70610  Biso   1.000  O
