data_image0
_cell_length_a       5.10343
_cell_length_b       10.4102
_cell_length_c       10.5163
_cell_angle_alpha    90.0598
_cell_angle_beta     80.7368
_cell_angle_gamma    89.996

_symmetry_space_group_name_H-M    "P 1"
_symmetry_int_tables_number       1

loop_
  _symmetry_equiv_pos_as_xyz
  'x, y, z'

loop_
  _atom_site_label
  _atom_site_occupancy
  _atom_site_fract_x
  _atom_site_fract_y
  _atom_site_fract_z
  _atom_site_thermal_displace_type
  _atom_site_B_iso_or_equiv
  _atom_site_type_symbol
  Bi1      1.0000 0.26753  0.01793  0.14660  Biso   1.000  Bi
  Zr1      1.0000 0.27840  0.02161  0.64586  Biso   1.000  Zr
  Zr2      1.0000 0.27573  0.51983  0.14468  Biso   1.000  Zr
  Zr3      1.0000 0.27812  0.52109  0.64532  Biso   1.000  Zr
  Zr4      1.0000 0.27715  0.23060  0.39748  Biso   1.000  Zr
  Zr5      1.0000 0.28033  0.23073  0.89258  Biso   1.000  Zr
  Zr6      1.0000 0.27329  0.72545  0.39676  Biso   1.000  Zr
  Zr7      1.0000 0.28045  0.72880  0.89314  Biso   1.000  Zr
  Zr8      1.0000 0.71897  0.27259  0.10390  Biso   1.000  Zr
  Zr9      1.0000 0.72418  0.27157  0.60470  Biso   1.000  Zr
  Zr10     1.0000 0.72300  0.76521  0.10366  Biso   1.000  Zr
  Zr11     1.0000 0.72260  0.77130  0.60471  Biso   1.000  Zr
  Zr12     1.0000 0.72059  0.47820  0.35418  Biso   1.000  Zr
  Zr13     1.0000 0.72505  0.47891  0.85375  Biso   1.000  Zr
  Zr14     1.0000 0.71268  0.97781  0.35994  Biso   1.000  Zr
  Zr15     1.0000 0.72813  0.97903  0.85329  Biso   1.000  Zr
  O1       1.0000 0.07600  0.18202  0.07898  Biso   1.000  O
  O2       1.0000 0.07400  0.17254  0.58356  Biso   1.000  O
  O3       1.0000 0.07792  0.67259  0.08163  Biso   1.000  O
  O4       1.0000 0.07132  0.66993  0.58227  Biso   1.000  O
  O5       1.0000 0.06622  0.07787  0.34131  Biso   1.000  O
  O6       1.0000 0.07810  0.07869  0.83161  Biso   1.000  O
  O7       1.0000 0.06983  0.57843  0.33087  Biso   1.000  O
  O8       1.0000 0.07432  0.57893  0.83081  Biso   1.000  O
  O9       1.0000 0.92266  0.42286  0.16804  Biso   1.000  O
  O10      1.0000 0.92879  0.42114  0.66810  Biso   1.000  O
  O11      1.0000 0.89371  0.92376  0.16966  Biso   1.000  O
  O12      1.0000 0.92914  0.92068  0.66841  Biso   1.000  O
  O13      1.0000 0.92632  0.32955  0.41900  Biso   1.000  O
  O14      1.0000 0.92925  0.33094  0.91703  Biso   1.000  O
  O15      1.0000 0.92582  0.82845  0.41932  Biso   1.000  O
  O16      1.0000 0.93473  0.82987  0.91887  Biso   1.000  O
  O17      1.0000 0.55883  0.13359  0.24588  Biso   1.000  O
  O18      1.0000 0.55421  0.12963  0.73885  Biso   1.000  O
  O19      1.0000 0.54948  0.62525  0.24012  Biso   1.000  O
  O20      1.0000 0.55264  0.62935  0.73972  Biso   1.000  O
  O21      1.0000 0.54983  0.12100  0.49258  Biso   1.000  O
  O22      1.0000 0.56425  0.12578  0.98321  Biso   1.000  O
  O23      1.0000 0.55050  0.62023  0.49065  Biso   1.000  O
  O24      1.0000 0.55261  0.61947  0.98966  Biso   1.000  O
  O25      1.0000 0.44959  0.38061  0.00793  Biso   1.000  O
  O26      1.0000 0.44818  0.37909  0.50914  Biso   1.000  O
  O27      1.0000 0.46271  0.87249  0.00242  Biso   1.000  O
  O28      1.0000 0.44611  0.87866  0.51111  Biso   1.000  O
  O29      1.0000 0.44393  0.37133  0.25909  Biso   1.000  O
  O30      1.0000 0.45093  0.37176  0.75801  Biso   1.000  O
  O31      1.0000 0.45063  0.86178  0.26368  Biso   1.000  O
  O32      1.0000 0.45123  0.87107  0.75794  Biso   1.000  O
