data_image0
_cell_length_a       10.3652
_cell_length_b       10.5618
_cell_length_c       5.29415
_cell_angle_alpha    88.8968
_cell_angle_beta     78.6203
_cell_angle_gamma    89.017

_symmetry_space_group_name_H-M    "P 1"
_symmetry_int_tables_number       1

loop_
  _symmetry_equiv_pos_as_xyz
  'x, y, z'

loop_
  _atom_site_label
  _atom_site_occupancy
  _atom_site_fract_x
  _atom_site_fract_y
  _atom_site_fract_z
  _atom_site_thermal_displace_type
  _atom_site_B_iso_or_equiv
  _atom_site_type_symbol
  Zr1      1.0000 0.13187  0.01679  0.28522  Biso   1.000  Zr
  Zr2      1.0000 0.13579  0.22622  0.77135  Biso   1.000  Zr
  Zr3      1.0000 0.34808  0.26712  0.16576  Biso   1.000  Zr
  Zr4      1.0000 0.35595  0.49057  0.71082  Biso   1.000  Zr
  O1       1.0000 0.03786  0.17223  0.16101  Biso   1.000  O
  O2       1.0000 0.02767  0.08018  0.66245  Biso   1.000  O
  O3       1.0000 0.46915  0.42964  0.36378  Biso   1.000  O
  O4       1.0000 0.48066  0.38359  0.90354  Biso   1.000  O
  O5       1.0000 0.26107  0.11656  0.46066  Biso   1.000  O
  O6       1.0000 0.26558  0.11118  0.96702  Biso   1.000  O
  O7       1.0000 0.21589  0.38223  0.99513  Biso   1.000  O
  O8       1.0000 0.21839  0.36999  0.49278  Biso   1.000  O
  Zr5      1.0000 0.13902  0.52009  0.29112  Biso   1.000  Zr
  Zr6      1.0000 0.13190  0.72731  0.79457  Biso   1.000  Zr
  Zr7      1.0000 0.35624  0.76822  0.20260  Biso   1.000  Zr
  Zr8      1.0000 0.34846  0.96273  0.69859  Biso   1.000  Zr
  O9       1.0000 0.02834  0.66713  0.16252  Biso   1.000  O
  O10      1.0000 0.03532  0.58258  0.66086  Biso   1.000  O
  O11      1.0000 0.45715  0.91445  0.31600  Biso   1.000  O
  O12      1.0000 0.45298  0.81858  0.83200  Biso   1.000  O
  O13      1.0000 0.27115  0.62789  0.48144  Biso   1.000  O
  O14      1.0000 0.26835  0.62318  0.98630  Biso   1.000  O
  O15      1.0000 0.21563  0.87305  0.01605  Biso   1.000  O
  O16      1.0000 0.21660  0.86434  0.51202  Biso   1.000  O
  Zr9      1.0000 0.63255  0.00904  0.29360  Biso   1.000  Zr
  Zr10     1.0000 0.67439  0.24562  0.84216  Biso   1.000  Zr
  Zr11     1.0000 0.86914  0.27399  0.24214  Biso   1.000  Zr
  Zr12     1.0000 0.86586  0.48568  0.72439  Biso   1.000  Zr
  O17      1.0000 0.52733  0.16148  0.12086  Biso   1.000  O
  O18      1.0000 0.52824  0.03615  0.65832  Biso   1.000  O
  O19      1.0000 0.96831  0.42170  0.34771  Biso   1.000  O
  O20      1.0000 0.95916  0.32701  0.84433  Biso   1.000  O
  O21      1.0000 0.77627  0.13468  0.51879  Biso   1.000  O
  O22      1.0000 0.78131  0.11592  0.02290  Biso   1.000  O
  O23      1.0000 0.73395  0.38448  0.06253  Biso   1.000  O
  O24      1.0000 0.73581  0.38281  0.55205  Biso   1.000  O
  Zr13     1.0000 0.63799  0.53175  0.30842  Biso   1.000  Zr
  Zr14     1.0000 0.63496  0.72961  0.79412  Biso   1.000  Zr
  Zr15     1.0000 0.85964  0.77291  0.21220  Biso   1.000  Zr
  Zr16     1.0000 0.85744  0.97992  0.71248  Biso   1.000  Zr
  O25      1.0000 0.53219  0.66970  0.15818  Biso   1.000  O
  O26      1.0000 0.53025  0.59609  0.65544  Biso   1.000  O
  O27      1.0000 0.95874  0.91828  0.34585  Biso   1.000  O
  O28      1.0000 0.96203  0.83215  0.84460  Biso   1.000  O
  O29      1.0000 0.77484  0.63282  0.49100  Biso   1.000  O
  O30      1.0000 0.77320  0.62477  0.98845  Biso   1.000  O
  O31      1.0000 0.72002  0.87730  0.01732  Biso   1.000  O
  O32      1.0000 0.72278  0.87187  0.51655  Biso   1.000  O
  Bi1      1.0000 0.47584  0.23854  0.58203  Biso   1.000  Bi
