data_image0
_cell_length_a       10.1442
_cell_length_b       10.3505
_cell_length_c       5.27194
_cell_angle_alpha    89.9533
_cell_angle_beta     90.1378
_cell_angle_gamma    89.9971

_symmetry_space_group_name_H-M    "P 1"
_symmetry_int_tables_number       1

loop_
  _symmetry_equiv_pos_as_xyz
  'x, y, z'

loop_
  _atom_site_label
  _atom_site_occupancy
  _atom_site_fract_x
  _atom_site_fract_y
  _atom_site_fract_z
  _atom_site_thermal_displace_type
  _atom_site_B_iso_or_equiv
  _atom_site_type_symbol
  Bi1      1.0000 0.13428  0.01755  0.34292  Biso   1.000  Bi
  Zr1      1.0000 0.13839  0.52102  0.34155  Biso   1.000  Zr
  Zr2      1.0000 0.14024  0.23189  0.84128  Biso   1.000  Zr
  Zr3      1.0000 0.13811  0.72703  0.84169  Biso   1.000  Zr
  Zr4      1.0000 0.36202  0.27185  0.34037  Biso   1.000  Zr
  Zr5      1.0000 0.36426  0.76868  0.33969  Biso   1.000  Zr
  Zr6      1.0000 0.36125  0.47900  0.84099  Biso   1.000  Zr
  Zr7      1.0000 0.36501  0.97888  0.84079  Biso   1.000  Zr
  Zr8      1.0000 0.63901  0.02124  0.16287  Biso   1.000  Zr
  Zr9      1.0000 0.63845  0.51985  0.15562  Biso   1.000  Zr
  Zr10     1.0000 0.63804  0.22942  0.65836  Biso   1.000  Zr
  Zr11     1.0000 0.63865  0.72781  0.65699  Biso   1.000  Zr
  Zr12     1.0000 0.85963  0.27269  0.15715  Biso   1.000  Zr
  Zr13     1.0000 0.85920  0.76791  0.15611  Biso   1.000  Zr
  Zr14     1.0000 0.86157  0.47852  0.65560  Biso   1.000  Zr
  Zr15     1.0000 0.85595  0.97913  0.66753  Biso   1.000  Zr
  O1       1.0000 0.03336  0.17637  0.16617  Biso   1.000  O
  O2       1.0000 0.03344  0.66803  0.16997  Biso   1.000  O
  O3       1.0000 0.02925  0.08411  0.68392  Biso   1.000  O
  O4       1.0000 0.03274  0.58332  0.66692  Biso   1.000  O
  O5       1.0000 0.46809  0.41441  0.16394  Biso   1.000  O
  O6       1.0000 0.46899  0.91545  0.16801  Biso   1.000  O
  O7       1.0000 0.46799  0.33578  0.66446  Biso   1.000  O
  O8       1.0000 0.47024  0.83470  0.66287  Biso   1.000  O
  O9       1.0000 0.27983  0.12706  0.59725  Biso   1.000  O
  O10      1.0000 0.27564  0.62299  0.58839  Biso   1.000  O
  O11      1.0000 0.28197  0.13101  0.07725  Biso   1.000  O
  O12      1.0000 0.27477  0.62332  0.08942  Biso   1.000  O
  O13      1.0000 0.22468  0.37476  0.58717  Biso   1.000  O
  O14      1.0000 0.22962  0.86853  0.59302  Biso   1.000  O
  O15      1.0000 0.22473  0.37735  0.08851  Biso   1.000  O
  O16      1.0000 0.23279  0.86883  0.07732  Biso   1.000  O
  O17      1.0000 0.53313  0.16577  0.33362  Biso   1.000  O
  O18      1.0000 0.53317  0.66286  0.33375  Biso   1.000  O
  O19      1.0000 0.53625  0.08341  0.83302  Biso   1.000  O
  O20      1.0000 0.53171  0.58517  0.83463  Biso   1.000  O
  O21      1.0000 0.96538  0.41877  0.32929  Biso   1.000  O
  O22      1.0000 0.95187  0.91731  0.33212  Biso   1.000  O
  O23      1.0000 0.96625  0.33586  0.83116  Biso   1.000  O
  O24      1.0000 0.96702  0.83405  0.83289  Biso   1.000  O
  O25      1.0000 0.77510  0.12467  0.91580  Biso   1.000  O
  O26      1.0000 0.77488  0.62308  0.90814  Biso   1.000  O
  O27      1.0000 0.77504  0.12655  0.41553  Biso   1.000  O
  O28      1.0000 0.77481  0.62540  0.40831  Biso   1.000  O
  O29      1.0000 0.72397  0.37449  0.90865  Biso   1.000  O
  O30      1.0000 0.72353  0.87310  0.91457  Biso   1.000  O
  O31      1.0000 0.72417  0.37581  0.40916  Biso   1.000  O
  O32      1.0000 0.72155  0.87520  0.41525  Biso   1.000  O
