data_image0
_cell_length_a       10.2505
_cell_length_b       5.28785
_cell_length_c       10.333
_cell_angle_alpha    83.9128
_cell_angle_beta     92.47
_cell_angle_gamma    93.5453

_symmetry_space_group_name_H-M    "P 1"
_symmetry_int_tables_number       1

loop_
  _symmetry_equiv_pos_as_xyz
  'x, y, z'

loop_
  _atom_site_label
  _atom_site_occupancy
  _atom_site_fract_x
  _atom_site_fract_y
  _atom_site_fract_z
  _atom_site_thermal_displace_type
  _atom_site_B_iso_or_equiv
  _atom_site_type_symbol
  Zr1      1.0000 0.14658  0.96062  0.10462  Biso   1.000  Zr
  Zr2      1.0000 0.11661  0.50757  0.39979  Biso   1.000  Zr
  Zr3      1.0000 0.35165  0.49245  0.13012  Biso   1.000  Zr
  Zr4      1.0000 0.38732  0.98962  0.35045  Biso   1.000  Zr
  O1       1.0000 0.96056  0.41245  0.27308  Biso   1.000  O
  O2       1.0000 0.04899  0.14323  0.44887  Biso   1.000  O
  O3       1.0000 0.45084  0.85506  0.17855  Biso   1.000  O
  O4       1.0000 0.47234  0.65344  0.44084  Biso   1.000  O
  O5       1.0000 0.24430  0.18150  0.23534  Biso   1.000  O
  O6       1.0000 0.27655  0.29764  0.48944  Biso   1.000  O
  O7       1.0000 0.24951  0.79884  0.48741  Biso   1.000  O
  O8       1.0000 0.21970  0.67476  0.23974  Biso   1.000  O
  Zr5      1.0000 0.15280  0.02100  0.61196  Biso   1.000  Zr
  Zr6      1.0000 0.16585  0.41660  0.84106  Biso   1.000  Zr
  Zr7      1.0000 0.37716  0.53038  0.60788  Biso   1.000  Zr
  Zr8      1.0000 0.37668  0.92998  0.87603  Biso   1.000  Zr
  O9       1.0000 0.07604  0.37860  0.65286  Biso   1.000  O
  O10      1.0000 0.06664  0.05634  0.90562  Biso   1.000  O
  O11      1.0000 0.50317  0.80041  0.72796  Biso   1.000  O
  O12      1.0000 0.46391  0.60469  0.96146  Biso   1.000  O
  O13      1.0000 0.29425  0.21166  0.73885  Biso   1.000  O
  O14      1.0000 0.28785  0.20870  0.99222  Biso   1.000  O
  O15      1.0000 0.23203  0.71205  0.98400  Biso   1.000  O
  O16      1.0000 0.25901  0.72139  0.73423  Biso   1.000  O
  Zr9      1.0000 0.62259  0.08454  0.12619  Biso   1.000  Zr
  Zr10     1.0000 0.63289  0.47131  0.40796  Biso   1.000  Zr
  Zr11     1.0000 0.81217  0.62213  0.16717  Biso   1.000  Zr
  Zr12     1.0000 0.87521  0.03467  0.37948  Biso   1.000  Zr
  O17      1.0000 0.49570  0.31792  0.23510  Biso   1.000  O
  O18      1.0000 0.53696  0.12596  0.46808  Biso   1.000  O
  O19      1.0000 0.96338  0.92301  0.21168  Biso   1.000  O
  O20      1.0000 0.97017  0.68747  0.46484  Biso   1.000  O
  O21      1.0000 0.73167  0.27907  0.27097  Biso   1.000  O
  O22      1.0000 0.78470  0.28099  0.51553  Biso   1.000  O
  O23      1.0000 0.73951  0.77063  0.51683  Biso   1.000  O
  O24      1.0000 0.69689  0.79789  0.27386  Biso   1.000  O
  Zr13     1.0000 0.65748  0.01471  0.63682  Biso   1.000  Zr
  Zr14     1.0000 0.60291  0.48079  0.85335  Biso   1.000  Zr
  Zr15     1.0000 0.89080  0.53961  0.64324  Biso   1.000  Zr
  Zr16     1.0000 0.88767  0.91910  0.86415  Biso   1.000  Zr
  O25      1.0000 0.54732  0.34478  0.67543  Biso   1.000  O
  O26      1.0000 0.53813  0.12372  0.93622  Biso   1.000  O
  O27      1.0000 0.97146  0.90143  0.67595  Biso   1.000  O
  O28      1.0000 0.98163  0.55121  0.84742  Biso   1.000  O
  O29      1.0000 0.78409  0.20709  0.76601  Biso   1.000  O
  O30      1.0000 0.70737  0.42446  0.02990  Biso   1.000  O
  O31      1.0000 0.76768  0.91734  0.02434  Biso   1.000  O
  O32      1.0000 0.74910  0.70766  0.76284  Biso   1.000  O
  Bi1      1.0000 0.00610  0.41174  0.06203  Biso   1.000  Bi
