data_image0
_cell_length_a       10.1962
_cell_length_b       10.3806
_cell_length_c       10.5068
_cell_angle_alpha    90.0101
_cell_angle_beta     80.5634
_cell_angle_gamma    90.0029

_symmetry_space_group_name_H-M    "P 1"
_symmetry_int_tables_number       1

loop_
  _symmetry_equiv_pos_as_xyz
  'x, y, z'

loop_
  _atom_site_label
  _atom_site_occupancy
  _atom_site_fract_x
  _atom_site_fract_y
  _atom_site_fract_z
  _atom_site_thermal_displace_type
  _atom_site_B_iso_or_equiv
  _atom_site_type_symbol
  Bi1      1.0000 0.13397  0.01815  0.14669  Biso   1.000  Bi
  Zr1      1.0000 0.13901  0.02099  0.64513  Biso   1.000  Zr
  Zr2      1.0000 0.13840  0.52123  0.14452  Biso   1.000  Zr
  Zr3      1.0000 0.13888  0.52128  0.64547  Biso   1.000  Zr
  Zr4      1.0000 0.63896  0.02093  0.14536  Biso   1.000  Zr
  Zr5      1.0000 0.63908  0.02188  0.64616  Biso   1.000  Zr
  Zr6      1.0000 0.63835  0.52004  0.14545  Biso   1.000  Zr
  Zr7      1.0000 0.63899  0.52108  0.64518  Biso   1.000  Zr
  Zr8      1.0000 0.13931  0.23014  0.39724  Biso   1.000  Zr
  Zr9      1.0000 0.13951  0.23049  0.89264  Biso   1.000  Zr
  Zr10     1.0000 0.13801  0.72718  0.39624  Biso   1.000  Zr
  Zr11     1.0000 0.13922  0.72830  0.89433  Biso   1.000  Zr
  Zr12     1.0000 0.63806  0.22933  0.39570  Biso   1.000  Zr
  Zr13     1.0000 0.63932  0.22872  0.89556  Biso   1.000  Zr
  Zr14     1.0000 0.63761  0.72705  0.39579  Biso   1.000  Zr
  Zr15     1.0000 0.63983  0.72887  0.89398  Biso   1.000  Zr
  Zr16     1.0000 0.36134  0.27156  0.10396  Biso   1.000  Zr
  Zr17     1.0000 0.36174  0.27127  0.60430  Biso   1.000  Zr
  Zr18     1.0000 0.36437  0.76923  0.10426  Biso   1.000  Zr
  Zr19     1.0000 0.36102  0.77115  0.60458  Biso   1.000  Zr
  Zr20     1.0000 0.85916  0.27226  0.10483  Biso   1.000  Zr
  Zr21     1.0000 0.86145  0.27166  0.60511  Biso   1.000  Zr
  Zr22     1.0000 0.85836  0.76775  0.10361  Biso   1.000  Zr
  Zr23     1.0000 0.86159  0.77143  0.60473  Biso   1.000  Zr
  Zr24     1.0000 0.36027  0.47849  0.35400  Biso   1.000  Zr
  Zr25     1.0000 0.36216  0.47888  0.85446  Biso   1.000  Zr
  Zr26     1.0000 0.36265  0.97851  0.35591  Biso   1.000  Zr
  Zr27     1.0000 0.36304  0.97891  0.85252  Biso   1.000  Zr
  Zr28     1.0000 0.86129  0.47857  0.35474  Biso   1.000  Zr
  Zr29     1.0000 0.86143  0.47845  0.85401  Biso   1.000  Zr
  Zr30     1.0000 0.85497  0.97809  0.35880  Biso   1.000  Zr
  Zr31     1.0000 0.86215  0.97873  0.85517  Biso   1.000  Zr
  O1       1.0000 0.03706  0.18117  0.07897  Biso   1.000  O
  O2       1.0000 0.03673  0.17187  0.58294  Biso   1.000  O
  O3       1.0000 0.03677  0.67259  0.08158  Biso   1.000  O
  O4       1.0000 0.03596  0.67039  0.58176  Biso   1.000  O
  O5       1.0000 0.53657  0.17002  0.08072  Biso   1.000  O
  O6       1.0000 0.53576  0.16996  0.58085  Biso   1.000  O
  O7       1.0000 0.53771  0.66931  0.08006  Biso   1.000  O
  O8       1.0000 0.53541  0.66892  0.58086  Biso   1.000  O
  O9       1.0000 0.03090  0.08060  0.33887  Biso   1.000  O
  O10      1.0000 0.03744  0.07866  0.83205  Biso   1.000  O
  O11      1.0000 0.03585  0.57952  0.33085  Biso   1.000  O
  O12      1.0000 0.03630  0.57893  0.83096  Biso   1.000  O
  O13      1.0000 0.53732  0.07889  0.33176  Biso   1.000  O
  O14      1.0000 0.53731  0.08035  0.83000  Biso   1.000  O
  O15      1.0000 0.53478  0.57969  0.33027  Biso   1.000  O
  O16      1.0000 0.53648  0.58033  0.83025  Biso   1.000  O
  O17      1.0000 0.46390  0.41954  0.16930  Biso   1.000  O
  O18      1.0000 0.46476  0.41954  0.66929  Biso   1.000  O
  O19      1.0000 0.46416  0.92044  0.16918  Biso   1.000  O
  O20      1.0000 0.46498  0.91970  0.66865  Biso   1.000  O
  O21      1.0000 0.96178  0.42288  0.16822  Biso   1.000  O
  O22      1.0000 0.96397  0.42096  0.66849  Biso   1.000  O
  O23      1.0000 0.94789  0.92177  0.17086  Biso   1.000  O
  O24      1.0000 0.96392  0.92054  0.66913  Biso   1.000  O
  O25      1.0000 0.46360  0.32979  0.41887  Biso   1.000  O
  O26      1.0000 0.46590  0.33141  0.91943  Biso   1.000  O
  O27      1.0000 0.46418  0.82932  0.42028  Biso   1.000  O
  O28      1.0000 0.46728  0.83070  0.91865  Biso   1.000  O
  O29      1.0000 0.96391  0.33055  0.41978  Biso   1.000  O
  O30      1.0000 0.96274  0.32964  0.91739  Biso   1.000  O
  O31      1.0000 0.96348  0.83003  0.41886  Biso   1.000  O
  O32      1.0000 0.96442  0.82952  0.91937  Biso   1.000  O
  O33      1.0000 0.28028  0.13259  0.24545  Biso   1.000  O
  O34      1.0000 0.27618  0.12932  0.73856  Biso   1.000  O
  O35      1.0000 0.27607  0.62677  0.23987  Biso   1.000  O
  O36      1.0000 0.27600  0.62894  0.74029  Biso   1.000  O
  O37      1.0000 0.77504  0.13003  0.24165  Biso   1.000  O
  O38      1.0000 0.77689  0.12926  0.74107  Biso   1.000  O
  O39      1.0000 0.77465  0.62799  0.24068  Biso   1.000  O
  O40      1.0000 0.77628  0.62919  0.73990  Biso   1.000  O
  O41      1.0000 0.27607  0.12074  0.49135  Biso   1.000  O
  O42      1.0000 0.28172  0.12565  0.98288  Biso   1.000  O
  O43      1.0000 0.27548  0.62054  0.49062  Biso   1.000  O
  O44      1.0000 0.27613  0.62023  0.99015  Biso   1.000  O
  O45      1.0000 0.77465  0.12138  0.49220  Biso   1.000  O
  O46      1.0000 0.77622  0.12080  0.99103  Biso   1.000  O
  O47      1.0000 0.77582  0.62086  0.49045  Biso   1.000  O
  O48      1.0000 0.77593  0.61996  0.98990  Biso   1.000  O
  O49      1.0000 0.22502  0.38015  0.00824  Biso   1.000  O
  O50      1.0000 0.22412  0.37919  0.50919  Biso   1.000  O
  O51      1.0000 0.23149  0.87302  0.00262  Biso   1.000  O
  O52      1.0000 0.22425  0.87887  0.50987  Biso   1.000  O
  O53      1.0000 0.72364  0.37912  0.00931  Biso   1.000  O
  O54      1.0000 0.72405  0.37892  0.50944  Biso   1.000  O
  O55      1.0000 0.72401  0.87849  0.00904  Biso   1.000  O
  O56      1.0000 0.72290  0.87852  0.51066  Biso   1.000  O
  O57      1.0000 0.22291  0.37131  0.25881  Biso   1.000  O
  O58      1.0000 0.22491  0.37183  0.75836  Biso   1.000  O
  O59      1.0000 0.22920  0.86452  0.26210  Biso   1.000  O
  O60      1.0000 0.22449  0.87078  0.75804  Biso   1.000  O
  O61      1.0000 0.72326  0.37135  0.25985  Biso   1.000  O
  O62      1.0000 0.72447  0.37092  0.75920  Biso   1.000  O
  O63      1.0000 0.71998  0.86942  0.26100  Biso   1.000  O
  O64      1.0000 0.72521  0.87120  0.75925  Biso   1.000  O
