data_image0
_cell_length_a       10.146
_cell_length_b       10.3678
_cell_length_c       10.5991
_cell_angle_alpha    90.023
_cell_angle_beta     91.3177
_cell_angle_gamma    89.996

_symmetry_space_group_name_H-M    "P 1"
_symmetry_int_tables_number       1

loop_
  _symmetry_equiv_pos_as_xyz
  'x, y, z'

loop_
  _atom_site_label
  _atom_site_occupancy
  _atom_site_fract_x
  _atom_site_fract_y
  _atom_site_fract_z
  _atom_site_thermal_displace_type
  _atom_site_B_iso_or_equiv
  _atom_site_type_symbol
  Zr1      1.0000 0.13344  0.01782  0.17440  Biso   1.000  Zr
  Zr2      1.0000 0.13654  0.22669  0.42913  Biso   1.000  Zr
  Zr3      1.0000 0.33858  0.26799  0.19538  Biso   1.000  Zr
  Zr4      1.0000 0.36142  0.48070  0.42487  Biso   1.000  Zr
  Zr5      1.0000 0.64541  0.01091  0.07521  Biso   1.000  Zr
  Zr6      1.0000 0.63646  0.22646  0.32924  Biso   1.000  Zr
  Zr7      1.0000 0.86010  0.27113  0.07536  Biso   1.000  Zr
  Zr8      1.0000 0.86013  0.47822  0.32725  Biso   1.000  Zr
  O1       1.0000 0.03076  0.16665  0.08623  Biso   1.000  O
  O2       1.0000 0.02844  0.08625  0.33432  Biso   1.000  O
  O3       1.0000 0.46569  0.43979  0.09957  Biso   1.000  O
  O4       1.0000 0.46379  0.33565  0.33485  Biso   1.000  O
  O5       1.0000 0.26665  0.12288  0.30469  Biso   1.000  O
  O6       1.0000 0.26448  0.11279  0.05285  Biso   1.000  O
  O7       1.0000 0.21461  0.37819  0.30707  Biso   1.000  O
  O8       1.0000 0.21914  0.37812  0.05601  Biso   1.000  O
  O9       1.0000 0.51567  0.14379  0.19016  Biso   1.000  O
  O10      1.0000 0.52890  0.08893  0.42719  Biso   1.000  O
  O11      1.0000 0.96336  0.41603  0.16798  Biso   1.000  O
  O12      1.0000 0.96882  0.33645  0.41810  Biso   1.000  O
  O13      1.0000 0.77482  0.12486  0.45102  Biso   1.000  O
  O14      1.0000 0.76974  0.12533  0.20114  Biso   1.000  O
  O15      1.0000 0.72575  0.37566  0.45152  Biso   1.000  O
  O16      1.0000 0.71993  0.37455  0.20249  Biso   1.000  O
  Zr9      1.0000 0.14254  0.02181  0.67526  Biso   1.000  Zr
  Zr10     1.0000 0.14257  0.22889  0.92714  Biso   1.000  Zr
  Zr11     1.0000 0.36621  0.27356  0.67327  Biso   1.000  Zr
  Zr12     1.0000 0.35725  0.48912  0.92730  Biso   1.000  Zr
  Zr13     1.0000 0.64124  0.01933  0.57763  Biso   1.000  Zr
  Zr14     1.0000 0.66407  0.23204  0.80713  Biso   1.000  Zr
  Zr15     1.0000 0.86613  0.27333  0.57338  Biso   1.000  Zr
  Zr16     1.0000 0.86922  0.48220  0.82811  Biso   1.000  Zr
  O17      1.0000 0.03384  0.16357  0.58441  Biso   1.000  O
  O18      1.0000 0.03931  0.08400  0.83453  Biso   1.000  O
  O19      1.0000 0.47376  0.41110  0.57532  Biso   1.000  O
  O20      1.0000 0.48700  0.35622  0.81236  Biso   1.000  O
  O21      1.0000 0.28273  0.12548  0.80002  Biso   1.000  O
  O22      1.0000 0.27691  0.12437  0.55099  Biso   1.000  O
  O23      1.0000 0.23293  0.37470  0.80137  Biso   1.000  O
  O24      1.0000 0.22784  0.37517  0.55149  Biso   1.000  O
  O25      1.0000 0.53887  0.16438  0.66766  Biso   1.000  O
  O26      1.0000 0.53697  0.06025  0.90294  Biso   1.000  O
  O27      1.0000 0.97422  0.41378  0.66819  Biso   1.000  O
  O28      1.0000 0.97190  0.33337  0.91628  Biso   1.000  O
  O29      1.0000 0.78352  0.12191  0.94649  Biso   1.000  O
  O30      1.0000 0.78805  0.12184  0.69544  Biso   1.000  O
  O31      1.0000 0.73818  0.38724  0.94965  Biso   1.000  O
  O32      1.0000 0.73602  0.37714  0.69782  Biso   1.000  O
  Zr17     1.0000 0.13517  0.52259  0.17378  Biso   1.000  Zr
  Zr18     1.0000 0.13784  0.72894  0.42267  Biso   1.000  Zr
  Zr19     1.0000 0.36202  0.77232  0.17600  Biso   1.000  Zr
  Zr20     1.0000 0.36181  0.97745  0.42771  Biso   1.000  Zr
  Zr21     1.0000 0.64358  0.52905  0.07890  Biso   1.000  Zr
  Zr22     1.0000 0.63945  0.73069  0.32961  Biso   1.000  Zr
  Zr23     1.0000 0.86325  0.76950  0.07966  Biso   1.000  Zr
  Zr24     1.0000 0.86060  0.98001  0.32973  Biso   1.000  Zr
  O33      1.0000 0.03269  0.66473  0.08288  Biso   1.000  O
  O34      1.0000 0.03009  0.58681  0.33392  Biso   1.000  O
  O35      1.0000 0.46998  0.91162  0.08280  Biso   1.000  O
  O36      1.0000 0.46947  0.83839  0.33542  Biso   1.000  O
  O37      1.0000 0.27390  0.62571  0.29593  Biso   1.000  O
  O38      1.0000 0.27384  0.62683  0.04646  Biso   1.000  O
  O39      1.0000 0.22449  0.87430  0.29921  Biso   1.000  O
  O40      1.0000 0.22418  0.87092  0.05000  Biso   1.000  O
  O41      1.0000 0.53623  0.67245  0.16832  Biso   1.000  O
  O42      1.0000 0.53117  0.58860  0.41700  Biso   1.000  O
  O43      1.0000 0.96420  0.91540  0.16782  Biso   1.000  O
  O44      1.0000 0.96755  0.83565  0.41838  Biso   1.000  O
  O45      1.0000 0.77612  0.62490  0.45383  Biso   1.000  O
  O46      1.0000 0.77776  0.62697  0.20487  Biso   1.000  O
  O47      1.0000 0.72674  0.87566  0.45629  Biso   1.000  O
  O48      1.0000 0.72616  0.87383  0.20630  Biso   1.000  O
  Zr25     1.0000 0.14207  0.52001  0.67278  Biso   1.000  Zr
  Zr26     1.0000 0.13942  0.73053  0.92285  Biso   1.000  Zr
  Zr27     1.0000 0.36321  0.76934  0.67289  Biso   1.000  Zr
  Zr28     1.0000 0.35908  0.97099  0.92360  Biso   1.000  Zr
  Zr29     1.0000 0.64085  0.52258  0.57479  Biso   1.000  Zr
  Zr30     1.0000 0.64064  0.72771  0.82650  Biso   1.000  Zr
  Zr31     1.0000 0.86483  0.77109  0.57984  Biso   1.000  Zr
  Zr32     1.0000 0.86749  0.97745  0.82873  Biso   1.000  Zr
  O49      1.0000 0.03512  0.66437  0.58413  Biso   1.000  O
  O50      1.0000 0.03846  0.58463  0.83469  Biso   1.000  O
  O51      1.0000 0.47149  0.91143  0.58550  Biso   1.000  O
  O52      1.0000 0.46644  0.82758  0.83419  Biso   1.000  O
  O53      1.0000 0.27650  0.62619  0.79621  Biso   1.000  O
  O54      1.0000 0.27592  0.62437  0.54621  Biso   1.000  O
  O55      1.0000 0.22491  0.87306  0.79763  Biso   1.000  O
  O56      1.0000 0.22654  0.87513  0.54867  Biso   1.000  O
  O57      1.0000 0.53320  0.66164  0.66709  Biso   1.000  O
  O58      1.0000 0.53268  0.58841  0.91971  Biso   1.000  O
  O59      1.0000 0.97257  0.91322  0.66859  Biso   1.000  O
  O60      1.0000 0.96998  0.83530  0.91963  Biso   1.000  O
  O61      1.0000 0.77849  0.62911  0.95251  Biso   1.000  O
  O62      1.0000 0.77818  0.62573  0.70330  Biso   1.000  O
  O63      1.0000 0.72882  0.87320  0.95604  Biso   1.000  O
  O64      1.0000 0.72876  0.87432  0.70658  Biso   1.000  O
  Bi1      1.0000 0.50134  0.25001  0.00127  Biso   1.000  Bi
