data_image0
_cell_length_a       9.97753
_cell_length_b       10.3396
_cell_length_c       5.0052
_cell_angle_alpha    89.718
_cell_angle_beta     89.3773
_cell_angle_gamma    89.9674

_symmetry_space_group_name_H-M    "P 1"
_symmetry_int_tables_number       1

loop_
  _symmetry_equiv_pos_as_xyz
  'x, y, z'

loop_
  _atom_site_label
  _atom_site_occupancy
  _atom_site_fract_x
  _atom_site_fract_y
  _atom_site_fract_z
  _atom_site_thermal_displace_type
  _atom_site_B_iso_or_equiv
  _atom_site_type_symbol
  C1       1.0000 0.01846  0.05357  0.23180  Biso   1.000  C
  Hf1      1.0000 0.15289  0.23239  0.77416  Biso   1.000  Hf
  Hf2      1.0000 0.36298  0.25955  0.26292  Biso   1.000  Hf
  Hf3      1.0000 0.36892  0.48285  0.75470  Biso   1.000  Hf
  O1       1.0000 0.03360  0.15873  0.36804  Biso   1.000  O
  O2       1.0000 0.02707  0.06114  0.97458  Biso   1.000  O
  O3       1.0000 0.46238  0.43368  0.38786  Biso   1.000  O
  O4       1.0000 0.46667  0.31682  0.88827  Biso   1.000  O
  O5       1.0000 0.28269  0.13056  0.53027  Biso   1.000  O
  O6       1.0000 0.27425  0.13274  0.01301  Biso   1.000  O
  O7       1.0000 0.23126  0.37942  0.00923  Biso   1.000  O
  O8       1.0000 0.22540  0.36870  0.50914  Biso   1.000  O
  Hf4      1.0000 0.13812  0.51858  0.25694  Biso   1.000  Hf
  Hf5      1.0000 0.14457  0.73754  0.76324  Biso   1.000  Hf
  Hf6      1.0000 0.36171  0.77206  0.25603  Biso   1.000  Hf
  Hf7      1.0000 0.35626  0.98146  0.76376  Biso   1.000  Hf
  O9       1.0000 0.03824  0.68743  0.38231  Biso   1.000  O
  O10      1.0000 0.03537  0.56598  0.89517  Biso   1.000  O
  O11      1.0000 0.47231  0.93137  0.40645  Biso   1.000  O
  O12      1.0000 0.47370  0.81925  0.90439  Biso   1.000  O
  O13      1.0000 0.27063  0.61597  0.50585  Biso   1.000  O
  O14      1.0000 0.27624  0.62573  0.00713  Biso   1.000  O
  O15      1.0000 0.23277  0.87158  0.00772  Biso   1.000  O
  O16      1.0000 0.24168  0.86166  0.52184  Biso   1.000  O
  Hf8      1.0000 0.62905  0.01523  0.24219  Biso   1.000  Hf
  Hf9      1.0000 0.62979  0.23147  0.74367  Biso   1.000  Hf
  Hf10     1.0000 0.85604  0.27369  0.23695  Biso   1.000  Hf
  Hf11     1.0000 0.87168  0.48241  0.74148  Biso   1.000  Hf
  O17      1.0000 0.54331  0.18608  0.37735  Biso   1.000  O
  O18      1.0000 0.53770  0.06527  0.88539  Biso   1.000  O
  O19      1.0000 0.96817  0.42424  0.38288  Biso   1.000  O
  O20      1.0000 0.96732  0.30950  0.87818  Biso   1.000  O
  O21      1.0000 0.77471  0.11623  0.48449  Biso   1.000  O
  O22      1.0000 0.77274  0.13136  0.98525  Biso   1.000  O
  O23      1.0000 0.73273  0.38275  0.99325  Biso   1.000  O
  O24      1.0000 0.72769  0.36924  0.49440  Biso   1.000  O
  Hf12     1.0000 0.63021  0.51766  0.24819  Biso   1.000  Hf
  Hf13     1.0000 0.63149  0.73433  0.73851  Biso   1.000  Hf
  Hf14     1.0000 0.87120  0.75719  0.22512  Biso   1.000  Hf
  Hf15     1.0000 0.85716  0.98181  0.74807  Biso   1.000  Hf
  O25      1.0000 0.53900  0.68375  0.38679  Biso   1.000  O
  O26      1.0000 0.54023  0.56546  0.88094  Biso   1.000  O
  O27      1.0000 0.97767  0.95236  0.35293  Biso   1.000  O
  O28      1.0000 0.96462  0.82039  0.86327  Biso   1.000  O
  O29      1.0000 0.77578  0.61341  0.48303  Biso   1.000  O
  O30      1.0000 0.77111  0.63328  0.98452  Biso   1.000  O
  O31      1.0000 0.73166  0.88269  0.99086  Biso   1.000  O
  O32      1.0000 0.74720  0.86576  0.48644  Biso   1.000  O
