data_image0
_cell_length_a       9.96658
_cell_length_b       10.3588
_cell_length_c       10.0034
_cell_angle_alpha    89.865
_cell_angle_beta     89.782
_cell_angle_gamma    90.054

_symmetry_space_group_name_H-M    "P 1"
_symmetry_int_tables_number       1

loop_
  _symmetry_equiv_pos_as_xyz
  'x, y, z'

loop_
  _atom_site_label
  _atom_site_occupancy
  _atom_site_fract_x
  _atom_site_fract_y
  _atom_site_fract_z
  _atom_site_thermal_displace_type
  _atom_site_B_iso_or_equiv
  _atom_site_type_symbol
  C1       1.0000 0.01780  0.05630  0.11316  Biso   1.000  C
  Hf1      1.0000 0.14486  0.23014  0.37882  Biso   1.000  Hf
  Hf2      1.0000 0.36380  0.26123  0.12693  Biso   1.000  Hf
  Hf3      1.0000 0.36729  0.48327  0.37566  Biso   1.000  Hf
  O1       1.0000 0.03548  0.16466  0.17606  Biso   1.000  O
  O2       1.0000 0.03626  0.06881  0.44755  Biso   1.000  O
  O3       1.0000 0.46178  0.43350  0.19464  Biso   1.000  O
  O4       1.0000 0.46482  0.31601  0.44654  Biso   1.000  O
  O5       1.0000 0.28585  0.13169  0.26172  Biso   1.000  O
  O6       1.0000 0.26930  0.13144  0.50741  Biso   1.000  O
  O7       1.0000 0.23034  0.38002  0.50092  Biso   1.000  O
  O8       1.0000 0.22423  0.36771  0.24928  Biso   1.000  O
  Hf4      1.0000 0.13598  0.01514  0.62843  Biso   1.000  Hf
  Hf5      1.0000 0.14127  0.23587  0.88186  Biso   1.000  Hf
  Hf6      1.0000 0.36646  0.26643  0.62876  Biso   1.000  Hf
  Hf7      1.0000 0.36798  0.48357  0.87744  Biso   1.000  Hf
  O9       1.0000 0.02774  0.17375  0.71531  Biso   1.000  O
  O10      1.0000 0.02668  0.05978  0.98465  Biso   1.000  O
  O11      1.0000 0.46401  0.43489  0.69326  Biso   1.000  O
  O12      1.0000 0.46595  0.31738  0.94138  Biso   1.000  O
  O13      1.0000 0.26761  0.11715  0.75251  Biso   1.000  O
  O14      1.0000 0.27556  0.13707  0.99511  Biso   1.000  O
  O15      1.0000 0.23059  0.38282  0.00182  Biso   1.000  O
  O16      1.0000 0.22942  0.36705  0.75269  Biso   1.000  O
  Hf8      1.0000 0.13545  0.51609  0.12729  Biso   1.000  Hf
  Hf9      1.0000 0.13886  0.73499  0.37657  Biso   1.000  Hf
  Hf10     1.0000 0.36231  0.76818  0.12503  Biso   1.000  Hf
  Hf11     1.0000 0.36206  0.98261  0.36956  Biso   1.000  Hf
  O17      1.0000 0.03741  0.68891  0.19297  Biso   1.000  O
  O18      1.0000 0.03712  0.56539  0.44522  Biso   1.000  O
  O19      1.0000 0.47231  0.93241  0.19697  Biso   1.000  O
  O20      1.0000 0.47094  0.81803  0.45156  Biso   1.000  O
  O21      1.0000 0.26931  0.61334  0.25032  Biso   1.000  O
  O22      1.0000 0.27393  0.63156  0.50064  Biso   1.000  O
  O23      1.0000 0.23020  0.88212  0.50307  Biso   1.000  O
  O24      1.0000 0.24477  0.85671  0.26002  Biso   1.000  O
  Hf12     1.0000 0.13609  0.51832  0.62603  Biso   1.000  Hf
  Hf13     1.0000 0.13873  0.73488  0.88026  Biso   1.000  Hf
  Hf14     1.0000 0.36752  0.76862  0.62730  Biso   1.000  Hf
  Hf15     1.0000 0.35923  0.98283  0.88558  Biso   1.000  Hf
  O25      1.0000 0.03775  0.68342  0.69236  Biso   1.000  O
  O26      1.0000 0.03464  0.56696  0.94722  Biso   1.000  O
  O27      1.0000 0.46246  0.93402  0.70008  Biso   1.000  O
  O28      1.0000 0.46960  0.81772  0.94672  Biso   1.000  O
  O29      1.0000 0.27156  0.61879  0.75151  Biso   1.000  O
  O30      1.0000 0.27308  0.62668  0.00187  Biso   1.000  O
  O31      1.0000 0.23339  0.87100  0.99792  Biso   1.000  O
  O32      1.0000 0.22724  0.86966  0.75051  Biso   1.000  O
  Hf16     1.0000 0.63565  0.01756  0.12388  Biso   1.000  Hf
  Hf17     1.0000 0.63222  0.23339  0.37523  Biso   1.000  Hf
  Hf18     1.0000 0.85375  0.27618  0.12165  Biso   1.000  Hf
  Hf19     1.0000 0.86830  0.48237  0.37672  Biso   1.000  Hf
  O33      1.0000 0.54436  0.18741  0.18927  Biso   1.000  O
  O34      1.0000 0.53629  0.06614  0.44128  Biso   1.000  O
  O35      1.0000 0.96575  0.42671  0.19627  Biso   1.000  O
  O36      1.0000 0.96710  0.31288  0.44323  Biso   1.000  O
  O37      1.0000 0.77708  0.12050  0.24762  Biso   1.000  O
  O38      1.0000 0.77043  0.13213  0.49800  Biso   1.000  O
  O39      1.0000 0.73218  0.38129  0.49956  Biso   1.000  O
  O40      1.0000 0.72561  0.37206  0.25038  Biso   1.000  O
  Hf20     1.0000 0.62695  0.01335  0.62198  Biso   1.000  Hf
  Hf21     1.0000 0.63120  0.23094  0.87317  Biso   1.000  Hf
  Hf22     1.0000 0.86876  0.26313  0.62549  Biso   1.000  Hf
  Hf23     1.0000 0.86900  0.48262  0.87228  Biso   1.000  Hf
  O41      1.0000 0.53527  0.18336  0.69278  Biso   1.000  O
  O42      1.0000 0.53693  0.06504  0.94581  Biso   1.000  O
  O43      1.0000 0.96750  0.43011  0.69356  Biso   1.000  O
  O44      1.0000 0.96613  0.31579  0.94775  Biso   1.000  O
  O45      1.0000 0.76468  0.11291  0.74475  Biso   1.000  O
  O46      1.0000 0.77357  0.13252  0.99490  Biso   1.000  O
  O47      1.0000 0.72929  0.38348  0.99883  Biso   1.000  O
  O48      1.0000 0.73227  0.36431  0.74845  Biso   1.000  O
  Hf24     1.0000 0.63021  0.51881  0.12745  Biso   1.000  Hf
  Hf25     1.0000 0.63573  0.73562  0.37244  Biso   1.000  Hf
  Hf26     1.0000 0.86849  0.76070  0.11644  Biso   1.000  Hf
  Hf27     1.0000 0.86537  0.98841  0.38143  Biso   1.000  Hf
  O49      1.0000 0.53849  0.68559  0.19476  Biso   1.000  O
  O50      1.0000 0.53879  0.56594  0.44141  Biso   1.000  O
  O51      1.0000 0.97684  0.95753  0.17672  Biso   1.000  O
  O52      1.0000 0.96606  0.81965  0.43875  Biso   1.000  O
  O53      1.0000 0.77426  0.61618  0.24649  Biso   1.000  O
  O54      1.0000 0.77102  0.63312  0.49651  Biso   1.000  O
  O55      1.0000 0.73187  0.88343  0.49823  Biso   1.000  O
  O56      1.0000 0.74734  0.86904  0.24632  Biso   1.000  O
  Hf28     1.0000 0.63465  0.51561  0.62362  Biso   1.000  Hf
  Hf29     1.0000 0.63197  0.73283  0.87397  Biso   1.000  Hf
  Hf30     1.0000 0.86913  0.76371  0.62227  Biso   1.000  Hf
  Hf31     1.0000 0.85894  0.97947  0.86702  Biso   1.000  Hf
  O57      1.0000 0.53730  0.68276  0.69431  Biso   1.000  O
  O58      1.0000 0.53776  0.56564  0.94448  Biso   1.000  O
  O59      1.0000 0.96332  0.93205  0.69275  Biso   1.000  O
  O60      1.0000 0.96201  0.81580  0.93685  Biso   1.000  O
  O61      1.0000 0.77271  0.61482  0.74642  Biso   1.000  O
  O62      1.0000 0.77066  0.63215  0.99745  Biso   1.000  O
  O63      1.0000 0.73107  0.88264  0.99688  Biso   1.000  O
  O64      1.0000 0.73029  0.86481  0.74693  Biso   1.000  O
