data_image0
_cell_length_a       10.0562
_cell_length_b       10.1926
_cell_length_c       5.22819
_cell_angle_alpha    89.7151
_cell_angle_beta     90.2203
_cell_angle_gamma    89.6824

_symmetry_space_group_name_H-M    "P 1"
_symmetry_int_tables_number       1

loop_
  _symmetry_equiv_pos_as_xyz
  'x, y, z'

loop_
  _atom_site_label
  _atom_site_occupancy
  _atom_site_fract_x
  _atom_site_fract_y
  _atom_site_fract_z
  _atom_site_thermal_displace_type
  _atom_site_B_iso_or_equiv
  _atom_site_type_symbol
  C1       1.0000 0.02092  0.05639  0.35474  Biso   1.000  C
  Hf1      1.0000 0.15662  0.22842  0.83817  Biso   1.000  Hf
  Hf2      1.0000 0.35737  0.26164  0.34356  Biso   1.000  Hf
  Hf3      1.0000 0.36255  0.47798  0.84639  Biso   1.000  Hf
  Hf4      1.0000 0.63514  0.02004  0.15932  Biso   1.000  Hf
  Hf5      1.0000 0.63641  0.22969  0.65882  Biso   1.000  Hf
  Hf6      1.0000 0.85586  0.27430  0.15873  Biso   1.000  Hf
  Hf7      1.0000 0.86911  0.47523  0.66080  Biso   1.000  Hf
  O1       1.0000 0.03363  0.13739  0.16870  Biso   1.000  O
  O2       1.0000 0.02901  0.09499  0.59050  Biso   1.000  O
  O3       1.0000 0.46643  0.41355  0.17118  Biso   1.000  O
  O4       1.0000 0.47028  0.33652  0.66848  Biso   1.000  O
  O5       1.0000 0.28251  0.12883  0.60065  Biso   1.000  O
  O6       1.0000 0.29066  0.13674  0.07045  Biso   1.000  O
  O7       1.0000 0.22493  0.37341  0.59314  Biso   1.000  O
  O8       1.0000 0.22036  0.37484  0.09019  Biso   1.000  O
  O9       1.0000 0.53687  0.16691  0.33349  Biso   1.000  O
  O10      1.0000 0.54095  0.08227  0.83135  Biso   1.000  O
  O11      1.0000 0.97231  0.40684  0.34073  Biso   1.000  O
  O12      1.0000 0.97108  0.32394  0.84721  Biso   1.000  O
  O13      1.0000 0.78273  0.12088  0.91740  Biso   1.000  O
  O14      1.0000 0.77850  0.12506  0.41451  Biso   1.000  O
  O15      1.0000 0.72713  0.37326  0.91350  Biso   1.000  O
  O16      1.0000 0.72663  0.37553  0.41083  Biso   1.000  O
  Hf8      1.0000 0.14216  0.52223  0.34621  Biso   1.000  Hf
  Hf9      1.0000 0.14801  0.73519  0.83994  Biso   1.000  Hf
  Hf10     1.0000 0.35567  0.77882  0.34263  Biso   1.000  Hf
  Hf11     1.0000 0.35738  0.97865  0.83885  Biso   1.000  Hf
  Hf12     1.0000 0.63408  0.52013  0.16445  Biso   1.000  Hf
  Hf13     1.0000 0.63486  0.72620  0.65365  Biso   1.000  Hf
  Hf14     1.0000 0.86142  0.76160  0.14931  Biso   1.000  Hf
  Hf15     1.0000 0.84882  0.97515  0.67495  Biso   1.000  Hf
  O17      1.0000 0.03516  0.67226  0.18143  Biso   1.000  O
  O18      1.0000 0.03533  0.58199  0.67474  Biso   1.000  O
  O19      1.0000 0.47276  0.91392  0.16466  Biso   1.000  O
  O20      1.0000 0.47576  0.84197  0.65577  Biso   1.000  O
  O21      1.0000 0.27950  0.62071  0.58924  Biso   1.000  O
  O22      1.0000 0.27573  0.62165  0.09308  Biso   1.000  O
  O23      1.0000 0.22940  0.86776  0.59464  Biso   1.000  O
  O24      1.0000 0.23662  0.86809  0.07299  Biso   1.000  O
  O25      1.0000 0.53365  0.66561  0.33380  Biso   1.000  O
  O26      1.0000 0.53470  0.58382  0.83638  Biso   1.000  O
  O27      1.0000 0.97386  0.94163  0.32483  Biso   1.000  O
  O28      1.0000 0.96851  0.83987  0.83177  Biso   1.000  O
  O29      1.0000 0.77946  0.62270  0.91692  Biso   1.000  O
  O30      1.0000 0.77878  0.62208  0.41422  Biso   1.000  O
  O31      1.0000 0.72244  0.87067  0.91239  Biso   1.000  O
  O32      1.0000 0.73793  0.87267  0.41032  Biso   1.000  O
