data_image0
_cell_length_a       10.0635
_cell_length_b       5.09433
_cell_length_c       10.4703
_cell_angle_alpha    89.7278
_cell_angle_beta     90.1598
_cell_angle_gamma    89.7758

_symmetry_space_group_name_H-M    "P 1"
_symmetry_int_tables_number       1

loop_
  _symmetry_equiv_pos_as_xyz
  'x, y, z'

loop_
  _atom_site_label
  _atom_site_occupancy
  _atom_site_fract_x
  _atom_site_fract_y
  _atom_site_fract_z
  _atom_site_thermal_displace_type
  _atom_site_B_iso_or_equiv
  _atom_site_type_symbol
  C1       1.0000 0.01948  0.12693  0.18426  Biso   1.000  C
  Hf1      1.0000 0.15193  0.46821  0.41816  Biso   1.000  Hf
  Hf2      1.0000 0.35072  0.54163  0.17216  Biso   1.000  Hf
  Hf3      1.0000 0.35860  0.96117  0.41503  Biso   1.000  Hf
  Hf4      1.0000 0.63327  0.04406  0.07944  Biso   1.000  Hf
  Hf5      1.0000 0.63218  0.45318  0.32746  Biso   1.000  Hf
  Hf6      1.0000 0.85286  0.54094  0.07130  Biso   1.000  Hf
  Hf7      1.0000 0.84861  0.94935  0.33885  Biso   1.000  Hf
  O1       1.0000 0.03334  0.30728  0.09956  Biso   1.000  O
  O2       1.0000 0.02817  0.18714  0.30388  Biso   1.000  O
  O3       1.0000 0.47283  0.82004  0.08340  Biso   1.000  O
  O4       1.0000 0.47480  0.68640  0.32832  Biso   1.000  O
  O5       1.0000 0.28527  0.26368  0.30715  Biso   1.000  O
  O6       1.0000 0.28946  0.26377  0.03558  Biso   1.000  O
  O7       1.0000 0.22809  0.74516  0.30065  Biso   1.000  O
  O8       1.0000 0.23158  0.73589  0.03825  Biso   1.000  O
  O9       1.0000 0.53321  0.33041  0.16725  Biso   1.000  O
  O10      1.0000 0.53718  0.16615  0.41821  Biso   1.000  O
  O11      1.0000 0.97344  0.89980  0.16110  Biso   1.000  O
  O12      1.0000 0.96885  0.67610  0.41325  Biso   1.000  O
  O13      1.0000 0.77799  0.23735  0.45736  Biso   1.000  O
  O14      1.0000 0.77751  0.25125  0.20709  Biso   1.000  O
  O15      1.0000 0.72347  0.73570  0.45766  Biso   1.000  O
  O16      1.0000 0.73595  0.75118  0.20460  Biso   1.000  O
  Hf8      1.0000 0.14219  0.04075  0.67133  Biso   1.000  Hf
  Hf9      1.0000 0.15525  0.45488  0.92187  Biso   1.000  Hf
  Hf10     1.0000 0.36436  0.54178  0.67145  Biso   1.000  Hf
  Hf11     1.0000 0.35896  0.95357  0.92922  Biso   1.000  Hf
  Hf12     1.0000 0.63674  0.03420  0.58186  Biso   1.000  Hf
  Hf13     1.0000 0.63790  0.45509  0.82754  Biso   1.000  Hf
  Hf14     1.0000 0.86591  0.53000  0.57844  Biso   1.000  Hf
  Hf15     1.0000 0.86916  0.95013  0.82758  Biso   1.000  Hf
  O17      1.0000 0.03012  0.29882  0.56637  Biso   1.000  O
  O18      1.0000 0.03426  0.17374  0.83104  Biso   1.000  O
  O19      1.0000 0.46785  0.82634  0.58166  Biso   1.000  O
  O20      1.0000 0.47076  0.66983  0.83121  Biso   1.000  O
  O21      1.0000 0.27841  0.23919  0.79184  Biso   1.000  O
  O22      1.0000 0.27814  0.25258  0.54838  Biso   1.000  O
  O23      1.0000 0.22621  0.73923  0.79332  Biso   1.000  O
  O24      1.0000 0.22440  0.75122  0.54518  Biso   1.000  O
  O25      1.0000 0.53612  0.32692  0.66719  Biso   1.000  O
  O26      1.0000 0.53862  0.16350  0.91646  Biso   1.000  O
  O27      1.0000 0.97436  0.80522  0.67294  Biso   1.000  O
  O28      1.0000 0.97393  0.66305  0.93014  Biso   1.000  O
  O29      1.0000 0.78116  0.24988  0.95882  Biso   1.000  O
  O30      1.0000 0.77986  0.24367  0.70679  Biso   1.000  O
  O31      1.0000 0.72699  0.74852  0.95439  Biso   1.000  O
  O32      1.0000 0.72957  0.74515  0.70501  Biso   1.000  O
