data_image0
_cell_length_a       10.0747
_cell_length_b       10.3591
_cell_length_c       5.20076
_cell_angle_alpha    89.7903
_cell_angle_beta     81.2136
_cell_angle_gamma    90.3593

_symmetry_space_group_name_H-M    "P 1"
_symmetry_int_tables_number       1

loop_
  _symmetry_equiv_pos_as_xyz
  'x, y, z'

loop_
  _atom_site_label
  _atom_site_occupancy
  _atom_site_fract_x
  _atom_site_fract_y
  _atom_site_fract_z
  _atom_site_thermal_displace_type
  _atom_site_B_iso_or_equiv
  _atom_site_type_symbol
  Hf1      1.0000 0.12292  0.01313  0.31074  Biso   1.000  Hf
  Hf2      1.0000 0.14396  0.23433  0.78471  Biso   1.000  Hf
  Hf3      1.0000 0.36684  0.27225  0.26604  Biso   1.000  Hf
  Hf4      1.0000 0.34995  0.48012  0.71199  Biso   1.000  Hf
  O1       1.0000 0.05038  0.17001  0.15339  Biso   1.000  O
  O2       1.0000 0.03159  0.07785  0.67348  Biso   1.000  O
  O3       1.0000 0.45634  0.43366  0.34317  Biso   1.000  O
  O4       1.0000 0.46763  0.34430  0.87900  Biso   1.000  O
  O5       1.0000 0.26665  0.12053  0.46594  Biso   1.000  O
  O6       1.0000 0.33023  0.15990  0.90483  Biso   1.000  O
  O7       1.0000 0.22229  0.38131  0.02667  Biso   1.000  O
  O8       1.0000 0.20385  0.38017  0.51707  Biso   1.000  O
  Hf5      1.0000 0.13471  0.52235  0.28694  Biso   1.000  Hf
  Hf6      1.0000 0.13270  0.72987  0.78877  Biso   1.000  Hf
  Hf7      1.0000 0.35897  0.77073  0.20682  Biso   1.000  Hf
  Hf8      1.0000 0.37029  0.97688  0.69753  Biso   1.000  Hf
  O9       1.0000 0.03513  0.67776  0.16685  Biso   1.000  O
  O10      1.0000 0.03112  0.58163  0.66487  Biso   1.000  O
  O11      1.0000 0.46128  0.92317  0.32987  Biso   1.000  O
  O12      1.0000 0.45498  0.81834  0.82967  Biso   1.000  O
  O13      1.0000 0.27241  0.63001  0.48199  Biso   1.000  O
  O14      1.0000 0.26979  0.62520  0.98226  Biso   1.000  O
  O15      1.0000 0.22768  0.90068  0.01446  Biso   1.000  O
  O16      1.0000 0.22191  0.86723  0.51726  Biso   1.000  O
  Hf9      1.0000 0.64229  0.01673  0.28797  Biso   1.000  Hf
  Hf10     1.0000 0.63391  0.22261  0.78510  Biso   1.000  Hf
  Hf11     1.0000 0.86347  0.26917  0.20328  Biso   1.000  Hf
  Hf12     1.0000 0.85765  0.47509  0.71022  Biso   1.000  Hf
  O17      1.0000 0.54005  0.17036  0.17233  Biso   1.000  O
  O18      1.0000 0.56008  0.04667  0.67984  Biso   1.000  O
  O19      1.0000 0.95718  0.42261  0.33400  Biso   1.000  O
  O20      1.0000 0.96405  0.32783  0.83529  Biso   1.000  O
  O21      1.0000 0.78060  0.12834  0.47450  Biso   1.000  O
  O22      1.0000 0.77634  0.11882  0.97980  Biso   1.000  O
  O23      1.0000 0.72373  0.37624  0.02040  Biso   1.000  O
  O24      1.0000 0.71906  0.36591  0.51842  Biso   1.000  O
  Hf13     1.0000 0.63756  0.51929  0.29409  Biso   1.000  Hf
  Hf14     1.0000 0.63378  0.72432  0.79034  Biso   1.000  Hf
  Hf15     1.0000 0.85501  0.76574  0.20842  Biso   1.000  Hf
  Hf16     1.0000 0.85318  0.97741  0.71405  Biso   1.000  Hf
  O25      1.0000 0.53574  0.67419  0.17159  Biso   1.000  O
  O26      1.0000 0.53441  0.57469  0.66985  Biso   1.000  O
  O27      1.0000 0.95247  0.91885  0.34288  Biso   1.000  O
  O28      1.0000 0.95892  0.82990  0.83945  Biso   1.000  O
  O29      1.0000 0.77408  0.62419  0.48297  Biso   1.000  O
  O30      1.0000 0.77280  0.61747  0.98217  Biso   1.000  O
  O31      1.0000 0.71970  0.87657  0.01701  Biso   1.000  O
  O32      1.0000 0.72173  0.86107  0.51388  Biso   1.000  O
  C1       1.0000 0.40991  0.25446  0.71778  Biso   1.000  C
