data_image0
_cell_length_a       5.09298
_cell_length_b       10.1852
_cell_length_c       10.4848
_cell_angle_alpha    90.1182
_cell_angle_beta     80.0769
_cell_angle_gamma    89.8417

_symmetry_space_group_name_H-M    "P 1"
_symmetry_int_tables_number       1

loop_
  _symmetry_equiv_pos_as_xyz
  'x, y, z'

loop_
  _atom_site_label
  _atom_site_occupancy
  _atom_site_fract_x
  _atom_site_fract_y
  _atom_site_fract_z
  _atom_site_thermal_displace_type
  _atom_site_B_iso_or_equiv
  _atom_site_type_symbol
  C1       1.0000 0.04471  0.06073  0.17577  Biso   1.000  C
  Hf1      1.0000 0.29330  0.23057  0.39445  Biso   1.000  Hf
  Hf2      1.0000 0.69475  0.26924  0.10635  Biso   1.000  Hf
  Hf3      1.0000 0.72522  0.47663  0.35061  Biso   1.000  Hf
  O1       1.0000 0.06886  0.14895  0.08873  Biso   1.000  O
  O2       1.0000 0.07726  0.08903  0.29302  Biso   1.000  O
  O3       1.0000 0.92768  0.41096  0.17239  Biso   1.000  O
  O4       1.0000 0.93648  0.33174  0.42108  Biso   1.000  O
  O5       1.0000 0.58408  0.13958  0.25622  Biso   1.000  O
  O6       1.0000 0.54619  0.11748  0.49599  Biso   1.000  O
  O7       1.0000 0.44260  0.37909  0.00998  Biso   1.000  O
  O8       1.0000 0.43456  0.37387  0.25788  Biso   1.000  O
  Hf4      1.0000 0.27385  0.01795  0.64898  Biso   1.000  Hf
  Hf5      1.0000 0.29285  0.22644  0.89282  Biso   1.000  Hf
  Hf6      1.0000 0.73221  0.26782  0.60192  Biso   1.000  Hf
  Hf7      1.0000 0.73708  0.47476  0.85621  Biso   1.000  Hf
  O9       1.0000 0.05909  0.14930  0.56016  Biso   1.000  O
  O10      1.0000 0.06957  0.08850  0.82498  Biso   1.000  O
  O11      1.0000 0.94871  0.40594  0.67625  Biso   1.000  O
  O12      1.0000 0.94300  0.33296  0.93266  Biso   1.000  O
  O13      1.0000 0.55395  0.12617  0.73693  Biso   1.000  O
  O14      1.0000 0.57277  0.13336  0.97944  Biso   1.000  O
  O15      1.0000 0.45185  0.37366  0.50832  Biso   1.000  O
  O16      1.0000 0.46052  0.36845  0.75972  Biso   1.000  O
  Hf8      1.0000 0.26777  0.52256  0.14465  Biso   1.000  Hf
  Hf9      1.0000 0.28385  0.72567  0.39384  Biso   1.000  Hf
  Hf10     1.0000 0.71275  0.77207  0.09812  Biso   1.000  Hf
  Hf11     1.0000 0.70171  0.97581  0.36257  Biso   1.000  Hf
  O17      1.0000 0.06968  0.67367  0.08100  Biso   1.000  O
  O18      1.0000 0.06150  0.58534  0.32647  Biso   1.000  O
  O19      1.0000 0.94721  0.94744  0.16366  Biso   1.000  O
  O20      1.0000 0.94739  0.84175  0.42190  Biso   1.000  O
  O21      1.0000 0.54673  0.62294  0.23741  Biso   1.000  O
  O22      1.0000 0.55616  0.61897  0.48919  Biso   1.000  O
  O23      1.0000 0.46895  0.87181  0.99972  Biso   1.000  O
  O24      1.0000 0.49405  0.86038  0.26514  Biso   1.000  O
  Hf12     1.0000 0.28404  0.52094  0.64804  Biso   1.000  Hf
  Hf13     1.0000 0.28613  0.73395  0.89770  Biso   1.000  Hf
  Hf14     1.0000 0.72967  0.76939  0.60448  Biso   1.000  Hf
  Hf15     1.0000 0.71880  0.97912  0.85818  Biso   1.000  Hf
  O25      1.0000 0.07151  0.66094  0.57560  Biso   1.000  O
  O26      1.0000 0.07558  0.58296  0.82792  Biso   1.000  O
  O27      1.0000 0.93509  0.91004  0.67720  Biso   1.000  O
  O28      1.0000 0.94877  0.84043  0.92539  Biso   1.000  O
  O29      1.0000 0.56200  0.62616  0.74010  Biso   1.000  O
  O30      1.0000 0.55903  0.61925  0.99212  Biso   1.000  O
  O31      1.0000 0.44904  0.87461  0.51213  Biso   1.000  O
  O32      1.0000 0.45145  0.87065  0.75662  Biso   1.000  O
