data_image0
_cell_length_a       5.05244
_cell_length_b       10.0583
_cell_length_c       10.0583
_cell_angle_alpha    84.6364
_cell_angle_beta     90
_cell_angle_gamma    90

_symmetry_space_group_name_H-M    "P 1"
_symmetry_int_tables_number       1

loop_
  _symmetry_equiv_pos_as_xyz
  'x, y, z'

loop_
  _atom_site_label
  _atom_site_occupancy
  _atom_site_fract_x
  _atom_site_fract_y
  _atom_site_fract_z
  _atom_site_thermal_displace_type
  _atom_site_B_iso_or_equiv
  _atom_site_type_symbol
  C1       1.0000 0.17336  0.99997  0.12416  Biso   1.000  C
  Hf1      1.0000 0.31970  0.25219  0.37638  Biso   1.000  Hf
  Hf2      1.0000 0.78458  0.25459  0.12819  Biso   1.000  Hf
  Hf3      1.0000 0.78459  0.00400  0.37878  Biso   1.000  Hf
  O1       1.0000 0.87058  0.16945  0.95469  Biso   1.000  O
  O2       1.0000 0.00629  0.07645  0.20064  Biso   1.000  O
  O3       1.0000 0.07408  0.33436  0.23884  Biso   1.000  O
  O4       1.0000 0.99826  0.40790  0.00424  Biso   1.000  O
  O5       1.0000 0.56653  0.14827  0.27246  Biso   1.000  O
  O6       1.0000 0.32428  0.08470  0.03942  Biso   1.000  O
  O7       1.0000 0.48524  0.34643  0.00280  Biso   1.000  O
  O8       1.0000 0.56538  0.40042  0.24555  Biso   1.000  O
  Hf4      1.0000 0.26686  0.99998  0.62417  Biso   1.000  Hf
  Hf5      1.0000 0.24265  0.23509  0.88904  Biso   1.000  Hf
  Hf6      1.0000 0.73220  0.25845  0.63957  Biso   1.000  Hf
  Hf7      1.0000 0.78457  0.99595  0.86955  Biso   1.000  Hf
  O9       1.0000 0.07410  0.11464  0.45856  Biso   1.000  O
  O10      1.0000 0.99830  0.11993  0.71625  Biso   1.000  O
  O11      1.0000 0.00070  0.36572  0.75843  Biso   1.000  O
  O12      1.0000 0.96380  0.38205  0.50625  Biso   1.000  O
  O13      1.0000 0.48527  0.12134  0.77770  Biso   1.000  O
  O14      1.0000 0.56541  0.12136  0.52462  Biso   1.000  O
  O15      1.0000 0.46508  0.37817  0.50237  Biso   1.000  O
  O16      1.0000 0.49510  0.37499  0.74916  Biso   1.000  O
  Hf8      1.0000 0.26684  0.49997  0.12417  Biso   1.000  Hf
  Hf9      1.0000 0.24266  0.76487  0.35929  Biso   1.000  Hf
  Hf10     1.0000 0.78457  0.74535  0.12014  Biso   1.000  Hf
  Hf11     1.0000 0.73219  0.51537  0.38264  Biso   1.000  Hf
  O17      1.0000 0.07407  0.66558  0.00948  Biso   1.000  O
  O18      1.0000 0.99824  0.59204  0.24409  Biso   1.000  O
  O19      1.0000 0.87057  0.83049  0.29365  Biso   1.000  O
  O20      1.0000 0.00627  0.92349  0.04769  Biso   1.000  O
  O21      1.0000 0.48523  0.65351  0.24553  Biso   1.000  O
  O22      1.0000 0.56537  0.59952  0.00278  Biso   1.000  O
  O23      1.0000 0.56653  0.85167  0.97586  Biso   1.000  O
  O24      1.0000 0.32428  0.91523  0.20890  Biso   1.000  O
  Hf12     1.0000 0.21526  0.49998  0.62416  Biso   1.000  Hf
  Hf13     1.0000 0.31967  0.74776  0.87195  Biso   1.000  Hf
  Hf14     1.0000 0.73220  0.74151  0.60877  Biso   1.000  Hf
  Hf15     1.0000 0.73221  0.48458  0.86570  Biso   1.000  Hf
  O25      1.0000 0.00070  0.63423  0.48990  Biso   1.000  O
  O26      1.0000 0.96382  0.61790  0.74209  Biso   1.000  O
  O27      1.0000 0.07407  0.88530  0.78976  Biso   1.000  O
  O28      1.0000 0.99832  0.88002  0.53208  Biso   1.000  O
  O29      1.0000 0.46511  0.62179  0.74597  Biso   1.000  O
  O30      1.0000 0.49510  0.62497  0.49918  Biso   1.000  O
  O31      1.0000 0.48527  0.87862  0.47063  Biso   1.000  O
  O32      1.0000 0.56538  0.87860  0.72370  Biso   1.000  O
