data_image0
_cell_length_a       10.1092
_cell_length_b       10.3191
_cell_length_c       10.4071
_cell_angle_alpha    90.1294
_cell_angle_beta     80.6059
_cell_angle_gamma    90.1536

_symmetry_space_group_name_H-M    "P 1"
_symmetry_int_tables_number       1

loop_
  _symmetry_equiv_pos_as_xyz
  'x, y, z'

loop_
  _atom_site_label
  _atom_site_occupancy
  _atom_site_fract_x
  _atom_site_fract_y
  _atom_site_fract_z
  _atom_site_thermal_displace_type
  _atom_site_B_iso_or_equiv
  _atom_site_type_symbol
  Hf1      1.0000 0.13723  0.02031  0.14692  Biso   1.000  Hf
  Hf2      1.0000 0.14050  0.22892  0.39497  Biso   1.000  Hf
  Hf3      1.0000 0.36395  0.26943  0.11609  Biso   1.000  Hf
  Hf4      1.0000 0.34885  0.48640  0.34761  Biso   1.000  Hf
  O1       1.0000 0.03510  0.17090  0.08367  Biso   1.000  O
  O2       1.0000 0.03463  0.07850  0.33340  Biso   1.000  O
  O3       1.0000 0.46026  0.43408  0.16192  Biso   1.000  O
  O4       1.0000 0.47989  0.35147  0.42200  Biso   1.000  O
  O5       1.0000 0.27181  0.12419  0.24312  Biso   1.000  O
  O6       1.0000 0.28165  0.12306  0.49124  Biso   1.000  O
  O7       1.0000 0.22425  0.37758  0.01138  Biso   1.000  O
  O8       1.0000 0.20908  0.37495  0.25726  Biso   1.000  O
  Hf5      1.0000 0.13673  0.02074  0.64688  Biso   1.000  Hf
  Hf6      1.0000 0.13807  0.22843  0.90085  Biso   1.000  Hf
  Hf7      1.0000 0.35546  0.26861  0.61357  Biso   1.000  Hf
  Hf8      1.0000 0.36132  0.47635  0.85811  Biso   1.000  Hf
  O9       1.0000 0.03926  0.17160  0.58152  Biso   1.000  O
  O10      1.0000 0.03628  0.07858  0.83267  Biso   1.000  O
  O11      1.0000 0.46281  0.41679  0.67152  Biso   1.000  O
  O12      1.0000 0.46299  0.32848  0.92425  Biso   1.000  O
  O13      1.0000 0.27516  0.12970  0.74417  Biso   1.000  O
  O14      1.0000 0.27638  0.11999  0.99419  Biso   1.000  O
  O15      1.0000 0.22952  0.37750  0.50875  Biso   1.000  O
  O16      1.0000 0.22159  0.37003  0.76203  Biso   1.000  O
  Hf9      1.0000 0.13539  0.52045  0.14303  Biso   1.000  Hf
  Hf10     1.0000 0.13508  0.73076  0.39688  Biso   1.000  Hf
  Hf11     1.0000 0.36012  0.77166  0.10396  Biso   1.000  Hf
  Hf12     1.0000 0.36266  0.97657  0.35629  Biso   1.000  Hf
  O17      1.0000 0.03523  0.67233  0.08063  Biso   1.000  O
  O18      1.0000 0.03524  0.58031  0.33136  Biso   1.000  O
  O19      1.0000 0.46099  0.92106  0.16898  Biso   1.000  O
  O20      1.0000 0.45774  0.82107  0.41830  Biso   1.000  O
  O21      1.0000 0.27270  0.63141  0.24026  Biso   1.000  O
  O22      1.0000 0.27066  0.62117  0.49184  Biso   1.000  O
  O23      1.0000 0.22250  0.87852  0.00972  Biso   1.000  O
  O24      1.0000 0.22197  0.86970  0.25990  Biso   1.000  O
  Hf13     1.0000 0.13755  0.52151  0.64647  Biso   1.000  Hf
  Hf14     1.0000 0.13746  0.72875  0.89562  Biso   1.000  Hf
  Hf15     1.0000 0.35994  0.76972  0.60524  Biso   1.000  Hf
  Hf16     1.0000 0.35993  0.97841  0.85596  Biso   1.000  Hf
  O25      1.0000 0.03381  0.67088  0.58346  Biso   1.000  O
  O26      1.0000 0.03577  0.57832  0.83167  Biso   1.000  O
  O27      1.0000 0.46080  0.92121  0.66768  Biso   1.000  O
  O28      1.0000 0.46251  0.82940  0.91807  Biso   1.000  O
  O29      1.0000 0.27566  0.62806  0.74127  Biso   1.000  O
  O30      1.0000 0.27542  0.62029  0.99065  Biso   1.000  O
  O31      1.0000 0.22193  0.88074  0.51040  Biso   1.000  O
  O32      1.0000 0.22226  0.87081  0.76013  Biso   1.000  O
  Hf17     1.0000 0.63825  0.01769  0.14730  Biso   1.000  Hf
  Hf18     1.0000 0.64437  0.22462  0.39170  Biso   1.000  Hf
  Hf19     1.0000 0.85966  0.27111  0.10411  Biso   1.000  Hf
  Hf20     1.0000 0.86141  0.47797  0.35536  Biso   1.000  Hf
  O33      1.0000 0.53617  0.16463  0.08052  Biso   1.000  O
  O34      1.0000 0.54636  0.05802  0.34130  Biso   1.000  O
  O35      1.0000 0.95979  0.42332  0.16649  Biso   1.000  O
  O36      1.0000 0.96381  0.32846  0.41872  Biso   1.000  O
  O37      1.0000 0.77773  0.12819  0.23925  Biso   1.000  O
  O38      1.0000 0.77802  0.11748  0.49139  Biso   1.000  O
  O39      1.0000 0.72201  0.37931  0.00996  Biso   1.000  O
  O40      1.0000 0.72500  0.37110  0.25942  Biso   1.000  O
  Hf21     1.0000 0.63613  0.02200  0.64369  Biso   1.000  Hf
  Hf22     1.0000 0.63707  0.22753  0.89681  Biso   1.000  Hf
  Hf23     1.0000 0.86150  0.26997  0.60441  Biso   1.000  Hf
  Hf24     1.0000 0.86030  0.47744  0.85470  Biso   1.000  Hf
  O41      1.0000 0.53391  0.17277  0.57686  Biso   1.000  O
  O42      1.0000 0.53430  0.08066  0.82836  Biso   1.000  O
  O43      1.0000 0.96340  0.41966  0.66899  Biso   1.000  O
  O44      1.0000 0.96281  0.32876  0.91921  Biso   1.000  O
  O45      1.0000 0.77503  0.12856  0.74028  Biso   1.000  O
  O46      1.0000 0.77608  0.12064  0.99044  Biso   1.000  O
  O47      1.0000 0.72479  0.37709  0.51027  Biso   1.000  O
  O48      1.0000 0.72320  0.36958  0.75987  Biso   1.000  O
  Hf25     1.0000 0.64090  0.52393  0.14503  Biso   1.000  Hf
  Hf26     1.0000 0.63616  0.72632  0.39612  Biso   1.000  Hf
  Hf27     1.0000 0.86035  0.77086  0.10395  Biso   1.000  Hf
  Hf28     1.0000 0.85978  0.97677  0.35461  Biso   1.000  Hf
  O49      1.0000 0.53757  0.67401  0.08160  Biso   1.000  O
  O50      1.0000 0.53301  0.57896  0.32960  Biso   1.000  O
  O51      1.0000 0.96185  0.92018  0.16895  Biso   1.000  O
  O52      1.0000 0.96030  0.82846  0.42004  Biso   1.000  O
  O53      1.0000 0.77588  0.62865  0.24168  Biso   1.000  O
  O54      1.0000 0.77433  0.61919  0.49159  Biso   1.000  O
  O55      1.0000 0.72277  0.87915  0.00890  Biso   1.000  O
  O56      1.0000 0.72363  0.86670  0.25868  Biso   1.000  O
  Hf29     1.0000 0.63802  0.51916  0.64651  Biso   1.000  Hf
  Hf30     1.0000 0.63777  0.72872  0.89540  Biso   1.000  Hf
  Hf31     1.0000 0.85805  0.77084  0.60536  Biso   1.000  Hf
  Hf32     1.0000 0.85989  0.97913  0.85430  Biso   1.000  Hf
  O57      1.0000 0.53461  0.66829  0.58295  Biso   1.000  O
  O58      1.0000 0.53608  0.57797  0.83262  Biso   1.000  O
  O59      1.0000 0.96185  0.92140  0.66815  Biso   1.000  O
  O60      1.0000 0.96195  0.82896  0.91744  Biso   1.000  O
  O61      1.0000 0.77533  0.62840  0.74122  Biso   1.000  O
  O62      1.0000 0.77614  0.62063  0.99036  Biso   1.000  O
  O63      1.0000 0.72027  0.87752  0.50960  Biso   1.000  O
  O64      1.0000 0.72136  0.87090  0.75884  Biso   1.000  O
  C1       1.0000 0.45625  0.28861  0.31621  Biso   1.000  C
