data_image0
_cell_length_a       10.0351
_cell_length_b       10.3389
_cell_length_c       5.17642
_cell_angle_alpha    89.7647
_cell_angle_beta     89.7602
_cell_angle_gamma    90.3385

_symmetry_space_group_name_H-M    "P 1"
_symmetry_int_tables_number       1

loop_
  _symmetry_equiv_pos_as_xyz
  'x, y, z'

loop_
  _atom_site_label
  _atom_site_occupancy
  _atom_site_fract_x
  _atom_site_fract_y
  _atom_site_fract_z
  _atom_site_thermal_displace_type
  _atom_site_B_iso_or_equiv
  _atom_site_type_symbol
  Hf1      1.0000 0.14140  0.02255  0.34127  Biso   1.000  Hf
  Hf2      1.0000 0.13797  0.23061  0.84148  Biso   1.000  Hf
  Hf3      1.0000 0.35712  0.27612  0.33547  Biso   1.000  Hf
  Hf4      1.0000 0.36398  0.48217  0.83920  Biso   1.000  Hf
  Hf5      1.0000 0.65190  0.01431  0.15262  Biso   1.000  Hf
  Hf6      1.0000 0.64054  0.23534  0.70868  Biso   1.000  Hf
  Hf7      1.0000 0.86105  0.26944  0.17240  Biso   1.000  Hf
  Hf8      1.0000 0.86433  0.48059  0.66374  Biso   1.000  Hf
  O1       1.0000 0.03735  0.17355  0.18394  Biso   1.000  O
  O2       1.0000 0.03898  0.07897  0.67713  Biso   1.000  O
  O3       1.0000 0.45723  0.44064  0.19424  Biso   1.000  O
  O4       1.0000 0.46663  0.33276  0.66450  Biso   1.000  O
  O5       1.0000 0.27811  0.12713  0.58863  Biso   1.000  O
  O6       1.0000 0.27510  0.12541  0.08685  Biso   1.000  O
  O7       1.0000 0.22271  0.37719  0.58733  Biso   1.000  O
  O8       1.0000 0.22325  0.37769  0.08347  Biso   1.000  O
  O9       1.0000 0.52269  0.15303  0.33811  Biso   1.000  O
  O10      1.0000 0.53992  0.07003  0.81497  Biso   1.000  O
  O11      1.0000 0.96484  0.42131  0.32737  Biso   1.000  O
  O12      1.0000 0.96464  0.32890  0.82720  Biso   1.000  O
  O13      1.0000 0.79246  0.11859  0.91675  Biso   1.000  O
  O14      1.0000 0.77014  0.12746  0.42428  Biso   1.000  O
  O15      1.0000 0.73131  0.38060  0.92567  Biso   1.000  O
  O16      1.0000 0.72029  0.37407  0.42721  Biso   1.000  O
  Hf9      1.0000 0.14080  0.52190  0.34116  Biso   1.000  Hf
  Hf10     1.0000 0.14175  0.73020  0.84003  Biso   1.000  Hf
  Hf11     1.0000 0.36535  0.77292  0.33933  Biso   1.000  Hf
  Hf12     1.0000 0.36038  0.97901  0.84066  Biso   1.000  Hf
  Hf13     1.0000 0.63918  0.52322  0.16894  Biso   1.000  Hf
  Hf14     1.0000 0.64064  0.72998  0.66160  Biso   1.000  Hf
  Hf15     1.0000 0.86579  0.76909  0.16017  Biso   1.000  Hf
  Hf16     1.0000 0.86570  0.97924  0.65737  Biso   1.000  Hf
  O17      1.0000 0.03814  0.67104  0.17760  Biso   1.000  O
  O18      1.0000 0.03820  0.58070  0.67739  Biso   1.000  O
  O19      1.0000 0.46829  0.92289  0.17489  Biso   1.000  O
  O20      1.0000 0.46542  0.82846  0.67978  Biso   1.000  O
  O21      1.0000 0.27913  0.62567  0.58594  Biso   1.000  O
  O22      1.0000 0.27800  0.62874  0.08499  Biso   1.000  O
  O23      1.0000 0.22628  0.87561  0.58645  Biso   1.000  O
  O24      1.0000 0.22611  0.87639  0.08786  Biso   1.000  O
  O25      1.0000 0.54138  0.67804  0.32095  Biso   1.000  O
  O26      1.0000 0.54022  0.57799  0.82211  Biso   1.000  O
  O27      1.0000 0.96723  0.92274  0.31866  Biso   1.000  O
  O28      1.0000 0.96776  0.82913  0.82293  Biso   1.000  O
  O29      1.0000 0.77854  0.62614  0.91617  Biso   1.000  O
  O30      1.0000 0.77853  0.62503  0.41672  Biso   1.000  O
  O31      1.0000 0.72782  0.87244  0.91304  Biso   1.000  O
  O32      1.0000 0.72955  0.87389  0.41400  Biso   1.000  O
  C1       1.0000 0.54527  0.21318  0.11582  Biso   1.000  C
