data_image0
_cell_length_a       10.1584
_cell_length_b       10.2212
_cell_length_c       5.22844
_cell_angle_alpha    90.1365
_cell_angle_beta     80.3881
_cell_angle_gamma    89.6798

_symmetry_space_group_name_H-M    "P 1"
_symmetry_int_tables_number       1

loop_
  _symmetry_equiv_pos_as_xyz
  'x, y, z'

loop_
  _atom_site_label
  _atom_site_occupancy
  _atom_site_fract_x
  _atom_site_fract_y
  _atom_site_fract_z
  _atom_site_thermal_displace_type
  _atom_site_B_iso_or_equiv
  _atom_site_type_symbol
  C1       1.0000 0.01933  0.05545  0.34343  Biso   1.000  C
  Hf1      1.0000 0.15646  0.22842  0.78012  Biso   1.000  Hf
  Hf2      1.0000 0.35788  0.26164  0.20952  Biso   1.000  Hf
  Hf3      1.0000 0.36221  0.47758  0.70603  Biso   1.000  Hf
  O1       1.0000 0.03023  0.13610  0.15509  Biso   1.000  O
  O2       1.0000 0.03153  0.09279  0.57605  Biso   1.000  O
  O3       1.0000 0.46519  0.41519  0.34163  Biso   1.000  O
  O4       1.0000 0.46821  0.33419  0.84245  Biso   1.000  O
  O5       1.0000 0.28793  0.13536  0.49685  Biso   1.000  O
  O6       1.0000 0.28453  0.12973  0.96881  Biso   1.000  O
  O7       1.0000 0.22160  0.37567  0.01427  Biso   1.000  O
  O8       1.0000 0.22324  0.37164  0.51546  Biso   1.000  O
  Hf4      1.0000 0.14249  0.52251  0.29087  Biso   1.000  Hf
  Hf5      1.0000 0.14836  0.73505  0.78755  Biso   1.000  Hf
  Hf6      1.0000 0.35705  0.77909  0.20765  Biso   1.000  Hf
  Hf7      1.0000 0.35605  0.97836  0.71068  Biso   1.000  Hf
  O9       1.0000 0.03695  0.67336  0.16884  Biso   1.000  O
  O10      1.0000 0.03722  0.58055  0.66146  Biso   1.000  O
  O11      1.0000 0.47110  0.91559  0.34686  Biso   1.000  O
  O12      1.0000 0.47515  0.83842  0.84596  Biso   1.000  O
  O13      1.0000 0.27818  0.62561  0.47633  Biso   1.000  O
  O14      1.0000 0.27744  0.61736  0.98080  Biso   1.000  O
  O15      1.0000 0.23270  0.87155  0.00101  Biso   1.000  O
  O16      1.0000 0.23307  0.86506  0.52148  Biso   1.000  O
  Hf8      1.0000 0.63550  0.02134  0.29991  Biso   1.000  Hf
  Hf9      1.0000 0.63679  0.22915  0.79239  Biso   1.000  Hf
  Hf10     1.0000 0.85485  0.27494  0.21023  Biso   1.000  Hf
  Hf11     1.0000 0.86963  0.47513  0.70740  Biso   1.000  Hf
  O17      1.0000 0.54053  0.17024  0.16134  Biso   1.000  O
  O18      1.0000 0.54210  0.07863  0.66444  Biso   1.000  O
  O19      1.0000 0.97085  0.40874  0.34602  Biso   1.000  O
  O20      1.0000 0.96931  0.32226  0.85321  Biso   1.000  O
  O21      1.0000 0.78050  0.12857  0.48236  Biso   1.000  O
  O22      1.0000 0.77913  0.12016  0.98481  Biso   1.000  O
  O23      1.0000 0.72763  0.38024  0.01946  Biso   1.000  O
  O24      1.0000 0.72599  0.37056  0.51942  Biso   1.000  O
  Hf12     1.0000 0.63388  0.52077  0.29447  Biso   1.000  Hf
  Hf13     1.0000 0.63580  0.72635  0.79551  Biso   1.000  Hf
  Hf14     1.0000 0.86151  0.76172  0.20093  Biso   1.000  Hf
  Hf15     1.0000 0.84997  0.97478  0.72935  Biso   1.000  Hf
  O25      1.0000 0.53669  0.66688  0.15488  Biso   1.000  O
  O26      1.0000 0.53486  0.58198  0.65672  Biso   1.000  O
  O27      1.0000 0.97077  0.94115  0.33096  Biso   1.000  O
  O28      1.0000 0.96792  0.83817  0.83989  Biso   1.000  O
  O29      1.0000 0.77802  0.62465  0.48113  Biso   1.000  O
  O30      1.0000 0.78197  0.62199  0.98309  Biso   1.000  O
  O31      1.0000 0.72442  0.87750  0.02494  Biso   1.000  O
  O32      1.0000 0.73728  0.86781  0.51793  Biso   1.000  O
