data_image0
_cell_length_a       10.1449
_cell_length_b       5.16918
_cell_length_c       10.543
_cell_angle_alpha    89.1587
_cell_angle_beta     90.1347
_cell_angle_gamma    90.1443

_symmetry_space_group_name_H-M    "P 1"
_symmetry_int_tables_number       1

loop_
  _symmetry_equiv_pos_as_xyz
  'x, y, z'

loop_
  _atom_site_label
  _atom_site_occupancy
  _atom_site_fract_x
  _atom_site_fract_y
  _atom_site_fract_z
  _atom_site_thermal_displace_type
  _atom_site_B_iso_or_equiv
  _atom_site_type_symbol
  Zr1      1.0000 0.13532  0.04913  0.17175  Biso   1.000  Zr
  Zr2      1.0000 0.13800  0.46497  0.42366  Biso   1.000  Zr
  Zr3      1.0000 0.35086  0.55438  0.17578  Biso   1.000  Zr
  Zr4      1.0000 0.36404  0.96865  0.42219  Biso   1.000  Zr
  Zr5      1.0000 0.64643  0.02964  0.06645  Biso   1.000  Zr
  Zr6      1.0000 0.64256  0.48686  0.33694  Biso   1.000  Zr
  Zr7      1.0000 0.85875  0.54181  0.08059  Biso   1.000  Zr
  Zr8      1.0000 0.86276  0.97041  0.33049  Biso   1.000  Zr
  O1       1.0000 0.03090  0.33497  0.08387  Biso   1.000  O
  O2       1.0000 0.03147  0.18244  0.33242  Biso   1.000  O
  O3       1.0000 0.47459  0.78305  0.06936  Biso   1.000  O
  O4       1.0000 0.46476  0.67439  0.33188  Biso   1.000  O
  O5       1.0000 0.27090  0.25831  0.29764  Biso   1.000  O
  O6       1.0000 0.27333  0.25354  0.04420  Biso   1.000  O
  O7       1.0000 0.22374  0.75983  0.29717  Biso   1.000  O
  O8       1.0000 0.22393  0.75742  0.04790  Biso   1.000  O
  O9       1.0000 0.49440  0.23827  0.15684  Biso   1.000  O
  O10      1.0000 0.53514  0.18035  0.41506  Biso   1.000  O
  O11      1.0000 0.96904  0.83132  0.16814  Biso   1.000  O
  O12      1.0000 0.96871  0.67800  0.41953  Biso   1.000  O
  O13      1.0000 0.77846  0.25914  0.45900  Biso   1.000  O
  O14      1.0000 0.77047  0.25983  0.21117  Biso   1.000  O
  O15      1.0000 0.72735  0.76171  0.45756  Biso   1.000  O
  O16      1.0000 0.73343  0.77061  0.20853  Biso   1.000  O
  Zr9      1.0000 0.14333  0.04532  0.67167  Biso   1.000  Zr
  Zr10     1.0000 0.13863  0.45826  0.92133  Biso   1.000  Zr
  Zr11     1.0000 0.36509  0.54463  0.67090  Biso   1.000  Zr
  Zr12     1.0000 0.36210  0.95258  0.91966  Biso   1.000  Zr
  Zr13     1.0000 0.64113  0.05142  0.58052  Biso   1.000  Zr
  Zr14     1.0000 0.64068  0.45650  0.83125  Biso   1.000  Zr
  Zr15     1.0000 0.86429  0.54742  0.58146  Biso   1.000  Zr
  Zr16     1.0000 0.86682  0.95883  0.82692  Biso   1.000  Zr
  O17      1.0000 0.03506  0.33347  0.58489  Biso   1.000  O
  O18      1.0000 0.03797  0.17151  0.83279  Biso   1.000  O
  O19      1.0000 0.47052  0.83722  0.58164  Biso   1.000  O
  O20      1.0000 0.46985  0.66838  0.82937  Biso   1.000  O
  O21      1.0000 0.27930  0.24921  0.79416  Biso   1.000  O
  O22      1.0000 0.27767  0.25574  0.54493  Biso   1.000  O
  O23      1.0000 0.22793  0.74901  0.79631  Biso   1.000  O
  O24      1.0000 0.22799  0.75626  0.54586  Biso   1.000  O
  O25      1.0000 0.53647  0.33855  0.66464  Biso   1.000  O
  O26      1.0000 0.53640  0.15140  0.90703  Biso   1.000  O
  O27      1.0000 0.97287  0.83216  0.66739  Biso   1.000  O
  O28      1.0000 0.97089  0.67277  0.91893  Biso   1.000  O
  O29      1.0000 0.78703  0.24264  0.95128  Biso   1.000  O
  O30      1.0000 0.77735  0.25565  0.70619  Biso   1.000  O
  O31      1.0000 0.73178  0.74805  0.95096  Biso   1.000  O
  O32      1.0000 0.72814  0.75455  0.70502  Biso   1.000  O
  C1       1.0000 0.58010  0.41979  0.13205  Biso   1.000  C
