data_image0
_cell_length_a       10.1959
_cell_length_b       5.21573
_cell_length_c       10.4368
_cell_angle_alpha    90.2563
_cell_angle_beta     80.824
_cell_angle_gamma    90.324

_symmetry_space_group_name_H-M    "P 1"
_symmetry_int_tables_number       1

loop_
  _symmetry_equiv_pos_as_xyz
  'x, y, z'

loop_
  _atom_site_label
  _atom_site_occupancy
  _atom_site_fract_x
  _atom_site_fract_y
  _atom_site_fract_z
  _atom_site_thermal_displace_type
  _atom_site_B_iso_or_equiv
  _atom_site_type_symbol
  Zr1      1.0000 0.13385  0.03861  0.14364  Biso   1.000  Zr
  Zr2      1.0000 0.13585  0.46244  0.39597  Biso   1.000  Zr
  Zr3      1.0000 0.36367  0.54059  0.11598  Biso   1.000  Zr
  Zr4      1.0000 0.34980  0.97146  0.34931  Biso   1.000  Zr
  O1       1.0000 0.03355  0.34562  0.08353  Biso   1.000  O
  O2       1.0000 0.03313  0.15736  0.33436  Biso   1.000  O
  O3       1.0000 0.45560  0.87401  0.16089  Biso   1.000  O
  O4       1.0000 0.47399  0.68045  0.42166  Biso   1.000  O
  O5       1.0000 0.26617  0.25500  0.24292  Biso   1.000  O
  O6       1.0000 0.27471  0.24850  0.49266  Biso   1.000  O
  O7       1.0000 0.22407  0.75316  0.01194  Biso   1.000  O
  O8       1.0000 0.20840  0.74938  0.25857  Biso   1.000  O
  Zr5      1.0000 0.13592  0.04201  0.64687  Biso   1.000  Zr
  Zr6      1.0000 0.13682  0.45754  0.90032  Biso   1.000  Zr
  Zr7      1.0000 0.35483  0.53496  0.61529  Biso   1.000  Zr
  Zr8      1.0000 0.36031  0.95283  0.86069  Biso   1.000  Zr
  O9       1.0000 0.03629  0.34414  0.58453  Biso   1.000  O
  O10      1.0000 0.03577  0.15425  0.83339  Biso   1.000  O
  O11      1.0000 0.46083  0.83441  0.67033  Biso   1.000  O
  O12      1.0000 0.46268  0.65708  0.92268  Biso   1.000  O
  O13      1.0000 0.27373  0.25717  0.74478  Biso   1.000  O
  O14      1.0000 0.27412  0.23929  0.99414  Biso   1.000  O
  O15      1.0000 0.22893  0.75740  0.50925  Biso   1.000  O
  O16      1.0000 0.22161  0.74084  0.76277  Biso   1.000  O
  Zr9      1.0000 0.63912  0.03998  0.14591  Biso   1.000  Zr
  Zr10     1.0000 0.64345  0.44547  0.39251  Biso   1.000  Zr
  Zr11     1.0000 0.85884  0.54061  0.10461  Biso   1.000  Zr
  Zr12     1.0000 0.86050  0.95243  0.35630  Biso   1.000  Zr
  O17      1.0000 0.53716  0.33574  0.07941  Biso   1.000  O
  O18      1.0000 0.53941  0.11959  0.33937  Biso   1.000  O
  O19      1.0000 0.95853  0.84603  0.16640  Biso   1.000  O
  O20      1.0000 0.96024  0.65333  0.41974  Biso   1.000  O
  O21      1.0000 0.77591  0.25383  0.23998  Biso   1.000  O
  O22      1.0000 0.77554  0.23154  0.49264  Biso   1.000  O
  O23      1.0000 0.72206  0.75761  0.00993  Biso   1.000  O
  O24      1.0000 0.72591  0.73588  0.25958  Biso   1.000  O
  Zr13     1.0000 0.63546  0.03901  0.64437  Biso   1.000  Zr
  Zr14     1.0000 0.63616  0.45506  0.89574  Biso   1.000  Zr
  Zr15     1.0000 0.85876  0.53901  0.60681  Biso   1.000  Zr
  Zr16     1.0000 0.85955  0.95615  0.85568  Biso   1.000  Zr
  O25      1.0000 0.53186  0.33989  0.57931  Biso   1.000  O
  O26      1.0000 0.53374  0.15787  0.82972  Biso   1.000  O
  O27      1.0000 0.96251  0.84176  0.66805  Biso   1.000  O
  O28      1.0000 0.96142  0.65570  0.91773  Biso   1.000  O
  O29      1.0000 0.77320  0.25523  0.74109  Biso   1.000  O
  O30      1.0000 0.77475  0.24078  0.99037  Biso   1.000  O
  O31      1.0000 0.72254  0.75025  0.51101  Biso   1.000  O
  O32      1.0000 0.72271  0.74025  0.75965  Biso   1.000  O
  C1       1.0000 0.45741  0.56871  0.31259  Biso   1.000  C
