data_image0
_cell_length_a       10.2342
_cell_length_b       10.2931
_cell_length_c       5.25856
_cell_angle_alpha    90.1337
_cell_angle_beta     80.3965
_cell_angle_gamma    89.6998

_symmetry_space_group_name_H-M    "P 1"
_symmetry_int_tables_number       1

loop_
  _symmetry_equiv_pos_as_xyz
  'x, y, z'

loop_
  _atom_site_label
  _atom_site_occupancy
  _atom_site_fract_x
  _atom_site_fract_y
  _atom_site_fract_z
  _atom_site_thermal_displace_type
  _atom_site_B_iso_or_equiv
  _atom_site_type_symbol
  C1       1.0000 0.01848  0.05510  0.34069  Biso   1.000  C
  Zr1      1.0000 0.14238  0.52237  0.29049  Biso   1.000  Zr
  Zr2      1.0000 0.63571  0.02128  0.29911  Biso   1.000  Zr
  Zr3      1.0000 0.63398  0.52096  0.29356  Biso   1.000  Zr
  Zr4      1.0000 0.15644  0.22827  0.78031  Biso   1.000  Zr
  Zr5      1.0000 0.14854  0.73513  0.78657  Biso   1.000  Zr
  Zr6      1.0000 0.63677  0.22924  0.79144  Biso   1.000  Zr
  Zr7      1.0000 0.63605  0.72669  0.79478  Biso   1.000  Zr
  Zr8      1.0000 0.35772  0.26186  0.21086  Biso   1.000  Zr
  Zr9      1.0000 0.35750  0.77885  0.20810  Biso   1.000  Zr
  Zr10     1.0000 0.85500  0.27494  0.21111  Biso   1.000  Zr
  Zr11     1.0000 0.86168  0.76189  0.20205  Biso   1.000  Zr
  Zr12     1.0000 0.36241  0.47757  0.70720  Biso   1.000  Zr
  Zr13     1.0000 0.35638  0.97853  0.71167  Biso   1.000  Zr
  Zr14     1.0000 0.86956  0.47516  0.70839  Biso   1.000  Zr
  Zr15     1.0000 0.85071  0.97511  0.73030  Biso   1.000  Zr
  O1       1.0000 0.02931  0.13370  0.15099  Biso   1.000  O
  O2       1.0000 0.03620  0.67286  0.16773  Biso   1.000  O
  O3       1.0000 0.53973  0.16948  0.16115  Biso   1.000  O
  O4       1.0000 0.53574  0.66576  0.15391  Biso   1.000  O
  O5       1.0000 0.03150  0.09373  0.56998  Biso   1.000  O
  O6       1.0000 0.03638  0.58091  0.66049  Biso   1.000  O
  O7       1.0000 0.54132  0.07975  0.66387  Biso   1.000  O
  O8       1.0000 0.53409  0.58315  0.65575  Biso   1.000  O
  O9       1.0000 0.46600  0.41446  0.34360  Biso   1.000  O
  O10      1.0000 0.47217  0.91438  0.34967  Biso   1.000  O
  O11      1.0000 0.97147  0.40781  0.34714  Biso   1.000  O
  O12      1.0000 0.97095  0.94110  0.33018  Biso   1.000  O
  O13      1.0000 0.46863  0.33482  0.84423  Biso   1.000  O
  O14      1.0000 0.47626  0.83960  0.84882  Biso   1.000  O
  O15      1.0000 0.96972  0.32267  0.85441  Biso   1.000  O
  O16      1.0000 0.96818  0.83859  0.83962  Biso   1.000  O
  O17      1.0000 0.28710  0.13513  0.49755  Biso   1.000  O
  O18      1.0000 0.27727  0.62536  0.47684  Biso   1.000  O
  O19      1.0000 0.77977  0.12850  0.48199  Biso   1.000  O
  O20      1.0000 0.77724  0.62487  0.48107  Biso   1.000  O
  O21      1.0000 0.28358  0.13016  0.96925  Biso   1.000  O
  O22      1.0000 0.27658  0.61772  0.98101  Biso   1.000  O
  O23      1.0000 0.77805  0.12035  0.98433  Biso   1.000  O
  O24      1.0000 0.78090  0.62226  0.98330  Biso   1.000  O
  O25      1.0000 0.22241  0.37560  0.01426  Biso   1.000  O
  O26      1.0000 0.23375  0.87090  0.00062  Biso   1.000  O
  O27      1.0000 0.72841  0.37989  0.01963  Biso   1.000  O
  O28      1.0000 0.72532  0.87706  0.02580  Biso   1.000  O
  O29      1.0000 0.22395  0.37182  0.51554  Biso   1.000  O
  O30      1.0000 0.23394  0.86518  0.52200  Biso   1.000  O
  O31      1.0000 0.72677  0.37110  0.51969  Biso   1.000  O
  O32      1.0000 0.73802  0.86842  0.51895  Biso   1.000  O
