data_image0
_cell_length_a       10.244
_cell_length_b       5.14474
_cell_length_c       10.5295
_cell_angle_alpha    89.885
_cell_angle_beta     80.3694
_cell_angle_gamma    89.7942

_symmetry_space_group_name_H-M    "P 1"
_symmetry_int_tables_number       1

loop_
  _symmetry_equiv_pos_as_xyz
  'x, y, z'

loop_
  _atom_site_label
  _atom_site_occupancy
  _atom_site_fract_x
  _atom_site_fract_y
  _atom_site_fract_z
  _atom_site_thermal_displace_type
  _atom_site_B_iso_or_equiv
  _atom_site_type_symbol
  C1       1.0000 0.01756  0.12380  0.17860  Biso   1.000  C
  Zr1      1.0000 0.14202  0.04097  0.64379  Biso   1.000  Zr
  Zr2      1.0000 0.63332  0.04641  0.14618  Biso   1.000  Zr
  Zr3      1.0000 0.63764  0.03599  0.65126  Biso   1.000  Zr
  Zr4      1.0000 0.15315  0.46373  0.38925  Biso   1.000  Zr
  Zr5      1.0000 0.15414  0.45864  0.89326  Biso   1.000  Zr
  Zr6      1.0000 0.63471  0.45090  0.39657  Biso   1.000  Zr
  Zr7      1.0000 0.63611  0.45790  0.89554  Biso   1.000  Zr
  Zr8      1.0000 0.35216  0.54266  0.10530  Biso   1.000  Zr
  Zr9      1.0000 0.36531  0.54185  0.60340  Biso   1.000  Zr
  Zr10     1.0000 0.85187  0.54219  0.09849  Biso   1.000  Zr
  Zr11     1.0000 0.86640  0.53091  0.60423  Biso   1.000  Zr
  Zr12     1.0000 0.35708  0.95910  0.34703  Biso   1.000  Zr
  Zr13     1.0000 0.35856  0.95576  0.86106  Biso   1.000  Zr
  Zr14     1.0000 0.84991  0.94647  0.36632  Biso   1.000  Zr
  Zr15     1.0000 0.86939  0.95301  0.85294  Biso   1.000  Zr
  O1       1.0000 0.03246  0.30030  0.09200  Biso   1.000  O
  O2       1.0000 0.02947  0.29683  0.55856  Biso   1.000  O
  O3       1.0000 0.53760  0.33771  0.07883  Biso   1.000  O
  O4       1.0000 0.53677  0.32772  0.57848  Biso   1.000  O
  O5       1.0000 0.02934  0.18220  0.29568  Biso   1.000  O
  O6       1.0000 0.03531  0.17358  0.82318  Biso   1.000  O
  O7       1.0000 0.53912  0.15541  0.33012  Biso   1.000  O
  O8       1.0000 0.53738  0.16727  0.82839  Biso   1.000  O
  O9       1.0000 0.47043  0.82564  0.17286  Biso   1.000  O
  O10      1.0000 0.46900  0.82560  0.67583  Biso   1.000  O
  O11      1.0000 0.96963  0.89925  0.16417  Biso   1.000  O
  O12      1.0000 0.97416  0.80627  0.67687  Biso   1.000  O
  O13      1.0000 0.46851  0.66569  0.42295  Biso   1.000  O
  O14      1.0000 0.47540  0.68243  0.92576  Biso   1.000  O
  O15      1.0000 0.96929  0.67379  0.41751  Biso   1.000  O
  O16      1.0000 0.97178  0.66116  0.93401  Biso   1.000  O
  O17      1.0000 0.28657  0.26979  0.25081  Biso   1.000  O
  O18      1.0000 0.27748  0.25190  0.73672  Biso   1.000  O
  O19      1.0000 0.77730  0.25730  0.24047  Biso   1.000  O
  O20      1.0000 0.78035  0.24937  0.74015  Biso   1.000  O
  O21      1.0000 0.27676  0.23981  0.49343  Biso   1.000  O
  O22      1.0000 0.28826  0.25885  0.97910  Biso   1.000  O
  O23      1.0000 0.77513  0.23415  0.49165  Biso   1.000  O
  O24      1.0000 0.78071  0.25034  0.99168  Biso   1.000  O
  O25      1.0000 0.23021  0.74120  0.99944  Biso   1.000  O
  O26      1.0000 0.22544  0.75143  0.50759  Biso   1.000  O
  O27      1.0000 0.72852  0.76448  0.01020  Biso   1.000  O
  O28      1.0000 0.72554  0.74517  0.51341  Biso   1.000  O
  O29      1.0000 0.22894  0.73846  0.26151  Biso   1.000  O
  O30      1.0000 0.22755  0.73826  0.75557  Biso   1.000  O
  O31      1.0000 0.73480  0.74006  0.25917  Biso   1.000  O
  O32      1.0000 0.73147  0.73830  0.76066  Biso   1.000  O
