data_image0
_cell_length_a       5.04068
_cell_length_b       10.4329
_cell_length_c       10.1149
_cell_angle_alpha    90.3156
_cell_angle_beta     89.0945
_cell_angle_gamma    90.8643

_symmetry_space_group_name_H-M    "P 1"
_symmetry_int_tables_number       1

loop_
  _symmetry_equiv_pos_as_xyz
  'x, y, z'

loop_
  _atom_site_label
  _atom_site_occupancy
  _atom_site_fract_x
  _atom_site_fract_y
  _atom_site_fract_z
  _atom_site_thermal_displace_type
  _atom_site_B_iso_or_equiv
  _atom_site_type_symbol
  Zr1      1.0000 0.28561  0.02387  0.12205  Biso   1.000  Zr
  Zr2      1.0000 0.27519  0.22688  0.39489  Biso   1.000  Zr
  Zr3      1.0000 0.74828  0.27004  0.10367  Biso   1.000  Zr
  Zr4      1.0000 0.75289  0.49147  0.38120  Biso   1.000  Zr
  O1       1.0000 0.04222  0.17649  0.21690  Biso   1.000  O
  O2       1.0000 0.07645  0.06493  0.45348  Biso   1.000  O
  O3       1.0000 0.87915  0.43762  0.19762  Biso   1.000  O
  O4       1.0000 0.93868  0.31965  0.44947  Biso   1.000  O
  O5       1.0000 0.53479  0.11655  0.25752  Biso   1.000  O
  O6       1.0000 0.55435  0.13282  0.50718  Biso   1.000  O
  O7       1.0000 0.46561  0.38542  0.48780  Biso   1.000  O
  O8       1.0000 0.35900  0.33543  0.21457  Biso   1.000  O
  Zr5      1.0000 0.28311  0.01670  0.63210  Biso   1.000  Zr
  Zr6      1.0000 0.27551  0.23542  0.88629  Biso   1.000  Zr
  Zr7      1.0000 0.74776  0.26653  0.63290  Biso   1.000  Zr
  Zr8      1.0000 0.73109  0.49197  0.86580  Biso   1.000  Zr
  O9       1.0000 0.08177  0.18471  0.69431  Biso   1.000  O
  O10      1.0000 0.09077  0.06508  0.94416  Biso   1.000  O
  O11      1.0000 0.92136  0.44241  0.68422  Biso   1.000  O
  O12      1.0000 0.90791  0.31701  0.91220  Biso   1.000  O
  O13      1.0000 0.54412  0.11944  0.75483  Biso   1.000  O
  O14      1.0000 0.58695  0.12146  0.99452  Biso   1.000  O
  O15      1.0000 0.47691  0.39149  0.99166  Biso   1.000  O
  O16      1.0000 0.45234  0.37050  0.74410  Biso   1.000  O
  Zr9      1.0000 0.24536  0.51478  0.12084  Biso   1.000  Zr
  Zr10     1.0000 0.27591  0.73619  0.37531  Biso   1.000  Zr
  Zr11     1.0000 0.73495  0.76425  0.12563  Biso   1.000  Zr
  Zr12     1.0000 0.74206  0.98434  0.37290  Biso   1.000  Zr
  O17      1.0000 0.05657  0.67841  0.20151  Biso   1.000  O
  O18      1.0000 0.07560  0.57097  0.45068  Biso   1.000  O
  O19      1.0000 0.94287  0.93162  0.19507  Biso   1.000  O
  O20      1.0000 0.93644  0.81666  0.44469  Biso   1.000  O
  O21      1.0000 0.51601  0.60520  0.25167  Biso   1.000  O
  O22      1.0000 0.54289  0.63613  0.49907  Biso   1.000  O
  O23      1.0000 0.46961  0.88523  0.49948  Biso   1.000  O
  O24      1.0000 0.47398  0.86341  0.24919  Biso   1.000  O
  Zr13     1.0000 0.27469  0.51661  0.62472  Biso   1.000  Zr
  Zr14     1.0000 0.27180  0.73696  0.87700  Biso   1.000  Zr
  Zr15     1.0000 0.74400  0.76763  0.62437  Biso   1.000  Zr
  Zr16     1.0000 0.74382  0.98105  0.87553  Biso   1.000  Zr
  O25      1.0000 0.07042  0.68331  0.69902  Biso   1.000  O
  O26      1.0000 0.06431  0.56687  0.94741  Biso   1.000  O
  O27      1.0000 0.94152  0.93241  0.69628  Biso   1.000  O
  O28      1.0000 0.93253  0.81508  0.94715  Biso   1.000  O
  O29      1.0000 0.53559  0.62182  0.74746  Biso   1.000  O
  O30      1.0000 0.52882  0.63525  0.00007  Biso   1.000  O
  O31      1.0000 0.46453  0.88151  0.00037  Biso   1.000  O
  O32      1.0000 0.47090  0.86797  0.74992  Biso   1.000  O
  C1       1.0000 0.20091  0.25159  0.12901  Biso   1.000  C
