data_image0
_cell_length_a       10.0997
_cell_length_b       10.3679
_cell_length_c       10.4478
_cell_angle_alpha    89.9223
_cell_angle_beta     89.9025
_cell_angle_gamma    90.1667

_symmetry_space_group_name_H-M    "P 1"
_symmetry_int_tables_number       1

loop_
  _symmetry_equiv_pos_as_xyz
  'x, y, z'

loop_
  _atom_site_label
  _atom_site_occupancy
  _atom_site_fract_x
  _atom_site_fract_y
  _atom_site_fract_z
  _atom_site_thermal_displace_type
  _atom_site_B_iso_or_equiv
  _atom_site_type_symbol
  Zr1      1.0000 0.13826  0.02236  0.17136  Biso   1.000  Zr
  Zr2      1.0000 0.13881  0.23071  0.42158  Biso   1.000  Zr
  Zr3      1.0000 0.35561  0.27501  0.16673  Biso   1.000  Zr
  Zr4      1.0000 0.36395  0.47847  0.41837  Biso   1.000  Zr
  Zr5      1.0000 0.65097  0.01302  0.07289  Biso   1.000  Zr
  Zr6      1.0000 0.64429  0.23230  0.33924  Biso   1.000  Zr
  Zr7      1.0000 0.85914  0.27004  0.07976  Biso   1.000  Zr
  Zr8      1.0000 0.86312  0.47927  0.33024  Biso   1.000  Zr
  O1       1.0000 0.03400  0.17090  0.08831  Biso   1.000  O
  O2       1.0000 0.03394  0.08187  0.33839  Biso   1.000  O
  O3       1.0000 0.45626  0.43969  0.09810  Biso   1.000  O
  O4       1.0000 0.46778  0.32824  0.33151  Biso   1.000  O
  O5       1.0000 0.27465  0.12754  0.29449  Biso   1.000  O
  O6       1.0000 0.27292  0.12471  0.04400  Biso   1.000  O
  O7       1.0000 0.22326  0.37759  0.29448  Biso   1.000  O
  O8       1.0000 0.22140  0.37738  0.04226  Biso   1.000  O
  O9       1.0000 0.52040  0.15056  0.16544  Biso   1.000  O
  O10      1.0000 0.53594  0.08469  0.41537  Biso   1.000  O
  O11      1.0000 0.96455  0.41897  0.16411  Biso   1.000  O
  O12      1.0000 0.96520  0.33085  0.41518  Biso   1.000  O
  O13      1.0000 0.77775  0.12494  0.46048  Biso   1.000  O
  O14      1.0000 0.77009  0.12680  0.20903  Biso   1.000  O
  O15      1.0000 0.72543  0.37321  0.45922  Biso   1.000  O
  O16      1.0000 0.72074  0.37384  0.20787  Biso   1.000  O
  Zr9      1.0000 0.14185  0.02141  0.66998  Biso   1.000  Zr
  Zr10     1.0000 0.13792  0.22948  0.91991  Biso   1.000  Zr
  Zr11     1.0000 0.36364  0.27172  0.67191  Biso   1.000  Zr
  Zr12     1.0000 0.36129  0.48292  0.92169  Biso   1.000  Zr
  Zr13     1.0000 0.63936  0.02280  0.58435  Biso   1.000  Zr
  Zr14     1.0000 0.63662  0.23213  0.84259  Biso   1.000  Zr
  Zr15     1.0000 0.86290  0.27043  0.58553  Biso   1.000  Zr
  Zr16     1.0000 0.86283  0.48081  0.83084  Biso   1.000  Zr
  O17      1.0000 0.03664  0.17062  0.58939  Biso   1.000  O
  O18      1.0000 0.03856  0.07925  0.83620  Biso   1.000  O
  O19      1.0000 0.46862  0.41637  0.58243  Biso   1.000  O
  O20      1.0000 0.46723  0.33907  0.83479  Biso   1.000  O
  O21      1.0000 0.27864  0.12435  0.79468  Biso   1.000  O
  O22      1.0000 0.27715  0.12632  0.54425  Biso   1.000  O
  O23      1.0000 0.22505  0.37427  0.79371  Biso   1.000  O
  O24      1.0000 0.22655  0.37610  0.54377  Biso   1.000  O
  O25      1.0000 0.53529  0.16875  0.67031  Biso   1.000  O
  O26      1.0000 0.53661  0.06952  0.90935  Biso   1.000  O
  O27      1.0000 0.96667  0.42055  0.66363  Biso   1.000  O
  O28      1.0000 0.96560  0.33008  0.91257  Biso   1.000  O
  O29      1.0000 0.78930  0.11859  0.95414  Biso   1.000  O
  O30      1.0000 0.77601  0.12693  0.70986  Biso   1.000  O
  O31      1.0000 0.72975  0.38091  0.95782  Biso   1.000  O
  O32      1.0000 0.72458  0.37577  0.71000  Biso   1.000  O
  Zr17     1.0000 0.13922  0.52203  0.17085  Biso   1.000  Zr
  Zr18     1.0000 0.14084  0.72974  0.42048  Biso   1.000  Zr
  Zr19     1.0000 0.36358  0.77330  0.17077  Biso   1.000  Zr
  Zr20     1.0000 0.36239  0.98136  0.42049  Biso   1.000  Zr
  Zr21     1.0000 0.63723  0.52321  0.08216  Biso   1.000  Zr
  Zr22     1.0000 0.63984  0.73064  0.33117  Biso   1.000  Zr
  Zr23     1.0000 0.86402  0.76855  0.08063  Biso   1.000  Zr
  Zr24     1.0000 0.86206  0.97925  0.33104  Biso   1.000  Zr
  O33      1.0000 0.03524  0.66902  0.08762  Biso   1.000  O
  O34      1.0000 0.03482  0.58172  0.33692  Biso   1.000  O
  O35      1.0000 0.46809  0.91957  0.08537  Biso   1.000  O
  O36      1.0000 0.46697  0.83285  0.33842  Biso   1.000  O
  O37      1.0000 0.27670  0.62596  0.29394  Biso   1.000  O
  O38      1.0000 0.27518  0.62904  0.04408  Biso   1.000  O
  O39      1.0000 0.22593  0.87657  0.29437  Biso   1.000  O
  O40      1.0000 0.22453  0.87616  0.04478  Biso   1.000  O
  O41      1.0000 0.53892  0.67661  0.16304  Biso   1.000  O
  O42      1.0000 0.53691  0.58005  0.41229  Biso   1.000  O
  O43      1.0000 0.96541  0.92089  0.16318  Biso   1.000  O
  O44      1.0000 0.96657  0.83039  0.41219  Biso   1.000  O
  O45      1.0000 0.77708  0.62385  0.45734  Biso   1.000  O
  O46      1.0000 0.77641  0.62411  0.20738  Biso   1.000  O
  O47      1.0000 0.72534  0.87569  0.45730  Biso   1.000  O
  O48      1.0000 0.72871  0.87365  0.20722  Biso   1.000  O
  Zr25     1.0000 0.14079  0.52072  0.67017  Biso   1.000  Zr
  Zr26     1.0000 0.13986  0.72953  0.92016  Biso   1.000  Zr
  Zr27     1.0000 0.36309  0.77081  0.66949  Biso   1.000  Zr
  Zr28     1.0000 0.35862  0.97680  0.92067  Biso   1.000  Zr
  Zr29     1.0000 0.64022  0.52059  0.58138  Biso   1.000  Zr
  Zr30     1.0000 0.63967  0.72865  0.82935  Biso   1.000  Zr
  Zr31     1.0000 0.86300  0.77103  0.57921  Biso   1.000  Zr
  Zr32     1.0000 0.86526  0.97846  0.82761  Biso   1.000  Zr
  O49      1.0000 0.03664  0.66962  0.58683  Biso   1.000  O
  O50      1.0000 0.03720  0.58084  0.83746  Biso   1.000  O
  O51      1.0000 0.46653  0.92020  0.58714  Biso   1.000  O
  O52      1.0000 0.46557  0.82939  0.83630  Biso   1.000  O
  O53      1.0000 0.27746  0.62480  0.79349  Biso   1.000  O
  O54      1.0000 0.27813  0.62510  0.54302  Biso   1.000  O
  O55      1.0000 0.22510  0.87381  0.79334  Biso   1.000  O
  O56      1.0000 0.22627  0.87583  0.54349  Biso   1.000  O
  O57      1.0000 0.53553  0.66809  0.66274  Biso   1.000  O
  O58      1.0000 0.53612  0.58180  0.91408  Biso   1.000  O
  O59      1.0000 0.96829  0.91966  0.66069  Biso   1.000  O
  O60      1.0000 0.96788  0.83045  0.91387  Biso   1.000  O
  O61      1.0000 0.77662  0.62632  0.95661  Biso   1.000  O
  O62      1.0000 0.77716  0.62629  0.70671  Biso   1.000  O
  O63      1.0000 0.72804  0.87110  0.95503  Biso   1.000  O
  O64      1.0000 0.72592  0.87570  0.70587  Biso   1.000  O
  C1       1.0000 0.54412  0.21034  0.05553  Biso   1.000  C
