data_image0
_cell_length_a       10.1795
_cell_length_b       10.3983
_cell_length_c       10.4583
_cell_angle_alpha    90.1314
_cell_angle_beta     80.6872
_cell_angle_gamma    90.1937

_symmetry_space_group_name_H-M    "P 1"
_symmetry_int_tables_number       1

loop_
  _symmetry_equiv_pos_as_xyz
  'x, y, z'

loop_
  _atom_site_label
  _atom_site_occupancy
  _atom_site_fract_x
  _atom_site_fract_y
  _atom_site_fract_z
  _atom_site_thermal_displace_type
  _atom_site_B_iso_or_equiv
  _atom_site_type_symbol
  Zr1      1.0000 0.13750  0.02029  0.14671  Biso   1.000  Zr
  Zr2      1.0000 0.14060  0.22927  0.39471  Biso   1.000  Zr
  Zr3      1.0000 0.36404  0.26966  0.11614  Biso   1.000  Zr
  Zr4      1.0000 0.34872  0.48690  0.34756  Biso   1.000  Zr
  O1       1.0000 0.03509  0.17116  0.08398  Biso   1.000  O
  O2       1.0000 0.03484  0.07813  0.33395  Biso   1.000  O
  O3       1.0000 0.45940  0.43479  0.16114  Biso   1.000  O
  O4       1.0000 0.48087  0.35165  0.42092  Biso   1.000  O
  O5       1.0000 0.27172  0.12474  0.24335  Biso   1.000  O
  O6       1.0000 0.28113  0.12331  0.49142  Biso   1.000  O
  O7       1.0000 0.22488  0.37740  0.01127  Biso   1.000  O
  O8       1.0000 0.20913  0.37512  0.25707  Biso   1.000  O
  Zr5      1.0000 0.13675  0.02065  0.64623  Biso   1.000  Zr
  Zr6      1.0000 0.13799  0.22846  0.90047  Biso   1.000  Zr
  Zr7      1.0000 0.35554  0.26846  0.61444  Biso   1.000  Zr
  Zr8      1.0000 0.36126  0.47655  0.85876  Biso   1.000  Zr
  O9       1.0000 0.03929  0.17206  0.58210  Biso   1.000  O
  O10      1.0000 0.03613  0.07821  0.83295  Biso   1.000  O
  O11      1.0000 0.46298  0.41674  0.67135  Biso   1.000  O
  O12      1.0000 0.46319  0.32812  0.92365  Biso   1.000  O
  O13      1.0000 0.27452  0.12954  0.74435  Biso   1.000  O
  O14      1.0000 0.27575  0.12010  0.99424  Biso   1.000  O
  O15      1.0000 0.23051  0.37740  0.50882  Biso   1.000  O
  O16      1.0000 0.22211  0.37027  0.76220  Biso   1.000  O
  Zr9      1.0000 0.13518  0.52030  0.14247  Biso   1.000  Zr
  Zr10     1.0000 0.13505  0.73102  0.39643  Biso   1.000  Zr
  Zr11     1.0000 0.36020  0.77167  0.10448  Biso   1.000  Zr
  Zr12     1.0000 0.36319  0.97701  0.35674  Biso   1.000  Zr
  O17      1.0000 0.03505  0.67261  0.08093  Biso   1.000  O
  O18      1.0000 0.03491  0.57982  0.33192  Biso   1.000  O
  O19      1.0000 0.46113  0.92155  0.16842  Biso   1.000  O
  O20      1.0000 0.45798  0.82089  0.41794  Biso   1.000  O
  O21      1.0000 0.27145  0.63166  0.24027  Biso   1.000  O
  O22      1.0000 0.26974  0.62166  0.49209  Biso   1.000  O
  O23      1.0000 0.22318  0.87831  0.00981  Biso   1.000  O
  O24      1.0000 0.22290  0.87025  0.26007  Biso   1.000  O
  Zr13     1.0000 0.13762  0.52142  0.64599  Biso   1.000  Zr
  Zr14     1.0000 0.13743  0.72890  0.89510  Biso   1.000  Zr
  Zr15     1.0000 0.35997  0.76960  0.60569  Biso   1.000  Zr
  Zr16     1.0000 0.35994  0.97843  0.85656  Biso   1.000  Zr
  O25      1.0000 0.03353  0.67114  0.58394  Biso   1.000  O
  O26      1.0000 0.03566  0.57801  0.83207  Biso   1.000  O
  O27      1.0000 0.46103  0.92142  0.66734  Biso   1.000  O
  O28      1.0000 0.46262  0.82913  0.91766  Biso   1.000  O
  O29      1.0000 0.27510  0.62793  0.74134  Biso   1.000  O
  O30      1.0000 0.27466  0.62044  0.99069  Biso   1.000  O
  O31      1.0000 0.22270  0.88070  0.51041  Biso   1.000  O
  O32      1.0000 0.22292  0.87099  0.76011  Biso   1.000  O
  Zr17     1.0000 0.63843  0.01758  0.14663  Biso   1.000  Zr
  Zr18     1.0000 0.64517  0.22429  0.39176  Biso   1.000  Zr
  Zr19     1.0000 0.85974  0.27082  0.10457  Biso   1.000  Zr
  Zr20     1.0000 0.86132  0.47800  0.35584  Biso   1.000  Zr
  O33      1.0000 0.53600  0.16506  0.08095  Biso   1.000  O
  O34      1.0000 0.54671  0.05780  0.34088  Biso   1.000  O
  O35      1.0000 0.95953  0.42365  0.16622  Biso   1.000  O
  O36      1.0000 0.96377  0.32803  0.41846  Biso   1.000  O
  O37      1.0000 0.77790  0.12762  0.23910  Biso   1.000  O
  O38      1.0000 0.77753  0.11733  0.49165  Biso   1.000  O
  O39      1.0000 0.72259  0.37907  0.00986  Biso   1.000  O
  O40      1.0000 0.72495  0.37055  0.25930  Biso   1.000  O
  Zr21     1.0000 0.63618  0.02155  0.64332  Biso   1.000  Zr
  Zr22     1.0000 0.63705  0.22764  0.89625  Biso   1.000  Zr
  Zr23     1.0000 0.86170  0.26993  0.60515  Biso   1.000  Zr
  Zr24     1.0000 0.86034  0.47755  0.85533  Biso   1.000  Zr
  O41      1.0000 0.53362  0.17280  0.57685  Biso   1.000  O
  O42      1.0000 0.53408  0.08040  0.82854  Biso   1.000  O
  O43      1.0000 0.96361  0.42002  0.66878  Biso   1.000  O
  O44      1.0000 0.96290  0.32841  0.91891  Biso   1.000  O
  O45      1.0000 0.77434  0.12841  0.74039  Biso   1.000  O
  O46      1.0000 0.77532  0.12076  0.99039  Biso   1.000  O
  O47      1.0000 0.72545  0.37688  0.51039  Biso   1.000  O
  O48      1.0000 0.72391  0.36978  0.75982  Biso   1.000  O
  Zr25     1.0000 0.64048  0.52357  0.14444  Biso   1.000  Zr
  Zr26     1.0000 0.63610  0.72633  0.39553  Biso   1.000  Zr
  Zr27     1.0000 0.86046  0.77062  0.10444  Biso   1.000  Zr
  Zr28     1.0000 0.86010  0.97668  0.35504  Biso   1.000  Zr
  O49      1.0000 0.53737  0.67437  0.08176  Biso   1.000  O
  O50      1.0000 0.53290  0.57883  0.32958  Biso   1.000  O
  O51      1.0000 0.96243  0.92029  0.16872  Biso   1.000  O
  O52      1.0000 0.96042  0.82792  0.41972  Biso   1.000  O
  O53      1.0000 0.77505  0.62814  0.24162  Biso   1.000  O
  O54      1.0000 0.77360  0.61926  0.49162  Biso   1.000  O
  O55      1.0000 0.72355  0.87883  0.00880  Biso   1.000  O
  O56      1.0000 0.72453  0.86676  0.25854  Biso   1.000  O
  Zr29     1.0000 0.63798  0.51907  0.64599  Biso   1.000  Zr
  Zr30     1.0000 0.63769  0.72877  0.89494  Biso   1.000  Zr
  Zr31     1.0000 0.85812  0.77056  0.60587  Biso   1.000  Zr
  Zr32     1.0000 0.86003  0.97917  0.85477  Biso   1.000  Zr
  O57      1.0000 0.53441  0.66840  0.58316  Biso   1.000  O
  O58      1.0000 0.53590  0.57770  0.83283  Biso   1.000  O
  O59      1.0000 0.96198  0.92177  0.66774  Biso   1.000  O
  O60      1.0000 0.96215  0.82864  0.91707  Biso   1.000  O
  O61      1.0000 0.77464  0.62817  0.74129  Biso   1.000  O
  O62      1.0000 0.77539  0.62072  0.99046  Biso   1.000  O
  O63      1.0000 0.72104  0.87724  0.50956  Biso   1.000  O
  O64      1.0000 0.72201  0.87098  0.75880  Biso   1.000  O
  C1       1.0000 0.45513  0.28969  0.31830  Biso   1.000  C
