data_image0
_cell_length_a       5.08098
_cell_length_b       10.3153
_cell_length_c       10.1684
_cell_angle_alpha    89.1794
_cell_angle_beta     88.3517
_cell_angle_gamma    90.1078

_symmetry_space_group_name_H-M    "P 1"
_symmetry_int_tables_number       1

loop_
  _symmetry_equiv_pos_as_xyz
  'x, y, z'

loop_
  _atom_site_label
  _atom_site_occupancy
  _atom_site_fract_x
  _atom_site_fract_y
  _atom_site_fract_z
  _atom_site_thermal_displace_type
  _atom_site_B_iso_or_equiv
  _atom_site_type_symbol
  Zr1      1.0000 0.27553  0.99769  0.12698  Biso   1.000  Zr
  Zr2      1.0000 0.22102  0.26441  0.35023  Biso   1.000  Zr
  Zr3      1.0000 0.72804  0.23342  0.14156  Biso   1.000  Zr
  Zr4      1.0000 0.77773  0.99719  0.38764  Biso   1.000  Zr
  O1       1.0000 0.12784  0.17077  0.02829  Biso   1.000  O
  O2       1.0000 0.02534  0.10659  0.25389  Biso   1.000  O
  O3       1.0000 0.92517  0.37143  0.25133  Biso   1.000  O
  O4       1.0000 0.95022  0.39174  0.98188  Biso   1.000  O
  O5       1.0000 0.56077  0.15651  0.31293  Biso   1.000  O
  O6       1.0000 0.62283  0.07680  0.03364  Biso   1.000  O
  O7       1.0000 0.45210  0.32542  0.01295  Biso   1.000  O
  O8       1.0000 0.44397  0.41770  0.26540  Biso   1.000  O
  Zr5      1.0000 0.23075  0.00911  0.64049  Biso   1.000  Zr
  Zr6      1.0000 0.20311  0.26983  0.84693  Biso   1.000  Zr
  Zr7      1.0000 0.72809  0.24162  0.61204  Biso   1.000  Zr
  Zr8      1.0000 0.72400  0.98335  0.86791  Biso   1.000  Zr
  O9       1.0000 0.02909  0.14534  0.50557  Biso   1.000  O
  O10      1.0000 0.98435  0.11431  0.76641  Biso   1.000  O
  O11      1.0000 0.94390  0.36446  0.73285  Biso   1.000  O
  O12      1.0000 0.95594  0.39320  0.48866  Biso   1.000  O
  O13      1.0000 0.48549  0.14657  0.77245  Biso   1.000  O
  O14      1.0000 0.56515  0.06825  0.54666  Biso   1.000  O
  O15      1.0000 0.43644  0.32891  0.51691  Biso   1.000  O
  O16      1.0000 0.44502  0.40620  0.75882  Biso   1.000  O
  Zr9      1.0000 0.20244  0.47732  0.11294  Biso   1.000  Zr
  Zr10     1.0000 0.27846  0.74924  0.37478  Biso   1.000  Zr
  Zr11     1.0000 0.78830  0.76802  0.13166  Biso   1.000  Zr
  Zr12     1.0000 0.75037  0.51895  0.35711  Biso   1.000  Zr
  O17      1.0000 0.94123  0.65118  0.98467  Biso   1.000  O
  O18      1.0000 0.02693  0.61684  0.23747  Biso   1.000  O
  O19      1.0000 0.04006  0.86249  0.25336  Biso   1.000  O
  O20      1.0000 0.02676  0.90580  0.99863  Biso   1.000  O
  O21      1.0000 0.53735  0.66148  0.24747  Biso   1.000  O
  O22      1.0000 0.43086  0.58274  0.97897  Biso   1.000  O
  O23      1.0000 0.51331  0.84007  0.99639  Biso   1.000  O
  O24      1.0000 0.54199  0.90904  0.24570  Biso   1.000  O
  Zr13     1.0000 0.21801  0.48818  0.60386  Biso   1.000  Zr
  Zr14     1.0000 0.25172  0.74207  0.87463  Biso   1.000  Zr
  Zr15     1.0000 0.77464  0.75019  0.62101  Biso   1.000  Zr
  Zr16     1.0000 0.73685  0.51590  0.85845  Biso   1.000  Zr
  O25      1.0000 0.99572  0.64170  0.48801  Biso   1.000  O
  O26      1.0000 0.02345  0.60998  0.73998  Biso   1.000  O
  O27      1.0000 0.97709  0.85965  0.75441  Biso   1.000  O
  O28      1.0000 0.05675  0.89168  0.50577  Biso   1.000  O
  O29      1.0000 0.52809  0.65482  0.74759  Biso   1.000  O
  O30      1.0000 0.48484  0.59328  0.49526  Biso   1.000  O
  O31      1.0000 0.56555  0.83526  0.47969  Biso   1.000  O
  O32      1.0000 0.47021  0.89070  0.74978  Biso   1.000  O
  C1       1.0000 0.28778  0.25280  0.10477  Biso   1.000  C
