data_image0
_cell_length_a       10.1296
_cell_length_b       10.2658
_cell_length_c       5.25746
_cell_angle_alpha    89.7109
_cell_angle_beta     90.2348
_cell_angle_gamma    89.6993

_symmetry_space_group_name_H-M    "P 1"
_symmetry_int_tables_number       1

loop_
  _symmetry_equiv_pos_as_xyz
  'x, y, z'

loop_
  _atom_site_label
  _atom_site_occupancy
  _atom_site_fract_x
  _atom_site_fract_y
  _atom_site_fract_z
  _atom_site_thermal_displace_type
  _atom_site_B_iso_or_equiv
  _atom_site_type_symbol
  C1       1.0000 0.02000  0.05608  0.35197  Biso   1.000  C
  Zr1      1.0000 0.14210  0.52206  0.34593  Biso   1.000  Zr
  Zr2      1.0000 0.15663  0.22818  0.83901  Biso   1.000  Zr
  Zr3      1.0000 0.14827  0.73531  0.83938  Biso   1.000  Zr
  Zr4      1.0000 0.35713  0.26186  0.34355  Biso   1.000  Zr
  Zr5      1.0000 0.35621  0.77857  0.34259  Biso   1.000  Zr
  Zr6      1.0000 0.36270  0.47796  0.84594  Biso   1.000  Zr
  Zr7      1.0000 0.35772  0.97878  0.83872  Biso   1.000  Zr
  Zr8      1.0000 0.63536  0.02002  0.16053  Biso   1.000  Zr
  Zr9      1.0000 0.63423  0.52031  0.16534  Biso   1.000  Zr
  Zr10     1.0000 0.63644  0.22962  0.65969  Biso   1.000  Zr
  Zr11     1.0000 0.63528  0.72645  0.65483  Biso   1.000  Zr
  Zr12     1.0000 0.85598  0.27438  0.15938  Biso   1.000  Zr
  Zr13     1.0000 0.86174  0.76190  0.15021  Biso   1.000  Zr
  Zr14     1.0000 0.86900  0.47534  0.66140  Biso   1.000  Zr
  Zr15     1.0000 0.84931  0.97553  0.67590  Biso   1.000  Zr
  O1       1.0000 0.03263  0.13517  0.16486  Biso   1.000  O
  O2       1.0000 0.03455  0.67202  0.18041  Biso   1.000  O
  O3       1.0000 0.02914  0.09571  0.58486  Biso   1.000  O
  O4       1.0000 0.03468  0.58223  0.67365  Biso   1.000  O
  O5       1.0000 0.46715  0.41294  0.16970  Biso   1.000  O
  O6       1.0000 0.47373  0.91298  0.16261  Biso   1.000  O
  O7       1.0000 0.47073  0.33704  0.66733  Biso   1.000  O
  O8       1.0000 0.47669  0.84272  0.65414  Biso   1.000  O
  O9       1.0000 0.28200  0.12947  0.60199  Biso   1.000  O
  O10      1.0000 0.27853  0.62114  0.58933  Biso   1.000  O
  O11      1.0000 0.28915  0.13608  0.07172  Biso   1.000  O
  O12      1.0000 0.27482  0.62127  0.09291  Biso   1.000  O
  O13      1.0000 0.22560  0.37376  0.59335  Biso   1.000  O
  O14      1.0000 0.23054  0.86775  0.59501  Biso   1.000  O
  O15      1.0000 0.22137  0.37445  0.09041  Biso   1.000  O
  O16      1.0000 0.23754  0.86752  0.07267  Biso   1.000  O
  O17      1.0000 0.53608  0.16615  0.33463  Biso   1.000  O
  O18      1.0000 0.53304  0.66461  0.33582  Biso   1.000  O
  O19      1.0000 0.54004  0.08322  0.83270  Biso   1.000  O
  O20      1.0000 0.53397  0.58471  0.83796  Biso   1.000  O
  O21      1.0000 0.97288  0.40611  0.34196  Biso   1.000  O
  O22      1.0000 0.97383  0.94169  0.32408  Biso   1.000  O
  O23      1.0000 0.97140  0.32424  0.84862  Biso   1.000  O
  O24      1.0000 0.96874  0.84032  0.83144  Biso   1.000  O
  O25      1.0000 0.78132  0.12149  0.91711  Biso   1.000  O
  O26      1.0000 0.77859  0.62332  0.91726  Biso   1.000  O
  O27      1.0000 0.77768  0.12474  0.41470  Biso   1.000  O
  O28      1.0000 0.77796  0.62200  0.41449  Biso   1.000  O
  O29      1.0000 0.72803  0.37378  0.91368  Biso   1.000  O
  O30      1.0000 0.72338  0.87117  0.91347  Biso   1.000  O
  O31      1.0000 0.72746  0.37529  0.41113  Biso   1.000  O
  O32      1.0000 0.73863  0.87253  0.41164  Biso   1.000  O
