data_image0
_cell_length_a       10.0389
_cell_length_b       5.2272
_cell_length_c       10.1206
_cell_angle_alpha    90.3526
_cell_angle_beta     89.1364
_cell_angle_gamma    90.8216

_symmetry_space_group_name_H-M    "P 1"
_symmetry_int_tables_number       1

loop_
  _symmetry_equiv_pos_as_xyz
  'x, y, z'

loop_
  _atom_site_label
  _atom_site_occupancy
  _atom_site_fract_x
  _atom_site_fract_y
  _atom_site_fract_z
  _atom_site_thermal_displace_type
  _atom_site_B_iso_or_equiv
  _atom_site_type_symbol
  Zr1      1.0000 0.13603  0.04553  0.11593  Biso   1.000  Zr
  Zr2      1.0000 0.13524  0.45154  0.39752  Biso   1.000  Zr
  Zr3      1.0000 0.36040  0.51173  0.11970  Biso   1.000  Zr
  Zr4      1.0000 0.38007  0.97383  0.38016  Biso   1.000  Zr
  O1       1.0000 0.02401  0.35461  0.21981  Biso   1.000  O
  O2       1.0000 0.03480  0.13055  0.45359  Biso   1.000  O
  O3       1.0000 0.45243  0.85379  0.19739  Biso   1.000  O
  O4       1.0000 0.46711  0.62937  0.44387  Biso   1.000  O
  O5       1.0000 0.26281  0.20826  0.25837  Biso   1.000  O
  O6       1.0000 0.27664  0.25950  0.50621  Biso   1.000  O
  O7       1.0000 0.23389  0.76603  0.49201  Biso   1.000  O
  O8       1.0000 0.18295  0.67285  0.22025  Biso   1.000  O
  Zr5      1.0000 0.13814  0.02972  0.63084  Biso   1.000  Zr
  Zr6      1.0000 0.13612  0.47491  0.88554  Biso   1.000  Zr
  Zr7      1.0000 0.37161  0.52941  0.62855  Biso   1.000  Zr
  Zr8      1.0000 0.37572  0.96685  0.86975  Biso   1.000  Zr
  O9       1.0000 0.04131  0.37515  0.69128  Biso   1.000  O
  O10      1.0000 0.03474  0.14048  0.94638  Biso   1.000  O
  O11      1.0000 0.46777  0.86913  0.68718  Biso   1.000  O
  O12      1.0000 0.46924  0.62900  0.94544  Biso   1.000  O
  O13      1.0000 0.26919  0.23715  0.75266  Biso   1.000  O
  O14      1.0000 0.28916  0.24285  0.99011  Biso   1.000  O
  O15      1.0000 0.24026  0.77283  0.99328  Biso   1.000  O
  O16      1.0000 0.23265  0.73374  0.74746  Biso   1.000  O
  Zr9      1.0000 0.63147  0.03300  0.12751  Biso   1.000  Zr
  Zr10     1.0000 0.63957  0.47348  0.37377  Biso   1.000  Zr
  Zr11     1.0000 0.87474  0.55209  0.11341  Biso   1.000  Zr
  Zr12     1.0000 0.86590  0.97522  0.37216  Biso   1.000  Zr
  O17      1.0000 0.52634  0.35303  0.19952  Biso   1.000  O
  O18      1.0000 0.54086  0.13566  0.44870  Biso   1.000  O
  O19      1.0000 0.95579  0.89183  0.19019  Biso   1.000  O
  O20      1.0000 0.96757  0.63973  0.44672  Biso   1.000  O
  O21      1.0000 0.76484  0.23803  0.24927  Biso   1.000  O
  O22      1.0000 0.77243  0.27409  0.49894  Biso   1.000  O
  O23      1.0000 0.73295  0.77123  0.49759  Biso   1.000  O
  O24      1.0000 0.72772  0.73918  0.24663  Biso   1.000  O
  Zr13     1.0000 0.64133  0.03734  0.62617  Biso   1.000  Zr
  Zr14     1.0000 0.63838  0.47010  0.87795  Biso   1.000  Zr
  Zr15     1.0000 0.87256  0.53971  0.62749  Biso   1.000  Zr
  Zr16     1.0000 0.86239  0.97747  0.87299  Biso   1.000  Zr
  O25      1.0000 0.53644  0.36534  0.69872  Biso   1.000  O
  O26      1.0000 0.54460  0.12667  0.94374  Biso   1.000  O
  O27      1.0000 0.96357  0.88045  0.69271  Biso   1.000  O
  O28      1.0000 0.95283  0.63660  0.91964  Biso   1.000  O
  O29      1.0000 0.77290  0.24427  0.74859  Biso   1.000  O
  O30      1.0000 0.77081  0.26859  0.00090  Biso   1.000  O
  O31      1.0000 0.73063  0.76940  0.99966  Biso   1.000  O
  O32      1.0000 0.72872  0.74316  0.74797  Biso   1.000  O
  C1       1.0000 0.10488  0.50264  0.13338  Biso   1.000  C
