data_image0
_cell_length_a       10.1156
_cell_length_b       10.2749
_cell_length_c       10.5316
_cell_angle_alpha    89.9097
_cell_angle_beta     90.0879
_cell_angle_gamma    89.9126

_symmetry_space_group_name_H-M    "P 1"
_symmetry_int_tables_number       1

loop_
  _symmetry_equiv_pos_as_xyz
  'x, y, z'

loop_
  _atom_site_label
  _atom_site_occupancy
  _atom_site_fract_x
  _atom_site_fract_y
  _atom_site_fract_z
  _atom_site_thermal_displace_type
  _atom_site_B_iso_or_equiv
  _atom_site_type_symbol
  C1       1.0000 0.01860  0.06182  0.17941  Biso   1.000  C
  Zr1      1.0000 0.14017  0.01920  0.67030  Biso   1.000  Zr
  Zr2      1.0000 0.14005  0.52074  0.17207  Biso   1.000  Zr
  Zr3      1.0000 0.14008  0.52229  0.67270  Biso   1.000  Zr
  Zr4      1.0000 0.14751  0.23131  0.42168  Biso   1.000  Zr
  Zr5      1.0000 0.14801  0.22574  0.91992  Biso   1.000  Zr
  Zr6      1.0000 0.14245  0.73037  0.41900  Biso   1.000  Zr
  Zr7      1.0000 0.14449  0.73183  0.92308  Biso   1.000  Zr
  Zr8      1.0000 0.35498  0.26268  0.17198  Biso   1.000  Zr
  Zr9      1.0000 0.36358  0.27055  0.67174  Biso   1.000  Zr
  Zr10     1.0000 0.35655  0.77771  0.17247  Biso   1.000  Zr
  Zr11     1.0000 0.36236  0.77133  0.67113  Biso   1.000  Zr
  Zr12     1.0000 0.36304  0.47929  0.41989  Biso   1.000  Zr
  Zr13     1.0000 0.36094  0.47663  0.92446  Biso   1.000  Zr
  Zr14     1.0000 0.35801  0.97961  0.41726  Biso   1.000  Zr
  Zr15     1.0000 0.36084  0.97842  0.92474  Biso   1.000  Zr
  Zr16     1.0000 0.63924  0.02162  0.07773  Biso   1.000  Zr
  Zr17     1.0000 0.63534  0.01943  0.58082  Biso   1.000  Zr
  Zr18     1.0000 0.63256  0.52192  0.08098  Biso   1.000  Zr
  Zr19     1.0000 0.64051  0.51968  0.58014  Biso   1.000  Zr
  Zr20     1.0000 0.63508  0.22934  0.32932  Biso   1.000  Zr
  Zr21     1.0000 0.63988  0.22801  0.82856  Biso   1.000  Zr
  Zr22     1.0000 0.63620  0.72667  0.32745  Biso   1.000  Zr
  Zr23     1.0000 0.63785  0.72876  0.82858  Biso   1.000  Zr
  Zr24     1.0000 0.85267  0.27713  0.07912  Biso   1.000  Zr
  Zr25     1.0000 0.86445  0.26864  0.57672  Biso   1.000  Zr
  Zr26     1.0000 0.86102  0.76542  0.07287  Biso   1.000  Zr
  Zr27     1.0000 0.86236  0.76834  0.58068  Biso   1.000  Zr
  Zr28     1.0000 0.86306  0.47898  0.32940  Biso   1.000  Zr
  Zr29     1.0000 0.86657  0.47497  0.82937  Biso   1.000  Zr
  Zr30     1.0000 0.84912  0.97583  0.33869  Biso   1.000  Zr
  Zr31     1.0000 0.86313  0.97892  0.82790  Biso   1.000  Zr
  O1       1.0000 0.03267  0.14674  0.09226  Biso   1.000  O
  O2       1.0000 0.02819  0.14838  0.56343  Biso   1.000  O
  O3       1.0000 0.03370  0.67163  0.08801  Biso   1.000  O
  O4       1.0000 0.03195  0.66211  0.58271  Biso   1.000  O
  O5       1.0000 0.02770  0.09525  0.29770  Biso   1.000  O
  O6       1.0000 0.03206  0.08987  0.82893  Biso   1.000  O
  O7       1.0000 0.03166  0.58735  0.33239  Biso   1.000  O
  O8       1.0000 0.03378  0.58321  0.83424  Biso   1.000  O
  O9       1.0000 0.46582  0.41129  0.08359  Biso   1.000  O
  O10      1.0000 0.46947  0.41356  0.58230  Biso   1.000  O
  O11      1.0000 0.47502  0.91266  0.08135  Biso   1.000  O
  O12      1.0000 0.46740  0.91259  0.58075  Biso   1.000  O
  O13      1.0000 0.46939  0.33840  0.33208  Biso   1.000  O
  O14      1.0000 0.47026  0.33605  0.83197  Biso   1.000  O
  O15      1.0000 0.47642  0.84431  0.32717  Biso   1.000  O
  O16      1.0000 0.47025  0.83674  0.82971  Biso   1.000  O
  O17      1.0000 0.28247  0.13293  0.30848  Biso   1.000  O
  O18      1.0000 0.27579  0.12193  0.79150  Biso   1.000  O
  O19      1.0000 0.27710  0.62185  0.29470  Biso   1.000  O
  O20      1.0000 0.27684  0.62257  0.79552  Biso   1.000  O
  O21      1.0000 0.28841  0.13702  0.03199  Biso   1.000  O
  O22      1.0000 0.27610  0.12589  0.54892  Biso   1.000  O
  O23      1.0000 0.27391  0.62048  0.04692  Biso   1.000  O
  O24      1.0000 0.27614  0.62554  0.54515  Biso   1.000  O
  O25      1.0000 0.22387  0.37639  0.29512  Biso   1.000  O
  O26      1.0000 0.22602  0.37102  0.79644  Biso   1.000  O
  O27      1.0000 0.23109  0.86651  0.30265  Biso   1.000  O
  O28      1.0000 0.22525  0.87313  0.79246  Biso   1.000  O
  O29      1.0000 0.21944  0.37475  0.04668  Biso   1.000  O
  O30      1.0000 0.22582  0.37444  0.54419  Biso   1.000  O
  O31      1.0000 0.23915  0.86547  0.03539  Biso   1.000  O
  O32      1.0000 0.22388  0.87593  0.54617  Biso   1.000  O
  O33      1.0000 0.53338  0.16385  0.16792  Biso   1.000  O
  O34      1.0000 0.53302  0.16351  0.66875  Biso   1.000  O
  O35      1.0000 0.52987  0.66396  0.16921  Biso   1.000  O
  O36      1.0000 0.53414  0.66267  0.66802  Biso   1.000  O
  O37      1.0000 0.53413  0.08580  0.41895  Biso   1.000  O
  O38      1.0000 0.53771  0.08424  0.91671  Biso   1.000  O
  O39      1.0000 0.53330  0.58652  0.41926  Biso   1.000  O
  O40      1.0000 0.53165  0.58544  0.91882  Biso   1.000  O
  O41      1.0000 0.96801  0.41116  0.16879  Biso   1.000  O
  O42      1.0000 0.97437  0.40496  0.67221  Biso   1.000  O
  O43      1.0000 0.97353  0.94786  0.16003  Biso   1.000  O
  O44      1.0000 0.96863  0.91058  0.66937  Biso   1.000  O
  O45      1.0000 0.97059  0.33522  0.41757  Biso   1.000  O
  O46      1.0000 0.97034  0.33113  0.92672  Biso   1.000  O
  O47      1.0000 0.96836  0.84150  0.41541  Biso   1.000  O
  O48      1.0000 0.96988  0.83601  0.91903  Biso   1.000  O
  O49      1.0000 0.77959  0.12549  0.95646  Biso   1.000  O
  O50      1.0000 0.77545  0.12107  0.45591  Biso   1.000  O
  O51      1.0000 0.77671  0.62469  0.95752  Biso   1.000  O
  O52      1.0000 0.77667  0.62307  0.45590  Biso   1.000  O
  O53      1.0000 0.77675  0.12666  0.20701  Biso   1.000  O
  O54      1.0000 0.77618  0.12434  0.70450  Biso   1.000  O
  O55      1.0000 0.77471  0.62450  0.20468  Biso   1.000  O
  O56      1.0000 0.77813  0.62352  0.70705  Biso   1.000  O
  O57      1.0000 0.72498  0.37561  0.95533  Biso   1.000  O
  O58      1.0000 0.72736  0.37202  0.45580  Biso   1.000  O
  O59      1.0000 0.72672  0.87431  0.95439  Biso   1.000  O
  O60      1.0000 0.72218  0.87129  0.45724  Biso   1.000  O
  O61      1.0000 0.72291  0.37693  0.20474  Biso   1.000  O
  O62      1.0000 0.72882  0.37441  0.70483  Biso   1.000  O
  O63      1.0000 0.73829  0.87446  0.20555  Biso   1.000  O
  O64      1.0000 0.72590  0.87403  0.70528  Biso   1.000  O
