data_image0
_cell_length_a       10.1051
_cell_length_b       10.4177
_cell_length_c       5.20257
_cell_angle_alpha    89.7774
_cell_angle_beta     89.7578
_cell_angle_gamma    90.4191

_symmetry_space_group_name_H-M    "P 1"
_symmetry_int_tables_number       1

loop_
  _symmetry_equiv_pos_as_xyz
  'x, y, z'

loop_
  _atom_site_label
  _atom_site_occupancy
  _atom_site_fract_x
  _atom_site_fract_y
  _atom_site_fract_z
  _atom_site_thermal_displace_type
  _atom_site_B_iso_or_equiv
  _atom_site_type_symbol
  Zr1      1.0000 0.14161  0.02249  0.34019  Biso   1.000  Zr
  Zr2      1.0000 0.13774  0.23091  0.84071  Biso   1.000  Zr
  Zr3      1.0000 0.35652  0.27664  0.33568  Biso   1.000  Zr
  Zr4      1.0000 0.36367  0.48276  0.83820  Biso   1.000  Zr
  Zr5      1.0000 0.65223  0.01390  0.15285  Biso   1.000  Zr
  Zr6      1.0000 0.64058  0.23506  0.70915  Biso   1.000  Zr
  Zr7      1.0000 0.86105  0.26900  0.17400  Biso   1.000  Zr
  Zr8      1.0000 0.86418  0.48054  0.66516  Biso   1.000  Zr
  O1       1.0000 0.03752  0.17407  0.18503  Biso   1.000  O
  O2       1.0000 0.03926  0.07823  0.67821  Biso   1.000  O
  O3       1.0000 0.45680  0.44113  0.19365  Biso   1.000  O
  O4       1.0000 0.46688  0.33245  0.66508  Biso   1.000  O
  O5       1.0000 0.27746  0.12783  0.58827  Biso   1.000  O
  O6       1.0000 0.27522  0.12587  0.08622  Biso   1.000  O
  O7       1.0000 0.22345  0.37807  0.58694  Biso   1.000  O
  O8       1.0000 0.22327  0.37779  0.08290  Biso   1.000  O
  O9       1.0000 0.52199  0.15288  0.33713  Biso   1.000  O
  O10      1.0000 0.54068  0.06984  0.81434  Biso   1.000  O
  O11      1.0000 0.96467  0.42178  0.32694  Biso   1.000  O
  O12      1.0000 0.96463  0.32829  0.82643  Biso   1.000  O
  O13      1.0000 0.79250  0.11891  0.91662  Biso   1.000  O
  O14      1.0000 0.76958  0.12679  0.42479  Biso   1.000  O
  O15      1.0000 0.73148  0.38008  0.92685  Biso   1.000  O
  O16      1.0000 0.72076  0.37330  0.42780  Biso   1.000  O
  Zr9      1.0000 0.14056  0.52212  0.34001  Biso   1.000  Zr
  Zr10     1.0000 0.14179  0.73064  0.83873  Biso   1.000  Zr
  Zr11     1.0000 0.36564  0.77302  0.33798  Biso   1.000  Zr
  Zr12     1.0000 0.36079  0.97952  0.83943  Biso   1.000  Zr
  Zr13     1.0000 0.63879  0.52270  0.16997  Biso   1.000  Zr
  Zr14     1.0000 0.64067  0.72997  0.66262  Biso   1.000  Zr
  Zr15     1.0000 0.86584  0.76864  0.16142  Biso   1.000  Zr
  Zr16     1.0000 0.86588  0.97916  0.65841  Biso   1.000  Zr
  O17      1.0000 0.03819  0.67173  0.17865  Biso   1.000  O
  O18      1.0000 0.03798  0.58015  0.67839  Biso   1.000  O
  O19      1.0000 0.46845  0.92328  0.17492  Biso   1.000  O
  O20      1.0000 0.46579  0.82826  0.68003  Biso   1.000  O
  O21      1.0000 0.27823  0.62647  0.58505  Biso   1.000  O
  O22      1.0000 0.27721  0.62868  0.08413  Biso   1.000  O
  O23      1.0000 0.22735  0.87632  0.58558  Biso   1.000  O
  O24      1.0000 0.22705  0.87647  0.08667  Biso   1.000  O
  O25      1.0000 0.54131  0.67829  0.31998  Biso   1.000  O
  O26      1.0000 0.54013  0.57735  0.82088  Biso   1.000  O
  O27      1.0000 0.96755  0.92328  0.31768  Biso   1.000  O
  O28      1.0000 0.96803  0.82838  0.82216  Biso   1.000  O
  O29      1.0000 0.77772  0.62605  0.91729  Biso   1.000  O
  O30      1.0000 0.77762  0.62417  0.41763  Biso   1.000  O
  O31      1.0000 0.72897  0.87231  0.91368  Biso   1.000  O
  O32      1.0000 0.73080  0.87291  0.41489  Biso   1.000  O
  C1       1.0000 0.54703  0.21230  0.12045  Biso   1.000  C
