data_image0
_cell_length_a       10.1011
_cell_length_b       5.0847
_cell_length_c       10.2521
_cell_angle_alpha    89.2278
_cell_angle_beta     90.479
_cell_angle_gamma    92.3879

_symmetry_space_group_name_H-M    "P 1"
_symmetry_int_tables_number       1

loop_
  _symmetry_equiv_pos_as_xyz
  'x, y, z'

loop_
  _atom_site_label
  _atom_site_occupancy
  _atom_site_fract_x
  _atom_site_fract_y
  _atom_site_fract_z
  _atom_site_thermal_displace_type
  _atom_site_B_iso_or_equiv
  _atom_site_type_symbol
  Zr1      1.0000 0.12912  0.92170  0.13686  Biso   1.000  Zr
  Zr2      1.0000 0.13433  0.49141  0.38248  Biso   1.000  Zr
  Zr3      1.0000 0.33589  0.44755  0.11238  Biso   1.000  Zr
  Zr4      1.0000 0.38260  0.01213  0.37509  Biso   1.000  Zr
  O1       1.0000 0.00527  0.37060  0.98963  Biso   1.000  O
  O2       1.0000 0.01029  0.27144  0.20919  Biso   1.000  O
  O3       1.0000 0.00238  0.76243  0.28992  Biso   1.000  O
  O4       1.0000 0.96191  0.87995  0.03397  Biso   1.000  O
  O5       1.0000 0.24486  0.19861  0.26275  Biso   1.000  O
  O6       1.0000 0.24272  0.17868  0.99307  Biso   1.000  O
  O7       1.0000 0.23793  0.70900  0.97665  Biso   1.000  O
  O8       1.0000 0.26793  0.71157  0.24647  Biso   1.000  O
  Zr5      1.0000 0.13098  0.98187  0.61505  Biso   1.000  Zr
  Zr6      1.0000 0.13762  0.46980  0.84257  Biso   1.000  Zr
  Zr7      1.0000 0.38942  0.49222  0.62355  Biso   1.000  Zr
  Zr8      1.0000 0.37330  0.96779  0.87445  Biso   1.000  Zr
  O9       1.0000 0.02652  0.16763  0.46410  Biso   1.000  O
  O10      1.0000 0.99626  0.24169  0.73044  Biso   1.000  O
  O11      1.0000 0.00718  0.75729  0.77756  Biso   1.000  O
  O12      1.0000 0.02658  0.65617  0.53700  Biso   1.000  O
  O13      1.0000 0.25336  0.21333  0.75024  Biso   1.000  O
  O14      1.0000 0.26366  0.26804  0.50936  Biso   1.000  O
  O15      1.0000 0.25692  0.77098  0.48478  Biso   1.000  O
  O16      1.0000 0.26022  0.72206  0.72769  Biso   1.000  O
  Zr9      1.0000 0.61106  0.01215  0.12344  Biso   1.000  Zr
  Zr10     1.0000 0.62442  0.52618  0.36919  Biso   1.000  Zr
  Zr11     1.0000 0.86575  0.54837  0.12556  Biso   1.000  Zr
  Zr12     1.0000 0.86291  0.01930  0.37136  Biso   1.000  Zr
  O17      1.0000 0.49213  0.23831  0.98180  Biso   1.000  O
  O18      1.0000 0.49495  0.29298  0.22956  Biso   1.000  O
  O19      1.0000 0.51989  0.80844  0.28157  Biso   1.000  O
  O20      1.0000 0.48024  0.74311  0.02812  Biso   1.000  O
  O21      1.0000 0.75243  0.29011  0.27333  Biso   1.000  O
  O22      1.0000 0.74816  0.26343  0.02043  Biso   1.000  O
  O23      1.0000 0.72941  0.76955  0.98373  Biso   1.000  O
  O24      1.0000 0.75157  0.79434  0.23234  Biso   1.000  O
  Zr13     1.0000 0.62950  0.01577  0.62847  Biso   1.000  Zr
  Zr14     1.0000 0.61874  0.49562  0.88630  Biso   1.000  Zr
  Zr15     1.0000 0.86959  0.52276  0.64105  Biso   1.000  Zr
  Zr16     1.0000 0.87000  0.01915  0.87652  Biso   1.000  Zr
  O25      1.0000 0.51574  0.25688  0.48471  Biso   1.000  O
  O26      1.0000 0.50022  0.23542  0.73288  Biso   1.000  O
  O27      1.0000 0.50775  0.73885  0.77162  Biso   1.000  O
  O28      1.0000 0.51027  0.75393  0.52246  Biso   1.000  O
  O29      1.0000 0.74620  0.28513  0.77400  Biso   1.000  O
  O30      1.0000 0.77079  0.23998  0.52606  Biso   1.000  O
  O31      1.0000 0.76340  0.74498  0.48623  Biso   1.000  O
  O32      1.0000 0.76048  0.79043  0.73682  Biso   1.000  O
  C1       1.0000 0.07154  0.43821  0.11161  Biso   1.000  C
