data_image0
_cell_length_a       5.09017
_cell_length_b       10.43
_cell_length_c       10.4427
_cell_angle_alpha    90.2683
_cell_angle_beta     80.9571
_cell_angle_gamma    90.4267

_symmetry_space_group_name_H-M    "P 1"
_symmetry_int_tables_number       1

loop_
  _symmetry_equiv_pos_as_xyz
  'x, y, z'

loop_
  _atom_site_label
  _atom_site_occupancy
  _atom_site_fract_x
  _atom_site_fract_y
  _atom_site_fract_z
  _atom_site_thermal_displace_type
  _atom_site_B_iso_or_equiv
  _atom_site_type_symbol
  Zr1      1.0000 0.27489  0.01665  0.14798  Biso   1.000  Zr
  Zr2      1.0000 0.29529  0.22561  0.39153  Biso   1.000  Zr
  Zr3      1.0000 0.72608  0.26988  0.11511  Biso   1.000  Zr
  Zr4      1.0000 0.69733  0.48601  0.34823  Biso   1.000  Zr
  O1       1.0000 0.07012  0.16554  0.08329  Biso   1.000  O
  O2       1.0000 0.09074  0.05735  0.34279  Biso   1.000  O
  O3       1.0000 0.90943  0.43685  0.15806  Biso   1.000  O
  O4       1.0000 0.96400  0.35293  0.42359  Biso   1.000  O
  O5       1.0000 0.54866  0.12364  0.24128  Biso   1.000  O
  O6       1.0000 0.56505  0.11973  0.49248  Biso   1.000  O
  O7       1.0000 0.44689  0.37727  0.01135  Biso   1.000  O
  O8       1.0000 0.42051  0.37575  0.25606  Biso   1.000  O
  Zr5      1.0000 0.26786  0.02077  0.64372  Biso   1.000  Zr
  Zr6      1.0000 0.27254  0.22697  0.90122  Biso   1.000  Zr
  Zr7      1.0000 0.71176  0.26691  0.61575  Biso   1.000  Zr
  Zr8      1.0000 0.72057  0.47537  0.85953  Biso   1.000  Zr
  O9       1.0000 0.07267  0.17381  0.57724  Biso   1.000  O
  O10      1.0000 0.06789  0.07905  0.82963  Biso   1.000  O
  O11      1.0000 0.92572  0.41573  0.67244  Biso   1.000  O
  O12      1.0000 0.92425  0.32661  0.92347  Biso   1.000  O
  O13      1.0000 0.54529  0.12860  0.74407  Biso   1.000  O
  O14      1.0000 0.55040  0.11973  0.99370  Biso   1.000  O
  O15      1.0000 0.46472  0.37492  0.51001  Biso   1.000  O
  O16      1.0000 0.44384  0.36892  0.76265  Biso   1.000  O
  Zr9      1.0000 0.27240  0.52246  0.14132  Biso   1.000  Zr
  Zr10     1.0000 0.26449  0.72848  0.39626  Biso   1.000  Zr
  Zr11     1.0000 0.71872  0.77087  0.10433  Biso   1.000  Zr
  Zr12     1.0000 0.72486  0.97517  0.35692  Biso   1.000  Zr
  O17      1.0000 0.07200  0.67632  0.08107  Biso   1.000  O
  O18      1.0000 0.06212  0.57964  0.32907  Biso   1.000  O
  O19      1.0000 0.91995  0.92111  0.16851  Biso   1.000  O
  O20      1.0000 0.90938  0.81962  0.41895  Biso   1.000  O
  O21      1.0000 0.54047  0.63061  0.24098  Biso   1.000  O
  O22      1.0000 0.53376  0.61977  0.49276  Biso   1.000  O
  O23      1.0000 0.44551  0.87802  0.00933  Biso   1.000  O
  O24      1.0000 0.44704  0.86628  0.25931  Biso   1.000  O
  Zr13     1.0000 0.27306  0.51921  0.64679  Biso   1.000  Zr
  Zr14     1.0000 0.27230  0.72908  0.89466  Biso   1.000  Zr
  Zr15     1.0000 0.71358  0.76878  0.60664  Biso   1.000  Zr
  Zr16     1.0000 0.71752  0.97861  0.85661  Biso   1.000  Zr
  O25      1.0000 0.06277  0.66844  0.58522  Biso   1.000  O
  O26      1.0000 0.07052  0.57637  0.83350  Biso   1.000  O
  O27      1.0000 0.91847  0.92210  0.66638  Biso   1.000  O
  O28      1.0000 0.92170  0.82832  0.91613  Biso   1.000  O
  O29      1.0000 0.54709  0.62698  0.74175  Biso   1.000  O
  O30      1.0000 0.54739  0.62015  0.99036  Biso   1.000  O
  O31      1.0000 0.43968  0.87884  0.51056  Biso   1.000  O
  O32      1.0000 0.44175  0.87091  0.75950  Biso   1.000  O
  C1       1.0000 0.90961  0.28937  0.32289  Biso   1.000  C
