data_image0
_cell_length_a       10.0363
_cell_length_b       5.08437
_cell_length_c       10.0363
_cell_angle_alpha    90.0013
_cell_angle_beta     89.997
_cell_angle_gamma    89.9998

_symmetry_space_group_name_H-M    "P 1"
_symmetry_int_tables_number       1

loop_
  _symmetry_equiv_pos_as_xyz
  'x, y, z'

loop_
  _atom_site_label
  _atom_site_occupancy
  _atom_site_fract_x
  _atom_site_fract_y
  _atom_site_fract_z
  _atom_site_thermal_displace_type
  _atom_site_B_iso_or_equiv
  _atom_site_type_symbol
  Ca1      1.0000 0.12490  0.99984  0.12491  Biso   1.000  Ca
  Hf1      1.0000 0.12490  0.99985  0.62490  Biso   1.000  Hf
  Hf2      1.0000 0.62491  0.99984  0.12490  Biso   1.000  Hf
  Hf3      1.0000 0.62490  0.99986  0.62490  Biso   1.000  Hf
  Hf4      1.0000 0.12490  0.49984  0.37270  Biso   1.000  Hf
  Hf5      1.0000 0.12490  0.49985  0.87711  Biso   1.000  Hf
  Hf6      1.0000 0.62490  0.49985  0.37468  Biso   1.000  Hf
  Hf7      1.0000 0.62490  0.49984  0.87513  Biso   1.000  Hf
  Hf8      1.0000 0.37270  0.49985  0.12490  Biso   1.000  Hf
  Hf9      1.0000 0.37468  0.49986  0.62490  Biso   1.000  Hf
  Hf10     1.0000 0.87711  0.49983  0.12491  Biso   1.000  Hf
  Hf11     1.0000 0.87512  0.49986  0.62490  Biso   1.000  Hf
  Hf12     1.0000 0.37319  0.99841  0.37319  Biso   1.000  Hf
  Hf13     1.0000 0.37320  0.00126  0.87661  Biso   1.000  Hf
  Hf14     1.0000 0.87661  0.00126  0.37319  Biso   1.000  Hf
  Hf15     1.0000 0.87662  0.99841  0.87661  Biso   1.000  Hf
  O1       1.0000 0.99608  0.27896  0.99609  Biso   1.000  O
  O2       1.0000 0.00437  0.28593  0.50624  Biso   1.000  O
  O3       1.0000 0.50623  0.28592  0.00437  Biso   1.000  O
  O4       1.0000 0.50335  0.29125  0.50335  Biso   1.000  O
  O5       1.0000 0.99091  0.24247  0.25890  Biso   1.000  O
  O6       1.0000 0.99744  0.21257  0.75114  Biso   1.000  O
  O7       1.0000 0.49868  0.21253  0.25238  Biso   1.000  O
  O8       1.0000 0.49801  0.20924  0.75182  Biso   1.000  O
  O9       1.0000 0.99608  0.72071  0.25373  Biso   1.000  O
  O10      1.0000 0.00435  0.71380  0.74359  Biso   1.000  O
  O11      1.0000 0.50622  0.71377  0.24545  Biso   1.000  O
  O12      1.0000 0.50332  0.70848  0.74648  Biso   1.000  O
  O13      1.0000 0.99092  0.75722  0.99092  Biso   1.000  O
  O14      1.0000 0.99743  0.78717  0.49869  Biso   1.000  O
  O15      1.0000 0.49868  0.78717  0.99744  Biso   1.000  O
  O16      1.0000 0.49799  0.79049  0.49800  Biso   1.000  O
  O17      1.0000 0.25373  0.27897  0.25373  Biso   1.000  O
  O18      1.0000 0.24546  0.28592  0.74358  Biso   1.000  O
  O19      1.0000 0.74359  0.28590  0.24546  Biso   1.000  O
  O20      1.0000 0.74648  0.29123  0.74647  Biso   1.000  O
  O21      1.0000 0.25889  0.24247  0.99091  Biso   1.000  O
  O22      1.0000 0.25238  0.21253  0.49868  Biso   1.000  O
  O23      1.0000 0.75113  0.21254  0.99744  Biso   1.000  O
  O24      1.0000 0.75182  0.20923  0.49801  Biso   1.000  O
  O25      1.0000 0.25373  0.72072  0.99609  Biso   1.000  O
  O26      1.0000 0.24544  0.71377  0.50623  Biso   1.000  O
  O27      1.0000 0.74359  0.71377  0.00436  Biso   1.000  O
  O28      1.0000 0.74646  0.70848  0.50334  Biso   1.000  O
  O29      1.0000 0.25889  0.75724  0.25889  Biso   1.000  O
  O30      1.0000 0.25236  0.78717  0.75114  Biso   1.000  O
  O31      1.0000 0.75113  0.78716  0.25237  Biso   1.000  O
  O32      1.0000 0.75180  0.79048  0.75181  Biso   1.000  O
