data_image0
_cell_length_a       10.1435
_cell_length_b       10.2997
_cell_length_c       10.5336
_cell_angle_alpha    89.8675
_cell_angle_beta     79.6469
_cell_angle_gamma    90.0779

_symmetry_space_group_name_H-M    "P 1"
_symmetry_int_tables_number       1

loop_
  _symmetry_equiv_pos_as_xyz
  'x, y, z'

loop_
  _atom_site_label
  _atom_site_occupancy
  _atom_site_fract_x
  _atom_site_fract_y
  _atom_site_fract_z
  _atom_site_thermal_displace_type
  _atom_site_B_iso_or_equiv
  _atom_site_type_symbol
  Hf1      1.0000 0.13599  0.02064  0.14607  Biso   1.000  Hf
  Hf2      1.0000 0.13468  0.22750  0.39498  Biso   1.000  Hf
  Hf3      1.0000 0.34376  0.27331  0.08046  Biso   1.000  Hf
  Hf4      1.0000 0.35848  0.48933  0.35684  Biso   1.000  Hf
  O1       1.0000 0.03415  0.16796  0.07678  Biso   1.000  O
  O2       1.0000 0.03210  0.08241  0.32831  Biso   1.000  O
  O3       1.0000 0.46162  0.41967  0.16934  Biso   1.000  O
  O4       1.0000 0.47623  0.35333  0.43696  Biso   1.000  O
  O5       1.0000 0.27447  0.12433  0.23439  Biso   1.000  O
  O6       1.0000 0.28638  0.12743  0.48031  Biso   1.000  O
  O7       1.0000 0.21105  0.38613  0.00145  Biso   1.000  O
  O8       1.0000 0.22896  0.36596  0.25750  Biso   1.000  O
  Hf5      1.0000 0.13959  0.02206  0.64423  Biso   1.000  Hf
  Hf6      1.0000 0.13313  0.22801  0.89048  Biso   1.000  Hf
  Hf7      1.0000 0.36145  0.27663  0.60463  Biso   1.000  Hf
  Hf8      1.0000 0.35853  0.48308  0.85151  Biso   1.000  Hf
  O9       1.0000 0.03969  0.17009  0.57987  Biso   1.000  O
  O10      1.0000 0.03274  0.08148  0.82683  Biso   1.000  O
  O11      1.0000 0.46617  0.41837  0.67676  Biso   1.000  O
  O12      1.0000 0.46407  0.33563  0.91679  Biso   1.000  O
  O13      1.0000 0.27535  0.12861  0.73656  Biso   1.000  O
  O14      1.0000 0.27105  0.11986  0.98399  Biso   1.000  O
  O15      1.0000 0.22228  0.38151  0.50798  Biso   1.000  O
  O16      1.0000 0.22275  0.37173  0.75689  Biso   1.000  O
  Hf9      1.0000 0.13733  0.52232  0.14766  Biso   1.000  Hf
  Hf10     1.0000 0.13508  0.72896  0.39697  Biso   1.000  Hf
  Hf11     1.0000 0.35920  0.77189  0.10334  Biso   1.000  Hf
  Hf12     1.0000 0.36042  0.96931  0.35351  Biso   1.000  Hf
  O17      1.0000 0.03361  0.66651  0.08009  Biso   1.000  O
  O18      1.0000 0.03348  0.58149  0.33034  Biso   1.000  O
  O19      1.0000 0.46510  0.91531  0.17291  Biso   1.000  O
  O20      1.0000 0.46374  0.82759  0.42385  Biso   1.000  O
  O21      1.0000 0.27423  0.62914  0.24144  Biso   1.000  O
  O22      1.0000 0.27287  0.62601  0.49301  Biso   1.000  O
  O23      1.0000 0.22181  0.87881  0.00920  Biso   1.000  O
  O24      1.0000 0.21955  0.86815  0.25855  Biso   1.000  O
  Hf13     1.0000 0.13737  0.52263  0.64625  Biso   1.000  Hf
  Hf14     1.0000 0.13704  0.72860  0.89720  Biso   1.000  Hf
  Hf15     1.0000 0.36114  0.77182  0.60543  Biso   1.000  Hf
  Hf16     1.0000 0.35995  0.97724  0.85255  Biso   1.000  Hf
  O25      1.0000 0.03197  0.66753  0.57973  Biso   1.000  O
  O26      1.0000 0.03370  0.58277  0.82991  Biso   1.000  O
  O27      1.0000 0.46539  0.91709  0.67204  Biso   1.000  O
  O28      1.0000 0.46453  0.83384  0.92201  Biso   1.000  O
  O29      1.0000 0.27525  0.62905  0.74095  Biso   1.000  O
  O30      1.0000 0.27590  0.62371  0.99151  Biso   1.000  O
  O31      1.0000 0.22277  0.88048  0.51048  Biso   1.000  O
  O32      1.0000 0.22244  0.87076  0.75972  Biso   1.000  O
  Hf17     1.0000 0.64002  0.01780  0.14799  Biso   1.000  Hf
  Hf18     1.0000 0.65257  0.22650  0.41323  Biso   1.000  Hf
  Hf19     1.0000 0.85956  0.27098  0.10696  Biso   1.000  Hf
  Hf20     1.0000 0.85926  0.47833  0.35539  Biso   1.000  Hf
  O33      1.0000 0.52921  0.16695  0.08035  Biso   1.000  O
  O34      1.0000 0.54588  0.06776  0.33899  Biso   1.000  O
  O35      1.0000 0.96413  0.41623  0.17370  Biso   1.000  O
  O36      1.0000 0.96282  0.33145  0.42279  Biso   1.000  O
  O37      1.0000 0.77811  0.12836  0.24302  Biso   1.000  O
  O38      1.0000 0.78718  0.11665  0.50007  Biso   1.000  O
  O39      1.0000 0.72158  0.37802  0.01329  Biso   1.000  O
  O40      1.0000 0.71955  0.36843  0.26367  Biso   1.000  O
  Hf21     1.0000 0.63928  0.02091  0.64931  Biso   1.000  Hf
  Hf22     1.0000 0.63760  0.22770  0.89903  Biso   1.000  Hf
  Hf23     1.0000 0.86286  0.27214  0.60960  Biso   1.000  Hf
  Hf24     1.0000 0.85929  0.47892  0.85663  Biso   1.000  Hf
  O41      1.0000 0.53649  0.16925  0.58438  Biso   1.000  O
  O42      1.0000 0.53259  0.08309  0.83044  Biso   1.000  O
  O43      1.0000 0.96537  0.41821  0.67385  Biso   1.000  O
  O44      1.0000 0.96064  0.33076  0.92092  Biso   1.000  O
  O45      1.0000 0.77570  0.12948  0.74571  Biso   1.000  O
  O46      1.0000 0.77482  0.12070  0.99367  Biso   1.000  O
  O47      1.0000 0.72752  0.38025  0.51620  Biso   1.000  O
  O48      1.0000 0.72315  0.37152  0.76400  Biso   1.000  O
  Hf25     1.0000 0.63576  0.52182  0.14682  Biso   1.000  Hf
  Hf26     1.0000 0.63924  0.72764  0.39797  Biso   1.000  Hf
  Hf27     1.0000 0.85990  0.77043  0.10572  Biso   1.000  Hf
  Hf28     1.0000 0.85792  0.97728  0.35532  Biso   1.000  Hf
  O49      1.0000 0.53315  0.66796  0.07867  Biso   1.000  O
  O50      1.0000 0.53335  0.58743  0.32645  Biso   1.000  O
  O51      1.0000 0.96310  0.91570  0.17313  Biso   1.000  O
  O52      1.0000 0.96347  0.83282  0.42291  Biso   1.000  O
  O53      1.0000 0.77624  0.62685  0.24159  Biso   1.000  O
  O54      1.0000 0.77565  0.62092  0.49165  Biso   1.000  O
  O55      1.0000 0.72247  0.87741  0.01112  Biso   1.000  O
  O56      1.0000 0.72259  0.86860  0.26020  Biso   1.000  O
  Hf29     1.0000 0.63871  0.52289  0.64911  Biso   1.000  Hf
  Hf30     1.0000 0.63756  0.72858  0.89788  Biso   1.000  Hf
  Hf31     1.0000 0.86007  0.77273  0.60591  Biso   1.000  Hf
  Hf32     1.0000 0.85962  0.97789  0.85582  Biso   1.000  Hf
  O57      1.0000 0.53343  0.66598  0.58040  Biso   1.000  O
  O58      1.0000 0.53280  0.58550  0.82980  Biso   1.000  O
  O59      1.0000 0.96490  0.91791  0.67252  Biso   1.000  O
  O60      1.0000 0.96422  0.83265  0.92311  Biso   1.000  O
  O61      1.0000 0.77558  0.62961  0.74228  Biso   1.000  O
  O62      1.0000 0.77475  0.62074  0.99181  Biso   1.000  O
  O63      1.0000 0.72195  0.87694  0.51222  Biso   1.000  O
  O64      1.0000 0.72298  0.87195  0.76192  Biso   1.000  O
  Ca1      1.0000 0.44822  0.23529  0.27891  Biso   1.000  Ca
