data_image0
_cell_length_a       10.2141
_cell_length_b       5.14109
_cell_length_c       10.4627
_cell_angle_alpha    90.0199
_cell_angle_beta     80.042
_cell_angle_gamma    90.1955

_symmetry_space_group_name_H-M    "P 1"
_symmetry_int_tables_number       1

loop_
  _symmetry_equiv_pos_as_xyz
  'x, y, z'

loop_
  _atom_site_label
  _atom_site_occupancy
  _atom_site_fract_x
  _atom_site_fract_y
  _atom_site_fract_z
  _atom_site_thermal_displace_type
  _atom_site_B_iso_or_equiv
  _atom_site_type_symbol
  Ca1      1.0000 0.13888  0.03067  0.14474  Biso   1.000  Ca
  Hf1      1.0000 0.14020  0.04255  0.64647  Biso   1.000  Hf
  Hf2      1.0000 0.63910  0.03795  0.14611  Biso   1.000  Hf
  Hf3      1.0000 0.63960  0.04203  0.64595  Biso   1.000  Hf
  Hf4      1.0000 0.14251  0.45263  0.39482  Biso   1.000  Hf
  Hf5      1.0000 0.14180  0.46118  0.89782  Biso   1.000  Hf
  Hf6      1.0000 0.63664  0.45723  0.39657  Biso   1.000  Hf
  Hf7      1.0000 0.64063  0.45771  0.89570  Biso   1.000  Hf
  Hf8      1.0000 0.35837  0.53276  0.10387  Biso   1.000  Hf
  Hf9      1.0000 0.35923  0.54306  0.60428  Biso   1.000  Hf
  Hf10     1.0000 0.85870  0.53969  0.10251  Biso   1.000  Hf
  Hf11     1.0000 0.86168  0.54267  0.60292  Biso   1.000  Hf
  Hf12     1.0000 0.35773  0.95660  0.35168  Biso   1.000  Hf
  Hf13     1.0000 0.36026  0.95778  0.85569  Biso   1.000  Hf
  Hf14     1.0000 0.85969  0.95960  0.35440  Biso   1.000  Hf
  Hf15     1.0000 0.86083  0.95850  0.85335  Biso   1.000  Hf
  O1       1.0000 0.03442  0.36743  0.07845  Biso   1.000  O
  O2       1.0000 0.03617  0.34381  0.58507  Biso   1.000  O
  O3       1.0000 0.53596  0.33227  0.07881  Biso   1.000  O
  O4       1.0000 0.53228  0.33235  0.58083  Biso   1.000  O
  O5       1.0000 0.02675  0.17064  0.34390  Biso   1.000  O
  O6       1.0000 0.03533  0.16070  0.83174  Biso   1.000  O
  O7       1.0000 0.53419  0.16249  0.32993  Biso   1.000  O
  O8       1.0000 0.53668  0.16557  0.82846  Biso   1.000  O
  O9       1.0000 0.46708  0.83057  0.16942  Biso   1.000  O
  O10      1.0000 0.46684  0.83172  0.67115  Biso   1.000  O
  O11      1.0000 0.94401  0.84371  0.17099  Biso   1.000  O
  O12      1.0000 0.96457  0.84185  0.66729  Biso   1.000  O
  O13      1.0000 0.46459  0.66448  0.42220  Biso   1.000  O
  O14      1.0000 0.47388  0.67409  0.92047  Biso   1.000  O
  O15      1.0000 0.96671  0.66571  0.41889  Biso   1.000  O
  O16      1.0000 0.96374  0.66324  0.91436  Biso   1.000  O
  O17      1.0000 0.28455  0.25826  0.24727  Biso   1.000  O
  O18      1.0000 0.27580  0.25798  0.73990  Biso   1.000  O
  O19      1.0000 0.77379  0.25909  0.24171  Biso   1.000  O
  O20      1.0000 0.77704  0.25808  0.73946  Biso   1.000  O
  O21      1.0000 0.27526  0.24026  0.49330  Biso   1.000  O
  O22      1.0000 0.28538  0.24931  0.98269  Biso   1.000  O
  O23      1.0000 0.77266  0.24566  0.49206  Biso   1.000  O
  O24      1.0000 0.77516  0.23900  0.98955  Biso   1.000  O
  O25      1.0000 0.23495  0.74140  0.99938  Biso   1.000  O
  O26      1.0000 0.22376  0.75787  0.50998  Biso   1.000  O
  O27      1.0000 0.72377  0.75704  0.00769  Biso   1.000  O
  O28      1.0000 0.72458  0.75783  0.50954  Biso   1.000  O
  O29      1.0000 0.23086  0.72587  0.26191  Biso   1.000  O
  O30      1.0000 0.22411  0.74543  0.75673  Biso   1.000  O
  O31      1.0000 0.71352  0.74155  0.26238  Biso   1.000  O
  O32      1.0000 0.72577  0.74211  0.75759  Biso   1.000  O
