data_image0
_cell_length_a       5.00627
_cell_length_b       10.3499
_cell_length_c       10.0882
_cell_angle_alpha    90.169
_cell_angle_beta     90.3481
_cell_angle_gamma    89.9909

_symmetry_space_group_name_H-M    "P 1"
_symmetry_int_tables_number       1

loop_
  _symmetry_equiv_pos_as_xyz
  'x, y, z'

loop_
  _atom_site_label
  _atom_site_occupancy
  _atom_site_fract_x
  _atom_site_fract_y
  _atom_site_fract_z
  _atom_site_thermal_displace_type
  _atom_site_B_iso_or_equiv
  _atom_site_type_symbol
  Ca1      1.0000 0.26393  0.01276  0.11977  Biso   1.000  Ca
  Hf1      1.0000 0.26484  0.01690  0.62558  Biso   1.000  Hf
  Hf2      1.0000 0.26902  0.51530  0.12523  Biso   1.000  Hf
  Hf3      1.0000 0.26727  0.51629  0.62620  Biso   1.000  Hf
  Hf4      1.0000 0.26741  0.23228  0.37503  Biso   1.000  Hf
  Hf5      1.0000 0.27356  0.23273  0.87339  Biso   1.000  Hf
  Hf6      1.0000 0.26599  0.73388  0.37740  Biso   1.000  Hf
  Hf7      1.0000 0.27726  0.73342  0.87604  Biso   1.000  Hf
  Hf8      1.0000 0.72236  0.26438  0.12734  Biso   1.000  Hf
  Hf9      1.0000 0.73128  0.26645  0.62389  Biso   1.000  Hf
  Hf10     1.0000 0.72571  0.76684  0.12745  Biso   1.000  Hf
  Hf11     1.0000 0.73192  0.76656  0.62548  Biso   1.000  Hf
  Hf12     1.0000 0.72779  0.48372  0.37657  Biso   1.000  Hf
  Hf13     1.0000 0.73209  0.48228  0.87637  Biso   1.000  Hf
  Hf14     1.0000 0.72270  0.98291  0.37443  Biso   1.000  Hf
  Hf15     1.0000 0.72883  0.98302  0.87400  Biso   1.000  Hf
  O1       1.0000 0.06269  0.19443  0.20088  Biso   1.000  O
  O2       1.0000 0.07677  0.18823  0.68761  Biso   1.000  O
  O3       1.0000 0.06730  0.68092  0.19715  Biso   1.000  O
  O4       1.0000 0.07148  0.68359  0.69551  Biso   1.000  O
  O5       1.0000 0.06509  0.06646  0.44507  Biso   1.000  O
  O6       1.0000 0.07079  0.07065  0.92097  Biso   1.000  O
  O7       1.0000 0.06713  0.56562  0.44716  Biso   1.000  O
  O8       1.0000 0.06976  0.56794  0.94554  Biso   1.000  O
  O9       1.0000 0.92636  0.43594  0.19581  Biso   1.000  O
  O10      1.0000 0.93117  0.43418  0.69656  Biso   1.000  O
  O11      1.0000 0.90653  0.92825  0.20334  Biso   1.000  O
  O12      1.0000 0.92561  0.93349  0.69263  Biso   1.000  O
  O13      1.0000 0.92821  0.31833  0.44629  Biso   1.000  O
  O14      1.0000 0.93746  0.31894  0.94657  Biso   1.000  O
  O15      1.0000 0.92979  0.81560  0.44930  Biso   1.000  O
  O16      1.0000 0.94864  0.82042  0.94969  Biso   1.000  O
  O17      1.0000 0.55625  0.12633  0.25610  Biso   1.000  O
  O18      1.0000 0.54378  0.11780  0.74626  Biso   1.000  O
  O19      1.0000 0.53779  0.61459  0.24912  Biso   1.000  O
  O20      1.0000 0.54324  0.61711  0.74918  Biso   1.000  O
  O21      1.0000 0.53436  0.13255  0.50147  Biso   1.000  O
  O22      1.0000 0.55751  0.13578  0.99230  Biso   1.000  O
  O23      1.0000 0.53849  0.63257  0.49938  Biso   1.000  O
  O24      1.0000 0.54323  0.62763  0.99943  Biso   1.000  O
  O25      1.0000 0.45880  0.38353  0.49921  Biso   1.000  O
  O26      1.0000 0.45993  0.38230  0.99888  Biso   1.000  O
  O27      1.0000 0.45558  0.88259  0.50073  Biso   1.000  O
  O28      1.0000 0.47957  0.87183  0.99310  Biso   1.000  O
  O29      1.0000 0.45358  0.36974  0.24960  Biso   1.000  O
  O30      1.0000 0.46288  0.36826  0.74843  Biso   1.000  O
  O31      1.0000 0.46092  0.85793  0.25505  Biso   1.000  O
  O32      1.0000 0.45749  0.86746  0.74704  Biso   1.000  O
