data_image0
_cell_length_a       10.2096
_cell_length_b       10.2927
_cell_length_c       5.23044
_cell_angle_alpha    90.041
_cell_angle_beta     80.0734
_cell_angle_gamma    90.1386

_symmetry_space_group_name_H-M    "P 1"
_symmetry_int_tables_number       1

loop_
  _symmetry_equiv_pos_as_xyz
  'x, y, z'

loop_
  _atom_site_label
  _atom_site_occupancy
  _atom_site_fract_x
  _atom_site_fract_y
  _atom_site_fract_z
  _atom_site_thermal_displace_type
  _atom_site_B_iso_or_equiv
  _atom_site_type_symbol
  Ca1      1.0000 0.13943  0.01573  0.29356  Biso   1.000  Ca
  Hf1      1.0000 0.14064  0.52086  0.29026  Biso   1.000  Hf
  Hf2      1.0000 0.63993  0.02060  0.29272  Biso   1.000  Hf
  Hf3      1.0000 0.63782  0.52008  0.29018  Biso   1.000  Hf
  Hf4      1.0000 0.14054  0.22860  0.79439  Biso   1.000  Hf
  Hf5      1.0000 0.14321  0.72907  0.79034  Biso   1.000  Hf
  Hf6      1.0000 0.63852  0.22911  0.79172  Biso   1.000  Hf
  Hf7      1.0000 0.63857  0.72823  0.79099  Biso   1.000  Hf
  Hf8      1.0000 0.35802  0.26707  0.20954  Biso   1.000  Hf
  Hf9      1.0000 0.36075  0.77173  0.20736  Biso   1.000  Hf
  Hf10     1.0000 0.85898  0.27148  0.20412  Biso   1.000  Hf
  Hf11     1.0000 0.85984  0.77018  0.20723  Biso   1.000  Hf
  Hf12     1.0000 0.36015  0.47701  0.70666  Biso   1.000  Hf
  Hf13     1.0000 0.35908  0.97935  0.70818  Biso   1.000  Hf
  Hf14     1.0000 0.85997  0.48008  0.70560  Biso   1.000  Hf
  Hf15     1.0000 0.86045  0.97817  0.70938  Biso   1.000  Hf
  O1       1.0000 0.03361  0.18321  0.16170  Biso   1.000  O
  O2       1.0000 0.03495  0.66747  0.15997  Biso   1.000  O
  O3       1.0000 0.53457  0.16708  0.15893  Biso   1.000  O
  O4       1.0000 0.53406  0.66548  0.15685  Biso   1.000  O
  O5       1.0000 0.02735  0.08502  0.69272  Biso   1.000  O
  O6       1.0000 0.03386  0.58295  0.65716  Biso   1.000  O
  O7       1.0000 0.53635  0.08253  0.65829  Biso   1.000  O
  O8       1.0000 0.53290  0.58334  0.65564  Biso   1.000  O
  O9       1.0000 0.46574  0.41476  0.34188  Biso   1.000  O
  O10      1.0000 0.46767  0.91732  0.34013  Biso   1.000  O
  O11      1.0000 0.96357  0.42097  0.33521  Biso   1.000  O
  O12      1.0000 0.94891  0.91615  0.34882  Biso   1.000  O
  O13      1.0000 0.46730  0.33448  0.84225  Biso   1.000  O
  O14      1.0000 0.47144  0.83646  0.84403  Biso   1.000  O
  O15      1.0000 0.96448  0.33582  0.83418  Biso   1.000  O
  O16      1.0000 0.96707  0.83148  0.84010  Biso   1.000  O
  O17      1.0000 0.28403  0.13377  0.49450  Biso   1.000  O
  O18      1.0000 0.27665  0.62482  0.47841  Biso   1.000  O
  O19      1.0000 0.77559  0.12961  0.48231  Biso   1.000  O
  O20      1.0000 0.77459  0.62829  0.47843  Biso   1.000  O
  O21      1.0000 0.28379  0.12687  0.97087  Biso   1.000  O
  O22      1.0000 0.27676  0.61847  0.98013  Biso   1.000  O
  O23      1.0000 0.77337  0.12243  0.98298  Biso   1.000  O
  O24      1.0000 0.77437  0.62008  0.97817  Biso   1.000  O
  O25      1.0000 0.22486  0.37943  0.01804  Biso   1.000  O
  O26      1.0000 0.23313  0.86936  0.00408  Biso   1.000  O
  O27      1.0000 0.72284  0.37960  0.01579  Biso   1.000  O
  O28      1.0000 0.72529  0.87810  0.01807  Biso   1.000  O
  O29      1.0000 0.22192  0.37231  0.51732  Biso   1.000  O
  O30      1.0000 0.23353  0.86289  0.52180  Biso   1.000  O
  O31      1.0000 0.72355  0.37185  0.51720  Biso   1.000  O
  O32      1.0000 0.71602  0.87021  0.52182  Biso   1.000  O
