data_image0
_cell_length_a       10.1478
_cell_length_b       5.17337
_cell_length_c       10.6111
_cell_angle_alpha    89.769
_cell_angle_beta     79.1339
_cell_angle_gamma    90.1877

_symmetry_space_group_name_H-M    "P 1"
_symmetry_int_tables_number       1

loop_
  _symmetry_equiv_pos_as_xyz
  'x, y, z'

loop_
  _atom_site_label
  _atom_site_occupancy
  _atom_site_fract_x
  _atom_site_fract_y
  _atom_site_fract_z
  _atom_site_thermal_displace_type
  _atom_site_B_iso_or_equiv
  _atom_site_type_symbol
  Hf1      1.0000 0.13611  0.04274  0.14862  Biso   1.000  Hf
  Hf2      1.0000 0.13318  0.45640  0.39686  Biso   1.000  Hf
  Hf3      1.0000 0.34119  0.55189  0.07954  Biso   1.000  Hf
  Hf4      1.0000 0.35570  0.96172  0.35794  Biso   1.000  Hf
  O1       1.0000 0.03336  0.33294  0.07823  Biso   1.000  O
  O2       1.0000 0.03128  0.16432  0.32953  Biso   1.000  O
  O3       1.0000 0.46059  0.84525  0.17021  Biso   1.000  O
  O4       1.0000 0.47329  0.69044  0.43800  Biso   1.000  O
  O5       1.0000 0.27425  0.25319  0.23846  Biso   1.000  O
  O6       1.0000 0.28080  0.25938  0.48759  Biso   1.000  O
  O7       1.0000 0.20665  0.77155  0.00034  Biso   1.000  O
  O8       1.0000 0.22485  0.72887  0.25658  Biso   1.000  O
  Hf5      1.0000 0.13810  0.04632  0.64536  Biso   1.000  Hf
  Hf6      1.0000 0.13219  0.45531  0.89299  Biso   1.000  Hf
  Hf7      1.0000 0.36056  0.55206  0.60679  Biso   1.000  Hf
  Hf8      1.0000 0.35669  0.96389  0.85034  Biso   1.000  Hf
  O9       1.0000 0.03571  0.33790  0.58042  Biso   1.000  O
  O10      1.0000 0.03093  0.16481  0.82756  Biso   1.000  O
  O11      1.0000 0.46677  0.83384  0.67729  Biso   1.000  O
  O12      1.0000 0.46364  0.67507  0.91794  Biso   1.000  O
  O13      1.0000 0.27431  0.25755  0.73902  Biso   1.000  O
  O14      1.0000 0.27209  0.24353  0.98711  Biso   1.000  O
  O15      1.0000 0.21982  0.76385  0.50993  Biso   1.000  O
  O16      1.0000 0.22150  0.74265  0.75703  Biso   1.000  O
  Hf9      1.0000 0.63838  0.03526  0.14836  Biso   1.000  Hf
  Hf10     1.0000 0.65066  0.45064  0.41534  Biso   1.000  Hf
  Hf11     1.0000 0.85901  0.53944  0.10810  Biso   1.000  Hf
  Hf12     1.0000 0.85720  0.95388  0.35620  Biso   1.000  Hf
  O17      1.0000 0.52875  0.33547  0.07824  Biso   1.000  O
  O18      1.0000 0.54317  0.14471  0.33804  Biso   1.000  O
  O19      1.0000 0.96247  0.82826  0.17603  Biso   1.000  O
  O20      1.0000 0.96217  0.66471  0.42474  Biso   1.000  O
  O21      1.0000 0.77777  0.25327  0.24439  Biso   1.000  O
  O22      1.0000 0.78486  0.23380  0.50044  Biso   1.000  O
  O23      1.0000 0.72033  0.75325  0.01450  Biso   1.000  O
  O24      1.0000 0.71744  0.73122  0.26351  Biso   1.000  O
  Hf13     1.0000 0.63922  0.04331  0.65283  Biso   1.000  Hf
  Hf14     1.0000 0.63643  0.45498  0.90037  Biso   1.000  Hf
  Hf15     1.0000 0.86216  0.54603  0.61078  Biso   1.000  Hf
  Hf16     1.0000 0.85815  0.95578  0.85809  Biso   1.000  Hf
  O25      1.0000 0.53419  0.33288  0.58560  Biso   1.000  O
  O26      1.0000 0.53026  0.17312  0.83037  Biso   1.000  O
  O27      1.0000 0.96498  0.83582  0.67525  Biso   1.000  O
  O28      1.0000 0.95967  0.66121  0.92295  Biso   1.000  O
  O29      1.0000 0.77496  0.26003  0.74702  Biso   1.000  O
  O30      1.0000 0.77377  0.24008  0.99483  Biso   1.000  O
  O31      1.0000 0.72553  0.75582  0.51774  Biso   1.000  O
  O32      1.0000 0.72235  0.74452  0.76562  Biso   1.000  O
  Ca1      1.0000 0.45387  0.47694  0.27199  Biso   1.000  Ca
