data_image0
_cell_length_a       10.1839
_cell_length_b       10.3204
_cell_length_c       5.31078
_cell_angle_alpha    89.8459
_cell_angle_beta     79.0132
_cell_angle_gamma    90.2101

_symmetry_space_group_name_H-M    "P 1"
_symmetry_int_tables_number       1

loop_
  _symmetry_equiv_pos_as_xyz
  'x, y, z'

loop_
  _atom_site_label
  _atom_site_occupancy
  _atom_site_fract_x
  _atom_site_fract_y
  _atom_site_fract_z
  _atom_site_thermal_displace_type
  _atom_site_B_iso_or_equiv
  _atom_site_type_symbol
  Hf1      1.0000 0.13638  0.02143  0.29049  Biso   1.000  Hf
  Hf2      1.0000 0.12947  0.22771  0.78093  Biso   1.000  Hf
  Hf3      1.0000 0.34424  0.28105  0.16184  Biso   1.000  Hf
  Hf4      1.0000 0.35609  0.49310  0.70822  Biso   1.000  Hf
  O1       1.0000 0.03824  0.16802  0.15179  Biso   1.000  O
  O2       1.0000 0.02921  0.08308  0.65062  Biso   1.000  O
  O3       1.0000 0.46297  0.42012  0.35179  Biso   1.000  O
  O4       1.0000 0.47491  0.35697  0.86656  Biso   1.000  O
  O5       1.0000 0.27318  0.12488  0.45967  Biso   1.000  O
  O6       1.0000 0.28365  0.12871  0.94395  Biso   1.000  O
  O7       1.0000 0.20778  0.38849  0.00145  Biso   1.000  O
  O8       1.0000 0.22804  0.36703  0.51116  Biso   1.000  O
  Hf5      1.0000 0.13575  0.52376  0.29592  Biso   1.000  Hf
  Hf6      1.0000 0.13320  0.72889  0.79643  Biso   1.000  Hf
  Hf7      1.0000 0.35930  0.77197  0.20981  Biso   1.000  Hf
  Hf8      1.0000 0.35927  0.96732  0.70648  Biso   1.000  Hf
  O9       1.0000 0.02975  0.66464  0.15874  Biso   1.000  O
  O10      1.0000 0.03113  0.58393  0.65935  Biso   1.000  O
  O11      1.0000 0.46589  0.91343  0.35009  Biso   1.000  O
  O12      1.0000 0.46453  0.83066  0.85240  Biso   1.000  O
  O13      1.0000 0.27287  0.62921  0.48315  Biso   1.000  O
  O14      1.0000 0.27172  0.62907  0.98661  Biso   1.000  O
  O15      1.0000 0.22157  0.88109  0.02212  Biso   1.000  O
  O16      1.0000 0.21906  0.86821  0.51901  Biso   1.000  O
  Hf9      1.0000 0.64069  0.01707  0.30236  Biso   1.000  Hf
  Hf10     1.0000 0.65064  0.22591  0.83108  Biso   1.000  Hf
  Hf11     1.0000 0.86143  0.27130  0.22413  Biso   1.000  Hf
  Hf12     1.0000 0.85765  0.47813  0.71580  Biso   1.000  Hf
  O17      1.0000 0.53106  0.16755  0.16960  Biso   1.000  O
  O18      1.0000 0.54357  0.06908  0.67756  Biso   1.000  O
  O19      1.0000 0.96560  0.41442  0.35596  Biso   1.000  O
  O20      1.0000 0.95883  0.33125  0.84845  Biso   1.000  O
  O21      1.0000 0.77814  0.12826  0.49504  Biso   1.000  O
  O22      1.0000 0.78447  0.11675  0.00367  Biso   1.000  O
  O23      1.0000 0.72493  0.37845  0.04022  Biso   1.000  O
  O24      1.0000 0.72013  0.36888  0.53634  Biso   1.000  O
  Hf13     1.0000 0.63593  0.52340  0.30002  Biso   1.000  Hf
  Hf14     1.0000 0.63808  0.72743  0.80003  Biso   1.000  Hf
  Hf15     1.0000 0.85904  0.77134  0.21494  Biso   1.000  Hf
  Hf16     1.0000 0.85701  0.97646  0.71370  Biso   1.000  Hf
  O25      1.0000 0.53106  0.66483  0.15820  Biso   1.000  O
  O26      1.0000 0.53062  0.59179  0.65271  Biso   1.000  O
  O27      1.0000 0.96396  0.91382  0.35245  Biso   1.000  O
  O28      1.0000 0.96385  0.83505  0.85326  Biso   1.000  O
  O29      1.0000 0.77523  0.62705  0.48688  Biso   1.000  O
  O30      1.0000 0.77368  0.62037  0.98596  Biso   1.000  O
  O31      1.0000 0.72165  0.87528  0.02764  Biso   1.000  O
  O32      1.0000 0.72239  0.86924  0.52505  Biso   1.000  O
  Ca1      1.0000 0.44348  0.23408  0.56033  Biso   1.000  Ca
