data_image0
_cell_length_a       10.0495
_cell_length_b       5.14564
_cell_length_c       10.6165
_cell_angle_alpha    90.0422
_cell_angle_beta     91.2891
_cell_angle_gamma    90.3692

_symmetry_space_group_name_H-M    "P 1"
_symmetry_int_tables_number       1

loop_
  _symmetry_equiv_pos_as_xyz
  'x, y, z'

loop_
  _atom_site_label
  _atom_site_occupancy
  _atom_site_fract_x
  _atom_site_fract_y
  _atom_site_fract_z
  _atom_site_thermal_displace_type
  _atom_site_B_iso_or_equiv
  _atom_site_type_symbol
  Hf1      1.0000 0.13781  0.04352  0.17543  Biso   1.000  Hf
  Hf2      1.0000 0.13833  0.45127  0.42750  Biso   1.000  Hf
  Hf3      1.0000 0.35067  0.54880  0.19146  Biso   1.000  Hf
  Hf4      1.0000 0.36122  0.95530  0.42987  Biso   1.000  Hf
  Hf5      1.0000 0.64636  0.04808  0.08204  Biso   1.000  Hf
  Hf6      1.0000 0.63944  0.45071  0.33070  Biso   1.000  Hf
  Hf7      1.0000 0.86558  0.53937  0.07776  Biso   1.000  Hf
  Hf8      1.0000 0.86070  0.95360  0.32638  Biso   1.000  Hf
  O1       1.0000 0.03492  0.32140  0.08192  Biso   1.000  O
  O2       1.0000 0.03126  0.17158  0.33402  Biso   1.000  O
  O3       1.0000 0.45713  0.85422  0.09596  Biso   1.000  O
  O4       1.0000 0.46822  0.67058  0.34058  Biso   1.000  O
  O5       1.0000 0.27249  0.24862  0.30270  Biso   1.000  O
  O6       1.0000 0.28130  0.26570  0.04749  Biso   1.000  O
  O7       1.0000 0.21912  0.75173  0.30651  Biso   1.000  O
  O8       1.0000 0.21997  0.75877  0.05266  Biso   1.000  O
  O9       1.0000 0.52424  0.31187  0.18310  Biso   1.000  O
  O10      1.0000 0.53050  0.17159  0.42230  Biso   1.000  O
  O11      1.0000 0.96770  0.82626  0.17181  Biso   1.000  O
  O12      1.0000 0.97090  0.67421  0.42165  Biso   1.000  O
  O13      1.0000 0.77732  0.24590  0.45179  Biso   1.000  O
  O14      1.0000 0.78449  0.24959  0.20565  Biso   1.000  O
  O15      1.0000 0.72597  0.74637  0.45325  Biso   1.000  O
  O16      1.0000 0.72059  0.73712  0.20158  Biso   1.000  O
  Hf9      1.0000 0.14134  0.04028  0.67651  Biso   1.000  Hf
  Hf10     1.0000 0.14139  0.46237  0.92534  Biso   1.000  Hf
  Hf11     1.0000 0.36308  0.54292  0.67708  Biso   1.000  Hf
  Hf12     1.0000 0.36069  0.96769  0.92716  Biso   1.000  Hf
  Hf13     1.0000 0.64265  0.03564  0.57240  Biso   1.000  Hf
  Hf14     1.0000 0.65403  0.45124  0.79942  Biso   1.000  Hf
  Hf15     1.0000 0.86858  0.54366  0.57502  Biso   1.000  Hf
  Hf16     1.0000 0.86618  0.95932  0.83110  Biso   1.000  Hf
  O17      1.0000 0.03451  0.32088  0.58321  Biso   1.000  O
  O18      1.0000 0.03591  0.17493  0.83380  Biso   1.000  O
  O19      1.0000 0.47288  0.81821  0.58392  Biso   1.000  O
  O20      1.0000 0.47534  0.66866  0.83285  Biso   1.000  O
  O21      1.0000 0.27805  0.25181  0.79867  Biso   1.000  O
  O22      1.0000 0.27751  0.24797  0.55048  Biso   1.000  O
  O23      1.0000 0.22737  0.74838  0.80191  Biso   1.000  O
  O24      1.0000 0.22599  0.74861  0.55354  Biso   1.000  O
  O25      1.0000 0.53171  0.31516  0.66342  Biso   1.000  O
  O26      1.0000 0.53425  0.16453  0.91845  Biso   1.000  O
  O27      1.0000 0.97341  0.81936  0.67406  Biso   1.000  O
  O28      1.0000 0.97101  0.67346  0.92136  Biso   1.000  O
  O29      1.0000 0.77249  0.26392  0.94671  Biso   1.000  O
  O30      1.0000 0.78690  0.23930  0.69418  Biso   1.000  O
  O31      1.0000 0.72916  0.75923  0.95328  Biso   1.000  O
  O32      1.0000 0.73173  0.75171  0.69983  Biso   1.000  O
  Ca1      1.0000 0.55645  0.53522  0.01748  Biso   1.000  Ca
