data_image0
_cell_length_a       10.1179
_cell_length_b       5.19119
_cell_length_c       10.1539
_cell_angle_alpha    90.1459
_cell_angle_beta     90.2868
_cell_angle_gamma    90.0401

_symmetry_space_group_name_H-M    "P 1"
_symmetry_int_tables_number       1

loop_
  _symmetry_equiv_pos_as_xyz
  'x, y, z'

loop_
  _atom_site_label
  _atom_site_occupancy
  _atom_site_fract_x
  _atom_site_fract_y
  _atom_site_fract_z
  _atom_site_thermal_displace_type
  _atom_site_B_iso_or_equiv
  _atom_site_type_symbol
  Ca1      1.0000 0.13180  0.02558  0.12059  Biso   1.000  Ca
  Zr1      1.0000 0.13378  0.03251  0.62540  Biso   1.000  Zr
  Zr2      1.0000 0.63304  0.02722  0.12352  Biso   1.000  Zr
  Zr3      1.0000 0.63249  0.02947  0.62376  Biso   1.000  Zr
  Zr4      1.0000 0.13729  0.46970  0.37449  Biso   1.000  Zr
  Zr5      1.0000 0.13970  0.46894  0.87486  Biso   1.000  Zr
  Zr6      1.0000 0.63145  0.46708  0.37501  Biso   1.000  Zr
  Zr7      1.0000 0.63576  0.46721  0.87354  Biso   1.000  Zr
  Zr8      1.0000 0.36219  0.52681  0.12551  Biso   1.000  Zr
  Zr9      1.0000 0.36621  0.53177  0.62438  Biso   1.000  Zr
  Zr10     1.0000 0.86203  0.53096  0.12699  Biso   1.000  Zr
  Zr11     1.0000 0.86638  0.53030  0.62344  Biso   1.000  Zr
  Zr12     1.0000 0.36162  0.97018  0.37227  Biso   1.000  Zr
  Zr13     1.0000 0.36481  0.96575  0.87632  Biso   1.000  Zr
  Zr14     1.0000 0.86466  0.96761  0.37605  Biso   1.000  Zr
  Zr15     1.0000 0.86465  0.96754  0.87329  Biso   1.000  Zr
  O1       1.0000 0.02671  0.38486  0.20579  Biso   1.000  O
  O2       1.0000 0.03726  0.37404  0.68986  Biso   1.000  O
  O3       1.0000 0.53512  0.36298  0.19404  Biso   1.000  O
  O4       1.0000 0.53438  0.36411  0.69515  Biso   1.000  O
  O5       1.0000 0.03229  0.13490  0.44746  Biso   1.000  O
  O6       1.0000 0.02904  0.15165  0.92789  Biso   1.000  O
  O7       1.0000 0.53242  0.13289  0.44585  Biso   1.000  O
  O8       1.0000 0.53596  0.13338  0.94387  Biso   1.000  O
  O9       1.0000 0.46645  0.86519  0.19560  Biso   1.000  O
  O10      1.0000 0.46721  0.86340  0.69680  Biso   1.000  O
  O11      1.0000 0.95206  0.85953  0.20279  Biso   1.000  O
  O12      1.0000 0.96476  0.86765  0.69423  Biso   1.000  O
  O13      1.0000 0.46665  0.63479  0.44815  Biso   1.000  O
  O14      1.0000 0.47403  0.63854  0.94763  Biso   1.000  O
  O15      1.0000 0.96711  0.63747  0.44894  Biso   1.000  O
  O16      1.0000 0.97102  0.64360  0.94908  Biso   1.000  O
  O17      1.0000 0.27741  0.24554  0.25344  Biso   1.000  O
  O18      1.0000 0.27055  0.23391  0.74668  Biso   1.000  O
  O19      1.0000 0.76627  0.22965  0.24787  Biso   1.000  O
  O20      1.0000 0.76969  0.23182  0.74571  Biso   1.000  O
  O21      1.0000 0.26813  0.26529  0.50021  Biso   1.000  O
  O22      1.0000 0.27699  0.26506  0.99219  Biso   1.000  O
  O23      1.0000 0.76683  0.26883  0.49735  Biso   1.000  O
  O24      1.0000 0.76951  0.26481  0.99657  Biso   1.000  O
  O25      1.0000 0.23102  0.76878  0.49923  Biso   1.000  O
  O26      1.0000 0.23927  0.74892  0.99263  Biso   1.000  O
  O27      1.0000 0.73061  0.76636  0.49811  Biso   1.000  O
  O28      1.0000 0.73221  0.76507  0.99757  Biso   1.000  O
  O29      1.0000 0.23759  0.72354  0.25350  Biso   1.000  O
  O30      1.0000 0.23168  0.73590  0.74571  Biso   1.000  O
  O31      1.0000 0.72302  0.72963  0.24854  Biso   1.000  O
  O32      1.0000 0.73143  0.73141  0.74706  Biso   1.000  O
