data_image0
_cell_length_a       10.0741
_cell_length_b       10.409
_cell_length_c       10.1072
_cell_angle_alpha    90.0808
_cell_angle_beta     90.1509
_cell_angle_gamma    89.9998

_symmetry_space_group_name_H-M    "P 1"
_symmetry_int_tables_number       1

loop_
  _symmetry_equiv_pos_as_xyz
  'x, y, z'

loop_
  _atom_site_label
  _atom_site_occupancy
  _atom_site_fract_x
  _atom_site_fract_y
  _atom_site_fract_z
  _atom_site_thermal_displace_type
  _atom_site_B_iso_or_equiv
  _atom_site_type_symbol
  Ca1      1.0000 0.13226  0.01315  0.12135  Biso   1.000  Ca
  Zr1      1.0000 0.13343  0.01636  0.62610  Biso   1.000  Zr
  Zr2      1.0000 0.13492  0.51497  0.12481  Biso   1.000  Zr
  Zr3      1.0000 0.13401  0.51612  0.62534  Biso   1.000  Zr
  Zr4      1.0000 0.63326  0.01479  0.12396  Biso   1.000  Zr
  Zr5      1.0000 0.63315  0.01571  0.62380  Biso   1.000  Zr
  Zr6      1.0000 0.63339  0.51503  0.12514  Biso   1.000  Zr
  Zr7      1.0000 0.63379  0.51523  0.62544  Biso   1.000  Zr
  Zr8      1.0000 0.13463  0.23313  0.37485  Biso   1.000  Zr
  Zr9      1.0000 0.13591  0.23350  0.87418  Biso   1.000  Zr
  Zr10     1.0000 0.13512  0.73573  0.37498  Biso   1.000  Zr
  Zr11     1.0000 0.13679  0.73510  0.87652  Biso   1.000  Zr
  Zr12     1.0000 0.63297  0.23400  0.37380  Biso   1.000  Zr
  Zr13     1.0000 0.63453  0.23400  0.87465  Biso   1.000  Zr
  Zr14     1.0000 0.63246  0.73422  0.37618  Biso   1.000  Zr
  Zr15     1.0000 0.63566  0.73421  0.87489  Biso   1.000  Zr
  Zr16     1.0000 0.36313  0.26351  0.12602  Biso   1.000  Zr
  Zr17     1.0000 0.36558  0.26515  0.62467  Biso   1.000  Zr
  Zr18     1.0000 0.36535  0.76547  0.12464  Biso   1.000  Zr
  Zr19     1.0000 0.36618  0.76688  0.62496  Biso   1.000  Zr
  Zr20     1.0000 0.86467  0.26493  0.12572  Biso   1.000  Zr
  Zr21     1.0000 0.86615  0.26608  0.62364  Biso   1.000  Zr
  Zr22     1.0000 0.86381  0.76706  0.12719  Biso   1.000  Zr
  Zr23     1.0000 0.86634  0.76506  0.62518  Biso   1.000  Zr
  Zr24     1.0000 0.36494  0.48414  0.37487  Biso   1.000  Zr
  Zr25     1.0000 0.36617  0.48339  0.87538  Biso   1.000  Zr
  Zr26     1.0000 0.36257  0.98546  0.37261  Biso   1.000  Zr
  Zr27     1.0000 0.36457  0.98404  0.87659  Biso   1.000  Zr
  Zr28     1.0000 0.86564  0.48503  0.37613  Biso   1.000  Zr
  Zr29     1.0000 0.86602  0.48418  0.87597  Biso   1.000  Zr
  Zr30     1.0000 0.86560  0.98312  0.37481  Biso   1.000  Zr
  Zr31     1.0000 0.86558  0.98404  0.87330  Biso   1.000  Zr
  O1       1.0000 0.02705  0.19046  0.20469  Biso   1.000  O
  O2       1.0000 0.03774  0.18763  0.68833  Biso   1.000  O
  O3       1.0000 0.03397  0.68196  0.19586  Biso   1.000  O
  O4       1.0000 0.03531  0.68369  0.69542  Biso   1.000  O
  O5       1.0000 0.53711  0.18442  0.19140  Biso   1.000  O
  O6       1.0000 0.53503  0.18356  0.69418  Biso   1.000  O
  O7       1.0000 0.53344  0.68081  0.19683  Biso   1.000  O
  O8       1.0000 0.53475  0.68270  0.69544  Biso   1.000  O
  O9       1.0000 0.03306  0.06733  0.44664  Biso   1.000  O
  O10      1.0000 0.03250  0.07186  0.92439  Biso   1.000  O
  O11      1.0000 0.03427  0.56722  0.44639  Biso   1.000  O
  O12      1.0000 0.03473  0.56832  0.94514  Biso   1.000  O
  O13      1.0000 0.53360  0.06698  0.44424  Biso   1.000  O
  O14      1.0000 0.53699  0.06652  0.94247  Biso   1.000  O
  O15      1.0000 0.53343  0.56651  0.44630  Biso   1.000  O
  O16      1.0000 0.53435  0.56762  0.94570  Biso   1.000  O
  O17      1.0000 0.46554  0.43185  0.19628  Biso   1.000  O
  O18      1.0000 0.46592  0.43287  0.69527  Biso   1.000  O
  O19      1.0000 0.46478  0.93456  0.19364  Biso   1.000  O
  O20      1.0000 0.46589  0.93310  0.69585  Biso   1.000  O
  O21      1.0000 0.96412  0.43596  0.19546  Biso   1.000  O
  O22      1.0000 0.96571  0.43426  0.69648  Biso   1.000  O
  O23      1.0000 0.95514  0.92529  0.20428  Biso   1.000  O
  O24      1.0000 0.96340  0.93324  0.69241  Biso   1.000  O
  O25      1.0000 0.46495  0.31653  0.44518  Biso   1.000  O
  O26      1.0000 0.46765  0.31844  0.94444  Biso   1.000  O
  O27      1.0000 0.46647  0.81806  0.44777  Biso   1.000  O
  O28      1.0000 0.47177  0.81873  0.94717  Biso   1.000  O
  O29      1.0000 0.96555  0.31995  0.44675  Biso   1.000  O
  O30      1.0000 0.96724  0.31908  0.94758  Biso   1.000  O
  O31      1.0000 0.96580  0.81559  0.44770  Biso   1.000  O
  O32      1.0000 0.96766  0.81871  0.94721  Biso   1.000  O
  O33      1.0000 0.27828  0.12637  0.25458  Biso   1.000  O
  O34      1.0000 0.27068  0.11709  0.74691  Biso   1.000  O
  O35      1.0000 0.26849  0.61424  0.24808  Biso   1.000  O
  O36      1.0000 0.27012  0.61750  0.74853  Biso   1.000  O
  O37      1.0000 0.76683  0.11534  0.24846  Biso   1.000  O
  O38      1.0000 0.76958  0.11706  0.74670  Biso   1.000  O
  O39      1.0000 0.76853  0.61672  0.24862  Biso   1.000  O
  O40      1.0000 0.76998  0.61624  0.74806  Biso   1.000  O
  O41      1.0000 0.26812  0.13217  0.50062  Biso   1.000  O
  O42      1.0000 0.27601  0.13625  0.99238  Biso   1.000  O
  O43      1.0000 0.26931  0.63394  0.49823  Biso   1.000  O
  O44      1.0000 0.27076  0.62936  0.99889  Biso   1.000  O
  O45      1.0000 0.76742  0.13488  0.49780  Biso   1.000  O
  O46      1.0000 0.77079  0.13283  0.99766  Biso   1.000  O
  O47      1.0000 0.76845  0.63303  0.49855  Biso   1.000  O
  O48      1.0000 0.76912  0.63189  0.99800  Biso   1.000  O
  O49      1.0000 0.23138  0.38380  0.49850  Biso   1.000  O
  O50      1.0000 0.23136  0.38255  0.99849  Biso   1.000  O
  O51      1.0000 0.22982  0.88414  0.49923  Biso   1.000  O
  O52      1.0000 0.23835  0.87380  0.99277  Biso   1.000  O
  O53      1.0000 0.72991  0.38385  0.49808  Biso   1.000  O
  O54      1.0000 0.73023  0.38335  0.99784  Biso   1.000  O
  O55      1.0000 0.73091  0.88290  0.49878  Biso   1.000  O
  O56      1.0000 0.73219  0.88215  0.99894  Biso   1.000  O
  O57      1.0000 0.22813  0.36892  0.24820  Biso   1.000  O
  O58      1.0000 0.23171  0.36782  0.74778  Biso   1.000  O
  O59      1.0000 0.23951  0.85883  0.25391  Biso   1.000  O
  O60      1.0000 0.23033  0.86767  0.74671  Biso   1.000  O
  O61      1.0000 0.73078  0.36696  0.24877  Biso   1.000  O
  O62      1.0000 0.73149  0.36688  0.74823  Biso   1.000  O
  O63      1.0000 0.72244  0.86560  0.24888  Biso   1.000  O
  O64      1.0000 0.73033  0.86630  0.74785  Biso   1.000  O
