data_image0
_cell_length_a       5.13858
_cell_length_b       10.4064
_cell_length_c       10.6643
_cell_angle_alpha    89.9182
_cell_angle_beta     78.8437
_cell_angle_gamma    90.2539

_symmetry_space_group_name_H-M    "P 1"
_symmetry_int_tables_number       1

loop_
  _symmetry_equiv_pos_as_xyz
  'x, y, z'

loop_
  _atom_site_label
  _atom_site_occupancy
  _atom_site_fract_x
  _atom_site_fract_y
  _atom_site_fract_z
  _atom_site_thermal_displace_type
  _atom_site_B_iso_or_equiv
  _atom_site_type_symbol
  Zr1      1.0000 0.27811  0.01734  0.14860  Biso   1.000  Zr
  Zr2      1.0000 0.29889  0.22640  0.41229  Biso   1.000  Zr
  Zr3      1.0000 0.68175  0.27466  0.08053  Biso   1.000  Zr
  Zr4      1.0000 0.71415  0.48907  0.35802  Biso   1.000  Zr
  O1       1.0000 0.05567  0.16727  0.07837  Biso   1.000  O
  O2       1.0000 0.08297  0.07066  0.33731  Biso   1.000  O
  O3       1.0000 0.92643  0.41946  0.17254  Biso   1.000  O
  O4       1.0000 0.94940  0.34753  0.43551  Biso   1.000  O
  O5       1.0000 0.55651  0.12306  0.24064  Biso   1.000  O
  O6       1.0000 0.58288  0.12292  0.49147  Biso   1.000  O
  O7       1.0000 0.41334  0.38610  0.00310  Biso   1.000  O
  O8       1.0000 0.45877  0.36324  0.26143  Biso   1.000  O
  Zr5      1.0000 0.27902  0.02129  0.64867  Biso   1.000  Zr
  Zr6      1.0000 0.26453  0.22715  0.89478  Biso   1.000  Zr
  Zr7      1.0000 0.72597  0.27618  0.61056  Biso   1.000  Zr
  Zr8      1.0000 0.71111  0.48397  0.85338  Biso   1.000  Zr
  O9       1.0000 0.07688  0.16902  0.58559  Biso   1.000  O
  O10      1.0000 0.05697  0.08391  0.82795  Biso   1.000  O
  O11      1.0000 0.93276  0.41851  0.67764  Biso   1.000  O
  O12      1.0000 0.91768  0.33514  0.91602  Biso   1.000  O
  O13      1.0000 0.54605  0.12900  0.74229  Biso   1.000  O
  O14      1.0000 0.53944  0.11825  0.98943  Biso   1.000  O
  O15      1.0000 0.45480  0.38080  0.51365  Biso   1.000  O
  O16      1.0000 0.44477  0.37273  0.75945  Biso   1.000  O
  Zr9      1.0000 0.26918  0.52394  0.14757  Biso   1.000  Zr
  Zr10     1.0000 0.27117  0.72783  0.39954  Biso   1.000  Zr
  Zr11     1.0000 0.71723  0.77106  0.10547  Biso   1.000  Zr
  Zr12     1.0000 0.71534  0.96805  0.35584  Biso   1.000  Zr
  O17      1.0000 0.06252  0.66674  0.07909  Biso   1.000  O
  O18      1.0000 0.06211  0.58712  0.32822  Biso   1.000  O
  O19      1.0000 0.92912  0.91271  0.17614  Biso   1.000  O
  O20      1.0000 0.92779  0.82988  0.42690  Biso   1.000  O
  O21      1.0000 0.54713  0.62695  0.24369  Biso   1.000  O
  O22      1.0000 0.54208  0.62523  0.49485  Biso   1.000  O
  O23      1.0000 0.44532  0.87666  0.01151  Biso   1.000  O
  O24      1.0000 0.43971  0.86648  0.25993  Biso   1.000  O
  Zr13     1.0000 0.27366  0.52366  0.64920  Biso   1.000  Zr
  Zr14     1.0000 0.27106  0.72912  0.89900  Biso   1.000  Zr
  Zr15     1.0000 0.72012  0.77298  0.60785  Biso   1.000  Zr
  Zr16     1.0000 0.71750  0.97627  0.85523  Biso   1.000  Zr
  O25      1.0000 0.05818  0.66422  0.58025  Biso   1.000  O
  O26      1.0000 0.05999  0.58732  0.82926  Biso   1.000  O
  O27      1.0000 0.93315  0.91500  0.67518  Biso   1.000  O
  O28      1.0000 0.93054  0.83562  0.92539  Biso   1.000  O
  O29      1.0000 0.54541  0.62966  0.74293  Biso   1.000  O
  O30      1.0000 0.54713  0.62454  0.99245  Biso   1.000  O
  O31      1.0000 0.44498  0.87764  0.51345  Biso   1.000  O
  O32      1.0000 0.44493  0.87237  0.76223  Biso   1.000  O
  Ca1      1.0000 0.89842  0.23541  0.27463  Biso   1.000  Ca
