data_image0
_cell_length_a       5.11152
_cell_length_b       10.3728
_cell_length_c       10.1736
_cell_angle_alpha    91.1164
_cell_angle_beta     90.5433
_cell_angle_gamma    92.0122

_symmetry_space_group_name_H-M    "P 1"
_symmetry_int_tables_number       1

loop_
  _symmetry_equiv_pos_as_xyz
  'x, y, z'

loop_
  _atom_site_label
  _atom_site_occupancy
  _atom_site_fract_x
  _atom_site_fract_y
  _atom_site_fract_z
  _atom_site_thermal_displace_type
  _atom_site_B_iso_or_equiv
  _atom_site_type_symbol
  Zr1      1.0000 0.25316  0.97116  0.08809  Biso   1.000  Zr
  Zr2      1.0000 0.24495  0.24089  0.38469  Biso   1.000  Zr
  Zr3      1.0000 0.68397  0.25119  0.10621  Biso   1.000  Zr
  Zr4      1.0000 0.75344  0.48557  0.36049  Biso   1.000  Zr
  O1       1.0000 0.90684  0.18612  0.26650  Biso   1.000  O
  O2       1.0000 0.00830  0.09402  0.48698  Biso   1.000  O
  O3       1.0000 0.94576  0.42604  0.19178  Biso   1.000  O
  O4       1.0000 0.97958  0.35131  0.47721  Biso   1.000  O
  O5       1.0000 0.42080  0.11382  0.22921  Biso   1.000  O
  O6       1.0000 0.51001  0.13603  0.48457  Biso   1.000  O
  O7       1.0000 0.49516  0.38637  0.48647  Biso   1.000  O
  O8       1.0000 0.44838  0.37017  0.24088  Biso   1.000  O
  Zr5      1.0000 0.25317  0.98542  0.60055  Biso   1.000  Zr
  Zr6      1.0000 0.24386  0.25967  0.83047  Biso   1.000  Zr
  Zr7      1.0000 0.74985  0.25184  0.60957  Biso   1.000  Zr
  Zr8      1.0000 0.75008  0.48089  0.87457  Biso   1.000  Zr
  O9       1.0000 0.96056  0.14975  0.73990  Biso   1.000  O
  O10      1.0000 0.93325  0.07720  0.01427  Biso   1.000  O
  O11      1.0000 0.01975  0.40290  0.72403  Biso   1.000  O
  O12      1.0000 0.91381  0.31611  0.94723  Biso   1.000  O
  O13      1.0000 0.47193  0.11372  0.72779  Biso   1.000  O
  O14      1.0000 0.43333  0.13019  0.97313  Biso   1.000  O
  O15      1.0000 0.44121  0.38617  0.98562  Biso   1.000  O
  O16      1.0000 0.52081  0.36452  0.73022  Biso   1.000  O
  Zr9      1.0000 0.28227  0.52941  0.12270  Biso   1.000  Zr
  Zr10     1.0000 0.30179  0.74369  0.37416  Biso   1.000  Zr
  Zr11     1.0000 0.76644  0.76616  0.12404  Biso   1.000  Zr
  Zr12     1.0000 0.71861  0.02142  0.34049  Biso   1.000  Zr
  O17      1.0000 0.08157  0.67866  0.20807  Biso   1.000  O
  O18      1.0000 0.07713  0.58339  0.44532  Biso   1.000  O
  O19      1.0000 0.97757  0.92008  0.22969  Biso   1.000  O
  O20      1.0000 0.04561  0.83423  0.49391  Biso   1.000  O
  O21      1.0000 0.56483  0.62324  0.24534  Biso   1.000  O
  O22      1.0000 0.55570  0.63870  0.49211  Biso   1.000  O
  O23      1.0000 0.53652  0.89191  0.48382  Biso   1.000  O
  O24      1.0000 0.48899  0.86778  0.23151  Biso   1.000  O
  Zr13     1.0000 0.27443  0.51044  0.60775  Biso   1.000  Zr
  Zr14     1.0000 0.29691  0.72879  0.86415  Biso   1.000  Zr
  Zr15     1.0000 0.76609  0.76262  0.62439  Biso   1.000  Zr
  Zr16     1.0000 0.72267  0.01340  0.85165  Biso   1.000  Zr
  O25      1.0000 0.06692  0.66066  0.70377  Biso   1.000  O
  O26      1.0000 0.07428  0.57528  0.95267  Biso   1.000  O
  O27      1.0000 0.97797  0.91069  0.73312  Biso   1.000  O
  O28      1.0000 0.04197  0.82635  0.98532  Biso   1.000  O
  O29      1.0000 0.54845  0.60825  0.74156  Biso   1.000  O
  O30      1.0000 0.55987  0.63406  0.99270  Biso   1.000  O
  O31      1.0000 0.53576  0.87848  0.97979  Biso   1.000  O
  O32      1.0000 0.48564  0.86011  0.73243  Biso   1.000  O
  Ca1      1.0000 0.17794  0.25025  0.10686  Biso   1.000  Ca
