data_image0
_cell_length_a       10.2852
_cell_length_b       5.17896
_cell_length_c       10.5139
_cell_angle_alpha    90.0206
_cell_angle_beta     80.084
_cell_angle_gamma    90.1759

_symmetry_space_group_name_H-M    "P 1"
_symmetry_int_tables_number       1

loop_
  _symmetry_equiv_pos_as_xyz
  'x, y, z'

loop_
  _atom_site_label
  _atom_site_occupancy
  _atom_site_fract_x
  _atom_site_fract_y
  _atom_site_fract_z
  _atom_site_thermal_displace_type
  _atom_site_B_iso_or_equiv
  _atom_site_type_symbol
  Ca1      1.0000 0.13860  0.03064  0.14470  Biso   1.000  Ca
  Zr1      1.0000 0.14022  0.04273  0.64599  Biso   1.000  Zr
  Zr2      1.0000 0.63913  0.03770  0.14559  Biso   1.000  Zr
  Zr3      1.0000 0.63965  0.04204  0.64562  Biso   1.000  Zr
  Zr4      1.0000 0.14222  0.45274  0.39401  Biso   1.000  Zr
  Zr5      1.0000 0.14197  0.46138  0.89749  Biso   1.000  Zr
  Zr6      1.0000 0.63668  0.45713  0.39608  Biso   1.000  Zr
  Zr7      1.0000 0.64076  0.45780  0.89539  Biso   1.000  Zr
  Zr8      1.0000 0.35813  0.53271  0.10412  Biso   1.000  Zr
  Zr9      1.0000 0.35925  0.54325  0.60463  Biso   1.000  Zr
  Zr10     1.0000 0.85953  0.53923  0.10322  Biso   1.000  Zr
  Zr11     1.0000 0.86163  0.54278  0.60343  Biso   1.000  Zr
  Zr12     1.0000 0.35750  0.95682  0.35197  Biso   1.000  Zr
  Zr13     1.0000 0.36025  0.95807  0.85619  Biso   1.000  Zr
  Zr14     1.0000 0.85941  0.95982  0.35484  Biso   1.000  Zr
  Zr15     1.0000 0.86097  0.95836  0.85403  Biso   1.000  Zr
  O1       1.0000 0.03531  0.36909  0.07910  Biso   1.000  O
  O2       1.0000 0.03592  0.34382  0.58496  Biso   1.000  O
  O3       1.0000 0.53533  0.33073  0.07857  Biso   1.000  O
  O4       1.0000 0.53191  0.33160  0.58058  Biso   1.000  O
  O5       1.0000 0.02697  0.17000  0.34349  Biso   1.000  O
  O6       1.0000 0.03524  0.16046  0.83194  Biso   1.000  O
  O7       1.0000 0.53357  0.16309  0.32977  Biso   1.000  O
  O8       1.0000 0.53631  0.16633  0.82834  Biso   1.000  O
  O9       1.0000 0.46760  0.82899  0.16988  Biso   1.000  O
  O10      1.0000 0.46729  0.83105  0.67147  Biso   1.000  O
  O11      1.0000 0.94421  0.84530  0.17025  Biso   1.000  O
  O12      1.0000 0.96487  0.84189  0.66713  Biso   1.000  O
  O13      1.0000 0.46501  0.66528  0.42237  Biso   1.000  O
  O14      1.0000 0.47402  0.67427  0.92079  Biso   1.000  O
  O15      1.0000 0.96666  0.66581  0.41871  Biso   1.000  O
  O16      1.0000 0.96396  0.66255  0.91382  Biso   1.000  O
  O17      1.0000 0.28338  0.25713  0.24687  Biso   1.000  O
  O18      1.0000 0.27516  0.25806  0.73991  Biso   1.000  O
  O19      1.0000 0.77284  0.25813  0.24175  Biso   1.000  O
  O20      1.0000 0.77641  0.25773  0.73952  Biso   1.000  O
  O21      1.0000 0.27464  0.24102  0.49313  Biso   1.000  O
  O22      1.0000 0.28444  0.24889  0.98301  Biso   1.000  O
  O23      1.0000 0.77215  0.24597  0.49200  Biso   1.000  O
  O24      1.0000 0.77462  0.23938  0.98969  Biso   1.000  O
  O25      1.0000 0.23510  0.74176  0.99982  Biso   1.000  O
  O26      1.0000 0.22439  0.75759  0.50980  Biso   1.000  O
  O27      1.0000 0.72454  0.75617  0.00792  Biso   1.000  O
  O28      1.0000 0.72506  0.75757  0.50964  Biso   1.000  O
  O29      1.0000 0.23100  0.72688  0.26153  Biso   1.000  O
  O30      1.0000 0.22488  0.74602  0.75678  Biso   1.000  O
  O31      1.0000 0.71487  0.74161  0.26244  Biso   1.000  O
  O32      1.0000 0.72644  0.74264  0.75773  Biso   1.000  O
