data_image0
_cell_length_a       10.1198
_cell_length_b       10.3283
_cell_length_c       10.5952
_cell_angle_alpha    90.0214
_cell_angle_beta     90.6891
_cell_angle_gamma    90.1493

_symmetry_space_group_name_H-M    "P 1"
_symmetry_int_tables_number       1

loop_
  _symmetry_equiv_pos_as_xyz
  'x, y, z'

loop_
  _atom_site_label
  _atom_site_occupancy
  _atom_site_fract_x
  _atom_site_fract_y
  _atom_site_fract_z
  _atom_site_thermal_displace_type
  _atom_site_B_iso_or_equiv
  _atom_site_type_symbol
  Zr1      1.0000 0.13969  0.02072  0.17278  Biso   1.000  Zr
  Zr2      1.0000 0.13887  0.22663  0.42645  Biso   1.000  Zr
  Zr3      1.0000 0.34931  0.27368  0.18914  Biso   1.000  Zr
  Zr4      1.0000 0.36140  0.47918  0.42622  Biso   1.000  Zr
  Zr5      1.0000 0.64140  0.00971  0.08086  Biso   1.000  Zr
  Zr6      1.0000 0.63823  0.22442  0.32927  Biso   1.000  Zr
  Zr7      1.0000 0.86580  0.27060  0.07715  Biso   1.000  Zr
  Zr8      1.0000 0.85994  0.47801  0.32644  Biso   1.000  Zr
  O1       1.0000 0.03448  0.16230  0.08263  Biso   1.000  O
  O2       1.0000 0.03159  0.08706  0.33180  Biso   1.000  O
  O3       1.0000 0.45793  0.42820  0.09451  Biso   1.000  O
  O4       1.0000 0.46637  0.33381  0.33877  Biso   1.000  O
  O5       1.0000 0.27206  0.12358  0.30156  Biso   1.000  O
  O6       1.0000 0.27998  0.12871  0.04782  Biso   1.000  O
  O7       1.0000 0.21777  0.37708  0.30498  Biso   1.000  O
  O8       1.0000 0.22135  0.37698  0.04990  Biso   1.000  O
  O9       1.0000 0.52293  0.14851  0.18180  Biso   1.000  O
  O10      1.0000 0.53082  0.08467  0.42188  Biso   1.000  O
  O11      1.0000 0.96670  0.41423  0.17042  Biso   1.000  O
  O12      1.0000 0.96954  0.33723  0.41842  Biso   1.000  O
  O13      1.0000 0.77571  0.12348  0.45151  Biso   1.000  O
  O14      1.0000 0.77713  0.12481  0.20277  Biso   1.000  O
  O15      1.0000 0.72496  0.37464  0.45080  Biso   1.000  O
  O16      1.0000 0.71647  0.37137  0.19745  Biso   1.000  O
  Zr9      1.0000 0.13983  0.02073  0.67447  Biso   1.000  Zr
  Zr10     1.0000 0.14158  0.22939  0.92385  Biso   1.000  Zr
  Zr11     1.0000 0.36260  0.27152  0.67539  Biso   1.000  Zr
  Zr12     1.0000 0.35957  0.48308  0.92443  Biso   1.000  Zr
  Zr13     1.0000 0.64111  0.01626  0.57446  Biso   1.000  Zr
  Zr14     1.0000 0.65375  0.22623  0.80031  Biso   1.000  Zr
  Zr15     1.0000 0.86528  0.27298  0.57308  Biso   1.000  Zr
  Zr16     1.0000 0.86361  0.47906  0.82952  Biso   1.000  Zr
  O17      1.0000 0.03239  0.16151  0.58172  Biso   1.000  O
  O18      1.0000 0.03325  0.08733  0.83292  Biso   1.000  O
  O19      1.0000 0.47103  0.41356  0.58471  Biso   1.000  O
  O20      1.0000 0.47303  0.33398  0.83644  Biso   1.000  O
  O21      1.0000 0.27649  0.12480  0.79767  Biso   1.000  O
  O22      1.0000 0.27655  0.12460  0.54956  Biso   1.000  O
  O23      1.0000 0.22672  0.37426  0.79964  Biso   1.000  O
  O24      1.0000 0.22640  0.37459  0.55107  Biso   1.000  O
  O25      1.0000 0.53129  0.15959  0.66218  Biso   1.000  O
  O26      1.0000 0.53363  0.08254  0.91665  Biso   1.000  O
  O27      1.0000 0.97160  0.41138  0.67084  Biso   1.000  O
  O28      1.0000 0.97075  0.33572  0.92012  Biso   1.000  O
  O29      1.0000 0.76838  0.13003  0.95228  Biso   1.000  O
  O30      1.0000 0.78623  0.11893  0.69461  Biso   1.000  O
  O31      1.0000 0.72691  0.37912  0.95018  Biso   1.000  O
  O32      1.0000 0.73046  0.37813  0.69765  Biso   1.000  O
  Zr17     1.0000 0.13868  0.52214  0.17374  Biso   1.000  Zr
  Zr18     1.0000 0.13812  0.72801  0.42325  Biso   1.000  Zr
  Zr19     1.0000 0.36009  0.77159  0.17471  Biso   1.000  Zr
  Zr20     1.0000 0.36124  0.97705  0.42540  Biso   1.000  Zr
  Zr21     1.0000 0.64094  0.53265  0.07764  Biso   1.000  Zr
  Zr22     1.0000 0.63920  0.72918  0.32981  Biso   1.000  Zr
  Zr23     1.0000 0.86511  0.77074  0.07879  Biso   1.000  Zr
  Zr24     1.0000 0.86322  0.97915  0.32846  Biso   1.000  Zr
  O33      1.0000 0.03318  0.66335  0.08256  Biso   1.000  O
  O34      1.0000 0.02965  0.58702  0.33301  Biso   1.000  O
  O35      1.0000 0.46902  0.90853  0.08091  Biso   1.000  O
  O36      1.0000 0.46945  0.83756  0.33334  Biso   1.000  O
  O37      1.0000 0.27389  0.62519  0.29777  Biso   1.000  O
  O38      1.0000 0.27499  0.62763  0.04631  Biso   1.000  O
  O39      1.0000 0.22488  0.87421  0.29801  Biso   1.000  O
  O40      1.0000 0.22455  0.87732  0.04793  Biso   1.000  O
  O41      1.0000 0.53274  0.66805  0.17032  Biso   1.000  O
  O42      1.0000 0.53109  0.58728  0.41876  Biso   1.000  O
  O43      1.0000 0.96975  0.91412  0.16883  Biso   1.000  O
  O44      1.0000 0.96969  0.83734  0.42069  Biso   1.000  O
  O45      1.0000 0.77617  0.62440  0.45386  Biso   1.000  O
  O46      1.0000 0.77722  0.62512  0.20505  Biso   1.000  O
  O47      1.0000 0.72668  0.87362  0.45518  Biso   1.000  O
  O48      1.0000 0.72930  0.87113  0.20646  Biso   1.000  O
  Zr25     1.0000 0.13983  0.52044  0.67378  Biso   1.000  Zr
  Zr26     1.0000 0.13970  0.73022  0.92233  Biso   1.000  Zr
  Zr27     1.0000 0.36213  0.77080  0.67358  Biso   1.000  Zr
  Zr28     1.0000 0.36383  0.97853  0.92312  Biso   1.000  Zr
  Zr29     1.0000 0.64017  0.52309  0.57649  Biso   1.000  Zr
  Zr30     1.0000 0.64048  0.72936  0.82640  Biso   1.000  Zr
  Zr31     1.0000 0.86430  0.77055  0.58013  Biso   1.000  Zr
  Zr32     1.0000 0.86318  0.97971  0.83009  Biso   1.000  Zr
  O49      1.0000 0.03300  0.66198  0.58281  Biso   1.000  O
  O50      1.0000 0.03433  0.58639  0.83348  Biso   1.000  O
  O51      1.0000 0.47079  0.90940  0.58167  Biso   1.000  O
  O52      1.0000 0.46984  0.83600  0.83155  Biso   1.000  O
  O53      1.0000 0.27633  0.62550  0.79656  Biso   1.000  O
  O54      1.0000 0.27552  0.62481  0.54718  Biso   1.000  O
  O55      1.0000 0.22618  0.87441  0.79755  Biso   1.000  O
  O56      1.0000 0.22526  0.87496  0.54832  Biso   1.000  O
  O57      1.0000 0.53274  0.66296  0.66821  Biso   1.000  O
  O58      1.0000 0.53166  0.58821  0.91889  Biso   1.000  O
  O59      1.0000 0.97110  0.91075  0.67215  Biso   1.000  O
  O60      1.0000 0.97011  0.83739  0.91994  Biso   1.000  O
  O61      1.0000 0.77795  0.62828  0.95178  Biso   1.000  O
  O62      1.0000 0.77761  0.62587  0.70355  Biso   1.000  O
  O63      1.0000 0.72735  0.87438  0.95534  Biso   1.000  O
  O64      1.0000 0.72694  0.87439  0.70552  Biso   1.000  O
  Ca1      1.0000 0.55851  0.26547  0.02031  Biso   1.000  Ca
