data_image0
_cell_length_a       10.1156
_cell_length_b       10.4206
_cell_length_c       5.05792
_cell_angle_alpha    90.1362
_cell_angle_beta     90.2932
_cell_angle_gamma    90.0347

_symmetry_space_group_name_H-M    "P 1"
_symmetry_int_tables_number       1

loop_
  _symmetry_equiv_pos_as_xyz
  'x, y, z'

loop_
  _atom_site_label
  _atom_site_occupancy
  _atom_site_fract_x
  _atom_site_fract_y
  _atom_site_fract_z
  _atom_site_thermal_displace_type
  _atom_site_B_iso_or_equiv
  _atom_site_type_symbol
  Ca1      1.0000 0.12997  0.01216  0.24586  Biso   1.000  Ca
  Zr1      1.0000 0.13535  0.51529  0.25129  Biso   1.000  Zr
  Zr2      1.0000 0.63252  0.01471  0.24723  Biso   1.000  Zr
  Zr3      1.0000 0.63285  0.51501  0.25168  Biso   1.000  Zr
  Zr4      1.0000 0.13506  0.23405  0.74986  Biso   1.000  Zr
  Zr5      1.0000 0.13840  0.73565  0.75435  Biso   1.000  Zr
  Zr6      1.0000 0.63311  0.23332  0.74846  Biso   1.000  Zr
  Zr7      1.0000 0.63379  0.73337  0.75208  Biso   1.000  Zr
  Zr8      1.0000 0.36521  0.26498  0.25272  Biso   1.000  Zr
  Zr9      1.0000 0.36596  0.76554  0.25030  Biso   1.000  Zr
  Zr10     1.0000 0.86271  0.26579  0.25017  Biso   1.000  Zr
  Zr11     1.0000 0.86424  0.76578  0.25495  Biso   1.000  Zr
  Zr12     1.0000 0.36544  0.48317  0.75168  Biso   1.000  Zr
  Zr13     1.0000 0.36339  0.98220  0.74960  Biso   1.000  Zr
  Zr14     1.0000 0.86482  0.48516  0.75488  Biso   1.000  Zr
  Zr15     1.0000 0.86398  0.98218  0.74824  Biso   1.000  Zr
  O1       1.0000 0.03081  0.19791  0.39779  Biso   1.000  O
  O2       1.0000 0.03453  0.68242  0.39376  Biso   1.000  O
  O3       1.0000 0.53789  0.18442  0.38330  Biso   1.000  O
  O4       1.0000 0.53404  0.68042  0.39498  Biso   1.000  O
  O5       1.0000 0.02953  0.07385  0.85529  Biso   1.000  O
  O6       1.0000 0.03363  0.56841  0.89415  Biso   1.000  O
  O7       1.0000 0.53603  0.06609  0.88468  Biso   1.000  O
  O8       1.0000 0.53324  0.56684  0.89461  Biso   1.000  O
  O9       1.0000 0.46629  0.43194  0.39417  Biso   1.000  O
  O10      1.0000 0.46585  0.93369  0.39077  Biso   1.000  O
  O11      1.0000 0.96461  0.43739  0.39379  Biso   1.000  O
  O12      1.0000 0.95207  0.92570  0.40395  Biso   1.000  O
  O13      1.0000 0.46709  0.31763  0.89098  Biso   1.000  O
  O14      1.0000 0.47225  0.81884  0.89953  Biso   1.000  O
  O15      1.0000 0.96708  0.32190  0.89844  Biso   1.000  O
  O16      1.0000 0.96941  0.81812  0.90149  Biso   1.000  O
  O17      1.0000 0.28047  0.12634  0.50966  Biso   1.000  O
  O18      1.0000 0.26915  0.61443  0.49799  Biso   1.000  O
  O19      1.0000 0.76794  0.11598  0.49523  Biso   1.000  O
  O20      1.0000 0.76938  0.61603  0.49703  Biso   1.000  O
  O21      1.0000 0.27576  0.13459  0.99207  Biso   1.000  O
  O22      1.0000 0.27056  0.62966  0.99893  Biso   1.000  O
  O23      1.0000 0.76840  0.13437  0.99587  Biso   1.000  O
  O24      1.0000 0.76818  0.63184  0.99645  Biso   1.000  O
  O25      1.0000 0.23188  0.38294  0.99823  Biso   1.000  O
  O26      1.0000 0.23798  0.87460  0.99024  Biso   1.000  O
  O27      1.0000 0.72967  0.38382  0.99689  Biso   1.000  O
  O28      1.0000 0.73223  0.88158  0.99960  Biso   1.000  O
  O29      1.0000 0.22988  0.36937  0.49658  Biso   1.000  O
  O30      1.0000 0.23932  0.85901  0.50453  Biso   1.000  O
  O31      1.0000 0.73127  0.36722  0.49897  Biso   1.000  O
  O32      1.0000 0.72236  0.86532  0.49796  Biso   1.000  O
