data_image0
_cell_length_a       10.2377
_cell_length_b       5.21319
_cell_length_c       10.6672
_cell_angle_alpha    89.7678
_cell_angle_beta     79.0242
_cell_angle_gamma    90.1659

_symmetry_space_group_name_H-M    "P 1"
_symmetry_int_tables_number       1

loop_
  _symmetry_equiv_pos_as_xyz
  'x, y, z'

loop_
  _atom_site_label
  _atom_site_occupancy
  _atom_site_fract_x
  _atom_site_fract_y
  _atom_site_fract_z
  _atom_site_thermal_displace_type
  _atom_site_B_iso_or_equiv
  _atom_site_type_symbol
  Zr1      1.0000 0.13631  0.04229  0.14758  Biso   1.000  Zr
  Zr2      1.0000 0.13233  0.45599  0.39631  Biso   1.000  Zr
  Zr3      1.0000 0.34053  0.55249  0.07809  Biso   1.000  Zr
  Zr4      1.0000 0.35514  0.96150  0.35821  Biso   1.000  Zr
  O1       1.0000 0.03324  0.33214  0.07803  Biso   1.000  O
  O2       1.0000 0.03115  0.16394  0.32953  Biso   1.000  O
  O3       1.0000 0.46294  0.84303  0.17247  Biso   1.000  O
  O4       1.0000 0.47346  0.68808  0.43634  Biso   1.000  O
  O5       1.0000 0.27363  0.25135  0.23803  Biso   1.000  O
  O6       1.0000 0.27991  0.26099  0.48677  Biso   1.000  O
  O7       1.0000 0.20565  0.77127  0.99899  Biso   1.000  O
  O8       1.0000 0.22715  0.72715  0.25660  Biso   1.000  O
  Zr5      1.0000 0.13777  0.04642  0.64475  Biso   1.000  Zr
  Zr6      1.0000 0.13238  0.45528  0.89227  Biso   1.000  Zr
  Zr7      1.0000 0.36079  0.55204  0.60673  Biso   1.000  Zr
  Zr8      1.0000 0.35627  0.96460  0.84989  Biso   1.000  Zr
  O9       1.0000 0.03486  0.33716  0.58026  Biso   1.000  O
  O10      1.0000 0.03008  0.16563  0.82696  Biso   1.000  O
  O11      1.0000 0.46766  0.83311  0.67691  Biso   1.000  O
  O12      1.0000 0.46425  0.67799  0.91851  Biso   1.000  O
  O13      1.0000 0.27342  0.25753  0.73820  Biso   1.000  O
  O14      1.0000 0.27180  0.24324  0.98687  Biso   1.000  O
  O15      1.0000 0.22081  0.76373  0.50965  Biso   1.000  O
  O16      1.0000 0.22257  0.74355  0.75603  Biso   1.000  O
  Zr9      1.0000 0.63880  0.03555  0.14867  Biso   1.000  Zr
  Zr10     1.0000 0.65149  0.45132  0.41448  Biso   1.000  Zr
  Zr11     1.0000 0.85935  0.53928  0.10860  Biso   1.000  Zr
  Zr12     1.0000 0.85786  0.95339  0.35670  Biso   1.000  Zr
  O17      1.0000 0.52851  0.33629  0.07954  Biso   1.000  O
  O18      1.0000 0.54219  0.14971  0.33771  Biso   1.000  O
  O19      1.0000 0.96363  0.82607  0.17670  Biso   1.000  O
  O20      1.0000 0.96266  0.66498  0.42527  Biso   1.000  O
  O21      1.0000 0.77773  0.25257  0.24508  Biso   1.000  O
  O22      1.0000 0.78367  0.23466  0.50066  Biso   1.000  O
  O23      1.0000 0.72137  0.75283  0.01501  Biso   1.000  O
  O24      1.0000 0.71911  0.73237  0.26406  Biso   1.000  O
  Zr13     1.0000 0.63910  0.04413  0.65312  Biso   1.000  Zr
  Zr14     1.0000 0.63635  0.45503  0.90113  Biso   1.000  Zr
  Zr15     1.0000 0.86199  0.54614  0.61207  Biso   1.000  Zr
  Zr16     1.0000 0.85831  0.95559  0.85892  Biso   1.000  Zr
  O25      1.0000 0.53423  0.33231  0.58481  Biso   1.000  O
  O26      1.0000 0.52893  0.17627  0.82988  Biso   1.000  O
  O27      1.0000 0.96551  0.83461  0.67539  Biso   1.000  O
  O28      1.0000 0.96000  0.66111  0.92308  Biso   1.000  O
  O29      1.0000 0.77393  0.25950  0.74771  Biso   1.000  O
  O30      1.0000 0.77327  0.24040  0.99539  Biso   1.000  O
  O31      1.0000 0.72647  0.75535  0.51809  Biso   1.000  O
  O32      1.0000 0.72304  0.74515  0.76630  Biso   1.000  O
  Ca1      1.0000 0.44973  0.47508  0.27262  Biso   1.000  Ca
