data_image0
_cell_length_a       10.1476
_cell_length_b       10.307
_cell_length_c       10.5148
_cell_angle_alpha    89.9823
_cell_angle_beta     89.9145
_cell_angle_gamma    90.0416

_symmetry_space_group_name_H-M    "P 1"
_symmetry_int_tables_number       1

loop_
  _symmetry_equiv_pos_as_xyz
  'x, y, z'

loop_
  _atom_site_label
  _atom_site_occupancy
  _atom_site_fract_x
  _atom_site_fract_y
  _atom_site_fract_z
  _atom_site_thermal_displace_type
  _atom_site_B_iso_or_equiv
  _atom_site_type_symbol
  Ca1      1.0000 0.14050  0.01612  0.17071  Biso   1.000  Ca
  Zr1      1.0000 0.13958  0.02091  0.67202  Biso   1.000  Zr
  Zr2      1.0000 0.14009  0.52041  0.17175  Biso   1.000  Zr
  Zr3      1.0000 0.13957  0.52096  0.67203  Biso   1.000  Zr
  Zr4      1.0000 0.14012  0.22694  0.42094  Biso   1.000  Zr
  Zr5      1.0000 0.13923  0.22876  0.92370  Biso   1.000  Zr
  Zr6      1.0000 0.14178  0.72934  0.42133  Biso   1.000  Zr
  Zr7      1.0000 0.14119  0.72989  0.92252  Biso   1.000  Zr
  Zr8      1.0000 0.35783  0.26672  0.17173  Biso   1.000  Zr
  Zr9      1.0000 0.36021  0.27034  0.67199  Biso   1.000  Zr
  Zr10     1.0000 0.36149  0.77086  0.17153  Biso   1.000  Zr
  Zr11     1.0000 0.36091  0.77178  0.67167  Biso   1.000  Zr
  Zr12     1.0000 0.36085  0.47782  0.42102  Biso   1.000  Zr
  Zr13     1.0000 0.36020  0.47805  0.92260  Biso   1.000  Zr
  Zr14     1.0000 0.35966  0.97971  0.42015  Biso   1.000  Zr
  Zr15     1.0000 0.36042  0.98011  0.92272  Biso   1.000  Zr
  Zr16     1.0000 0.63931  0.02085  0.07905  Biso   1.000  Zr
  Zr17     1.0000 0.63883  0.02092  0.57785  Biso   1.000  Zr
  Zr18     1.0000 0.63758  0.51935  0.07818  Biso   1.000  Zr
  Zr19     1.0000 0.63850  0.52090  0.57766  Biso   1.000  Zr
  Zr20     1.0000 0.63866  0.22946  0.32799  Biso   1.000  Zr
  Zr21     1.0000 0.63869  0.22868  0.82830  Biso   1.000  Zr
  Zr22     1.0000 0.63923  0.72996  0.32778  Biso   1.000  Zr
  Zr23     1.0000 0.63789  0.72906  0.82806  Biso   1.000  Zr
  Zr24     1.0000 0.86154  0.27074  0.07659  Biso   1.000  Zr
  Zr25     1.0000 0.86034  0.27098  0.57765  Biso   1.000  Zr
  Zr26     1.0000 0.85879  0.77057  0.07870  Biso   1.000  Zr
  Zr27     1.0000 0.86121  0.77098  0.57821  Biso   1.000  Zr
  Zr28     1.0000 0.86042  0.47986  0.32789  Biso   1.000  Zr
  Zr29     1.0000 0.85970  0.47997  0.82752  Biso   1.000  Zr
  Zr30     1.0000 0.86184  0.97945  0.32740  Biso   1.000  Zr
  Zr31     1.0000 0.86036  0.97892  0.82879  Biso   1.000  Zr
  O1       1.0000 0.03042  0.17545  0.08047  Biso   1.000  O
  O2       1.0000 0.03273  0.16837  0.58850  Biso   1.000  O
  O3       1.0000 0.03195  0.66444  0.08352  Biso   1.000  O
  O4       1.0000 0.03256  0.66546  0.58529  Biso   1.000  O
  O5       1.0000 0.02498  0.08885  0.34601  Biso   1.000  O
  O6       1.0000 0.03186  0.08390  0.83511  Biso   1.000  O
  O7       1.0000 0.03188  0.58643  0.33406  Biso   1.000  O
  O8       1.0000 0.03168  0.58477  0.83366  Biso   1.000  O
  O9       1.0000 0.46763  0.41169  0.08225  Biso   1.000  O
  O10      1.0000 0.46868  0.41303  0.58243  Biso   1.000  O
  O11      1.0000 0.47029  0.91442  0.08319  Biso   1.000  O
  O12      1.0000 0.46874  0.91313  0.58193  Biso   1.000  O
  O13      1.0000 0.46940  0.33784  0.33231  Biso   1.000  O
  O14      1.0000 0.46825  0.33575  0.83219  Biso   1.000  O
  O15      1.0000 0.47241  0.83857  0.33165  Biso   1.000  O
  O16      1.0000 0.46882  0.83672  0.83146  Biso   1.000  O
  O17      1.0000 0.28247  0.12892  0.30367  Biso   1.000  O
  O18      1.0000 0.27395  0.12408  0.79400  Biso   1.000  O
  O19      1.0000 0.27633  0.62085  0.29545  Biso   1.000  O
  O20      1.0000 0.27501  0.62480  0.79613  Biso   1.000  O
  O21      1.0000 0.28450  0.13262  0.03800  Biso   1.000  O
  O22      1.0000 0.27450  0.12476  0.54766  Biso   1.000  O
  O23      1.0000 0.27482  0.62193  0.04674  Biso   1.000  O
  O24      1.0000 0.27549  0.62568  0.54586  Biso   1.000  O
  O25      1.0000 0.22346  0.37383  0.29546  Biso   1.000  O
  O26      1.0000 0.22531  0.37495  0.79555  Biso   1.000  O
  O27      1.0000 0.23226  0.86596  0.30069  Biso   1.000  O
  O28      1.0000 0.22473  0.87466  0.79372  Biso   1.000  O
  O29      1.0000 0.22303  0.37698  0.04598  Biso   1.000  O
  O30      1.0000 0.22545  0.37590  0.54599  Biso   1.000  O
  O31      1.0000 0.23604  0.86610  0.03845  Biso   1.000  O
  O32      1.0000 0.22462  0.87606  0.54668  Biso   1.000  O
  O33      1.0000 0.53245  0.16430  0.16717  Biso   1.000  O
  O34      1.0000 0.53148  0.16378  0.66668  Biso   1.000  O
  O35      1.0000 0.53135  0.66157  0.16810  Biso   1.000  O
  O36      1.0000 0.53106  0.66303  0.66751  Biso   1.000  O
  O37      1.0000 0.53252  0.08578  0.41702  Biso   1.000  O
  O38      1.0000 0.53430  0.08457  0.91570  Biso   1.000  O
  O39      1.0000 0.53105  0.58698  0.41801  Biso   1.000  O
  O40      1.0000 0.52994  0.58649  0.91779  Biso   1.000  O
  O41      1.0000 0.96629  0.41783  0.16524  Biso   1.000  O
  O42      1.0000 0.96718  0.41703  0.66395  Biso   1.000  O
  O43      1.0000 0.95547  0.90904  0.16930  Biso   1.000  O
  O44      1.0000 0.96716  0.91567  0.66584  Biso   1.000  O
  O45      1.0000 0.96825  0.33751  0.41639  Biso   1.000  O
  O46      1.0000 0.96663  0.33709  0.91196  Biso   1.000  O
  O47      1.0000 0.96968  0.83513  0.41752  Biso   1.000  O
  O48      1.0000 0.96838  0.83490  0.91577  Biso   1.000  O
  O49      1.0000 0.77580  0.12415  0.95420  Biso   1.000  O
  O50      1.0000 0.77271  0.12668  0.45602  Biso   1.000  O
  O51      1.0000 0.77276  0.62271  0.95305  Biso   1.000  O
  O52      1.0000 0.77513  0.62490  0.45429  Biso   1.000  O
  O53      1.0000 0.77466  0.12624  0.20498  Biso   1.000  O
  O54      1.0000 0.77490  0.12552  0.70486  Biso   1.000  O
  O55      1.0000 0.77465  0.62571  0.20410  Biso   1.000  O
  O56      1.0000 0.77416  0.62608  0.70347  Biso   1.000  O
  O57      1.0000 0.72330  0.37417  0.95295  Biso   1.000  O
  O58      1.0000 0.72488  0.37580  0.45367  Biso   1.000  O
  O59      1.0000 0.72497  0.87392  0.95368  Biso   1.000  O
  O60      1.0000 0.72667  0.87483  0.45473  Biso   1.000  O
  O61      1.0000 0.72457  0.37643  0.20447  Biso   1.000  O
  O62      1.0000 0.72492  0.37546  0.70320  Biso   1.000  O
  O63      1.0000 0.71700  0.87517  0.20397  Biso   1.000  O
  O64      1.0000 0.72502  0.87526  0.70428  Biso   1.000  O
