data_image0
_cell_length_a       10.1142
_cell_length_b       10.2204
_cell_length_c       5.01769
_cell_angle_alpha    90.002
_cell_angle_beta     89.9977
_cell_angle_gamma    90.0011

_symmetry_space_group_name_H-M    "P 1"
_symmetry_int_tables_number       1

loop_
  _symmetry_equiv_pos_as_xyz
  'x, y, z'

loop_
  _atom_site_label
  _atom_site_occupancy
  _atom_site_fract_x
  _atom_site_fract_y
  _atom_site_fract_z
  _atom_site_thermal_displace_type
  _atom_site_B_iso_or_equiv
  _atom_site_type_symbol
  Ca1      1.0000 0.12549  0.00005  0.25286  Biso   1.000  Ca
  Zr1      1.0000 0.12549  0.50006  0.25285  Biso   1.000  Zr
  Zr2      1.0000 0.62549  0.00005  0.25286  Biso   1.000  Zr
  Zr3      1.0000 0.62549  0.50006  0.25286  Biso   1.000  Zr
  Zr4      1.0000 0.12548  0.25036  0.75286  Biso   1.000  Zr
  Zr5      1.0000 0.12549  0.74976  0.75285  Biso   1.000  Zr
  Zr6      1.0000 0.62549  0.24874  0.75286  Biso   1.000  Zr
  Zr7      1.0000 0.62548  0.75137  0.75285  Biso   1.000  Zr
  Zr8      1.0000 0.37523  0.25039  0.25161  Biso   1.000  Zr
  Zr9      1.0000 0.37523  0.74973  0.25411  Biso   1.000  Zr
  Zr10     1.0000 0.87574  0.25038  0.25411  Biso   1.000  Zr
  Zr11     1.0000 0.87574  0.74973  0.25161  Biso   1.000  Zr
  Zr12     1.0000 0.37413  0.00006  0.75287  Biso   1.000  Zr
  Zr13     1.0000 0.37513  0.50005  0.75286  Biso   1.000  Zr
  Zr14     1.0000 0.87685  0.00004  0.75286  Biso   1.000  Zr
  Zr15     1.0000 0.87584  0.50006  0.75286  Biso   1.000  Zr
  O1       1.0000 0.99762  0.14247  0.00221  Biso   1.000  O
  O2       1.0000 0.00446  0.63572  0.01502  Biso   1.000  O
  O3       1.0000 0.50675  0.14329  0.01482  Biso   1.000  O
  O4       1.0000 0.50440  0.64212  0.00718  Biso   1.000  O
  O5       1.0000 0.99142  0.12196  0.52047  Biso   1.000  O
  O6       1.0000 0.99830  0.61090  0.51159  Biso   1.000  O
  O7       1.0000 0.49968  0.10705  0.51020  Biso   1.000  O
  O8       1.0000 0.49771  0.60734  0.50532  Biso   1.000  O
  O9       1.0000 0.00446  0.36439  0.49070  Biso   1.000  O
  O10      1.0000 0.99762  0.85763  0.50352  Biso   1.000  O
  O11      1.0000 0.50440  0.35799  0.49854  Biso   1.000  O
  O12      1.0000 0.50676  0.85682  0.49088  Biso   1.000  O
  O13      1.0000 0.99829  0.38921  0.99414  Biso   1.000  O
  O14      1.0000 0.99144  0.87815  0.98525  Biso   1.000  O
  O15      1.0000 0.49770  0.39278  0.00041  Biso   1.000  O
  O16      1.0000 0.49969  0.89306  0.99549  Biso   1.000  O
  O17      1.0000 0.25335  0.14248  0.50353  Biso   1.000  O
  O18      1.0000 0.24652  0.63572  0.49068  Biso   1.000  O
  O19      1.0000 0.74422  0.14329  0.49089  Biso   1.000  O
  O20      1.0000 0.74658  0.64212  0.49853  Biso   1.000  O
  O21      1.0000 0.25954  0.12197  0.98526  Biso   1.000  O
  O22      1.0000 0.25267  0.61090  0.99411  Biso   1.000  O
  O23      1.0000 0.75128  0.10705  0.99549  Biso   1.000  O
  O24      1.0000 0.75327  0.60734  0.00039  Biso   1.000  O
  O25      1.0000 0.24651  0.36439  0.01503  Biso   1.000  O
  O26      1.0000 0.25336  0.85764  0.00222  Biso   1.000  O
  O27      1.0000 0.74657  0.35798  0.00718  Biso   1.000  O
  O28      1.0000 0.74423  0.85682  0.01481  Biso   1.000  O
  O29      1.0000 0.25267  0.38921  0.51159  Biso   1.000  O
  O30      1.0000 0.25955  0.87815  0.52048  Biso   1.000  O
  O31      1.0000 0.75326  0.39278  0.50531  Biso   1.000  O
  O32      1.0000 0.75128  0.89307  0.51020  Biso   1.000  O
