data_image0
_cell_length_a       10.2865
_cell_length_b       10.3639
_cell_length_c       5.25713
_cell_angle_alpha    90.0436
_cell_angle_beta     80.0898
_cell_angle_gamma    90.1236

_symmetry_space_group_name_H-M    "P 1"
_symmetry_int_tables_number       1

loop_
  _symmetry_equiv_pos_as_xyz
  'x, y, z'

loop_
  _atom_site_label
  _atom_site_occupancy
  _atom_site_fract_x
  _atom_site_fract_y
  _atom_site_fract_z
  _atom_site_thermal_displace_type
  _atom_site_B_iso_or_equiv
  _atom_site_type_symbol
  Ca1      1.0000 0.13923  0.01576  0.29336  Biso   1.000  Ca
  Zr1      1.0000 0.14066  0.52096  0.28962  Biso   1.000  Zr
  Zr2      1.0000 0.63985  0.02062  0.29175  Biso   1.000  Zr
  Zr3      1.0000 0.63797  0.51995  0.28927  Biso   1.000  Zr
  Zr4      1.0000 0.14046  0.22836  0.79324  Biso   1.000  Zr
  Zr5      1.0000 0.14320  0.72938  0.78966  Biso   1.000  Zr
  Zr6      1.0000 0.63868  0.22918  0.79079  Biso   1.000  Zr
  Zr7      1.0000 0.63859  0.72825  0.79013  Biso   1.000  Zr
  Zr8      1.0000 0.35779  0.26711  0.21031  Biso   1.000  Zr
  Zr9      1.0000 0.36065  0.77174  0.20786  Biso   1.000  Zr
  Zr10     1.0000 0.85957  0.27112  0.20492  Biso   1.000  Zr
  Zr11     1.0000 0.85989  0.77056  0.20871  Biso   1.000  Zr
  Zr12     1.0000 0.36018  0.47711  0.70754  Biso   1.000  Zr
  Zr13     1.0000 0.35891  0.97940  0.70907  Biso   1.000  Zr
  Zr14     1.0000 0.86002  0.48017  0.70664  Biso   1.000  Zr
  Zr15     1.0000 0.86026  0.97812  0.70993  Biso   1.000  Zr
  O1       1.0000 0.03367  0.18305  0.16166  Biso   1.000  O
  O2       1.0000 0.03476  0.66719  0.15977  Biso   1.000  O
  O3       1.0000 0.53406  0.16653  0.15840  Biso   1.000  O
  O4       1.0000 0.53339  0.66480  0.15625  Biso   1.000  O
  O5       1.0000 0.02723  0.08518  0.69099  Biso   1.000  O
  O6       1.0000 0.03357  0.58332  0.65722  Biso   1.000  O
  O7       1.0000 0.53569  0.08318  0.65788  Biso   1.000  O
  O8       1.0000 0.53245  0.58367  0.65508  Biso   1.000  O
  O9       1.0000 0.46627  0.41421  0.34248  Biso   1.000  O
  O10      1.0000 0.46816  0.91667  0.34127  Biso   1.000  O
  O11      1.0000 0.96408  0.42092  0.33536  Biso   1.000  O
  O12      1.0000 0.94973  0.91588  0.34846  Biso   1.000  O
  O13      1.0000 0.46762  0.33475  0.84284  Biso   1.000  O
  O14      1.0000 0.47180  0.83690  0.84481  Biso   1.000  O
  O15      1.0000 0.96491  0.33601  0.83385  Biso   1.000  O
  O16      1.0000 0.96742  0.83192  0.84026  Biso   1.000  O
  O17      1.0000 0.28300  0.13308  0.49365  Biso   1.000  O
  O18      1.0000 0.27596  0.62493  0.47889  Biso   1.000  O
  O19      1.0000 0.77478  0.12912  0.48200  Biso   1.000  O
  O20      1.0000 0.77387  0.62800  0.47861  Biso   1.000  O
  O21      1.0000 0.28291  0.12671  0.97135  Biso   1.000  O
  O22      1.0000 0.27613  0.61886  0.98022  Biso   1.000  O
  O23      1.0000 0.77281  0.12253  0.98265  Biso   1.000  O
  O24      1.0000 0.77361  0.62041  0.97840  Biso   1.000  O
  O25      1.0000 0.22554  0.37923  0.01796  Biso   1.000  O
  O26      1.0000 0.23334  0.86957  0.00479  Biso   1.000  O
  O27      1.0000 0.72369  0.37923  0.01598  Biso   1.000  O
  O28      1.0000 0.72581  0.87794  0.01817  Biso   1.000  O
  O29      1.0000 0.22288  0.37244  0.51728  Biso   1.000  O
  O30      1.0000 0.23352  0.86365  0.52157  Biso   1.000  O
  O31      1.0000 0.72442  0.37194  0.51717  Biso   1.000  O
  O32      1.0000 0.71696  0.87041  0.52195  Biso   1.000  O
