data_image0
_cell_length_a       10.1835
_cell_length_b       10.2908
_cell_length_c       10.5242
_cell_angle_alpha    90.1795
_cell_angle_beta     79.5625
_cell_angle_gamma    90.0478

_symmetry_space_group_name_H-M    "P 1"
_symmetry_int_tables_number       1

loop_
  _symmetry_equiv_pos_as_xyz
  'x, y, z'

loop_
  _atom_site_label
  _atom_site_occupancy
  _atom_site_fract_x
  _atom_site_fract_y
  _atom_site_fract_z
  _atom_site_thermal_displace_type
  _atom_site_B_iso_or_equiv
  _atom_site_type_symbol
  Hf1      1.0000 0.13023  0.02103  0.14163  Biso   1.000  Hf
  Hf2      1.0000 0.14228  0.22944  0.39027  Biso   1.000  Hf
  Hf3      1.0000 0.34931  0.27396  0.09628  Biso   1.000  Hf
  Hf4      1.0000 0.35918  0.47885  0.34658  Biso   1.000  Hf
  O1       1.0000 0.03063  0.16804  0.07539  Biso   1.000  O
  O2       1.0000 0.02967  0.08313  0.32829  Biso   1.000  O
  O3       1.0000 0.45753  0.43542  0.15516  Biso   1.000  O
  O4       1.0000 0.49251  0.36074  0.44936  Biso   1.000  O
  O5       1.0000 0.26172  0.11533  0.23146  Biso   1.000  O
  O6       1.0000 0.28088  0.11593  0.48806  Biso   1.000  O
  O7       1.0000 0.21708  0.38316  0.00326  Biso   1.000  O
  O8       1.0000 0.20340  0.37658  0.25052  Biso   1.000  O
  Hf5      1.0000 0.13961  0.02100  0.64482  Biso   1.000  Hf
  Hf6      1.0000 0.13521  0.22966  0.89240  Biso   1.000  Hf
  Hf7      1.0000 0.36419  0.27622  0.60856  Biso   1.000  Hf
  Hf8      1.0000 0.36013  0.48017  0.85642  Biso   1.000  Hf
  O9       1.0000 0.04081  0.16768  0.57651  Biso   1.000  O
  O10      1.0000 0.03302  0.08381  0.82590  Biso   1.000  O
  O11      1.0000 0.46834  0.41384  0.68372  Biso   1.000  O
  O12      1.0000 0.46329  0.33247  0.92169  Biso   1.000  O
  O13      1.0000 0.27557  0.12916  0.73812  Biso   1.000  O
  O14      1.0000 0.27109  0.12391  0.98478  Biso   1.000  O
  O15      1.0000 0.22913  0.37624  0.50836  Biso   1.000  O
  O16      1.0000 0.22433  0.37257  0.75797  Biso   1.000  O
  Hf9      1.0000 0.13603  0.52384  0.14359  Biso   1.000  Hf
  Hf10     1.0000 0.13678  0.72532  0.39672  Biso   1.000  Hf
  Hf11     1.0000 0.35975  0.77270  0.10399  Biso   1.000  Hf
  Hf12     1.0000 0.35699  0.96539  0.35635  Biso   1.000  Hf
  O17      1.0000 0.03095  0.66924  0.07654  Biso   1.000  O
  O18      1.0000 0.03091  0.58591  0.32624  Biso   1.000  O
  O19      1.0000 0.46476  0.91825  0.17445  Biso   1.000  O
  O20      1.0000 0.46278  0.82681  0.42291  Biso   1.000  O
  O21      1.0000 0.27364  0.62851  0.24058  Biso   1.000  O
  O22      1.0000 0.27354  0.61932  0.49036  Biso   1.000  O
  O23      1.0000 0.22312  0.87999  0.00943  Biso   1.000  O
  O24      1.0000 0.22178  0.86643  0.26065  Biso   1.000  O
  Hf13     1.0000 0.14014  0.52169  0.64515  Biso   1.000  Hf
  Hf14     1.0000 0.13652  0.72946  0.89635  Biso   1.000  Hf
  Hf15     1.0000 0.36103  0.76890  0.60565  Biso   1.000  Hf
  Hf16     1.0000 0.35966  0.97913  0.85352  Biso   1.000  Hf
  O25      1.0000 0.03165  0.66408  0.57849  Biso   1.000  O
  O26      1.0000 0.03410  0.58438  0.82766  Biso   1.000  O
  O27      1.0000 0.46543  0.91514  0.67222  Biso   1.000  O
  O28      1.0000 0.46439  0.83571  0.92241  Biso   1.000  O
  O29      1.0000 0.27607  0.62783  0.74081  Biso   1.000  O
  O30      1.0000 0.27502  0.62498  0.99115  Biso   1.000  O
  O31      1.0000 0.22196  0.87462  0.51108  Biso   1.000  O
  O32      1.0000 0.22329  0.87118  0.75976  Biso   1.000  O
  Hf17     1.0000 0.64082  0.01926  0.14782  Biso   1.000  Hf
  Hf18     1.0000 0.65802  0.23194  0.41147  Biso   1.000  Hf
  Hf19     1.0000 0.85803  0.27319  0.10578  Biso   1.000  Hf
  Hf20     1.0000 0.86305  0.47866  0.35380  Biso   1.000  Hf
  O33      1.0000 0.53100  0.16592  0.08171  Biso   1.000  O
  O34      1.0000 0.54551  0.06876  0.34189  Biso   1.000  O
  O35      1.0000 0.95997  0.42102  0.16896  Biso   1.000  O
  O36      1.0000 0.96693  0.33301  0.42198  Biso   1.000  O
  O37      1.0000 0.77668  0.12987  0.24416  Biso   1.000  O
  O38      1.0000 0.78290  0.11831  0.49728  Biso   1.000  O
  O39      1.0000 0.72144  0.37895  0.01290  Biso   1.000  O
  O40      1.0000 0.72138  0.37106  0.26416  Biso   1.000  O
  Hf21     1.0000 0.63847  0.02013  0.64939  Biso   1.000  Hf
  Hf22     1.0000 0.63690  0.22891  0.89914  Biso   1.000  Hf
  Hf23     1.0000 0.86888  0.27089  0.60919  Biso   1.000  Hf
  Hf24     1.0000 0.86043  0.47940  0.85577  Biso   1.000  Hf
  O41      1.0000 0.53686  0.16598  0.58151  Biso   1.000  O
  O42      1.0000 0.53321  0.08313  0.83008  Biso   1.000  O
  O43      1.0000 0.96846  0.41675  0.67402  Biso   1.000  O
  O44      1.0000 0.96194  0.33317  0.92118  Biso   1.000  O
  O45      1.0000 0.77565  0.12937  0.74378  Biso   1.000  O
  O46      1.0000 0.77398  0.12148  0.99307  Biso   1.000  O
  O47      1.0000 0.73376  0.37731  0.51737  Biso   1.000  O
  O48      1.0000 0.72542  0.37157  0.76397  Biso   1.000  O
  Hf25     1.0000 0.63491  0.52444  0.14502  Biso   1.000  Hf
  Hf26     1.0000 0.63855  0.72517  0.39641  Biso   1.000  Hf
  Hf27     1.0000 0.85764  0.77016  0.10422  Biso   1.000  Hf
  Hf28     1.0000 0.86111  0.97568  0.35544  Biso   1.000  Hf
  O49      1.0000 0.53631  0.67554  0.07941  Biso   1.000  O
  O50      1.0000 0.53173  0.58529  0.32517  Biso   1.000  O
  O51      1.0000 0.96043  0.91398  0.17394  Biso   1.000  O
  O52      1.0000 0.96472  0.83207  0.42326  Biso   1.000  O
  O53      1.0000 0.77489  0.62891  0.24104  Biso   1.000  O
  O54      1.0000 0.77426  0.61973  0.49049  Biso   1.000  O
  O55      1.0000 0.72332  0.88013  0.01061  Biso   1.000  O
  O56      1.0000 0.72103  0.86977  0.26076  Biso   1.000  O
  Hf29     1.0000 0.63874  0.52144  0.64908  Biso   1.000  Hf
  Hf30     1.0000 0.63690  0.73048  0.89671  Biso   1.000  Hf
  Hf31     1.0000 0.86080  0.77151  0.60453  Biso   1.000  Hf
  Hf32     1.0000 0.86053  0.97917  0.85450  Biso   1.000  Hf
  O57      1.0000 0.53296  0.66330  0.57933  Biso   1.000  O
  O58      1.0000 0.53352  0.58545  0.83078  Biso   1.000  O
  O59      1.0000 0.96504  0.91691  0.67155  Biso   1.000  O
  O60      1.0000 0.96458  0.83519  0.92201  Biso   1.000  O
  O61      1.0000 0.77508  0.62895  0.74037  Biso   1.000  O
  O62      1.0000 0.77398  0.62210  0.98985  Biso   1.000  O
  O63      1.0000 0.72215  0.87726  0.51135  Biso   1.000  O
  O64      1.0000 0.72382  0.87202  0.76119  Biso   1.000  O
  Cd1      1.0000 0.43517  0.23013  0.30605  Biso   1.000  Cd
