data_image0
_cell_length_a       10.1002
_cell_length_b       10.3124
_cell_length_c       5.28596
_cell_angle_alpha    89.7577
_cell_angle_beta     91.7389
_cell_angle_gamma    90.0364

_symmetry_space_group_name_H-M    "P 1"
_symmetry_int_tables_number       1

loop_
  _symmetry_equiv_pos_as_xyz
  'x, y, z'

loop_
  _atom_site_label
  _atom_site_occupancy
  _atom_site_fract_x
  _atom_site_fract_y
  _atom_site_fract_z
  _atom_site_thermal_displace_type
  _atom_site_B_iso_or_equiv
  _atom_site_type_symbol
  Hf1      1.0000 0.13861  0.01973  0.34876  Biso   1.000  Hf
  Hf2      1.0000 0.13546  0.22592  0.85846  Biso   1.000  Hf
  Hf3      1.0000 0.34596  0.26858  0.38545  Biso   1.000  Hf
  Hf4      1.0000 0.35934  0.48432  0.85318  Biso   1.000  Hf
  Hf5      1.0000 0.64356  0.01779  0.14412  Biso   1.000  Hf
  Hf6      1.0000 0.64858  0.22251  0.64259  Biso   1.000  Hf
  Hf7      1.0000 0.85797  0.26958  0.14386  Biso   1.000  Hf
  Hf8      1.0000 0.86820  0.48138  0.65013  Biso   1.000  Hf
  O1       1.0000 0.03295  0.16355  0.16988  Biso   1.000  O
  O2       1.0000 0.03669  0.08160  0.66658  Biso   1.000  O
  O3       1.0000 0.46039  0.43009  0.19685  Biso   1.000  O
  O4       1.0000 0.46887  0.33619  0.68071  Biso   1.000  O
  O5       1.0000 0.27108  0.12509  0.60980  Biso   1.000  O
  O6       1.0000 0.27769  0.12419  0.10545  Biso   1.000  O
  O7       1.0000 0.22107  0.37520  0.61080  Biso   1.000  O
  O8       1.0000 0.22435  0.37473  0.10772  Biso   1.000  O
  O9       1.0000 0.51149  0.14349  0.38657  Biso   1.000  O
  O10      1.0000 0.53501  0.06765  0.82311  Biso   1.000  O
  O11      1.0000 0.96730  0.41296  0.33343  Biso   1.000  O
  O12      1.0000 0.97139  0.33425  0.83277  Biso   1.000  O
  O13      1.0000 0.79358  0.11806  0.88407  Biso   1.000  O
  O14      1.0000 0.77990  0.12229  0.39804  Biso   1.000  O
  O15      1.0000 0.74303  0.39510  0.89807  Biso   1.000  O
  O16      1.0000 0.72384  0.37817  0.40790  Biso   1.000  O
  Hf9      1.0000 0.13728  0.52039  0.34293  Biso   1.000  Hf
  Hf10     1.0000 0.14027  0.73017  0.84461  Biso   1.000  Hf
  Hf11     1.0000 0.36269  0.77133  0.34970  Biso   1.000  Hf
  Hf12     1.0000 0.36290  0.97504  0.85397  Biso   1.000  Hf
  Hf13     1.0000 0.64542  0.53321  0.15542  Biso   1.000  Hf
  Hf14     1.0000 0.64044  0.73187  0.65526  Biso   1.000  Hf
  Hf15     1.0000 0.86553  0.77226  0.15563  Biso   1.000  Hf
  Hf16     1.0000 0.86563  0.97644  0.65264  Biso   1.000  Hf
  O17      1.0000 0.03471  0.66320  0.16249  Biso   1.000  O
  O18      1.0000 0.03737  0.58659  0.66345  Biso   1.000  O
  O19      1.0000 0.47049  0.91029  0.16926  Biso   1.000  O
  O20      1.0000 0.46720  0.83049  0.67194  Biso   1.000  O
  O21      1.0000 0.27728  0.62331  0.59092  Biso   1.000  O
  O22      1.0000 0.27570  0.62557  0.09159  Biso   1.000  O
  O23      1.0000 0.22631  0.87320  0.59644  Biso   1.000  O
  O24      1.0000 0.22452  0.87433  0.09872  Biso   1.000  O
  O25      1.0000 0.53571  0.66791  0.33536  Biso   1.000  O
  O26      1.0000 0.53254  0.58660  0.83834  Biso   1.000  O
  O27      1.0000 0.97116  0.91345  0.33245  Biso   1.000  O
  O28      1.0000 0.97016  0.83385  0.83598  Biso   1.000  O
  O29      1.0000 0.77690  0.63255  0.90538  Biso   1.000  O
  O30      1.0000 0.78041  0.62852  0.40570  Biso   1.000  O
  O31      1.0000 0.72811  0.87581  0.91079  Biso   1.000  O
  O32      1.0000 0.72805  0.87330  0.40967  Biso   1.000  O
  Cd1      1.0000 0.56574  0.26822  0.08359  Biso   1.000  Cd
