data_image0
_cell_length_a       10.156
_cell_length_b       5.14557
_cell_length_c       10.4564
_cell_angle_alpha    90.145
_cell_angle_beta     80.4351
_cell_angle_gamma    90.0013

_symmetry_space_group_name_H-M    "P 1"
_symmetry_int_tables_number       1

loop_
  _symmetry_equiv_pos_as_xyz
  'x, y, z'

loop_
  _atom_site_label
  _atom_site_occupancy
  _atom_site_fract_x
  _atom_site_fract_y
  _atom_site_fract_z
  _atom_site_thermal_displace_type
  _atom_site_B_iso_or_equiv
  _atom_site_type_symbol
  Cd1      1.0000 0.13052  0.02606  0.14986  Biso   1.000  Cd
  Hf1      1.0000 0.14012  0.04074  0.64539  Biso   1.000  Hf
  Hf2      1.0000 0.63893  0.03986  0.14563  Biso   1.000  Hf
  Hf3      1.0000 0.63861  0.04294  0.64683  Biso   1.000  Hf
  Hf4      1.0000 0.13996  0.45381  0.39497  Biso   1.000  Hf
  Hf5      1.0000 0.14115  0.45923  0.89635  Biso   1.000  Hf
  Hf6      1.0000 0.63711  0.45624  0.39646  Biso   1.000  Hf
  Hf7      1.0000 0.63983  0.45971  0.89586  Biso   1.000  Hf
  Hf8      1.0000 0.35953  0.53631  0.10275  Biso   1.000  Hf
  Hf9      1.0000 0.36054  0.54307  0.60416  Biso   1.000  Hf
  Hf10     1.0000 0.86095  0.53394  0.10242  Biso   1.000  Hf
  Hf11     1.0000 0.86066  0.54217  0.60390  Biso   1.000  Hf
  Hf12     1.0000 0.35982  0.95497  0.35208  Biso   1.000  Hf
  Hf13     1.0000 0.36142  0.96309  0.85444  Biso   1.000  Hf
  Hf14     1.0000 0.85768  0.95696  0.35780  Biso   1.000  Hf
  Hf15     1.0000 0.86218  0.95772  0.85419  Biso   1.000  Hf
  O1       1.0000 0.04030  0.37181  0.08143  Biso   1.000  O
  O2       1.0000 0.03511  0.33774  0.58138  Biso   1.000  O
  O3       1.0000 0.53715  0.33610  0.07891  Biso   1.000  O
  O4       1.0000 0.53416  0.33559  0.58003  Biso   1.000  O
  O5       1.0000 0.03148  0.15488  0.34506  Biso   1.000  O
  O6       1.0000 0.03656  0.16126  0.83027  Biso   1.000  O
  O7       1.0000 0.53466  0.16173  0.32969  Biso   1.000  O
  O8       1.0000 0.53774  0.16461  0.82881  Biso   1.000  O
  O9       1.0000 0.46736  0.83241  0.16988  Biso   1.000  O
  O10      1.0000 0.46545  0.83651  0.66999  Biso   1.000  O
  O11      1.0000 0.94129  0.85713  0.16831  Biso   1.000  O
  O12      1.0000 0.96490  0.83780  0.66895  Biso   1.000  O
  O13      1.0000 0.46489  0.66345  0.42131  Biso   1.000  O
  O14      1.0000 0.46921  0.67032  0.91960  Biso   1.000  O
  O15      1.0000 0.96294  0.65715  0.41819  Biso   1.000  O
  O16      1.0000 0.96354  0.65976  0.91707  Biso   1.000  O
  O17      1.0000 0.28023  0.25241  0.24255  Biso   1.000  O
  O18      1.0000 0.27609  0.25709  0.73739  Biso   1.000  O
  O19      1.0000 0.77418  0.26040  0.24245  Biso   1.000  O
  O20      1.0000 0.77763  0.25916  0.74034  Biso   1.000  O
  O21      1.0000 0.27627  0.24091  0.49039  Biso   1.000  O
  O22      1.0000 0.28723  0.26106  0.97937  Biso   1.000  O
  O23      1.0000 0.77373  0.24239  0.49233  Biso   1.000  O
  O24      1.0000 0.77668  0.24032  0.99016  Biso   1.000  O
  O25      1.0000 0.23151  0.76070  0.00402  Biso   1.000  O
  O26      1.0000 0.22318  0.75653  0.50951  Biso   1.000  O
  O27      1.0000 0.72420  0.75742  0.00863  Biso   1.000  O
  O28      1.0000 0.72293  0.75711  0.51056  Biso   1.000  O
  O29      1.0000 0.23111  0.72087  0.26140  Biso   1.000  O
  O30      1.0000 0.22449  0.74313  0.75824  Biso   1.000  O
  O31      1.0000 0.71970  0.74243  0.26192  Biso   1.000  O
  O32      1.0000 0.72504  0.74298  0.75877  Biso   1.000  O
