data_image0
_cell_length_a       10.0285
_cell_length_b       10.2141
_cell_length_c       10.0285
_cell_angle_alpha    89.6063
_cell_angle_beta     90.3411
_cell_angle_gamma    89.6047

_symmetry_space_group_name_H-M    "P 1"
_symmetry_int_tables_number       1

loop_
  _symmetry_equiv_pos_as_xyz
  'x, y, z'

loop_
  _atom_site_label
  _atom_site_occupancy
  _atom_site_fract_x
  _atom_site_fract_y
  _atom_site_fract_z
  _atom_site_thermal_displace_type
  _atom_site_B_iso_or_equiv
  _atom_site_type_symbol
  Cd1      1.0000 0.12071  0.01643  0.12069  Biso   1.000  Cd
  Hf1      1.0000 0.12067  0.00304  0.62402  Biso   1.000  Hf
  Hf2      1.0000 0.12390  0.49433  0.12387  Biso   1.000  Hf
  Hf3      1.0000 0.12531  0.50062  0.62419  Biso   1.000  Hf
  Hf4      1.0000 0.62405  0.00306  0.12065  Biso   1.000  Hf
  Hf5      1.0000 0.62441  0.99738  0.62440  Biso   1.000  Hf
  Hf6      1.0000 0.62423  0.50062  0.12529  Biso   1.000  Hf
  Hf7      1.0000 0.62302  0.50275  0.62300  Biso   1.000  Hf
  Hf8      1.0000 0.12635  0.25130  0.38045  Biso   1.000  Hf
  Hf9      1.0000 0.12966  0.25142  0.87313  Biso   1.000  Hf
  Hf10     1.0000 0.11864  0.75154  0.37138  Biso   1.000  Hf
  Hf11     1.0000 0.12181  0.74499  0.87708  Biso   1.000  Hf
  Hf12     1.0000 0.62468  0.24823  0.37689  Biso   1.000  Hf
  Hf13     1.0000 0.62625  0.25050  0.87196  Biso   1.000  Hf
  Hf14     1.0000 0.62155  0.75258  0.37191  Biso   1.000  Hf
  Hf15     1.0000 0.62576  0.74934  0.87538  Biso   1.000  Hf
  Hf16     1.0000 0.38046  0.25132  0.12635  Biso   1.000  Hf
  Hf17     1.0000 0.37689  0.24824  0.62467  Biso   1.000  Hf
  Hf18     1.0000 0.37140  0.75154  0.11863  Biso   1.000  Hf
  Hf19     1.0000 0.37193  0.75258  0.62153  Biso   1.000  Hf
  Hf20     1.0000 0.87316  0.25142  0.12964  Biso   1.000  Hf
  Hf21     1.0000 0.87197  0.25049  0.62624  Biso   1.000  Hf
  Hf22     1.0000 0.87711  0.74497  0.12177  Biso   1.000  Hf
  Hf23     1.0000 0.87539  0.74934  0.62573  Biso   1.000  Hf
  Hf24     1.0000 0.37055  0.00162  0.37053  Biso   1.000  Hf
  Hf25     1.0000 0.37395  0.99492  0.86860  Biso   1.000  Hf
  Hf26     1.0000 0.37643  0.50487  0.37641  Biso   1.000  Hf
  Hf27     1.0000 0.37518  0.50207  0.87392  Biso   1.000  Hf
  Hf28     1.0000 0.86861  0.99492  0.37394  Biso   1.000  Hf
  Hf29     1.0000 0.87734  0.99409  0.87731  Biso   1.000  Hf
  Hf30     1.0000 0.87395  0.50208  0.37516  Biso   1.000  Hf
  Hf31     1.0000 0.87326  0.49695  0.87324  Biso   1.000  Hf
  O1       1.0000 0.00618  0.14500  0.00615  Biso   1.000  O
  O2       1.0000 0.00235  0.15082  0.50861  Biso   1.000  O
  O3       1.0000 0.99935  0.63788  0.99931  Biso   1.000  O
  O4       1.0000 0.99892  0.64832  0.49979  Biso   1.000  O
  O5       1.0000 0.50864  0.15083  0.00234  Biso   1.000  O
  O6       1.0000 0.49931  0.14767  0.49930  Biso   1.000  O
  O7       1.0000 0.49982  0.64832  0.99891  Biso   1.000  O
  O8       1.0000 0.49931  0.64852  0.49930  Biso   1.000  O
  O9       1.0000 0.99805  0.10749  0.26506  Biso   1.000  O
  O10      1.0000 0.00429  0.10131  0.75892  Biso   1.000  O
  O11      1.0000 0.00102  0.59957  0.24890  Biso   1.000  O
  O12      1.0000 0.99845  0.60042  0.74962  Biso   1.000  O
  O13      1.0000 0.50354  0.10214  0.25004  Biso   1.000  O
  O14      1.0000 0.50349  0.10205  0.75014  Biso   1.000  O
  O15      1.0000 0.50028  0.60333  0.24929  Biso   1.000  O
  O16      1.0000 0.49953  0.60224  0.74939  Biso   1.000  O
  O17      1.0000 0.00570  0.35145  0.24769  Biso   1.000  O
  O18      1.0000 0.99846  0.35094  0.74932  Biso   1.000  O
  O19      1.0000 0.97672  0.84593  0.26247  Biso   1.000  O
  O20      1.0000 0.00267  0.85150  0.74883  Biso   1.000  O
  O21      1.0000 0.50598  0.35447  0.24983  Biso   1.000  O
  O22      1.0000 0.49748  0.35295  0.75076  Biso   1.000  O
  O23      1.0000 0.48498  0.85213  0.25266  Biso   1.000  O
  O24      1.0000 0.50223  0.85046  0.74761  Biso   1.000  O
  O25      1.0000 0.99837  0.39142  0.99832  Biso   1.000  O
  O26      1.0000 0.00079  0.39954  0.49835  Biso   1.000  O
  O27      1.0000 0.99841  0.88247  0.99839  Biso   1.000  O
  O28      1.0000 0.99831  0.89898  0.50328  Biso   1.000  O
  O29      1.0000 0.49840  0.39955  0.00074  Biso   1.000  O
  O30      1.0000 0.50018  0.39743  0.50014  Biso   1.000  O
  O31      1.0000 0.50329  0.89899  0.99832  Biso   1.000  O
  O32      1.0000 0.49931  0.89997  0.49933  Biso   1.000  O
  O33      1.0000 0.26223  0.15887  0.26222  Biso   1.000  O
  O34      1.0000 0.25301  0.14830  0.75093  Biso   1.000  O
  O35      1.0000 0.24973  0.65487  0.24971  Biso   1.000  O
  O36      1.0000 0.24932  0.64844  0.74813  Biso   1.000  O
  O37      1.0000 0.75095  0.14831  0.25299  Biso   1.000  O
  O38      1.0000 0.75315  0.14678  0.75313  Biso   1.000  O
  O39      1.0000 0.74815  0.64846  0.24930  Biso   1.000  O
  O40      1.0000 0.74941  0.64706  0.74939  Biso   1.000  O
  O41      1.0000 0.26508  0.10751  0.99804  Biso   1.000  O
  O42      1.0000 0.25005  0.10215  0.50352  Biso   1.000  O
  O43      1.0000 0.24893  0.59957  0.00099  Biso   1.000  O
  O44      1.0000 0.24931  0.60334  0.50025  Biso   1.000  O
  O45      1.0000 0.75895  0.10132  0.00428  Biso   1.000  O
  O46      1.0000 0.75014  0.10205  0.50348  Biso   1.000  O
  O47      1.0000 0.74966  0.60043  0.99842  Biso   1.000  O
  O48      1.0000 0.74941  0.60224  0.49950  Biso   1.000  O
  O49      1.0000 0.24775  0.35147  0.00562  Biso   1.000  O
  O50      1.0000 0.24988  0.35448  0.50590  Biso   1.000  O
  O51      1.0000 0.26248  0.84594  0.97673  Biso   1.000  O
  O52      1.0000 0.25264  0.85214  0.48500  Biso   1.000  O
  O53      1.0000 0.74937  0.35094  0.99841  Biso   1.000  O
  O54      1.0000 0.75081  0.35295  0.49743  Biso   1.000  O
  O55      1.0000 0.74884  0.85151  0.00267  Biso   1.000  O
  O56      1.0000 0.74761  0.85046  0.50224  Biso   1.000  O
  O57      1.0000 0.25336  0.40429  0.25326  Biso   1.000  O
  O58      1.0000 0.24582  0.39799  0.75643  Biso   1.000  O
  O59      1.0000 0.23935  0.90104  0.23936  Biso   1.000  O
  O60      1.0000 0.25675  0.90000  0.73314  Biso   1.000  O
  O61      1.0000 0.75651  0.39801  0.24576  Biso   1.000  O
  O62      1.0000 0.74779  0.39691  0.74774  Biso   1.000  O
  O63      1.0000 0.73311  0.90002  0.25677  Biso   1.000  O
  O64      1.0000 0.75204  0.89640  0.75204  Biso   1.000  O
