data_image0
_cell_length_a       5.16154
_cell_length_b       10.4687
_cell_length_c       10.3211
_cell_angle_alpha    91.2001
_cell_angle_beta     95.9944
_cell_angle_gamma    88.4644

_symmetry_space_group_name_H-M    "P 1"
_symmetry_int_tables_number       1

loop_
  _symmetry_equiv_pos_as_xyz
  'x, y, z'

loop_
  _atom_site_label
  _atom_site_occupancy
  _atom_site_fract_x
  _atom_site_fract_y
  _atom_site_fract_z
  _atom_site_thermal_displace_type
  _atom_site_B_iso_or_equiv
  _atom_site_type_symbol
  Hf1      1.0000 0.15638  0.00497  0.17420  Biso   1.000  Hf
  Hf2      1.0000 0.14723  0.23078  0.43354  Biso   1.000  Hf
  Hf3      1.0000 0.61241  0.23476  0.16757  Biso   1.000  Hf
  Hf4      1.0000 0.65490  0.00461  0.41827  Biso   1.000  Hf
  O1       1.0000 0.90851  0.16643  0.05175  Biso   1.000  O
  O2       1.0000 0.90702  0.08081  0.29488  Biso   1.000  O
  O3       1.0000 0.81257  0.30765  0.33285  Biso   1.000  O
  O4       1.0000 0.04252  0.42442  0.97494  Biso   1.000  O
  O5       1.0000 0.39835  0.14078  0.30259  Biso   1.000  O
  O6       1.0000 0.40304  0.08937  0.04391  Biso   1.000  O
  O7       1.0000 0.47546  0.32626  0.99002  Biso   1.000  O
  O8       1.0000 0.69567  0.43490  0.16275  Biso   1.000  O
  Hf5      1.0000 0.15791  0.00784  0.67174  Biso   1.000  Hf
  Hf6      1.0000 0.15229  0.23792  0.91449  Biso   1.000  Hf
  Hf7      1.0000 0.65209  0.23558  0.67424  Biso   1.000  Hf
  Hf8      1.0000 0.65484  0.00811  0.92024  Biso   1.000  Hf
  O9       1.0000 0.91193  0.15006  0.55386  Biso   1.000  O
  O10      1.0000 0.91082  0.09026  0.79915  Biso   1.000  O
  O11      1.0000 0.97729  0.32946  0.75541  Biso   1.000  O
  O12      1.0000 0.04335  0.42257  0.49265  Biso   1.000  O
  O13      1.0000 0.40606  0.15174  0.79222  Biso   1.000  O
  O14      1.0000 0.41167  0.08661  0.54747  Biso   1.000  O
  O15      1.0000 0.46977  0.32489  0.51808  Biso   1.000  O
  O16      1.0000 0.53410  0.41856  0.73761  Biso   1.000  O
  Hf9      1.0000 0.37654  0.51705  0.06389  Biso   1.000  Hf
  Hf10     1.0000 0.34148  0.73678  0.32517  Biso   1.000  Hf
  Hf11     1.0000 0.85017  0.73967  0.07722  Biso   1.000  Hf
  Hf12     1.0000 0.84891  0.51470  0.33598  Biso   1.000  Hf
  O17      1.0000 0.10629  0.66163  0.95385  Biso   1.000  O
  O18      1.0000 0.11178  0.59238  0.20468  Biso   1.000  O
  O19      1.0000 0.02412  0.83170  0.23634  Biso   1.000  O
  O20      1.0000 0.97185  0.91727  0.01308  Biso   1.000  O
  O21      1.0000 0.59454  0.66108  0.20168  Biso   1.000  O
  O22      1.0000 0.60698  0.59965  0.94330  Biso   1.000  O
  O23      1.0000 0.52930  0.83477  0.98619  Biso   1.000  O
  O24      1.0000 0.47446  0.90846  0.26063  Biso   1.000  O
  Hf13     1.0000 0.35564  0.50853  0.57874  Biso   1.000  Hf
  Hf14     1.0000 0.35239  0.74072  0.82648  Biso   1.000  Hf
  Hf15     1.0000 0.85051  0.74288  0.58029  Biso   1.000  Hf
  Hf16     1.0000 0.85618  0.51148  0.81910  Biso   1.000  Hf
  O25      1.0000 0.08434  0.65885  0.45302  Biso   1.000  O
  O26      1.0000 0.10150  0.59512  0.70342  Biso   1.000  O
  O27      1.0000 0.02955  0.83520  0.73855  Biso   1.000  O
  O28      1.0000 0.97883  0.91341  0.51324  Biso   1.000  O
  O29      1.0000 0.59698  0.65717  0.69884  Biso   1.000  O
  O30      1.0000 0.57662  0.58494  0.44528  Biso   1.000  O
  O31      1.0000 0.53139  0.82912  0.48493  Biso   1.000  O
  O32      1.0000 0.48173  0.91306  0.76131  Biso   1.000  O
  Cd1      1.0000 0.11498  0.34107  0.18474  Biso   1.000  Cd
