data_image0
_cell_length_a       10.0639
_cell_length_b       5.12277
_cell_length_c       10.476
_cell_angle_alpha    89.7472
_cell_angle_beta     90.3226
_cell_angle_gamma    90.029

_symmetry_space_group_name_H-M    "P 1"
_symmetry_int_tables_number       1

loop_
  _symmetry_equiv_pos_as_xyz
  'x, y, z'

loop_
  _atom_site_label
  _atom_site_occupancy
  _atom_site_fract_x
  _atom_site_fract_y
  _atom_site_fract_z
  _atom_site_thermal_displace_type
  _atom_site_B_iso_or_equiv
  _atom_site_type_symbol
  Cd1      1.0000 0.13214  0.02932  0.17141  Biso   1.000  Cd
  Hf1      1.0000 0.13996  0.04078  0.67130  Biso   1.000  Hf
  Hf2      1.0000 0.13950  0.45780  0.42103  Biso   1.000  Hf
  Hf3      1.0000 0.14379  0.45593  0.92149  Biso   1.000  Hf
  Hf4      1.0000 0.35873  0.53592  0.16795  Biso   1.000  Hf
  Hf5      1.0000 0.36082  0.54181  0.67071  Biso   1.000  Hf
  Hf6      1.0000 0.35921  0.96042  0.41952  Biso   1.000  Hf
  Hf7      1.0000 0.36143  0.95720  0.92150  Biso   1.000  Hf
  Hf8      1.0000 0.63918  0.03999  0.07817  Biso   1.000  Hf
  Hf9      1.0000 0.63762  0.04163  0.57936  Biso   1.000  Hf
  Hf10     1.0000 0.63718  0.45835  0.32847  Biso   1.000  Hf
  Hf11     1.0000 0.63912  0.45794  0.82803  Biso   1.000  Hf
  Hf12     1.0000 0.86076  0.53468  0.07732  Biso   1.000  Hf
  Hf13     1.0000 0.86041  0.54213  0.57920  Biso   1.000  Hf
  Hf14     1.0000 0.85826  0.96263  0.33304  Biso   1.000  Hf
  Hf15     1.0000 0.86234  0.95722  0.82927  Biso   1.000  Hf
  O1       1.0000 0.03717  0.35471  0.08430  Biso   1.000  O
  O2       1.0000 0.03369  0.33901  0.58942  Biso   1.000  O
  O3       1.0000 0.02584  0.16945  0.35314  Biso   1.000  O
  O4       1.0000 0.03483  0.16293  0.83513  Biso   1.000  O
  O5       1.0000 0.47180  0.82241  0.08107  Biso   1.000  O
  O6       1.0000 0.46735  0.82823  0.58196  Biso   1.000  O
  O7       1.0000 0.46891  0.67705  0.33076  Biso   1.000  O
  O8       1.0000 0.46912  0.67094  0.83065  Biso   1.000  O
  O9       1.0000 0.28080  0.25523  0.30055  Biso   1.000  O
  O10      1.0000 0.27674  0.24582  0.79229  Biso   1.000  O
  O11      1.0000 0.28684  0.25861  0.03709  Biso   1.000  O
  O12      1.0000 0.27540  0.25139  0.54566  Biso   1.000  O
  O13      1.0000 0.22753  0.73887  0.29546  Biso   1.000  O
  O14      1.0000 0.22495  0.74631  0.79225  Biso   1.000  O
  O15      1.0000 0.23269  0.74112  0.03818  Biso   1.000  O
  O16      1.0000 0.22359  0.75331  0.54426  Biso   1.000  O
  O17      1.0000 0.53356  0.32616  0.16691  Biso   1.000  O
  O18      1.0000 0.53261  0.32891  0.66635  Biso   1.000  O
  O19      1.0000 0.53190  0.17140  0.41728  Biso   1.000  O
  O20      1.0000 0.53492  0.16863  0.91563  Biso   1.000  O
  O21      1.0000 0.94527  0.84545  0.16358  Biso   1.000  O
  O22      1.0000 0.96634  0.83446  0.66495  Biso   1.000  O
  O23      1.0000 0.96548  0.66826  0.41601  Biso   1.000  O
  O24      1.0000 0.96804  0.66393  0.91400  Biso   1.000  O
  O25      1.0000 0.77697  0.24462  0.95466  Biso   1.000  O
  O26      1.0000 0.77303  0.25153  0.45733  Biso   1.000  O
  O27      1.0000 0.77533  0.25585  0.20673  Biso   1.000  O
  O28      1.0000 0.77625  0.25172  0.70572  Biso   1.000  O
  O29      1.0000 0.72497  0.74568  0.95423  Biso   1.000  O
  O30      1.0000 0.72277  0.75019  0.45593  Biso   1.000  O
  O31      1.0000 0.71991  0.75270  0.20597  Biso   1.000  O
  O32      1.0000 0.72492  0.75135  0.70477  Biso   1.000  O
