data_image0
_cell_length_a       10.343
_cell_length_b       10.3921
_cell_length_c       5.32621
_cell_angle_alpha    90.4455
_cell_angle_beta     78.5235
_cell_angle_gamma    90.1757

_symmetry_space_group_name_H-M    "P 1"
_symmetry_int_tables_number       1

loop_
  _symmetry_equiv_pos_as_xyz
  'x, y, z'

loop_
  _atom_site_label
  _atom_site_occupancy
  _atom_site_fract_x
  _atom_site_fract_y
  _atom_site_fract_z
  _atom_site_thermal_displace_type
  _atom_site_B_iso_or_equiv
  _atom_site_type_symbol
  Zr1      1.0000 0.13058  0.02113  0.28080  Biso   1.000  Zr
  Zr2      1.0000 0.14016  0.23090  0.77057  Biso   1.000  Zr
  Zr3      1.0000 0.34877  0.27607  0.19299  Biso   1.000  Zr
  Zr4      1.0000 0.35568  0.48193  0.69390  Biso   1.000  Zr
  O1       1.0000 0.03555  0.16732  0.14405  Biso   1.000  O
  O2       1.0000 0.02708  0.08594  0.64917  Biso   1.000  O
  O3       1.0000 0.46288  0.43034  0.33611  Biso   1.000  O
  O4       1.0000 0.48867  0.35349  0.88640  Biso   1.000  O
  O5       1.0000 0.26103  0.11510  0.45650  Biso   1.000  O
  O6       1.0000 0.27500  0.11975  0.96455  Biso   1.000  O
  O7       1.0000 0.22018  0.38246  0.99916  Biso   1.000  O
  O8       1.0000 0.20410  0.37725  0.49056  Biso   1.000  O
  Zr5      1.0000 0.13705  0.52482  0.28353  Biso   1.000  Zr
  Zr6      1.0000 0.13427  0.72681  0.79357  Biso   1.000  Zr
  Zr7      1.0000 0.35978  0.77070  0.21121  Biso   1.000  Zr
  Zr8      1.0000 0.35658  0.96592  0.71263  Biso   1.000  Zr
  O9       1.0000 0.02619  0.66402  0.14939  Biso   1.000  O
  O10      1.0000 0.02926  0.58946  0.64829  Biso   1.000  O
  O11      1.0000 0.46697  0.91497  0.35298  Biso   1.000  O
  O12      1.0000 0.46379  0.83182  0.85065  Biso   1.000  O
  O13      1.0000 0.27246  0.62731  0.48038  Biso   1.000  O
  O14      1.0000 0.27149  0.62479  0.98037  Biso   1.000  O
  O15      1.0000 0.22242  0.87582  0.02206  Biso   1.000  O
  O16      1.0000 0.22357  0.86668  0.52230  Biso   1.000  O
  Zr9      1.0000 0.64182  0.01768  0.30499  Biso   1.000  Zr
  Zr10     1.0000 0.65597  0.23159  0.83030  Biso   1.000  Zr
  Zr11     1.0000 0.86606  0.27285  0.22246  Biso   1.000  Zr
  Zr12     1.0000 0.86273  0.47906  0.71378  Biso   1.000  Zr
  O17      1.0000 0.53354  0.16599  0.17663  Biso   1.000  O
  O18      1.0000 0.54138  0.07217  0.68694  Biso   1.000  O
  O19      1.0000 0.96340  0.41971  0.34529  Biso   1.000  O
  O20      1.0000 0.96505  0.33529  0.84506  Biso   1.000  O
  O21      1.0000 0.77622  0.12945  0.49734  Biso   1.000  O
  O22      1.0000 0.77929  0.11871  0.00221  Biso   1.000  O
  O23      1.0000 0.73073  0.37710  0.04246  Biso   1.000  O
  O24      1.0000 0.72490  0.37104  0.53951  Biso   1.000  O
  Zr13     1.0000 0.63589  0.52473  0.29994  Biso   1.000  Zr
  Zr14     1.0000 0.63680  0.72648  0.79703  Biso   1.000  Zr
  Zr15     1.0000 0.85748  0.77028  0.21165  Biso   1.000  Zr
  Zr16     1.0000 0.86116  0.97627  0.71381  Biso   1.000  Zr
  O25      1.0000 0.53253  0.66952  0.16029  Biso   1.000  O
  O26      1.0000 0.52965  0.58791  0.65805  Biso   1.000  O
  O27      1.0000 0.96233  0.91095  0.35289  Biso   1.000  O
  O28      1.0000 0.96588  0.83712  0.85242  Biso   1.000  O
  O29      1.0000 0.77289  0.62941  0.48576  Biso   1.000  O
  O30      1.0000 0.77136  0.62107  0.98347  Biso   1.000  O
  O31      1.0000 0.72309  0.87777  0.02719  Biso   1.000  O
  O32      1.0000 0.72211  0.87155  0.52717  Biso   1.000  O
  Cd1      1.0000 0.43553  0.23160  0.60122  Biso   1.000  Cd
