data_image0
_cell_length_a       5.03879
_cell_length_b       10.2199
_cell_length_c       10.1036
_cell_angle_alpha    89.9943
_cell_angle_beta     90.7366
_cell_angle_gamma    89.9957

_symmetry_space_group_name_H-M    "P 1"
_symmetry_int_tables_number       1

loop_
  _symmetry_equiv_pos_as_xyz
  'x, y, z'

loop_
  _atom_site_label
  _atom_site_occupancy
  _atom_site_fract_x
  _atom_site_fract_y
  _atom_site_fract_z
  _atom_site_thermal_displace_type
  _atom_site_B_iso_or_equiv
  _atom_site_type_symbol
  Cd1      1.0000 0.25191  0.01386  0.12488  Biso   1.000  Cd
  Zr1      1.0000 0.25189  0.00016  0.62488  Biso   1.000  Zr
  Zr2      1.0000 0.25192  0.49714  0.12490  Biso   1.000  Zr
  Zr3      1.0000 0.25191  0.50106  0.62490  Biso   1.000  Zr
  Zr4      1.0000 0.24102  0.24983  0.37960  Biso   1.000  Zr
  Zr5      1.0000 0.26293  0.24984  0.87022  Biso   1.000  Zr
  Zr6      1.0000 0.24514  0.74882  0.37264  Biso   1.000  Zr
  Zr7      1.0000 0.25865  0.74880  0.87716  Biso   1.000  Zr
  Zr8      1.0000 0.75196  0.25313  0.12492  Biso   1.000  Zr
  Zr9      1.0000 0.75196  0.25017  0.62492  Biso   1.000  Zr
  Zr10     1.0000 0.75191  0.74844  0.12489  Biso   1.000  Zr
  Zr11     1.0000 0.75192  0.75102  0.62490  Biso   1.000  Zr
  Zr12     1.0000 0.74131  0.99614  0.37442  Biso   1.000  Zr
  Zr13     1.0000 0.76246  0.99613  0.87533  Biso   1.000  Zr
  Zr14     1.0000 0.75249  0.50233  0.37558  Biso   1.000  Zr
  Zr15     1.0000 0.75135  0.50232  0.87423  Biso   1.000  Zr
  O1       1.0000 0.01431  0.14600  0.99983  Biso   1.000  O
  O2       1.0000 0.99978  0.14547  0.50359  Biso   1.000  O
  O3       1.0000 0.00300  0.64362  0.99805  Biso   1.000  O
  O4       1.0000 0.00019  0.64527  0.49956  Biso   1.000  O
  O5       1.0000 0.97128  0.11491  0.25716  Biso   1.000  O
  O6       1.0000 0.00715  0.10435  0.75114  Biso   1.000  O
  O7       1.0000 0.00158  0.60378  0.24809  Biso   1.000  O
  O8       1.0000 0.00163  0.60356  0.74869  Biso   1.000  O
  O9       1.0000 0.01447  0.35810  0.24880  Biso   1.000  O
  O10      1.0000 0.00224  0.35498  0.74974  Biso   1.000  O
  O11      1.0000 0.96479  0.85037  0.26451  Biso   1.000  O
  O12      1.0000 0.00799  0.85279  0.75286  Biso   1.000  O
  O13      1.0000 0.98900  0.39392  0.00156  Biso   1.000  O
  O14      1.0000 0.00222  0.39494  0.49945  Biso   1.000  O
  O15      1.0000 0.02080  0.88933  0.00246  Biso   1.000  O
  O16      1.0000 0.99204  0.89645  0.50633  Biso   1.000  O
  O17      1.0000 0.48964  0.14603  0.25000  Biso   1.000  O
  O18      1.0000 0.50409  0.14546  0.74622  Biso   1.000  O
  O19      1.0000 0.50082  0.64365  0.25174  Biso   1.000  O
  O20      1.0000 0.50363  0.64526  0.75023  Biso   1.000  O
  O21      1.0000 0.53270  0.11493  0.99266  Biso   1.000  O
  O22      1.0000 0.49672  0.10435  0.49867  Biso   1.000  O
  O23      1.0000 0.50226  0.60379  0.00171  Biso   1.000  O
  O24      1.0000 0.50220  0.60356  0.50110  Biso   1.000  O
  O25      1.0000 0.48942  0.35811  0.00100  Biso   1.000  O
  O26      1.0000 0.50166  0.35498  0.50006  Biso   1.000  O
  O27      1.0000 0.53893  0.85039  0.98527  Biso   1.000  O
  O28      1.0000 0.49587  0.85278  0.49690  Biso   1.000  O
  O29      1.0000 0.51489  0.39394  0.24824  Biso   1.000  O
  O30      1.0000 0.50168  0.39494  0.75036  Biso   1.000  O
  O31      1.0000 0.48294  0.88937  0.24730  Biso   1.000  O
  O32      1.0000 0.51185  0.89645  0.74343  Biso   1.000  O
