data_image0
_cell_length_a       10.1469
_cell_length_b       10.3167
_cell_length_c       10.1635
_cell_angle_alpha    90.9541
_cell_angle_beta     90.926
_cell_angle_gamma    90.9721

_symmetry_space_group_name_H-M    "P 1"
_symmetry_int_tables_number       1

loop_
  _symmetry_equiv_pos_as_xyz
  'x, y, z'

loop_
  _atom_site_label
  _atom_site_occupancy
  _atom_site_fract_x
  _atom_site_fract_y
  _atom_site_fract_z
  _atom_site_thermal_displace_type
  _atom_site_B_iso_or_equiv
  _atom_site_type_symbol
  Zr1      1.0000 0.15293  0.98000  0.14333  Biso   1.000  Zr
  Zr2      1.0000 0.12199  0.23503  0.36870  Biso   1.000  Zr
  Zr3      1.0000 0.35846  0.26180  0.11354  Biso   1.000  Zr
  Zr4      1.0000 0.38027  0.00634  0.38706  Biso   1.000  Zr
  O1       1.0000 0.95216  0.19176  0.95146  Biso   1.000  O
  O2       1.0000 0.03873  0.05339  0.29312  Biso   1.000  O
  O3       1.0000 0.94934  0.32383  0.28595  Biso   1.000  O
  O4       1.0000 0.95941  0.42501  0.03785  Biso   1.000  O
  O5       1.0000 0.28183  0.13411  0.25806  Biso   1.000  O
  O6       1.0000 0.23967  0.10656  0.98842  Biso   1.000  O
  O7       1.0000 0.21951  0.36514  0.98920  Biso   1.000  O
  O8       1.0000 0.22860  0.39818  0.24755  Biso   1.000  O
  Zr5      1.0000 0.13049  0.99316  0.62309  Biso   1.000  Zr
  Zr6      1.0000 0.12954  0.24372  0.84095  Biso   1.000  Zr
  Zr7      1.0000 0.37395  0.25618  0.61644  Biso   1.000  Zr
  Zr8      1.0000 0.38157  0.00563  0.88278  Biso   1.000  Zr
  O9       1.0000 0.99667  0.14693  0.50894  Biso   1.000  O
  O10      1.0000 0.01060  0.09893  0.74345  Biso   1.000  O
  O11      1.0000 0.99728  0.36254  0.75594  Biso   1.000  O
  O12      1.0000 0.99339  0.39738  0.51203  Biso   1.000  O
  O13      1.0000 0.26115  0.14305  0.74047  Biso   1.000  O
  O14      1.0000 0.24757  0.10331  0.49994  Biso   1.000  O
  O15      1.0000 0.24900  0.35009  0.49340  Biso   1.000  O
  O16      1.0000 0.24842  0.39464  0.74173  Biso   1.000  O
  Zr9      1.0000 0.12823  0.52171  0.11618  Biso   1.000  Zr
  Zr10     1.0000 0.12822  0.73820  0.38192  Biso   1.000  Zr
  Zr11     1.0000 0.38363  0.74320  0.13204  Biso   1.000  Zr
  Zr12     1.0000 0.36885  0.48811  0.37380  Biso   1.000  Zr
  O17      1.0000 0.00968  0.66176  0.99826  Biso   1.000  O
  O18      1.0000 0.99973  0.58839  0.25626  Biso   1.000  O
  O19      1.0000 0.04397  0.82143  0.22305  Biso   1.000  O
  O20      1.0000 0.02426  0.92831  0.99080  Biso   1.000  O
  O21      1.0000 0.25300  0.64071  0.24940  Biso   1.000  O
  O22      1.0000 0.25712  0.61471  0.99759  Biso   1.000  O
  O23      1.0000 0.26969  0.85717  0.00433  Biso   1.000  O
  O24      1.0000 0.29000  0.88260  0.25480  Biso   1.000  O
  Zr13     1.0000 0.11973  0.50337  0.62511  Biso   1.000  Zr
  Zr14     1.0000 0.13300  0.76415  0.87464  Biso   1.000  Zr
  Zr15     1.0000 0.37804  0.74654  0.62526  Biso   1.000  Zr
  Zr16     1.0000 0.37313  0.50595  0.86903  Biso   1.000  Zr
  O25      1.0000 0.99879  0.64196  0.50259  Biso   1.000  O
  O26      1.0000 0.00088  0.60718  0.75180  Biso   1.000  O
  O27      1.0000 0.00286  0.85409  0.74817  Biso   1.000  O
  O28      1.0000 0.00482  0.88542  0.49683  Biso   1.000  O
  O29      1.0000 0.25130  0.64902  0.75030  Biso   1.000  O
  O30      1.0000 0.24728  0.59959  0.49912  Biso   1.000  O
  O31      1.0000 0.25433  0.85225  0.50435  Biso   1.000  O
  O32      1.0000 0.25285  0.89825  0.75460  Biso   1.000  O
  Zr17     1.0000 0.64790  0.98644  0.13926  Biso   1.000  Zr
  Zr18     1.0000 0.61951  0.24117  0.37081  Biso   1.000  Zr
  Zr19     1.0000 0.82839  0.27012  0.11612  Biso   1.000  Zr
  Zr20     1.0000 0.87732  0.00408  0.39280  Biso   1.000  Zr
  O33      1.0000 0.48194  0.16697  0.99134  Biso   1.000  O
  O34      1.0000 0.52750  0.07856  0.26677  Biso   1.000  O
  O35      1.0000 0.47133  0.33037  0.26919  Biso   1.000  O
  O36      1.0000 0.46093  0.42015  0.02607  Biso   1.000  O
  O37      1.0000 0.76265  0.13998  0.25332  Biso   1.000  O
  O38      1.0000 0.73372  0.10982  0.00050  Biso   1.000  O
  O39      1.0000 0.70954  0.36891  0.99397  Biso   1.000  O
  O40      1.0000 0.71949  0.39380  0.24663  Biso   1.000  O
  Zr21     1.0000 0.62863  0.99440  0.62699  Biso   1.000  Zr
  Zr22     1.0000 0.62238  0.23808  0.86108  Biso   1.000  Zr
  Zr23     1.0000 0.87146  0.25529  0.62057  Biso   1.000  Zr
  Zr24     1.0000 0.88054  0.00998  0.87930  Biso   1.000  Zr
  O41      1.0000 0.49935  0.14548  0.50648  Biso   1.000  O
  O42      1.0000 0.50784  0.09724  0.75081  Biso   1.000  O
  O43      1.0000 0.49400  0.35426  0.76012  Biso   1.000  O
  O44      1.0000 0.49642  0.39569  0.50777  Biso   1.000  O
  O45      1.0000 0.75577  0.14487  0.74820  Biso   1.000  O
  O46      1.0000 0.74639  0.10535  0.50358  Biso   1.000  O
  O47      1.0000 0.74492  0.35149  0.49867  Biso   1.000  O
  O48      1.0000 0.74918  0.39587  0.74875  Biso   1.000  O
  Zr25     1.0000 0.62072  0.51594  0.11477  Biso   1.000  Zr
  Zr26     1.0000 0.62716  0.73826  0.38382  Biso   1.000  Zr
  Zr27     1.0000 0.87848  0.74283  0.13243  Biso   1.000  Zr
  Zr28     1.0000 0.86998  0.48729  0.37424  Biso   1.000  Zr
  O49      1.0000 0.50987  0.65715  0.99707  Biso   1.000  O
  O50      1.0000 0.49609  0.59187  0.25301  Biso   1.000  O
  O51      1.0000 0.54244  0.82946  0.22903  Biso   1.000  O
  O52      1.0000 0.52257  0.91221  0.98988  Biso   1.000  O
  O53      1.0000 0.75225  0.64006  0.25192  Biso   1.000  O
  O54      1.0000 0.75551  0.61365  0.00071  Biso   1.000  O
  O55      1.0000 0.77105  0.85846  0.00037  Biso   1.000  O
  O56      1.0000 0.78889  0.89078  0.24823  Biso   1.000  O
  Zr29     1.0000 0.62518  0.49998  0.62707  Biso   1.000  Zr
  Zr30     1.0000 0.63384  0.76198  0.87592  Biso   1.000  Zr
  Zr31     1.0000 0.87816  0.74786  0.62633  Biso   1.000  Zr
  Zr32     1.0000 0.87429  0.50762  0.87238  Biso   1.000  Zr
  O57      1.0000 0.49769  0.64177  0.50071  Biso   1.000  O
  O58      1.0000 0.50032  0.60267  0.74883  Biso   1.000  O
  O59      1.0000 0.50528  0.85071  0.74448  Biso   1.000  O
  O60      1.0000 0.50910  0.88883  0.49295  Biso   1.000  O
  O61      1.0000 0.75271  0.64781  0.75241  Biso   1.000  O
  O62      1.0000 0.74710  0.60043  0.50264  Biso   1.000  O
  O63      1.0000 0.75542  0.85304  0.50192  Biso   1.000  O
  O64      1.0000 0.75306  0.89830  0.75188  Biso   1.000  O
  Cd1      1.0000 0.08340  0.23169  0.11002  Biso   1.000  Cd
