data_image0
_cell_length_a       10.2208
_cell_length_b       5.18675
_cell_length_c       10.4999
_cell_angle_alpha    90.2125
_cell_angle_beta     80.468
_cell_angle_gamma    89.9856

_symmetry_space_group_name_H-M    "P 1"
_symmetry_int_tables_number       1

loop_
  _symmetry_equiv_pos_as_xyz
  'x, y, z'

loop_
  _atom_site_label
  _atom_site_occupancy
  _atom_site_fract_x
  _atom_site_fract_y
  _atom_site_fract_z
  _atom_site_thermal_displace_type
  _atom_site_B_iso_or_equiv
  _atom_site_type_symbol
  Cd1      1.0000 0.13024  0.02595  0.15053  Biso   1.000  Cd
  Zr1      1.0000 0.13989  0.04078  0.64481  Biso   1.000  Zr
  Zr2      1.0000 0.63905  0.03994  0.14503  Biso   1.000  Zr
  Zr3      1.0000 0.63858  0.04295  0.64646  Biso   1.000  Zr
  Zr4      1.0000 0.13996  0.45368  0.39405  Biso   1.000  Zr
  Zr5      1.0000 0.14080  0.45994  0.89599  Biso   1.000  Zr
  Zr6      1.0000 0.63744  0.45640  0.39582  Biso   1.000  Zr
  Zr7      1.0000 0.63984  0.46048  0.89550  Biso   1.000  Zr
  Zr8      1.0000 0.35917  0.53631  0.10343  Biso   1.000  Zr
  Zr9      1.0000 0.36054  0.54311  0.60477  Biso   1.000  Zr
  Zr10     1.0000 0.86223  0.53321  0.10281  Biso   1.000  Zr
  Zr11     1.0000 0.86070  0.54205  0.60425  Biso   1.000  Zr
  Zr12     1.0000 0.35972  0.95448  0.35265  Biso   1.000  Zr
  Zr13     1.0000 0.36108  0.96449  0.85510  Biso   1.000  Zr
  Zr14     1.0000 0.85769  0.95674  0.35818  Biso   1.000  Zr
  Zr15     1.0000 0.86220  0.95779  0.85469  Biso   1.000  Zr
  O1       1.0000 0.04079  0.37386  0.08255  Biso   1.000  O
  O2       1.0000 0.03513  0.33839  0.58129  Biso   1.000  O
  O3       1.0000 0.53664  0.33613  0.07920  Biso   1.000  O
  O4       1.0000 0.53414  0.33643  0.58030  Biso   1.000  O
  O5       1.0000 0.03271  0.15101  0.34514  Biso   1.000  O
  O6       1.0000 0.03642  0.16027  0.83078  Biso   1.000  O
  O7       1.0000 0.53424  0.16181  0.32987  Biso   1.000  O
  O8       1.0000 0.53748  0.16436  0.82933  Biso   1.000  O
  O9       1.0000 0.46797  0.83188  0.16980  Biso   1.000  O
  O10      1.0000 0.46541  0.83767  0.66978  Biso   1.000  O
  O11      1.0000 0.94253  0.85974  0.16715  Biso   1.000  O
  O12      1.0000 0.96483  0.83895  0.66811  Biso   1.000  O
  O13      1.0000 0.46543  0.66334  0.42110  Biso   1.000  O
  O14      1.0000 0.46825  0.66908  0.91932  Biso   1.000  O
  O15      1.0000 0.96263  0.65464  0.41713  Biso   1.000  O
  O16      1.0000 0.96312  0.65841  0.91625  Biso   1.000  O
  O17      1.0000 0.27870  0.24898  0.24162  Biso   1.000  O
  O18      1.0000 0.27526  0.25731  0.73744  Biso   1.000  O
  O19      1.0000 0.77363  0.25938  0.24250  Biso   1.000  O
  O20      1.0000 0.77688  0.25940  0.74047  Biso   1.000  O
  O21      1.0000 0.27593  0.24159  0.49009  Biso   1.000  O
  O22      1.0000 0.28622  0.26252  0.97953  Biso   1.000  O
  O23      1.0000 0.77328  0.24214  0.49227  Biso   1.000  O
  O24      1.0000 0.77598  0.24106  0.99030  Biso   1.000  O
  O25      1.0000 0.23115  0.76333  0.00530  Biso   1.000  O
  O26      1.0000 0.22387  0.75615  0.50960  Biso   1.000  O
  O27      1.0000 0.72478  0.75707  0.00861  Biso   1.000  O
  O28      1.0000 0.72345  0.75672  0.51045  Biso   1.000  O
  O29      1.0000 0.23193  0.72006  0.26186  Biso   1.000  O
  O30      1.0000 0.22498  0.74382  0.75859  Biso   1.000  O
  O31      1.0000 0.72179  0.74249  0.26145  Biso   1.000  O
  O32      1.0000 0.72536  0.74369  0.75874  Biso   1.000  O
