data_image0
_cell_length_a       10.4377
_cell_length_b       5.4459
_cell_length_c       10.4379
_cell_angle_alpha    102.162
_cell_angle_beta     83.8397
_cell_angle_gamma    102.161

_symmetry_space_group_name_H-M    "P 1"
_symmetry_int_tables_number       1

loop_
  _symmetry_equiv_pos_as_xyz
  'x, y, z'

loop_
  _atom_site_label
  _atom_site_occupancy
  _atom_site_fract_x
  _atom_site_fract_y
  _atom_site_fract_z
  _atom_site_thermal_displace_type
  _atom_site_B_iso_or_equiv
  _atom_site_type_symbol
  Zr1      1.0000 0.15579  0.96758  0.15582  Biso   1.000  Zr
  Zr2      1.0000 0.11332  0.50813  0.35288  Biso   1.000  Zr
  Zr3      1.0000 0.35292  0.50813  0.11333  Biso   1.000  Zr
  Zr4      1.0000 0.39948  0.98150  0.39949  Biso   1.000  Zr
  O1       1.0000 0.95842  0.40279  0.95841  Biso   1.000  O
  O2       1.0000 0.01196  0.14217  0.27003  Biso   1.000  O
  O3       1.0000 0.98562  0.67717  0.24921  Biso   1.000  O
  O4       1.0000 0.00717  0.89442  0.00715  Biso   1.000  O
  O5       1.0000 0.26731  0.30478  0.26733  Biso   1.000  O
  O6       1.0000 0.27005  0.14214  0.01199  Biso   1.000  O
  O7       1.0000 0.24919  0.67709  0.98561  Biso   1.000  O
  O8       1.0000 0.26012  0.79741  0.26011  Biso   1.000  O
  Zr5      1.0000 0.14951  0.98373  0.64381  Biso   1.000  Zr
  Zr6      1.0000 0.11148  0.54740  0.83423  Biso   1.000  Zr
  Zr7      1.0000 0.35752  0.52478  0.60121  Biso   1.000  Zr
  Zr8      1.0000 0.40531  0.97169  0.89775  Biso   1.000  Zr
  O9       1.0000 0.99646  0.33076  0.50150  Biso   1.000  O
  O10      1.0000 0.01127  0.17454  0.74904  Biso   1.000  O
  O11      1.0000 0.99635  0.70269  0.74217  Biso   1.000  O
  O12      1.0000 0.00717  0.80590  0.50323  Biso   1.000  O
  O13      1.0000 0.24874  0.34296  0.74225  Biso   1.000  O
  O14      1.0000 0.25814  0.16703  0.50524  Biso   1.000  O
  O15      1.0000 0.24989  0.68786  0.49824  Biso   1.000  O
  O16      1.0000 0.25784  0.82468  0.75077  Biso   1.000  O
  Zr9      1.0000 0.64383  0.98371  0.14951  Biso   1.000  Zr
  Zr10     1.0000 0.60122  0.52476  0.35752  Biso   1.000  Zr
  Zr11     1.0000 0.83425  0.54737  0.11148  Biso   1.000  Zr
  Zr12     1.0000 0.89774  0.97172  0.40531  Biso   1.000  Zr
  O17      1.0000 0.50151  0.33073  0.99646  Biso   1.000  O
  O18      1.0000 0.50526  0.16702  0.25814  Biso   1.000  O
  O19      1.0000 0.49825  0.68784  0.24990  Biso   1.000  O
  O20      1.0000 0.50322  0.80587  0.00719  Biso   1.000  O
  O21      1.0000 0.74227  0.34293  0.24875  Biso   1.000  O
  O22      1.0000 0.74905  0.17451  0.01128  Biso   1.000  O
  O23      1.0000 0.74217  0.70265  0.99636  Biso   1.000  O
  O24      1.0000 0.75077  0.82464  0.25784  Biso   1.000  O
  Zr13     1.0000 0.64782  0.98218  0.64782  Biso   1.000  Zr
  Zr14     1.0000 0.60143  0.51879  0.85460  Biso   1.000  Zr
  Zr15     1.0000 0.85459  0.51880  0.60143  Biso   1.000  Zr
  Zr16     1.0000 0.88880  0.99848  0.88879  Biso   1.000  Zr
  O25      1.0000 0.49888  0.33582  0.49888  Biso   1.000  O
  O26      1.0000 0.50619  0.16548  0.75405  Biso   1.000  O
  O27      1.0000 0.49836  0.68563  0.74673  Biso   1.000  O
  O28      1.0000 0.50570  0.81518  0.50571  Biso   1.000  O
  O29      1.0000 0.74779  0.33650  0.74780  Biso   1.000  O
  O30      1.0000 0.75404  0.16550  0.50619  Biso   1.000  O
  O31      1.0000 0.74672  0.68564  0.49836  Biso   1.000  O
  O32      1.0000 0.75288  0.81445  0.75288  Biso   1.000  O
  Cd1      1.0000 0.08505  0.35996  0.08498  Biso   1.000  Cd
