data_image0
_cell_length_a       10.119
_cell_length_b       10.51
_cell_length_c       5.12794
_cell_angle_alpha    90.1632
_cell_angle_beta     87.7351
_cell_angle_gamma    90.2376

_symmetry_space_group_name_H-M    "P 1"
_symmetry_int_tables_number       1

loop_
  _symmetry_equiv_pos_as_xyz
  'x, y, z'

loop_
  _atom_site_label
  _atom_site_occupancy
  _atom_site_fract_x
  _atom_site_fract_y
  _atom_site_fract_z
  _atom_site_thermal_displace_type
  _atom_site_B_iso_or_equiv
  _atom_site_type_symbol
  Zr1      1.0000 0.14068  0.01390  0.27865  Biso   1.000  Zr
  Zr2      1.0000 0.13978  0.21832  0.82820  Biso   1.000  Zr
  Zr3      1.0000 0.36939  0.26766  0.25839  Biso   1.000  Zr
  Zr4      1.0000 0.37007  0.48753  0.74751  Biso   1.000  Zr
  O1       1.0000 0.02854  0.11236  0.57233  Biso   1.000  O
  O2       1.0000 0.00898  0.07393  0.01468  Biso   1.000  O
  O3       1.0000 0.46882  0.43070  0.39333  Biso   1.000  O
  O4       1.0000 0.46596  0.31626  0.88287  Biso   1.000  O
  O5       1.0000 0.27805  0.12121  0.52403  Biso   1.000  O
  O6       1.0000 0.28501  0.11851  0.01926  Biso   1.000  O
  O7       1.0000 0.24512  0.39223  0.01757  Biso   1.000  O
  O8       1.0000 0.23400  0.36721  0.53331  Biso   1.000  O
  Zr5      1.0000 0.13721  0.53519  0.23972  Biso   1.000  Zr
  Zr6      1.0000 0.13492  0.73854  0.74692  Biso   1.000  Zr
  Zr7      1.0000 0.37275  0.76610  0.24249  Biso   1.000  Zr
  Zr8      1.0000 0.37017  0.98038  0.75001  Biso   1.000  Zr
  O9       1.0000 0.03273  0.68191  0.39764  Biso   1.000  O
  O10      1.0000 0.03451  0.57272  0.88996  Biso   1.000  O
  O11      1.0000 0.46863  0.93157  0.37859  Biso   1.000  O
  O12      1.0000 0.47131  0.81759  0.88887  Biso   1.000  O
  O13      1.0000 0.27274  0.61888  0.48854  Biso   1.000  O
  O14      1.0000 0.26914  0.63959  0.98691  Biso   1.000  O
  O15      1.0000 0.23069  0.88107  0.99868  Biso   1.000  O
  O16      1.0000 0.23854  0.86521  0.49935  Biso   1.000  O
  Zr9      1.0000 0.63460  0.01159  0.22294  Biso   1.000  Zr
  Zr10     1.0000 0.62482  0.23373  0.71005  Biso   1.000  Zr
  Zr11     1.0000 0.83659  0.26395  0.17936  Biso   1.000  Zr
  Zr12     1.0000 0.87073  0.48907  0.72880  Biso   1.000  Zr
  O17      1.0000 0.53798  0.18274  0.36109  Biso   1.000  O
  O18      1.0000 0.53669  0.06395  0.86419  Biso   1.000  O
  O19      1.0000 0.95974  0.44337  0.36528  Biso   1.000  O
  O20      1.0000 0.96389  0.32438  0.85523  Biso   1.000  O
  O21      1.0000 0.77121  0.11459  0.44338  Biso   1.000  O
  O22      1.0000 0.75758  0.13637  0.93977  Biso   1.000  O
  O23      1.0000 0.72517  0.38664  0.96300  Biso   1.000  O
  O24      1.0000 0.72726  0.36857  0.46421  Biso   1.000  O
  Zr13     1.0000 0.63403  0.52026  0.24022  Biso   1.000  Zr
  Zr14     1.0000 0.64012  0.73616  0.74252  Biso   1.000  Zr
  Zr15     1.0000 0.86622  0.76771  0.23651  Biso   1.000  Zr
  Zr16     1.0000 0.88151  0.98993  0.72025  Biso   1.000  Zr
  O25      1.0000 0.53533  0.68249  0.39279  Biso   1.000  O
  O26      1.0000 0.53311  0.57038  0.89665  Biso   1.000  O
  O27      1.0000 0.97371  0.90994  0.39525  Biso   1.000  O
  O28      1.0000 0.96967  0.82421  0.88575  Biso   1.000  O
  O29      1.0000 0.76823  0.61795  0.48287  Biso   1.000  O
  O30      1.0000 0.77000  0.63383  0.98100  Biso   1.000  O
  O31      1.0000 0.73560  0.88244  0.98646  Biso   1.000  O
  O32      1.0000 0.73243  0.86852  0.48681  Biso   1.000  O
  Cd1      1.0000 0.07901  0.27883  0.33392  Biso   1.000  Cd
