data_image0
_cell_length_a       10.1636
_cell_length_b       10.302
_cell_length_c       5.26782
_cell_angle_alpha    89.9278
_cell_angle_beta     90.0597
_cell_angle_gamma    89.9007

_symmetry_space_group_name_H-M    "P 1"
_symmetry_int_tables_number       1

loop_
  _symmetry_equiv_pos_as_xyz
  'x, y, z'

loop_
  _atom_site_label
  _atom_site_occupancy
  _atom_site_fract_x
  _atom_site_fract_y
  _atom_site_fract_z
  _atom_site_thermal_displace_type
  _atom_site_B_iso_or_equiv
  _atom_site_type_symbol
  Cd1      1.0000 0.13456  0.01402  0.34964  Biso   1.000  Cd
  Zr1      1.0000 0.13942  0.52150  0.34452  Biso   1.000  Zr
  Zr2      1.0000 0.14352  0.22976  0.84394  Biso   1.000  Zr
  Zr3      1.0000 0.13989  0.72967  0.84396  Biso   1.000  Zr
  Zr4      1.0000 0.35928  0.26929  0.34163  Biso   1.000  Zr
  Zr5      1.0000 0.36187  0.77173  0.33980  Biso   1.000  Zr
  Zr6      1.0000 0.36107  0.47889  0.84352  Biso   1.000  Zr
  Zr7      1.0000 0.36083  0.98042  0.84290  Biso   1.000  Zr
  Zr8      1.0000 0.63860  0.02150  0.15812  Biso   1.000  Zr
  Zr9      1.0000 0.63835  0.51984  0.15573  Biso   1.000  Zr
  Zr10     1.0000 0.63814  0.22940  0.65642  Biso   1.000  Zr
  Zr11     1.0000 0.63829  0.72849  0.65509  Biso   1.000  Zr
  Zr12     1.0000 0.86099  0.27042  0.15554  Biso   1.000  Zr
  Zr13     1.0000 0.86017  0.76923  0.15520  Biso   1.000  Zr
  Zr14     1.0000 0.86197  0.47868  0.65653  Biso   1.000  Zr
  Zr15     1.0000 0.85787  0.97917  0.66191  Biso   1.000  Zr
  O1       1.0000 0.02953  0.16245  0.14831  Biso   1.000  O
  O2       1.0000 0.03082  0.66205  0.16205  Biso   1.000  O
  O3       1.0000 0.02329  0.09341  0.68579  Biso   1.000  O
  O4       1.0000 0.03029  0.58887  0.66007  Biso   1.000  O
  O5       1.0000 0.46892  0.41194  0.16243  Biso   1.000  O
  O6       1.0000 0.47134  0.91257  0.16264  Biso   1.000  O
  O7       1.0000 0.46939  0.33802  0.66264  Biso   1.000  O
  O8       1.0000 0.47054  0.83792  0.66043  Biso   1.000  O
  O9       1.0000 0.27908  0.12711  0.59813  Biso   1.000  O
  O10      1.0000 0.27520  0.62368  0.59143  Biso   1.000  O
  O11      1.0000 0.28537  0.13406  0.07671  Biso   1.000  O
  O12      1.0000 0.27480  0.62390  0.09256  Biso   1.000  O
  O13      1.0000 0.22592  0.37555  0.59089  Biso   1.000  O
  O14      1.0000 0.22987  0.86955  0.59207  Biso   1.000  O
  O15      1.0000 0.22424  0.37790  0.09217  Biso   1.000  O
  O16      1.0000 0.23315  0.86983  0.07911  Biso   1.000  O
  O17      1.0000 0.53226  0.16404  0.33526  Biso   1.000  O
  O18      1.0000 0.53131  0.66119  0.33645  Biso   1.000  O
  O19      1.0000 0.53369  0.08574  0.83360  Biso   1.000  O
  O20      1.0000 0.53031  0.58738  0.83709  Biso   1.000  O
  O21      1.0000 0.97030  0.41041  0.34080  Biso   1.000  O
  O22      1.0000 0.95391  0.91156  0.34070  Biso   1.000  O
  O23      1.0000 0.97043  0.34186  0.84225  Biso   1.000  O
  O24      1.0000 0.96932  0.83790  0.83873  Biso   1.000  O
  O25      1.0000 0.77312  0.12550  0.91173  Biso   1.000  O
  O26      1.0000 0.77347  0.62317  0.90669  Biso   1.000  O
  O27      1.0000 0.77429  0.12615  0.41133  Biso   1.000  O
  O28      1.0000 0.77442  0.62511  0.40704  Biso   1.000  O
  O29      1.0000 0.72531  0.37425  0.90780  Biso   1.000  O
  O30      1.0000 0.72485  0.87359  0.90983  Biso   1.000  O
  O31      1.0000 0.72599  0.37595  0.40788  Biso   1.000  O
  O32      1.0000 0.72046  0.87541  0.41097  Biso   1.000  O
