data_image0
_cell_length_a       10.2431
_cell_length_b       10.3677
_cell_length_c       5.25752
_cell_angle_alpha    90.3273
_cell_angle_beta     80.2858
_cell_angle_gamma    89.9557

_symmetry_space_group_name_H-M    "P 1"
_symmetry_int_tables_number       1

loop_
  _symmetry_equiv_pos_as_xyz
  'x, y, z'

loop_
  _atom_site_label
  _atom_site_occupancy
  _atom_site_fract_x
  _atom_site_fract_y
  _atom_site_fract_z
  _atom_site_thermal_displace_type
  _atom_site_B_iso_or_equiv
  _atom_site_type_symbol
  Cd1      1.0000 0.13054  0.01155  0.30756  Biso   1.000  Cd
  Zr1      1.0000 0.14000  0.52196  0.29002  Biso   1.000  Zr
  Zr2      1.0000 0.63878  0.02277  0.29241  Biso   1.000  Zr
  Zr3      1.0000 0.63804  0.51955  0.28995  Biso   1.000  Zr
  Zr4      1.0000 0.14138  0.22980  0.78764  Biso   1.000  Zr
  Zr5      1.0000 0.14000  0.72872  0.79302  Biso   1.000  Zr
  Zr6      1.0000 0.63917  0.23030  0.79034  Biso   1.000  Zr
  Zr7      1.0000 0.63750  0.72794  0.79062  Biso   1.000  Zr
  Zr8      1.0000 0.35908  0.26882  0.20426  Biso   1.000  Zr
  Zr9      1.0000 0.36203  0.77213  0.21382  Biso   1.000  Zr
  Zr10     1.0000 0.86148  0.27114  0.20499  Biso   1.000  Zr
  Zr11     1.0000 0.85946  0.76761  0.20590  Biso   1.000  Zr
  Zr12     1.0000 0.36094  0.47865  0.70649  Biso   1.000  Zr
  Zr13     1.0000 0.36055  0.98028  0.71060  Biso   1.000  Zr
  Zr14     1.0000 0.86220  0.47837  0.70672  Biso   1.000  Zr
  Zr15     1.0000 0.85670  0.97766  0.71700  Biso   1.000  Zr
  O1       1.0000 0.03482  0.17420  0.14522  Biso   1.000  O
  O2       1.0000 0.03546  0.67079  0.16468  Biso   1.000  O
  O3       1.0000 0.53462  0.16836  0.15790  Biso   1.000  O
  O4       1.0000 0.53505  0.66640  0.15739  Biso   1.000  O
  O5       1.0000 0.03126  0.07957  0.68776  Biso   1.000  O
  O6       1.0000 0.03563  0.58145  0.65955  Biso   1.000  O
  O7       1.0000 0.53659  0.08300  0.65791  Biso   1.000  O
  O8       1.0000 0.53358  0.58290  0.65627  Biso   1.000  O
  O9       1.0000 0.46615  0.41590  0.34108  Biso   1.000  O
  O10      1.0000 0.46847  0.91730  0.34316  Biso   1.000  O
  O11      1.0000 0.96589  0.41903  0.33661  Biso   1.000  O
  O12      1.0000 0.94772  0.92103  0.34535  Biso   1.000  O
  O13      1.0000 0.46796  0.33577  0.84182  Biso   1.000  O
  O14      1.0000 0.46706  0.83354  0.84453  Biso   1.000  O
  O15      1.0000 0.96475  0.33375  0.83533  Biso   1.000  O
  O16      1.0000 0.96419  0.82994  0.84036  Biso   1.000  O
  O17      1.0000 0.27675  0.12721  0.47839  Biso   1.000  O
  O18      1.0000 0.27651  0.62515  0.47964  Biso   1.000  O
  O19      1.0000 0.77591  0.13013  0.48273  Biso   1.000  O
  O20      1.0000 0.77459  0.62823  0.47918  Biso   1.000  O
  O21      1.0000 0.28660  0.13226  0.95546  Biso   1.000  O
  O22      1.0000 0.27583  0.62192  0.98150  Biso   1.000  O
  O23      1.0000 0.77350  0.12194  0.98280  Biso   1.000  O
  O24      1.0000 0.77477  0.62056  0.97894  Biso   1.000  O
  O25      1.0000 0.22474  0.38110  0.01466  Biso   1.000  O
  O26      1.0000 0.23049  0.87829  0.01889  Biso   1.000  O
  O27      1.0000 0.72488  0.37911  0.01706  Biso   1.000  O
  O28      1.0000 0.72340  0.87798  0.02013  Biso   1.000  O
  O29      1.0000 0.22547  0.37085  0.51359  Biso   1.000  O
  O30      1.0000 0.23301  0.86210  0.53147  Biso   1.000  O
  O31      1.0000 0.72505  0.37215  0.51733  Biso   1.000  O
  O32      1.0000 0.72147  0.87084  0.52199  Biso   1.000  O
