data_image0
_cell_length_a       10.1664
_cell_length_b       5.19235
_cell_length_c       10.6301
_cell_angle_alpha    89.7761
_cell_angle_beta     91.8238
_cell_angle_gamma    90.1507

_symmetry_space_group_name_H-M    "P 1"
_symmetry_int_tables_number       1

loop_
  _symmetry_equiv_pos_as_xyz
  'x, y, z'

loop_
  _atom_site_label
  _atom_site_occupancy
  _atom_site_fract_x
  _atom_site_fract_y
  _atom_site_fract_z
  _atom_site_thermal_displace_type
  _atom_site_B_iso_or_equiv
  _atom_site_type_symbol
  Zr1      1.0000 0.13133  0.04191  0.17224  Biso   1.000  Zr
  Zr2      1.0000 0.13466  0.45239  0.42660  Biso   1.000  Zr
  Zr3      1.0000 0.34429  0.54242  0.19027  Biso   1.000  Zr
  Zr4      1.0000 0.36107  0.95631  0.42953  Biso   1.000  Zr
  Zr5      1.0000 0.64855  0.06354  0.07120  Biso   1.000  Zr
  Zr6      1.0000 0.63663  0.45524  0.33352  Biso   1.000  Zr
  Zr7      1.0000 0.85851  0.54068  0.07450  Biso   1.000  Zr
  Zr8      1.0000 0.85888  0.95571  0.32786  Biso   1.000  Zr
  O1       1.0000 0.03344  0.33015  0.08335  Biso   1.000  O
  O2       1.0000 0.02868  0.16889  0.33322  Biso   1.000  O
  O3       1.0000 0.45886  0.85647  0.09596  Biso   1.000  O
  O4       1.0000 0.46539  0.67585  0.33908  Biso   1.000  O
  O5       1.0000 0.26635  0.24994  0.30159  Biso   1.000  O
  O6       1.0000 0.27606  0.25324  0.04835  Biso   1.000  O
  O7       1.0000 0.21862  0.75076  0.30426  Biso   1.000  O
  O8       1.0000 0.22173  0.75229  0.05306  Biso   1.000  O
  O9       1.0000 0.51249  0.30327  0.19265  Biso   1.000  O
  O10      1.0000 0.52868  0.17691  0.42676  Biso   1.000  O
  O11      1.0000 0.96289  0.82973  0.16824  Biso   1.000  O
  O12      1.0000 0.96672  0.66800  0.41811  Biso   1.000  O
  O13      1.0000 0.77428  0.24651  0.45236  Biso   1.000  O
  O14      1.0000 0.77508  0.25758  0.20593  Biso   1.000  O
  O15      1.0000 0.72564  0.74877  0.45557  Biso   1.000  O
  O16      1.0000 0.72097  0.75439  0.20670  Biso   1.000  O
  Zr9      1.0000 0.14422  0.03826  0.67322  Biso   1.000  Zr
  Zr10     1.0000 0.14122  0.46034  0.92395  Biso   1.000  Zr
  Zr11     1.0000 0.36617  0.53811  0.67700  Biso   1.000  Zr
  Zr12     1.0000 0.35949  0.96467  0.92511  Biso   1.000  Zr
  Zr13     1.0000 0.64205  0.03772  0.57727  Biso   1.000  Zr
  Zr14     1.0000 0.65327  0.45088  0.81571  Biso   1.000  Zr
  Zr15     1.0000 0.86581  0.54105  0.57699  Biso   1.000  Zr
  Zr16     1.0000 0.87336  0.95881  0.82536  Biso   1.000  Zr
  O17      1.0000 0.03396  0.32239  0.58307  Biso   1.000  O
  O18      1.0000 0.04389  0.16700  0.83236  Biso   1.000  O
  O19      1.0000 0.47217  0.82243  0.58636  Biso   1.000  O
  O20      1.0000 0.47294  0.66071  0.83683  Biso   1.000  O
  O21      1.0000 0.28073  0.24964  0.79752  Biso   1.000  O
  O22      1.0000 0.27595  0.24643  0.54940  Biso   1.000  O
  O23      1.0000 0.23051  0.74761  0.79997  Biso   1.000  O
  O24      1.0000 0.22819  0.74575  0.55095  Biso   1.000  O
  O25      1.0000 0.53572  0.32183  0.66765  Biso   1.000  O
  O26      1.0000 0.53583  0.13962  0.90872  Biso   1.000  O
  O27      1.0000 0.97580  0.82215  0.66561  Biso   1.000  O
  O28      1.0000 0.97545  0.66921  0.91723  Biso   1.000  O
  O29      1.0000 0.79606  0.25006  0.94049  Biso   1.000  O
  O30      1.0000 0.78317  0.24232  0.69624  Biso   1.000  O
  O31      1.0000 0.74505  0.78394  0.94934  Biso   1.000  O
  O32      1.0000 0.73297  0.74361  0.70188  Biso   1.000  O
  Cd1      1.0000 0.56494  0.54488  0.03613  Biso   1.000  Cd
