data_image0
_cell_length_a       10.2635
_cell_length_b       10.3642
_cell_length_c       10.5835
_cell_angle_alpha    90.1819
_cell_angle_beta     79.4749
_cell_angle_gamma    90.0794

_symmetry_space_group_name_H-M    "P 1"
_symmetry_int_tables_number       1

loop_
  _symmetry_equiv_pos_as_xyz
  'x, y, z'

loop_
  _atom_site_label
  _atom_site_occupancy
  _atom_site_fract_x
  _atom_site_fract_y
  _atom_site_fract_z
  _atom_site_thermal_displace_type
  _atom_site_B_iso_or_equiv
  _atom_site_type_symbol
  Zr1      1.0000 0.13068  0.02119  0.14137  Biso   1.000  Zr
  Zr2      1.0000 0.14269  0.22972  0.38983  Biso   1.000  Zr
  Zr3      1.0000 0.34779  0.27366  0.09483  Biso   1.000  Zr
  Zr4      1.0000 0.35810  0.47971  0.34680  Biso   1.000  Zr
  O1       1.0000 0.02992  0.16743  0.07468  Biso   1.000  O
  O2       1.0000 0.02954  0.08372  0.32782  Biso   1.000  O
  O3       1.0000 0.45924  0.43275  0.15820  Biso   1.000  O
  O4       1.0000 0.49201  0.35643  0.44628  Biso   1.000  O
  O5       1.0000 0.26227  0.11454  0.23151  Biso   1.000  O
  O6       1.0000 0.28118  0.11703  0.48751  Biso   1.000  O
  O7       1.0000 0.21719  0.38328  0.00182  Biso   1.000  O
  O8       1.0000 0.20352  0.37683  0.24947  Biso   1.000  O
  Zr5      1.0000 0.13957  0.02119  0.64401  Biso   1.000  Zr
  Zr6      1.0000 0.13464  0.22965  0.89129  Biso   1.000  Zr
  Zr7      1.0000 0.36423  0.27526  0.60842  Biso   1.000  Zr
  Zr8      1.0000 0.35987  0.48039  0.85536  Biso   1.000  Zr
  O9       1.0000 0.04051  0.16752  0.57623  Biso   1.000  O
  O10      1.0000 0.03217  0.08441  0.82517  Biso   1.000  O
  O11      1.0000 0.46892  0.41375  0.68210  Biso   1.000  O
  O12      1.0000 0.46368  0.33364  0.92166  Biso   1.000  O
  O13      1.0000 0.27482  0.12877  0.73776  Biso   1.000  O
  O14      1.0000 0.27007  0.12421  0.98403  Biso   1.000  O
  O15      1.0000 0.23023  0.37649  0.50785  Biso   1.000  O
  O16      1.0000 0.22503  0.37258  0.75700  Biso   1.000  O
  Zr9      1.0000 0.13621  0.52396  0.14283  Biso   1.000  Zr
  Zr10     1.0000 0.13664  0.72550  0.39625  Biso   1.000  Zr
  Zr11     1.0000 0.35986  0.77270  0.10398  Biso   1.000  Zr
  Zr12     1.0000 0.35728  0.96565  0.35641  Biso   1.000  Zr
  O17      1.0000 0.03024  0.66849  0.07583  Biso   1.000  O
  O18      1.0000 0.03041  0.58660  0.32568  Biso   1.000  O
  O19      1.0000 0.46572  0.91745  0.17473  Biso   1.000  O
  O20      1.0000 0.46380  0.82819  0.42344  Biso   1.000  O
  O21      1.0000 0.27297  0.62836  0.24020  Biso   1.000  O
  O22      1.0000 0.27267  0.62041  0.49036  Biso   1.000  O
  O23      1.0000 0.22399  0.87976  0.00920  Biso   1.000  O
  O24      1.0000 0.22279  0.86656  0.26048  Biso   1.000  O
  Zr13     1.0000 0.14009  0.52172  0.64436  Biso   1.000  Zr
  Zr14     1.0000 0.13642  0.72949  0.89574  Biso   1.000  Zr
  Zr15     1.0000 0.36117  0.76933  0.60590  Biso   1.000  Zr
  Zr16     1.0000 0.35972  0.97893  0.85383  Biso   1.000  Zr
  O25      1.0000 0.03080  0.66338  0.57797  Biso   1.000  O
  O26      1.0000 0.03340  0.58506  0.82712  Biso   1.000  O
  O27      1.0000 0.46636  0.91466  0.67294  Biso   1.000  O
  O28      1.0000 0.46524  0.83630  0.92283  Biso   1.000  O
  O29      1.0000 0.27518  0.62775  0.74034  Biso   1.000  O
  O30      1.0000 0.27433  0.62512  0.99052  Biso   1.000  O
  O31      1.0000 0.22279  0.87487  0.51088  Biso   1.000  O
  O32      1.0000 0.22407  0.87148  0.75951  Biso   1.000  O
  Zr17     1.0000 0.64101  0.01942  0.14767  Biso   1.000  Zr
  Zr18     1.0000 0.65829  0.23097  0.41112  Biso   1.000  Zr
  Zr19     1.0000 0.85825  0.27316  0.10639  Biso   1.000  Zr
  Zr20     1.0000 0.86322  0.47846  0.35448  Biso   1.000  Zr
  O33      1.0000 0.53037  0.16700  0.08353  Biso   1.000  O
  O34      1.0000 0.54397  0.07111  0.34087  Biso   1.000  O
  O35      1.0000 0.96036  0.42043  0.16937  Biso   1.000  O
  O36      1.0000 0.96778  0.33409  0.42259  Biso   1.000  O
  O37      1.0000 0.77661  0.12922  0.24439  Biso   1.000  O
  O38      1.0000 0.78266  0.11848  0.49776  Biso   1.000  O
  O39      1.0000 0.72223  0.37879  0.01323  Biso   1.000  O
  O40      1.0000 0.72227  0.37078  0.26468  Biso   1.000  O
  Zr21     1.0000 0.63888  0.02022  0.64969  Biso   1.000  Zr
  Zr22     1.0000 0.63682  0.22926  0.89938  Biso   1.000  Zr
  Zr23     1.0000 0.86884  0.27110  0.60981  Biso   1.000  Zr
  Zr24     1.0000 0.86030  0.47956  0.85653  Biso   1.000  Zr
  O41      1.0000 0.53698  0.16529  0.58197  Biso   1.000  O
  O42      1.0000 0.53257  0.08374  0.83080  Biso   1.000  O
  O43      1.0000 0.96898  0.41621  0.67443  Biso   1.000  O
  O44      1.0000 0.96230  0.33371  0.92128  Biso   1.000  O
  O45      1.0000 0.77494  0.12932  0.74441  Biso   1.000  O
  O46      1.0000 0.77278  0.12160  0.99342  Biso   1.000  O
  O47      1.0000 0.73388  0.37691  0.51740  Biso   1.000  O
  O48      1.0000 0.72596  0.37193  0.76430  Biso   1.000  O
  Zr25     1.0000 0.63506  0.52399  0.14575  Biso   1.000  Zr
  Zr26     1.0000 0.63875  0.72531  0.39642  Biso   1.000  Zr
  Zr27     1.0000 0.85780  0.77027  0.10483  Biso   1.000  Zr
  Zr28     1.0000 0.86173  0.97567  0.35593  Biso   1.000  Zr
  O49      1.0000 0.53481  0.67367  0.07887  Biso   1.000  O
  O50      1.0000 0.53120  0.58572  0.32602  Biso   1.000  O
  O51      1.0000 0.96191  0.91298  0.17460  Biso   1.000  O
  O52      1.0000 0.96550  0.83275  0.42393  Biso   1.000  O
  O53      1.0000 0.77416  0.62889  0.24142  Biso   1.000  O
  O54      1.0000 0.77369  0.61997  0.49084  Biso   1.000  O
  O55      1.0000 0.72396  0.87960  0.01104  Biso   1.000  O
  O56      1.0000 0.72199  0.87049  0.26107  Biso   1.000  O
  Zr29     1.0000 0.63902  0.52170  0.64862  Biso   1.000  Zr
  Zr30     1.0000 0.63677  0.73001  0.89670  Biso   1.000  Zr
  Zr31     1.0000 0.86087  0.77158  0.60522  Biso   1.000  Zr
  Zr32     1.0000 0.86040  0.97904  0.85516  Biso   1.000  Zr
  O57      1.0000 0.53245  0.66310  0.57920  Biso   1.000  O
  O58      1.0000 0.53265  0.58612  0.82983  Biso   1.000  O
  O59      1.0000 0.96568  0.91636  0.67197  Biso   1.000  O
  O60      1.0000 0.96536  0.83612  0.92253  Biso   1.000  O
  O61      1.0000 0.77437  0.62874  0.74077  Biso   1.000  O
  O62      1.0000 0.77318  0.62235  0.99031  Biso   1.000  O
  O63      1.0000 0.72317  0.87714  0.51176  Biso   1.000  O
  O64      1.0000 0.72461  0.87219  0.76167  Biso   1.000  O
  Cd1      1.0000 0.43460  0.23121  0.30353  Biso   1.000  Cd
