data_image0
_cell_length_a       5.16772
_cell_length_b       10.379
_cell_length_c       10.6359
_cell_angle_alpha    90.2091
_cell_angle_beta     78.6606
_cell_angle_gamma    90.279

_symmetry_space_group_name_H-M    "P 1"
_symmetry_int_tables_number       1

loop_
  _symmetry_equiv_pos_as_xyz
  'x, y, z'

loop_
  _atom_site_label
  _atom_site_occupancy
  _atom_site_fract_x
  _atom_site_fract_y
  _atom_site_fract_z
  _atom_site_thermal_displace_type
  _atom_site_B_iso_or_equiv
  _atom_site_type_symbol
  Zr1      1.0000 0.26886  0.01768  0.14472  Biso   1.000  Zr
  Zr2      1.0000 0.32971  0.23439  0.40561  Biso   1.000  Zr
  Zr3      1.0000 0.68747  0.27411  0.09755  Biso   1.000  Zr
  Zr4      1.0000 0.71607  0.48245  0.34760  Biso   1.000  Zr
  O1       1.0000 0.05302  0.16852  0.08254  Biso   1.000  O
  O2       1.0000 0.07623  0.06953  0.33934  Biso   1.000  O
  O3       1.0000 0.90627  0.43514  0.15678  Biso   1.000  O
  O4       1.0000 0.99078  0.35661  0.44772  Biso   1.000  O
  O5       1.0000 0.52782  0.11603  0.23555  Biso   1.000  O
  O6       1.0000 0.57437  0.11494  0.49531  Biso   1.000  O
  O7       1.0000 0.42961  0.38265  0.00485  Biso   1.000  O
  O8       1.0000 0.39945  0.37320  0.25163  Biso   1.000  O
  Zr5      1.0000 0.28002  0.02044  0.64827  Biso   1.000  Zr
  Zr6      1.0000 0.26507  0.23001  0.89530  Biso   1.000  Zr
  Zr7      1.0000 0.74456  0.27434  0.61198  Biso   1.000  Zr
  Zr8      1.0000 0.71652  0.48061  0.85716  Biso   1.000  Zr
  O9       1.0000 0.08779  0.16656  0.58149  Biso   1.000  O
  O10      1.0000 0.06106  0.08425  0.82905  Biso   1.000  O
  O11      1.0000 0.94306  0.41308  0.68511  Biso   1.000  O
  O12      1.0000 0.91875  0.33300  0.92206  Biso   1.000  O
  O13      1.0000 0.54857  0.12878  0.74250  Biso   1.000  O
  O14      1.0000 0.53320  0.12375  0.98796  Biso   1.000  O
  O15      1.0000 0.48011  0.37724  0.51454  Biso   1.000  O
  O16      1.0000 0.45275  0.37234  0.76076  Biso   1.000  O
  Zr9      1.0000 0.26340  0.52463  0.14367  Biso   1.000  Zr
  Zr10     1.0000 0.27021  0.72346  0.39775  Biso   1.000  Zr
  Zr11     1.0000 0.71378  0.77125  0.10434  Biso   1.000  Zr
  Zr12     1.0000 0.71416  0.96573  0.35784  Biso   1.000  Zr
  O17      1.0000 0.06137  0.67419  0.07753  Biso   1.000  O
  O18      1.0000 0.05413  0.58786  0.32456  Biso   1.000  O
  O19      1.0000 0.92347  0.91379  0.17657  Biso   1.000  O
  O20      1.0000 0.92516  0.82835  0.42521  Biso   1.000  O
  O21      1.0000 0.54061  0.62739  0.24211  Biso   1.000  O
  O22      1.0000 0.53934  0.62059  0.49137  Biso   1.000  O
  O23      1.0000 0.44772  0.87968  0.01043  Biso   1.000  O
  O24      1.0000 0.44088  0.86594  0.26140  Biso   1.000  O
  Zr13     1.0000 0.27917  0.52183  0.64801  Biso   1.000  Zr
  Zr14     1.0000 0.26863  0.73033  0.89731  Biso   1.000  Zr
  Zr15     1.0000 0.72078  0.77001  0.60673  Biso   1.000  Zr
  Zr16     1.0000 0.71770  0.97911  0.85429  Biso   1.000  Zr
  O25      1.0000 0.05667  0.66032  0.57936  Biso   1.000  O
  O26      1.0000 0.06256  0.58740  0.82921  Biso   1.000  O
  O27      1.0000 0.93222  0.91434  0.67352  Biso   1.000  O
  O28      1.0000 0.92919  0.83798  0.92372  Biso   1.000  O
  O29      1.0000 0.54684  0.62749  0.74130  Biso   1.000  O
  O30      1.0000 0.54261  0.62490  0.99136  Biso   1.000  O
  O31      1.0000 0.44245  0.87428  0.51242  Biso   1.000  O
  O32      1.0000 0.44816  0.87177  0.76143  Biso   1.000  O
  Cd1      1.0000 0.89030  0.23779  0.29817  Biso   1.000  Cd
