data_image0
_cell_length_a       10.1319
_cell_length_b       5.16062
_cell_length_c       10.5246
_cell_angle_alpha    89.7681
_cell_angle_beta     90.3769
_cell_angle_gamma    90.0349

_symmetry_space_group_name_H-M    "P 1"
_symmetry_int_tables_number       1

loop_
  _symmetry_equiv_pos_as_xyz
  'x, y, z'

loop_
  _atom_site_label
  _atom_site_occupancy
  _atom_site_fract_x
  _atom_site_fract_y
  _atom_site_fract_z
  _atom_site_thermal_displace_type
  _atom_site_B_iso_or_equiv
  _atom_site_type_symbol
  Cd1      1.0000 0.13232  0.03013  0.17194  Biso   1.000  Cd
  Zr1      1.0000 0.13985  0.04078  0.67076  Biso   1.000  Zr
  Zr2      1.0000 0.13908  0.45795  0.42040  Biso   1.000  Zr
  Zr3      1.0000 0.14408  0.45626  0.92123  Biso   1.000  Zr
  Zr4      1.0000 0.35851  0.53636  0.16734  Biso   1.000  Zr
  Zr5      1.0000 0.36075  0.54176  0.67023  Biso   1.000  Zr
  Zr6      1.0000 0.35900  0.96017  0.41904  Biso   1.000  Zr
  Zr7      1.0000 0.36130  0.95755  0.92118  Biso   1.000  Zr
  Zr8      1.0000 0.63953  0.03986  0.07849  Biso   1.000  Zr
  Zr9      1.0000 0.63753  0.04151  0.57978  Biso   1.000  Zr
  Zr10     1.0000 0.63717  0.45841  0.32855  Biso   1.000  Zr
  Zr11     1.0000 0.63922  0.45828  0.82854  Biso   1.000  Zr
  Zr12     1.0000 0.86181  0.53464  0.07796  Biso   1.000  Zr
  Zr13     1.0000 0.86017  0.54186  0.57962  Biso   1.000  Zr
  Zr14     1.0000 0.85820  0.96280  0.33354  Biso   1.000  Zr
  Zr15     1.0000 0.86247  0.95733  0.82981  Biso   1.000  Zr
  O1       1.0000 0.03773  0.35495  0.08546  Biso   1.000  O
  O2       1.0000 0.03357  0.34020  0.59000  Biso   1.000  O
  O3       1.0000 0.02615  0.16705  0.35432  Biso   1.000  O
  O4       1.0000 0.03466  0.16249  0.83543  Biso   1.000  O
  O5       1.0000 0.47245  0.82152  0.08066  Biso   1.000  O
  O6       1.0000 0.46769  0.82767  0.58159  Biso   1.000  O
  O7       1.0000 0.46879  0.67653  0.33055  Biso   1.000  O
  O8       1.0000 0.46962  0.67179  0.83033  Biso   1.000  O
  O9       1.0000 0.27925  0.25461  0.29973  Biso   1.000  O
  O10      1.0000 0.27599  0.24696  0.79215  Biso   1.000  O
  O11      1.0000 0.28564  0.25753  0.03719  Biso   1.000  O
  O12      1.0000 0.27464  0.25066  0.54523  Biso   1.000  O
  O13      1.0000 0.22741  0.73956  0.29476  Biso   1.000  O
  O14      1.0000 0.22577  0.74724  0.79213  Biso   1.000  O
  O15      1.0000 0.23285  0.74172  0.03829  Biso   1.000  O
  O16      1.0000 0.22426  0.75246  0.54393  Biso   1.000  O
  O17      1.0000 0.53299  0.32554  0.16691  Biso   1.000  O
  O18      1.0000 0.53208  0.32832  0.66655  Biso   1.000  O
  O19      1.0000 0.53122  0.17194  0.41722  Biso   1.000  O
  O20      1.0000 0.53437  0.16974  0.91600  Biso   1.000  O
  O21      1.0000 0.94675  0.84793  0.16289  Biso   1.000  O
  O22      1.0000 0.96646  0.83511  0.66458  Biso   1.000  O
  O23      1.0000 0.96505  0.66664  0.41551  Biso   1.000  O
  O24      1.0000 0.96825  0.66307  0.91369  Biso   1.000  O
  O25      1.0000 0.77636  0.24577  0.95499  Biso   1.000  O
  O26      1.0000 0.77217  0.25184  0.45739  Biso   1.000  O
  O27      1.0000 0.77458  0.25475  0.20683  Biso   1.000  O
  O28      1.0000 0.77542  0.25103  0.70593  Biso   1.000  O
  O29      1.0000 0.72606  0.74666  0.95446  Biso   1.000  O
  O30      1.0000 0.72319  0.75097  0.45606  Biso   1.000  O
  O31      1.0000 0.72197  0.75148  0.20586  Biso   1.000  O
  O32      1.0000 0.72561  0.75062  0.70495  Biso   1.000  O
