data_image0
_cell_length_a       10.0181
_cell_length_b       5.19668
_cell_length_c       10.0557
_cell_angle_alpha    90.2394
_cell_angle_beta     90.381
_cell_angle_gamma    90.0523

_symmetry_space_group_name_H-M    "P 1"
_symmetry_int_tables_number       1

loop_
  _symmetry_equiv_pos_as_xyz
  'x, y, z'

loop_
  _atom_site_label
  _atom_site_occupancy
  _atom_site_fract_x
  _atom_site_fract_y
  _atom_site_fract_z
  _atom_site_thermal_displace_type
  _atom_site_B_iso_or_equiv
  _atom_site_type_symbol
  Ce1      1.0000 0.12483  0.01882  0.11926  Biso   1.000  Ce
  Hf1      1.0000 0.13383  0.46606  0.37797  Biso   1.000  Hf
  Hf2      1.0000 0.36862  0.52652  0.12545  Biso   1.000  Hf
  Hf3      1.0000 0.36514  0.96587  0.37443  Biso   1.000  Hf
  O1       1.0000 0.03032  0.38146  0.20063  Biso   1.000  O
  O2       1.0000 0.03476  0.13076  0.44429  Biso   1.000  O
  O3       1.0000 0.46352  0.86701  0.19362  Biso   1.000  O
  O4       1.0000 0.46382  0.63070  0.44553  Biso   1.000  O
  O5       1.0000 0.27442  0.23960  0.25188  Biso   1.000  O
  O6       1.0000 0.26954  0.26293  0.49998  Biso   1.000  O
  O7       1.0000 0.22962  0.76604  0.49895  Biso   1.000  O
  O8       1.0000 0.23584  0.72024  0.25261  Biso   1.000  O
  Hf4      1.0000 0.13377  0.03294  0.62510  Biso   1.000  Hf
  Hf5      1.0000 0.13635  0.47347  0.87100  Biso   1.000  Hf
  Hf6      1.0000 0.36659  0.53159  0.62409  Biso   1.000  Hf
  Hf7      1.0000 0.37077  0.96692  0.87291  Biso   1.000  Hf
  O9       1.0000 0.03869  0.37428  0.68879  Biso   1.000  O
  O10      1.0000 0.03069  0.15479  0.92865  Biso   1.000  O
  O11      1.0000 0.46614  0.86570  0.69435  Biso   1.000  O
  O12      1.0000 0.47045  0.63365  0.94487  Biso   1.000  O
  O13      1.0000 0.27145  0.23514  0.74759  Biso   1.000  O
  O14      1.0000 0.27360  0.26668  0.99360  Biso   1.000  O
  O15      1.0000 0.24083  0.75397  0.99239  Biso   1.000  O
  O16      1.0000 0.23172  0.73772  0.74598  Biso   1.000  O
  Hf8      1.0000 0.63306  0.02937  0.12652  Biso   1.000  Hf
  Hf9      1.0000 0.63170  0.46501  0.37725  Biso   1.000  Hf
  Hf10     1.0000 0.85968  0.53245  0.12952  Biso   1.000  Hf
  Hf11     1.0000 0.86214  0.96695  0.38108  Biso   1.000  Hf
  O17      1.0000 0.53715  0.36417  0.19446  Biso   1.000  O
  O18      1.0000 0.53497  0.12993  0.44568  Biso   1.000  O
  O19      1.0000 0.94829  0.86807  0.20294  Biso   1.000  O
  O20      1.0000 0.96330  0.63393  0.44708  Biso   1.000  O
  O21      1.0000 0.76772  0.23384  0.25190  Biso   1.000  O
  O22      1.0000 0.76843  0.26556  0.50100  Biso   1.000  O
  O23      1.0000 0.72829  0.76318  0.50217  Biso   1.000  O
  O24      1.0000 0.72250  0.73343  0.25236  Biso   1.000  O
  Hf12     1.0000 0.63337  0.03334  0.62590  Biso   1.000  Hf
  Hf13     1.0000 0.63520  0.46583  0.87558  Biso   1.000  Hf
  Hf14     1.0000 0.86696  0.53322  0.62508  Biso   1.000  Hf
  Hf15     1.0000 0.86336  0.96512  0.87444  Biso   1.000  Hf
  O25      1.0000 0.53578  0.36650  0.69523  Biso   1.000  O
  O26      1.0000 0.53876  0.13149  0.94436  Biso   1.000  O
  O27      1.0000 0.96474  0.86755  0.69656  Biso   1.000  O
  O28      1.0000 0.97486  0.65551  0.95734  Biso   1.000  O
  O29      1.0000 0.77128  0.23503  0.74901  Biso   1.000  O
  O30      1.0000 0.77184  0.26355  0.99993  Biso   1.000  O
  O31      1.0000 0.73141  0.76238  0.00072  Biso   1.000  O
  O32      1.0000 0.73120  0.73386  0.75076  Biso   1.000  O
