data_image0
_cell_length_a       10.1605
_cell_length_b       10.3297
_cell_length_c       5.23515
_cell_angle_alpha    90.0642
_cell_angle_beta     80.6294
_cell_angle_gamma    90.0836

_symmetry_space_group_name_H-M    "P 1"
_symmetry_int_tables_number       1

loop_
  _symmetry_equiv_pos_as_xyz
  'x, y, z'

loop_
  _atom_site_label
  _atom_site_occupancy
  _atom_site_fract_x
  _atom_site_fract_y
  _atom_site_fract_z
  _atom_site_thermal_displace_type
  _atom_site_B_iso_or_equiv
  _atom_site_type_symbol
  Ce1      1.0000 0.13509  0.01685  0.28974  Biso   1.000  Ce
  Hf1      1.0000 0.13932  0.23226  0.79078  Biso   1.000  Hf
  Hf2      1.0000 0.36191  0.27098  0.20649  Biso   1.000  Hf
  Hf3      1.0000 0.36135  0.47795  0.70635  Biso   1.000  Hf
  O1       1.0000 0.03695  0.18381  0.16306  Biso   1.000  O
  O2       1.0000 0.03087  0.08112  0.68496  Biso   1.000  O
  O3       1.0000 0.46430  0.41844  0.33986  Biso   1.000  O
  O4       1.0000 0.46553  0.33189  0.83949  Biso   1.000  O
  O5       1.0000 0.28085  0.13380  0.48802  Biso   1.000  O
  O6       1.0000 0.28194  0.12488  0.96962  Biso   1.000  O
  O7       1.0000 0.22432  0.37983  0.01619  Biso   1.000  O
  O8       1.0000 0.22246  0.37227  0.51560  Biso   1.000  O
  Hf4      1.0000 0.13834  0.52109  0.28991  Biso   1.000  Hf
  Hf5      1.0000 0.13928  0.72621  0.79116  Biso   1.000  Hf
  Hf6      1.0000 0.36488  0.76836  0.20648  Biso   1.000  Hf
  Hf7      1.0000 0.36540  0.97789  0.70704  Biso   1.000  Hf
  O9       1.0000 0.03700  0.67254  0.16318  Biso   1.000  O
  O10      1.0000 0.03582  0.57977  0.65980  Biso   1.000  O
  O11      1.0000 0.46458  0.92011  0.33765  Biso   1.000  O
  O12      1.0000 0.46893  0.83116  0.84115  Biso   1.000  O
  O13      1.0000 0.27660  0.62636  0.47832  Biso   1.000  O
  O14      1.0000 0.27630  0.61888  0.97976  Biso   1.000  O
  O15      1.0000 0.23300  0.87132  0.00436  Biso   1.000  O
  O16      1.0000 0.23103  0.86372  0.52135  Biso   1.000  O
  Hf8      1.0000 0.63925  0.02162  0.29346  Biso   1.000  Hf
  Hf9      1.0000 0.63845  0.22938  0.79259  Biso   1.000  Hf
  Hf10     1.0000 0.85936  0.27361  0.20787  Biso   1.000  Hf
  Hf11     1.0000 0.86132  0.47872  0.70620  Biso   1.000  Hf
  O17      1.0000 0.53602  0.16932  0.16047  Biso   1.000  O
  O18      1.0000 0.53859  0.08001  0.66053  Biso   1.000  O
  O19      1.0000 0.96109  0.42412  0.33481  Biso   1.000  O
  O20      1.0000 0.96221  0.33149  0.83465  Biso   1.000  O
  O21      1.0000 0.77673  0.13031  0.48357  Biso   1.000  O
  O22      1.0000 0.77465  0.12133  0.98532  Biso   1.000  O
  O23      1.0000 0.72287  0.37962  0.01796  Biso   1.000  O
  O24      1.0000 0.72298  0.37107  0.51873  Biso   1.000  O
  Hf12     1.0000 0.63816  0.51969  0.29147  Biso   1.000  Hf
  Hf13     1.0000 0.63871  0.72715  0.78938  Biso   1.000  Hf
  Hf14     1.0000 0.85812  0.76763  0.20699  Biso   1.000  Hf
  Hf15     1.0000 0.85599  0.97807  0.71775  Biso   1.000  Hf
  O25      1.0000 0.53754  0.66765  0.15913  Biso   1.000  O
  O26      1.0000 0.53524  0.58054  0.65806  Biso   1.000  O
  O27      1.0000 0.94805  0.91999  0.34766  Biso   1.000  O
  O28      1.0000 0.96501  0.83130  0.84131  Biso   1.000  O
  O29      1.0000 0.77528  0.62830  0.47933  Biso   1.000  O
  O30      1.0000 0.77647  0.61998  0.97905  Biso   1.000  O
  O31      1.0000 0.72347  0.87834  0.02090  Biso   1.000  O
  O32      1.0000 0.71835  0.86927  0.52251  Biso   1.000  O
