data_image0
_cell_length_a       10.0521
_cell_length_b       10.2574
_cell_length_c       10.4691
_cell_angle_alpha    90.0033
_cell_angle_beta     90.0502
_cell_angle_gamma    90.0228

_symmetry_space_group_name_H-M    "P 1"
_symmetry_int_tables_number       1

loop_
  _symmetry_equiv_pos_as_xyz
  'x, y, z'

loop_
  _atom_site_label
  _atom_site_occupancy
  _atom_site_fract_x
  _atom_site_fract_y
  _atom_site_fract_z
  _atom_site_thermal_displace_type
  _atom_site_B_iso_or_equiv
  _atom_site_type_symbol
  Ce1      1.0000 0.13530  0.01669  0.16817  Biso   1.000  Ce
  Hf1      1.0000 0.13896  0.22915  0.42329  Biso   1.000  Hf
  Hf2      1.0000 0.36146  0.27155  0.17109  Biso   1.000  Hf
  Hf3      1.0000 0.36109  0.47846  0.42093  Biso   1.000  Hf
  Hf4      1.0000 0.63903  0.02102  0.07963  Biso   1.000  Hf
  Hf5      1.0000 0.63797  0.22947  0.32885  Biso   1.000  Hf
  Hf6      1.0000 0.85892  0.27337  0.07722  Biso   1.000  Hf
  Hf7      1.0000 0.86160  0.47875  0.32862  Biso   1.000  Hf
  O1       1.0000 0.03233  0.17604  0.08066  Biso   1.000  O
  O2       1.0000 0.02642  0.08677  0.34115  Biso   1.000  O
  O3       1.0000 0.46677  0.41549  0.08326  Biso   1.000  O
  O4       1.0000 0.46742  0.33546  0.33316  Biso   1.000  O
  O5       1.0000 0.28033  0.12707  0.30037  Biso   1.000  O
  O6       1.0000 0.28298  0.13252  0.03764  Biso   1.000  O
  O7       1.0000 0.22286  0.37348  0.29452  Biso   1.000  O
  O8       1.0000 0.22284  0.37730  0.04433  Biso   1.000  O
  O9       1.0000 0.53343  0.16632  0.16610  Biso   1.000  O
  O10      1.0000 0.53427  0.08384  0.41685  Biso   1.000  O
  O11      1.0000 0.96484  0.41819  0.16499  Biso   1.000  O
  O12      1.0000 0.96689  0.33504  0.41681  Biso   1.000  O
  O13      1.0000 0.77464  0.12457  0.45737  Biso   1.000  O
  O14      1.0000 0.77597  0.12675  0.20642  Biso   1.000  O
  O15      1.0000 0.72380  0.37415  0.45461  Biso   1.000  O
  O16      1.0000 0.72281  0.37647  0.20489  Biso   1.000  O
  Hf8      1.0000 0.13911  0.02075  0.67170  Biso   1.000  Hf
  Hf9      1.0000 0.13928  0.23204  0.91857  Biso   1.000  Hf
  Hf10     1.0000 0.36176  0.27078  0.67107  Biso   1.000  Hf
  Hf11     1.0000 0.36140  0.47879  0.92127  Biso   1.000  Hf
  Hf12     1.0000 0.63868  0.02137  0.58044  Biso   1.000  Hf
  Hf13     1.0000 0.63899  0.22888  0.82845  Biso   1.000  Hf
  Hf14     1.0000 0.86161  0.27148  0.57872  Biso   1.000  Hf
  Hf15     1.0000 0.86091  0.47925  0.82689  Biso   1.000  Hf
  O17      1.0000 0.03411  0.16816  0.58743  Biso   1.000  O
  O18      1.0000 0.03502  0.08275  0.83650  Biso   1.000  O
  O19      1.0000 0.46698  0.41535  0.58333  Biso   1.000  O
  O20      1.0000 0.46682  0.33368  0.83367  Biso   1.000  O
  O21      1.0000 0.27645  0.12390  0.79300  Biso   1.000  O
  O22      1.0000 0.27627  0.12550  0.54589  Biso   1.000  O
  O23      1.0000 0.22421  0.37467  0.79384  Biso   1.000  O
  O24      1.0000 0.22396  0.37619  0.54488  Biso   1.000  O
  O25      1.0000 0.53356  0.16609  0.66616  Biso   1.000  O
  O26      1.0000 0.53633  0.08263  0.91474  Biso   1.000  O
  O27      1.0000 0.96629  0.41755  0.66462  Biso   1.000  O
  O28      1.0000 0.96511  0.33529  0.91310  Biso   1.000  O
  O29      1.0000 0.77727  0.12409  0.95593  Biso   1.000  O
  O30      1.0000 0.77681  0.12630  0.70628  Biso   1.000  O
  O31      1.0000 0.72258  0.37424  0.95412  Biso   1.000  O
  O32      1.0000 0.72375  0.37603  0.70434  Biso   1.000  O
  Hf16     1.0000 0.13840  0.52087  0.17117  Biso   1.000  Hf
  Hf17     1.0000 0.13845  0.72770  0.42221  Biso   1.000  Hf
  Hf18     1.0000 0.36497  0.76817  0.17083  Biso   1.000  Hf
  Hf19     1.0000 0.36317  0.97836  0.42246  Biso   1.000  Hf
  Hf20     1.0000 0.63826  0.51989  0.07798  Biso   1.000  Hf
  Hf21     1.0000 0.63902  0.72826  0.32933  Biso   1.000  Hf
  Hf22     1.0000 0.85774  0.76762  0.07770  Biso   1.000  Hf
  Hf23     1.0000 0.85548  0.97892  0.33243  Biso   1.000  Hf
  O33      1.0000 0.03363  0.66757  0.08422  Biso   1.000  O
  O34      1.0000 0.03314  0.58418  0.33418  Biso   1.000  O
  O35      1.0000 0.46748  0.91720  0.08461  Biso   1.000  O
  O36      1.0000 0.46885  0.83362  0.33422  Biso   1.000  O
  O37      1.0000 0.27673  0.62203  0.29454  Biso   1.000  O
  O38      1.0000 0.27588  0.62323  0.04518  Biso   1.000  O
  O39      1.0000 0.22942  0.86752  0.29801  Biso   1.000  O
  O40      1.0000 0.23484  0.86749  0.03776  Biso   1.000  O
  O41      1.0000 0.53446  0.66416  0.16630  Biso   1.000  O
  O42      1.0000 0.53287  0.58378  0.41620  Biso   1.000  O
  O43      1.0000 0.95262  0.91355  0.16950  Biso   1.000  O
  O44      1.0000 0.96661  0.83479  0.41670  Biso   1.000  O
  O45      1.0000 0.77658  0.62395  0.45501  Biso   1.000  O
  O46      1.0000 0.77600  0.62556  0.20479  Biso   1.000  O
  O47      1.0000 0.72296  0.87340  0.45712  Biso   1.000  O
  O48      1.0000 0.71764  0.87562  0.20659  Biso   1.000  O
  Hf24     1.0000 0.13858  0.52114  0.67098  Biso   1.000  Hf
  Hf25     1.0000 0.13914  0.72767  0.92046  Biso   1.000  Hf
  Hf26     1.0000 0.36092  0.77082  0.67098  Biso   1.000  Hf
  Hf27     1.0000 0.36411  0.97919  0.91914  Biso   1.000  Hf
  Hf28     1.0000 0.63839  0.52089  0.57775  Biso   1.000  Hf
  Hf29     1.0000 0.63832  0.72867  0.82744  Biso   1.000  Hf
  Hf30     1.0000 0.86183  0.77130  0.57917  Biso   1.000  Hf
  Hf31     1.0000 0.86198  0.97916  0.82972  Biso   1.000  Hf
  O49      1.0000 0.03347  0.66653  0.58466  Biso   1.000  O
  O50      1.0000 0.03284  0.58392  0.83302  Biso   1.000  O
  O51      1.0000 0.46712  0.91588  0.58473  Biso   1.000  O
  O52      1.0000 0.46780  0.83414  0.83234  Biso   1.000  O
  O53      1.0000 0.27641  0.62375  0.79454  Biso   1.000  O
  O54      1.0000 0.27593  0.62567  0.54472  Biso   1.000  O
  O55      1.0000 0.22406  0.87357  0.79319  Biso   1.000  O
  O56      1.0000 0.22398  0.87607  0.54494  Biso   1.000  O
  O57      1.0000 0.53291  0.66527  0.66578  Biso   1.000  O
  O58      1.0000 0.53260  0.58466  0.91633  Biso   1.000  O
  O59      1.0000 0.96647  0.91627  0.66704  Biso   1.000  O
  O60      1.0000 0.96830  0.83555  0.91869  Biso   1.000  O
  O61      1.0000 0.77541  0.62278  0.95394  Biso   1.000  O
  O62      1.0000 0.77583  0.62656  0.70425  Biso   1.000  O
  O63      1.0000 0.72396  0.87314  0.95536  Biso   1.000  O
  O64      1.0000 0.72427  0.87628  0.70595  Biso   1.000  O
