data_image0
_cell_length_a       10.2204
_cell_length_b       10.3007
_cell_length_c       10.546
_cell_angle_alpha    89.8859
_cell_angle_beta     79.2462
_cell_angle_gamma    89.7739

_symmetry_space_group_name_H-M    "P 1"
_symmetry_int_tables_number       1

loop_
  _symmetry_equiv_pos_as_xyz
  'x, y, z'

loop_
  _atom_site_label
  _atom_site_occupancy
  _atom_site_fract_x
  _atom_site_fract_y
  _atom_site_fract_z
  _atom_site_thermal_displace_type
  _atom_site_B_iso_or_equiv
  _atom_site_type_symbol
  Hf1      1.0000 0.13065  0.01884  0.14160  Biso   1.000  Hf
  Hf2      1.0000 0.12857  0.22236  0.39366  Biso   1.000  Hf
  Hf3      1.0000 0.34284  0.27151  0.08100  Biso   1.000  Hf
  Hf4      1.0000 0.36451  0.49743  0.35403  Biso   1.000  Hf
  O1       1.0000 0.03050  0.16505  0.07210  Biso   1.000  O
  O2       1.0000 0.02607  0.08113  0.32427  Biso   1.000  O
  O3       1.0000 0.46765  0.41787  0.17375  Biso   1.000  O
  O4       1.0000 0.49698  0.37001  0.44311  Biso   1.000  O
  O5       1.0000 0.26344  0.11812  0.22649  Biso   1.000  O
  O6       1.0000 0.27580  0.11379  0.48151  Biso   1.000  O
  O7       1.0000 0.21182  0.38572  0.99774  Biso   1.000  O
  O8       1.0000 0.22789  0.36877  0.25123  Biso   1.000  O
  Hf5      1.0000 0.13945  0.02045  0.64288  Biso   1.000  Hf
  Hf6      1.0000 0.13260  0.22843  0.88812  Biso   1.000  Hf
  Hf7      1.0000 0.36724  0.27770  0.60797  Biso   1.000  Hf
  Hf8      1.0000 0.35897  0.48320  0.85277  Biso   1.000  Hf
  O9       1.0000 0.03503  0.16552  0.57819  Biso   1.000  O
  O10      1.0000 0.03083  0.08378  0.82410  Biso   1.000  O
  O11      1.0000 0.46891  0.41563  0.68196  Biso   1.000  O
  O12      1.0000 0.46653  0.33917  0.92066  Biso   1.000  O
  O13      1.0000 0.27421  0.12893  0.73426  Biso   1.000  O
  O14      1.0000 0.26778  0.12109  0.97971  Biso   1.000  O
  O15      1.0000 0.23966  0.37337  0.50038  Biso   1.000  O
  O16      1.0000 0.22366  0.37333  0.75514  Biso   1.000  O
  Hf9      1.0000 0.13934  0.52033  0.14679  Biso   1.000  Hf
  Hf10     1.0000 0.13406  0.72818  0.39746  Biso   1.000  Hf
  Hf11     1.0000 0.35955  0.77218  0.10234  Biso   1.000  Hf
  Hf12     1.0000 0.35900  0.96164  0.35402  Biso   1.000  Hf
  O17      1.0000 0.03268  0.66408  0.07615  Biso   1.000  O
  O18      1.0000 0.03384  0.58482  0.32645  Biso   1.000  O
  O19      1.0000 0.46633  0.91387  0.17377  Biso   1.000  O
  O20      1.0000 0.46517  0.82772  0.42726  Biso   1.000  O
  O21      1.0000 0.27546  0.62977  0.24124  Biso   1.000  O
  O22      1.0000 0.27081  0.62460  0.49520  Biso   1.000  O
  O23      1.0000 0.22304  0.87827  0.00804  Biso   1.000  O
  O24      1.0000 0.21937  0.86643  0.25804  Biso   1.000  O
  Hf13     1.0000 0.13878  0.51991  0.64496  Biso   1.000  Hf
  Hf14     1.0000 0.13622  0.72769  0.89683  Biso   1.000  Hf
  Hf15     1.0000 0.36133  0.77089  0.60687  Biso   1.000  Hf
  Hf16     1.0000 0.35995  0.97785  0.85172  Biso   1.000  Hf
  O25      1.0000 0.02937  0.66255  0.57771  Biso   1.000  O
  O26      1.0000 0.03350  0.58458  0.82533  Biso   1.000  O
  O27      1.0000 0.46667  0.91604  0.67304  Biso   1.000  O
  O28      1.0000 0.46578  0.83689  0.92308  Biso   1.000  O
  O29      1.0000 0.27449  0.62773  0.74099  Biso   1.000  O
  O30      1.0000 0.27632  0.62442  0.99178  Biso   1.000  O
  O31      1.0000 0.22111  0.87298  0.51157  Biso   1.000  O
  O32      1.0000 0.22362  0.87124  0.75980  Biso   1.000  O
  Hf17     1.0000 0.63894  0.02015  0.15066  Biso   1.000  Hf
  Hf18     1.0000 0.65717  0.23266  0.40846  Biso   1.000  Hf
  Hf19     1.0000 0.86000  0.27294  0.10623  Biso   1.000  Hf
  Hf20     1.0000 0.86310  0.48008  0.35510  Biso   1.000  Hf
  O33      1.0000 0.52471  0.16823  0.08931  Biso   1.000  O
  O34      1.0000 0.54737  0.06627  0.34379  Biso   1.000  O
  O35      1.0000 0.96808  0.41444  0.17311  Biso   1.000  O
  O36      1.0000 0.96584  0.33730  0.42564  Biso   1.000  O
  O37      1.0000 0.77885  0.12955  0.24238  Biso   1.000  O
  O38      1.0000 0.78461  0.11823  0.49904  Biso   1.000  O
  O39      1.0000 0.72220  0.37851  0.01352  Biso   1.000  O
  O40      1.0000 0.72829  0.37360  0.26363  Biso   1.000  O
  Hf21     1.0000 0.63856  0.02232  0.64984  Biso   1.000  Hf
  Hf22     1.0000 0.63651  0.22941  0.90176  Biso   1.000  Hf
  Hf23     1.0000 0.86340  0.27153  0.61092  Biso   1.000  Hf
  Hf24     1.0000 0.86017  0.47941  0.85542  Biso   1.000  Hf
  O41      1.0000 0.53726  0.16799  0.58061  Biso   1.000  O
  O42      1.0000 0.53083  0.08628  0.83118  Biso   1.000  O
  O43      1.0000 0.96854  0.41472  0.67428  Biso   1.000  O
  O44      1.0000 0.96124  0.33352  0.92137  Biso   1.000  O
  O45      1.0000 0.77330  0.12946  0.74625  Biso   1.000  O
  O46      1.0000 0.77101  0.12129  0.99478  Biso   1.000  O
  O47      1.0000 0.73262  0.37939  0.51841  Biso   1.000  O
  O48      1.0000 0.72476  0.37159  0.76574  Biso   1.000  O
  Hf25     1.0000 0.63829  0.52315  0.14664  Biso   1.000  Hf
  Hf26     1.0000 0.64160  0.72883  0.39863  Biso   1.000  Hf
  Hf27     1.0000 0.85983  0.76968  0.10434  Biso   1.000  Hf
  Hf28     1.0000 0.85645  0.97656  0.35538  Biso   1.000  Hf
  O49      1.0000 0.53242  0.66604  0.07619  Biso   1.000  O
  O50      1.0000 0.53598  0.59575  0.32217  Biso   1.000  O
  O51      1.0000 0.96141  0.91164  0.17400  Biso   1.000  O
  O52      1.0000 0.96346  0.83391  0.42417  Biso   1.000  O
  O53      1.0000 0.77799  0.62816  0.24074  Biso   1.000  O
  O54      1.0000 0.77528  0.62151  0.49144  Biso   1.000  O
  O55      1.0000 0.72325  0.87870  0.01220  Biso   1.000  O
  O56      1.0000 0.72241  0.86951  0.26066  Biso   1.000  O
  Hf29     1.0000 0.63879  0.52285  0.64874  Biso   1.000  Hf
  Hf30     1.0000 0.63700  0.72908  0.89754  Biso   1.000  Hf
  Hf31     1.0000 0.86071  0.77257  0.60613  Biso   1.000  Hf
  Hf32     1.0000 0.85936  0.97830  0.85560  Biso   1.000  Hf
  O57      1.0000 0.53257  0.66306  0.57904  Biso   1.000  O
  O58      1.0000 0.53180  0.58840  0.82831  Biso   1.000  O
  O59      1.0000 0.96542  0.91520  0.67348  Biso   1.000  O
  O60      1.0000 0.96553  0.83467  0.92288  Biso   1.000  O
  O61      1.0000 0.77437  0.62893  0.74128  Biso   1.000  O
  O62      1.0000 0.77472  0.62166  0.99029  Biso   1.000  O
  O63      1.0000 0.72205  0.87791  0.51331  Biso   1.000  O
  O64      1.0000 0.72363  0.87274  0.76252  Biso   1.000  O
  Ce1      1.0000 0.41221  0.23645  0.31079  Biso   1.000  Ce
