data_image0
_cell_length_a       10.3171
_cell_length_b       10.3156
_cell_length_c       5.32325
_cell_angle_alpha    90.1128
_cell_angle_beta     78.3362
_cell_angle_gamma    89.658

_symmetry_space_group_name_H-M    "P 1"
_symmetry_int_tables_number       1

loop_
  _symmetry_equiv_pos_as_xyz
  'x, y, z'

loop_
  _atom_site_label
  _atom_site_occupancy
  _atom_site_fract_x
  _atom_site_fract_y
  _atom_site_fract_z
  _atom_site_thermal_displace_type
  _atom_site_B_iso_or_equiv
  _atom_site_type_symbol
  Hf1      1.0000 0.13102  0.01887  0.28212  Biso   1.000  Hf
  Hf2      1.0000 0.12296  0.22463  0.77585  Biso   1.000  Hf
  Hf3      1.0000 0.35270  0.27453  0.15787  Biso   1.000  Hf
  Hf4      1.0000 0.36295  0.50097  0.70413  Biso   1.000  Hf
  O1       1.0000 0.02897  0.16078  0.14114  Biso   1.000  O
  O2       1.0000 0.02267  0.08369  0.64124  Biso   1.000  O
  O3       1.0000 0.47042  0.41758  0.36111  Biso   1.000  O
  O4       1.0000 0.49273  0.37128  0.88206  Biso   1.000  O
  O5       1.0000 0.26227  0.12058  0.44305  Biso   1.000  O
  O6       1.0000 0.26845  0.11684  0.95055  Biso   1.000  O
  O7       1.0000 0.22431  0.38237  0.97466  Biso   1.000  O
  O8       1.0000 0.22599  0.36972  0.48786  Biso   1.000  O
  Hf5      1.0000 0.13978  0.51828  0.28884  Biso   1.000  Hf
  Hf6      1.0000 0.13204  0.72745  0.79678  Biso   1.000  Hf
  Hf7      1.0000 0.35944  0.77163  0.21312  Biso   1.000  Hf
  Hf8      1.0000 0.35924  0.96181  0.71010  Biso   1.000  Hf
  O9       1.0000 0.02735  0.65815  0.14667  Biso   1.000  O
  O10      1.0000 0.03192  0.58817  0.64305  Biso   1.000  O
  O11      1.0000 0.46803  0.91233  0.35488  Biso   1.000  O
  O12      1.0000 0.46688  0.83314  0.86229  Biso   1.000  O
  O13      1.0000 0.27307  0.62846  0.48386  Biso   1.000  O
  O14      1.0000 0.27158  0.62857  0.99254  Biso   1.000  O
  O15      1.0000 0.22113  0.87390  0.02410  Biso   1.000  O
  O16      1.0000 0.22063  0.86780  0.52114  Biso   1.000  O
  Hf9      1.0000 0.63947  0.01989  0.30904  Biso   1.000  Hf
  Hf10     1.0000 0.65132  0.23322  0.82641  Biso   1.000  Hf
  Hf11     1.0000 0.86138  0.27228  0.22450  Biso   1.000  Hf
  Hf12     1.0000 0.86251  0.48059  0.71100  Biso   1.000  Hf
  O17      1.0000 0.52825  0.16907  0.18334  Biso   1.000  O
  O18      1.0000 0.54503  0.06965  0.69030  Biso   1.000  O
  O19      1.0000 0.97077  0.41093  0.35196  Biso   1.000  O
  O20      1.0000 0.96272  0.33957  0.85366  Biso   1.000  O
  O21      1.0000 0.77645  0.12948  0.49542  Biso   1.000  O
  O22      1.0000 0.77822  0.11927  0.00415  Biso   1.000  O
  O23      1.0000 0.72968  0.37839  0.04277  Biso   1.000  O
  O24      1.0000 0.72889  0.37301  0.53824  Biso   1.000  O
  Hf13     1.0000 0.63835  0.52486  0.29750  Biso   1.000  Hf
  Hf14     1.0000 0.63991  0.72920  0.80161  Biso   1.000  Hf
  Hf15     1.0000 0.86024  0.77025  0.21312  Biso   1.000  Hf
  Hf16     1.0000 0.85539  0.97634  0.71488  Biso   1.000  Hf
  O25      1.0000 0.53077  0.66207  0.15419  Biso   1.000  O
  O26      1.0000 0.53382  0.59974  0.64566  Biso   1.000  O
  O27      1.0000 0.96306  0.90775  0.35682  Biso   1.000  O
  O28      1.0000 0.96510  0.83776  0.85503  Biso   1.000  O
  O29      1.0000 0.77600  0.62789  0.48311  Biso   1.000  O
  O30      1.0000 0.77377  0.62179  0.98239  Biso   1.000  O
  O31      1.0000 0.72290  0.87707  0.03174  Biso   1.000  O
  O32      1.0000 0.72285  0.87091  0.52787  Biso   1.000  O
  Ce1      1.0000 0.40795  0.23745  0.61623  Biso   1.000  Ce
