data_image0
_cell_length_a       10.1272
_cell_length_b       5.18524
_cell_length_c       10.5985
_cell_angle_alpha    89.947
_cell_angle_beta     92.1258
_cell_angle_gamma    89.467

_symmetry_space_group_name_H-M    "P 1"
_symmetry_int_tables_number       1

loop_
  _symmetry_equiv_pos_as_xyz
  'x, y, z'

loop_
  _atom_site_label
  _atom_site_occupancy
  _atom_site_fract_x
  _atom_site_fract_y
  _atom_site_fract_z
  _atom_site_thermal_displace_type
  _atom_site_B_iso_or_equiv
  _atom_site_type_symbol
  Hf1      1.0000 0.13613  0.04087  0.17569  Biso   1.000  Hf
  Hf2      1.0000 0.13669  0.45236  0.42719  Biso   1.000  Hf
  Hf3      1.0000 0.34316  0.53605  0.19028  Biso   1.000  Hf
  Hf4      1.0000 0.36207  0.95095  0.43120  Biso   1.000  Hf
  Hf5      1.0000 0.63794  0.03653  0.07958  Biso   1.000  Hf
  Hf6      1.0000 0.63621  0.45157  0.33363  Biso   1.000  Hf
  Hf7      1.0000 0.87513  0.55110  0.07194  Biso   1.000  Hf
  Hf8      1.0000 0.85956  0.96088  0.32466  Biso   1.000  Hf
  O1       1.0000 0.03422  0.31719  0.07826  Biso   1.000  O
  O2       1.0000 0.02707  0.18102  0.33087  Biso   1.000  O
  O3       1.0000 0.45214  0.84449  0.10305  Biso   1.000  O
  O4       1.0000 0.46449  0.66689  0.34038  Biso   1.000  O
  O5       1.0000 0.26773  0.24503  0.30424  Biso   1.000  O
  O6       1.0000 0.27318  0.24474  0.05069  Biso   1.000  O
  O7       1.0000 0.21756  0.74915  0.30714  Biso   1.000  O
  O8       1.0000 0.21625  0.74729  0.05415  Biso   1.000  O
  O9       1.0000 0.50931  0.29185  0.19071  Biso   1.000  O
  O10      1.0000 0.52903  0.16905  0.42388  Biso   1.000  O
  O11      1.0000 0.96705  0.83456  0.17146  Biso   1.000  O
  O12      1.0000 0.96915  0.67886  0.41976  Biso   1.000  O
  O13      1.0000 0.77629  0.24629  0.44970  Biso   1.000  O
  O14      1.0000 0.76647  0.26130  0.19936  Biso   1.000  O
  O15      1.0000 0.72601  0.74834  0.45336  Biso   1.000  O
  O16      1.0000 0.72427  0.74444  0.20672  Biso   1.000  O
  Hf9      1.0000 0.14297  0.03972  0.67513  Biso   1.000  Hf
  Hf10     1.0000 0.14439  0.45886  0.92352  Biso   1.000  Hf
  Hf11     1.0000 0.36467  0.53820  0.67883  Biso   1.000  Hf
  Hf12     1.0000 0.35845  0.95774  0.93014  Biso   1.000  Hf
  Hf13     1.0000 0.64322  0.03629  0.57204  Biso   1.000  Hf
  Hf14     1.0000 0.65537  0.46235  0.79416  Biso   1.000  Hf
  Hf15     1.0000 0.86998  0.54799  0.57417  Biso   1.000  Hf
  Hf16     1.0000 0.86988  0.97338  0.82704  Biso   1.000  Hf
  O17      1.0000 0.03574  0.32362  0.58165  Biso   1.000  O
  O18      1.0000 0.03972  0.17642  0.83126  Biso   1.000  O
  O19      1.0000 0.47524  0.81364  0.58603  Biso   1.000  O
  O20      1.0000 0.47853  0.66444  0.83752  Biso   1.000  O
  O21      1.0000 0.27937  0.24848  0.79928  Biso   1.000  O
  O22      1.0000 0.27699  0.24590  0.55101  Biso   1.000  O
  O23      1.0000 0.22989  0.74535  0.80197  Biso   1.000  O
  O24      1.0000 0.22857  0.74685  0.55334  Biso   1.000  O
  O25      1.0000 0.53024  0.30704  0.66563  Biso   1.000  O
  O26      1.0000 0.52644  0.16148  0.92292  Biso   1.000  O
  O27      1.0000 0.97581  0.82460  0.66966  Biso   1.000  O
  O28      1.0000 0.97602  0.67613  0.91642  Biso   1.000  O
  O29      1.0000 0.77205  0.27878  0.94153  Biso   1.000  O
  O30      1.0000 0.78912  0.24230  0.68926  Biso   1.000  O
  O31      1.0000 0.74264  0.79015  0.94884  Biso   1.000  O
  O32      1.0000 0.73709  0.75676  0.69892  Biso   1.000  O
  Ce1      1.0000 0.58935  0.53333  0.03713  Biso   1.000  Ce
