data_image0
_cell_length_a       10.1331
_cell_length_b       10.3029
_cell_length_c       10.4571
_cell_angle_alpha    90.0269
_cell_angle_beta     80.4877
_cell_angle_gamma    90.0448

_symmetry_space_group_name_H-M    "P 1"
_symmetry_int_tables_number       1

loop_
  _symmetry_equiv_pos_as_xyz
  'x, y, z'

loop_
  _atom_site_label
  _atom_site_occupancy
  _atom_site_fract_x
  _atom_site_fract_y
  _atom_site_fract_z
  _atom_site_thermal_displace_type
  _atom_site_B_iso_or_equiv
  _atom_site_type_symbol
  Ce1      1.0000 0.13521  0.01675  0.14499  Biso   1.000  Ce
  Hf1      1.0000 0.13910  0.22945  0.39782  Biso   1.000  Hf
  Hf2      1.0000 0.36156  0.27142  0.10364  Biso   1.000  Hf
  Hf3      1.0000 0.36003  0.47800  0.35354  Biso   1.000  Hf
  O1       1.0000 0.03570  0.18072  0.07792  Biso   1.000  O
  O2       1.0000 0.02891  0.08287  0.33938  Biso   1.000  O
  O3       1.0000 0.46373  0.41911  0.16985  Biso   1.000  O
  O4       1.0000 0.46328  0.32988  0.41927  Biso   1.000  O
  O5       1.0000 0.28100  0.13365  0.24610  Biso   1.000  O
  O6       1.0000 0.27613  0.12015  0.49182  Biso   1.000  O
  O7       1.0000 0.22410  0.37971  0.00837  Biso   1.000  O
  O8       1.0000 0.22172  0.37136  0.25881  Biso   1.000  O
  Hf4      1.0000 0.13919  0.02122  0.64606  Biso   1.000  Hf
  Hf5      1.0000 0.13914  0.23120  0.89349  Biso   1.000  Hf
  Hf6      1.0000 0.36145  0.27107  0.60389  Biso   1.000  Hf
  Hf7      1.0000 0.36239  0.47855  0.85385  Biso   1.000  Hf
  O9       1.0000 0.03706  0.17212  0.58388  Biso   1.000  O
  O10      1.0000 0.03793  0.07862  0.83306  Biso   1.000  O
  O11      1.0000 0.46449  0.41909  0.66956  Biso   1.000  O
  O12      1.0000 0.46599  0.33214  0.92002  Biso   1.000  O
  O13      1.0000 0.27665  0.12938  0.73915  Biso   1.000  O
  O14      1.0000 0.28232  0.12550  0.98354  Biso   1.000  O
  O15      1.0000 0.22341  0.37922  0.50925  Biso   1.000  O
  O16      1.0000 0.22406  0.37179  0.75837  Biso   1.000  O
  Hf8      1.0000 0.13849  0.52118  0.14506  Biso   1.000  Hf
  Hf9      1.0000 0.13856  0.72698  0.39673  Biso   1.000  Hf
  Hf10     1.0000 0.36537  0.76850  0.10322  Biso   1.000  Hf
  Hf11     1.0000 0.36306  0.97849  0.35565  Biso   1.000  Hf
  O17      1.0000 0.03692  0.67239  0.08132  Biso   1.000  O
  O18      1.0000 0.03586  0.58025  0.33034  Biso   1.000  O
  O19      1.0000 0.46341  0.92089  0.16884  Biso   1.000  O
  O20      1.0000 0.46373  0.82964  0.42090  Biso   1.000  O
  O21      1.0000 0.27678  0.62660  0.23952  Biso   1.000  O
  O22      1.0000 0.27607  0.62030  0.49044  Biso   1.000  O
  O23      1.0000 0.23305  0.87134  0.00143  Biso   1.000  O
  O24      1.0000 0.23059  0.86399  0.26238  Biso   1.000  O
  Hf12     1.0000 0.13877  0.52134  0.64575  Biso   1.000  Hf
  Hf13     1.0000 0.13939  0.72782  0.89473  Biso   1.000  Hf
  Hf14     1.0000 0.36082  0.77127  0.60418  Biso   1.000  Hf
  Hf15     1.0000 0.36345  0.97817  0.85220  Biso   1.000  Hf
  O25      1.0000 0.03623  0.67025  0.58105  Biso   1.000  O
  O26      1.0000 0.03609  0.57966  0.83017  Biso   1.000  O
  O27      1.0000 0.46488  0.91919  0.66927  Biso   1.000  O
  O28      1.0000 0.46930  0.83166  0.91904  Biso   1.000  O
  O29      1.0000 0.27658  0.62902  0.74020  Biso   1.000  O
  O30      1.0000 0.27695  0.61938  0.99006  Biso   1.000  O
  O31      1.0000 0.22346  0.87919  0.51001  Biso   1.000  O
  O32      1.0000 0.22382  0.87067  0.75812  Biso   1.000  O
  Hf16     1.0000 0.63896  0.02090  0.14590  Biso   1.000  Hf
  Hf17     1.0000 0.63807  0.22930  0.39624  Biso   1.000  Hf
  Hf18     1.0000 0.85894  0.27321  0.10354  Biso   1.000  Hf
  Hf19     1.0000 0.86136  0.47846  0.35439  Biso   1.000  Hf
  O33      1.0000 0.53653  0.16964  0.08033  Biso   1.000  O
  O34      1.0000 0.53755  0.07917  0.33141  Biso   1.000  O
  O35      1.0000 0.96166  0.42240  0.16852  Biso   1.000  O
  O36      1.0000 0.96393  0.33118  0.42028  Biso   1.000  O
  O37      1.0000 0.77570  0.13016  0.24127  Biso   1.000  O
  O38      1.0000 0.77460  0.12145  0.49233  Biso   1.000  O
  O39      1.0000 0.72272  0.37957  0.00906  Biso   1.000  O
  O40      1.0000 0.72260  0.37117  0.25985  Biso   1.000  O
  Hf20     1.0000 0.63915  0.02212  0.64657  Biso   1.000  Hf
  Hf21     1.0000 0.63921  0.22868  0.89590  Biso   1.000  Hf
  Hf22     1.0000 0.86158  0.27173  0.60451  Biso   1.000  Hf
  Hf23     1.0000 0.86105  0.47877  0.85288  Biso   1.000  Hf
  O41      1.0000 0.53551  0.16947  0.58056  Biso   1.000  O
  O42      1.0000 0.53737  0.08087  0.82954  Biso   1.000  O
  O43      1.0000 0.96343  0.42137  0.66827  Biso   1.000  O
  O44      1.0000 0.96216  0.33060  0.91651  Biso   1.000  O
  O45      1.0000 0.77759  0.12939  0.74102  Biso   1.000  O
  O46      1.0000 0.77669  0.12070  0.99084  Biso   1.000  O
  O47      1.0000 0.72336  0.37918  0.50933  Biso   1.000  O
  O48      1.0000 0.72365  0.37071  0.75894  Biso   1.000  O
  Hf24     1.0000 0.63829  0.51985  0.14618  Biso   1.000  Hf
  Hf25     1.0000 0.63722  0.72694  0.39637  Biso   1.000  Hf
  Hf26     1.0000 0.85742  0.76745  0.10370  Biso   1.000  Hf
  Hf27     1.0000 0.85474  0.97807  0.35804  Biso   1.000  Hf
  O49      1.0000 0.53854  0.66883  0.07961  Biso   1.000  O
  O50      1.0000 0.53472  0.57988  0.32995  Biso   1.000  O
  O51      1.0000 0.94760  0.92024  0.17291  Biso   1.000  O
  O52      1.0000 0.96390  0.83097  0.41902  Biso   1.000  O
  O53      1.0000 0.77521  0.62797  0.24077  Biso   1.000  O
  O54      1.0000 0.77637  0.62086  0.49026  Biso   1.000  O
  O55      1.0000 0.72406  0.87870  0.00920  Biso   1.000  O
  O56      1.0000 0.71670  0.86894  0.26145  Biso   1.000  O
  Hf28     1.0000 0.63887  0.52123  0.64544  Biso   1.000  Hf
  Hf29     1.0000 0.64045  0.72874  0.89415  Biso   1.000  Hf
  Hf30     1.0000 0.86182  0.77177  0.60391  Biso   1.000  Hf
  Hf31     1.0000 0.86217  0.97869  0.85472  Biso   1.000  Hf
  O57      1.0000 0.53527  0.66866  0.58068  Biso   1.000  O
  O58      1.0000 0.53674  0.58070  0.82976  Biso   1.000  O
  O59      1.0000 0.96401  0.92024  0.66986  Biso   1.000  O
  O60      1.0000 0.96497  0.83071  0.92082  Biso   1.000  O
  O61      1.0000 0.77691  0.62954  0.73940  Biso   1.000  O
  O62      1.0000 0.77689  0.61985  0.98981  Biso   1.000  O
  O63      1.0000 0.72261  0.87877  0.51062  Biso   1.000  O
  O64      1.0000 0.72498  0.87109  0.75914  Biso   1.000  O
