data_image0
_cell_length_a       10.0902
_cell_length_b       10.2627
_cell_length_c       10.5434
_cell_angle_alpha    89.9955
_cell_angle_beta     91.0634
_cell_angle_gamma    89.7655

_symmetry_space_group_name_H-M    "P 1"
_symmetry_int_tables_number       1

loop_
  _symmetry_equiv_pos_as_xyz
  'x, y, z'

loop_
  _atom_site_label
  _atom_site_occupancy
  _atom_site_fract_x
  _atom_site_fract_y
  _atom_site_fract_z
  _atom_site_thermal_displace_type
  _atom_site_B_iso_or_equiv
  _atom_site_type_symbol
  Hf1      1.0000 0.13651  0.01974  0.17317  Biso   1.000  Hf
  Hf2      1.0000 0.13697  0.22796  0.42651  Biso   1.000  Hf
  Hf3      1.0000 0.34517  0.26869  0.18689  Biso   1.000  Hf
  Hf4      1.0000 0.36166  0.47802  0.42635  Biso   1.000  Hf
  Hf5      1.0000 0.63480  0.99960  0.08091  Biso   1.000  Hf
  Hf6      1.0000 0.63399  0.22377  0.33272  Biso   1.000  Hf
  Hf7      1.0000 0.87254  0.27640  0.07165  Biso   1.000  Hf
  Hf8      1.0000 0.85980  0.47896  0.32433  Biso   1.000  Hf
  O1       1.0000 0.03346  0.15903  0.07828  Biso   1.000  O
  O2       1.0000 0.02658  0.09085  0.32931  Biso   1.000  O
  O3       1.0000 0.45584  0.43138  0.10073  Biso   1.000  O
  O4       1.0000 0.46445  0.33366  0.33660  Biso   1.000  O
  O5       1.0000 0.26602  0.12377  0.30328  Biso   1.000  O
  O6       1.0000 0.27444  0.12287  0.04908  Biso   1.000  O
  O7       1.0000 0.21751  0.37645  0.30440  Biso   1.000  O
  O8       1.0000 0.22020  0.37522  0.04971  Biso   1.000  O
  O9       1.0000 0.50309  0.13065  0.19197  Biso   1.000  O
  O10      1.0000 0.52949  0.08670  0.42683  Biso   1.000  O
  O11      1.0000 0.97031  0.41580  0.17076  Biso   1.000  O
  O12      1.0000 0.96909  0.33908  0.41862  Biso   1.000  O
  O13      1.0000 0.77596  0.12287  0.45063  Biso   1.000  O
  O14      1.0000 0.75828  0.13040  0.19709  Biso   1.000  O
  O15      1.0000 0.72384  0.37389  0.45046  Biso   1.000  O
  O16      1.0000 0.72169  0.38140  0.19911  Biso   1.000  O
  Hf9      1.0000 0.13922  0.02045  0.67385  Biso   1.000  Hf
  Hf10     1.0000 0.14351  0.22810  0.92275  Biso   1.000  Hf
  Hf11     1.0000 0.36386  0.27004  0.67662  Biso   1.000  Hf
  Hf12     1.0000 0.36145  0.48107  0.92714  Biso   1.000  Hf
  Hf13     1.0000 0.64105  0.01637  0.57608  Biso   1.000  Hf
  Hf14     1.0000 0.65454  0.22961  0.80083  Biso   1.000  Hf
  Hf15     1.0000 0.86558  0.27300  0.57199  Biso   1.000  Hf
  Hf16     1.0000 0.86821  0.48263  0.82446  Biso   1.000  Hf
  O17      1.0000 0.03267  0.16138  0.58056  Biso   1.000  O
  O18      1.0000 0.03470  0.08723  0.83094  Biso   1.000  O
  O19      1.0000 0.47153  0.41204  0.58591  Biso   1.000  O
  O20      1.0000 0.47738  0.33319  0.84219  Biso   1.000  O
  O21      1.0000 0.27757  0.12411  0.79737  Biso   1.000  O
  O22      1.0000 0.27690  0.12554  0.55014  Biso   1.000  O
  O23      1.0000 0.23063  0.37423  0.79947  Biso   1.000  O
  O24      1.0000 0.22721  0.37460  0.55066  Biso   1.000  O
  O25      1.0000 0.53061  0.15750  0.66608  Biso   1.000  O
  O26      1.0000 0.53000  0.08201  0.92026  Biso   1.000  O
  O27      1.0000 0.97355  0.41264  0.66752  Biso   1.000  O
  O28      1.0000 0.97676  0.33861  0.91578  Biso   1.000  O
  O29      1.0000 0.77215  0.12876  0.94538  Biso   1.000  O
  O30      1.0000 0.78623  0.12017  0.69202  Biso   1.000  O
  O31      1.0000 0.73822  0.38787  0.94323  Biso   1.000  O
  O32      1.0000 0.73281  0.37829  0.69532  Biso   1.000  O
  Hf17     1.0000 0.13921  0.52230  0.17424  Biso   1.000  Hf
  Hf18     1.0000 0.13698  0.72850  0.42325  Biso   1.000  Hf
  Hf19     1.0000 0.35775  0.76946  0.17670  Biso   1.000  Hf
  Hf20     1.0000 0.36119  0.97762  0.42606  Biso   1.000  Hf
  Hf21     1.0000 0.64169  0.53667  0.07757  Biso   1.000  Hf
  Hf22     1.0000 0.63865  0.72932  0.33059  Biso   1.000  Hf
  Hf23     1.0000 0.86562  0.77079  0.07807  Biso   1.000  Hf
  Hf24     1.0000 0.86123  0.98087  0.32714  Biso   1.000  Hf
  O33      1.0000 0.03417  0.66380  0.08133  Biso   1.000  O
  O34      1.0000 0.03055  0.58916  0.33159  Biso   1.000  O
  O35      1.0000 0.46489  0.90035  0.07799  Biso   1.000  O
  O36      1.0000 0.46861  0.83891  0.33336  Biso   1.000  O
  O37      1.0000 0.27481  0.62393  0.29880  Biso   1.000  O
  O38      1.0000 0.27517  0.62654  0.04661  Biso   1.000  O
  O39      1.0000 0.22308  0.87352  0.29883  Biso   1.000  O
  O40      1.0000 0.22156  0.87582  0.04883  Biso   1.000  O
  O41      1.0000 0.53220  0.66838  0.17286  Biso   1.000  O
  O42      1.0000 0.53055  0.58672  0.41903  Biso   1.000  O
  O43      1.0000 0.96610  0.91588  0.16850  Biso   1.000  O
  O44      1.0000 0.96741  0.83933  0.41956  Biso   1.000  O
  O45      1.0000 0.77620  0.62377  0.45376  Biso   1.000  O
  O46      1.0000 0.77949  0.63007  0.20484  Biso   1.000  O
  O47      1.0000 0.72526  0.87390  0.45603  Biso   1.000  O
  O48      1.0000 0.72823  0.87091  0.20879  Biso   1.000  O
  Hf25     1.0000 0.14226  0.52095  0.67316  Biso   1.000  Hf
  Hf26     1.0000 0.14004  0.73074  0.92256  Biso   1.000  Hf
  Hf27     1.0000 0.36278  0.77036  0.67381  Biso   1.000  Hf
  Hf28     1.0000 0.36111  0.97686  0.92377  Biso   1.000  Hf
  Hf29     1.0000 0.64032  0.52266  0.57517  Biso   1.000  Hf
  Hf30     1.0000 0.64066  0.72928  0.82575  Biso   1.000  Hf
  Hf31     1.0000 0.86447  0.77167  0.57932  Biso   1.000  Hf
  Hf32     1.0000 0.86362  0.98167  0.82954  Biso   1.000  Hf
  O49      1.0000 0.03398  0.66320  0.58202  Biso   1.000  O
  O50      1.0000 0.03719  0.58837  0.83109  Biso   1.000  O
  O51      1.0000 0.47054  0.90869  0.58200  Biso   1.000  O
  O52      1.0000 0.47018  0.83688  0.83039  Biso   1.000  O
  O53      1.0000 0.27876  0.62438  0.79737  Biso   1.000  O
  O54      1.0000 0.27601  0.62484  0.54714  Biso   1.000  O
  O55      1.0000 0.22554  0.87330  0.79736  Biso   1.000  O
  O56      1.0000 0.22516  0.87585  0.54796  Biso   1.000  O
  O57      1.0000 0.53315  0.66166  0.66845  Biso   1.000  O
  O58      1.0000 0.53191  0.58821  0.91880  Biso   1.000  O
  O59      1.0000 0.97047  0.91190  0.67022  Biso   1.000  O
  O60      1.0000 0.96992  0.83841  0.91941  Biso   1.000  O
  O61      1.0000 0.77995  0.63078  0.95086  Biso   1.000  O
  O62      1.0000 0.77783  0.62682  0.70196  Biso   1.000  O
  O63      1.0000 0.72690  0.87393  0.95544  Biso   1.000  O
  O64      1.0000 0.72711  0.87472  0.70677  Biso   1.000  O
  Ce1      1.0000 0.59039  0.26106  0.04466  Biso   1.000  Ce
