data_image0
_cell_length_a       5.02708
_cell_length_b       10.2307
_cell_length_c       10.0566
_cell_angle_alpha    90
_cell_angle_beta     89.9998
_cell_angle_gamma    89.9995

_symmetry_space_group_name_H-M    "P 1"
_symmetry_int_tables_number       1

loop_
  _symmetry_equiv_pos_as_xyz
  'x, y, z'

loop_
  _atom_site_label
  _atom_site_occupancy
  _atom_site_fract_x
  _atom_site_fract_y
  _atom_site_fract_z
  _atom_site_thermal_displace_type
  _atom_site_B_iso_or_equiv
  _atom_site_type_symbol
  Ce1      1.0000 0.24982  0.00005  0.12491  Biso   1.000  Ce
  Hf1      1.0000 0.24765  0.25167  0.37615  Biso   1.000  Hf
  Hf2      1.0000 0.74982  0.25444  0.12491  Biso   1.000  Hf
  Hf3      1.0000 0.74982  0.00005  0.37801  Biso   1.000  Hf
  O1       1.0000 0.00366  0.15031  0.00029  Biso   1.000  O
  O2       1.0000 0.98338  0.11210  0.25919  Biso   1.000  O
  O3       1.0000 0.01271  0.35567  0.24575  Biso   1.000  O
  O4       1.0000 0.99072  0.39722  0.99885  Biso   1.000  O
  O5       1.0000 0.49598  0.15031  0.24953  Biso   1.000  O
  O6       1.0000 0.51625  0.11211  0.99063  Biso   1.000  O
  O7       1.0000 0.48693  0.35566  0.00407  Biso   1.000  O
  O8       1.0000 0.50891  0.39722  0.25097  Biso   1.000  O
  Hf4      1.0000 0.24982  0.00006  0.62491  Biso   1.000  Hf
  Hf5      1.0000 0.25199  0.25167  0.87367  Biso   1.000  Hf
  Hf6      1.0000 0.74982  0.24955  0.62491  Biso   1.000  Hf
  Hf7      1.0000 0.74982  0.00005  0.87181  Biso   1.000  Hf
  O9       1.0000 0.01061  0.14855  0.50675  Biso   1.000  O
  O10      1.0000 0.99552  0.10197  0.75162  Biso   1.000  O
  O11      1.0000 0.00240  0.35270  0.74657  Biso   1.000  O
  O12      1.0000 0.00004  0.39792  0.49706  Biso   1.000  O
  O13      1.0000 0.48903  0.14855  0.74307  Biso   1.000  O
  O14      1.0000 0.50411  0.10197  0.49820  Biso   1.000  O
  O15      1.0000 0.49723  0.35270  0.50324  Biso   1.000  O
  O16      1.0000 0.49959  0.39792  0.75276  Biso   1.000  O
  Hf8      1.0000 0.24982  0.50006  0.12491  Biso   1.000  Hf
  Hf9      1.0000 0.25199  0.74843  0.37615  Biso   1.000  Hf
  Hf10     1.0000 0.74981  0.74566  0.12491  Biso   1.000  Hf
  Hf11     1.0000 0.74982  0.50005  0.37517  Biso   1.000  Hf
  O17      1.0000 0.01270  0.64445  0.00407  Biso   1.000  O
  O18      1.0000 0.99072  0.60289  0.25097  Biso   1.000  O
  O19      1.0000 0.00366  0.84980  0.24953  Biso   1.000  O
  O20      1.0000 0.98338  0.88800  0.99063  Biso   1.000  O
  O21      1.0000 0.48693  0.64444  0.24575  Biso   1.000  O
  O22      1.0000 0.50892  0.60289  0.99885  Biso   1.000  O
  O23      1.0000 0.49597  0.84980  0.00029  Biso   1.000  O
  O24      1.0000 0.51625  0.88801  0.25919  Biso   1.000  O
  Hf12     1.0000 0.24982  0.50005  0.62491  Biso   1.000  Hf
  Hf13     1.0000 0.24765  0.74843  0.87367  Biso   1.000  Hf
  Hf14     1.0000 0.74982  0.75056  0.62491  Biso   1.000  Hf
  Hf15     1.0000 0.74982  0.50005  0.87465  Biso   1.000  Hf
  O25      1.0000 0.00240  0.64741  0.50325  Biso   1.000  O
  O26      1.0000 0.00004  0.60219  0.75276  Biso   1.000  O
  O27      1.0000 0.01061  0.85156  0.74307  Biso   1.000  O
  O28      1.0000 0.99552  0.89813  0.49820  Biso   1.000  O
  O29      1.0000 0.49723  0.64740  0.74657  Biso   1.000  O
  O30      1.0000 0.49959  0.60219  0.49706  Biso   1.000  O
  O31      1.0000 0.48902  0.85156  0.50675  Biso   1.000  O
  O32      1.0000 0.50412  0.89814  0.75162  Biso   1.000  O
