data_image0
_cell_length_a       5.18132
_cell_length_b       10.3224
_cell_length_c       10.0786
_cell_angle_alpha    91.3458
_cell_angle_beta     89.7447
_cell_angle_gamma    86.5358

_symmetry_space_group_name_H-M    "P 1"
_symmetry_int_tables_number       1

loop_
  _symmetry_equiv_pos_as_xyz
  'x, y, z'

loop_
  _atom_site_label
  _atom_site_occupancy
  _atom_site_fract_x
  _atom_site_fract_y
  _atom_site_fract_z
  _atom_site_thermal_displace_type
  _atom_site_B_iso_or_equiv
  _atom_site_type_symbol
  Hf1      1.0000 0.22958  0.96267  0.11158  Biso   1.000  Hf
  Hf2      1.0000 0.23131  0.25657  0.40131  Biso   1.000  Hf
  Hf3      1.0000 0.80869  0.24208  0.12014  Biso   1.000  Hf
  Hf4      1.0000 0.77100  0.02189  0.37370  Biso   1.000  Hf
  O1       1.0000 0.04988  0.11514  0.98224  Biso   1.000  O
  O2       1.0000 0.05401  0.10706  0.24743  Biso   1.000  O
  O3       1.0000 0.01663  0.36746  0.25041  Biso   1.000  O
  O4       1.0000 0.02359  0.38241  0.99338  Biso   1.000  O
  O5       1.0000 0.58069  0.17615  0.28465  Biso   1.000  O
  O6       1.0000 0.57002  0.06064  0.03502  Biso   1.000  O
  O7       1.0000 0.57845  0.31118  0.95422  Biso   1.000  O
  O8       1.0000 0.53440  0.41268  0.20878  Biso   1.000  O
  Hf5      1.0000 0.28911  0.98583  0.64397  Biso   1.000  Hf
  Hf6      1.0000 0.20292  0.25997  0.83908  Biso   1.000  Hf
  Hf7      1.0000 0.68878  0.24354  0.63157  Biso   1.000  Hf
  Hf8      1.0000 0.78084  0.00446  0.86966  Biso   1.000  Hf
  O9       1.0000 0.92674  0.17932  0.48520  Biso   1.000  O
  O10      1.0000 0.99093  0.11006  0.73171  Biso   1.000  O
  O11      1.0000 0.91241  0.35627  0.74104  Biso   1.000  O
  O12      1.0000 0.03044  0.42950  0.48676  Biso   1.000  O
  O13      1.0000 0.49189  0.12874  0.76395  Biso   1.000  O
  O14      1.0000 0.45437  0.11446  0.51368  Biso   1.000  O
  O15      1.0000 0.51246  0.37120  0.48937  Biso   1.000  O
  O16      1.0000 0.42009  0.38767  0.73597  Biso   1.000  O
  Hf9      1.0000 0.19839  0.52087  0.13915  Biso   1.000  Hf
  Hf10     1.0000 0.27879  0.78082  0.39171  Biso   1.000  Hf
  Hf11     1.0000 0.73303  0.75902  0.14667  Biso   1.000  Hf
  Hf12     1.0000 0.73540  0.49001  0.36007  Biso   1.000  Hf
  O17      1.0000 0.90962  0.62779  0.00504  Biso   1.000  O
  O18      1.0000 0.93510  0.62261  0.26407  Biso   1.000  O
  O19      1.0000 0.00025  0.86370  0.25273  Biso   1.000  O
  O20      1.0000 0.95240  0.86753  0.99951  Biso   1.000  O
  O21      1.0000 0.43798  0.65723  0.24183  Biso   1.000  O
  O22      1.0000 0.39782  0.56114  0.97620  Biso   1.000  O
  O23      1.0000 0.43553  0.80971  0.01770  Biso   1.000  O
  O24      1.0000 0.50253  0.90831  0.26053  Biso   1.000  O
  Hf13     1.0000 0.27399  0.52612  0.60457  Biso   1.000  Hf
  Hf14     1.0000 0.19500  0.71689  0.88877  Biso   1.000  Hf
  Hf15     1.0000 0.75331  0.74192  0.64506  Biso   1.000  Hf
  Hf16     1.0000 0.71812  0.48299  0.87775  Biso   1.000  Hf
  O25      1.0000 0.06750  0.68699  0.52371  Biso   1.000  O
  O26      1.0000 0.98966  0.59741  0.75353  Biso   1.000  O
  O27      1.0000 0.04354  0.85502  0.74868  Biso   1.000  O
  O28      1.0000 0.06413  0.93649  0.48856  Biso   1.000  O
  O29      1.0000 0.49378  0.63845  0.75057  Biso   1.000  O
  O30      1.0000 0.55207  0.62045  0.49786  Biso   1.000  O
  O31      1.0000 0.55104  0.86576  0.51142  Biso   1.000  O
  O32      1.0000 0.55205  0.88579  0.76190  Biso   1.000  O
  Ce1      1.0000 0.31611  0.24089  0.11608  Biso   1.000  Ce
