data_image0
_cell_length_a       10.3021
_cell_length_b       5.19759
_cell_length_c       10.5852
_cell_angle_alpha    89.5977
_cell_angle_beta     78.379
_cell_angle_gamma    89.4045

_symmetry_space_group_name_H-M    "P 1"
_symmetry_int_tables_number       1

loop_
  _symmetry_equiv_pos_as_xyz
  'x, y, z'

loop_
  _atom_site_label
  _atom_site_occupancy
  _atom_site_fract_x
  _atom_site_fract_y
  _atom_site_fract_z
  _atom_site_thermal_displace_type
  _atom_site_B_iso_or_equiv
  _atom_site_type_symbol
  Hf1      1.0000 0.13148  0.03347  0.14242  Biso   1.000  Hf
  Hf2      1.0000 0.12432  0.44328  0.39551  Biso   1.000  Hf
  Hf3      1.0000 0.34202  0.54140  0.07897  Biso   1.000  Hf
  Hf4      1.0000 0.36205  0.96106  0.35252  Biso   1.000  Hf
  O1       1.0000 0.03015  0.32640  0.07168  Biso   1.000  O
  O2       1.0000 0.02463  0.16616  0.32319  Biso   1.000  O
  O3       1.0000 0.47020  0.83646  0.17575  Biso   1.000  O
  O4       1.0000 0.49255  0.71806  0.44384  Biso   1.000  O
  O5       1.0000 0.26217  0.22840  0.22995  Biso   1.000  O
  O6       1.0000 0.27129  0.24217  0.48952  Biso   1.000  O
  O7       1.0000 0.21114  0.76715  0.99598  Biso   1.000  O
  O8       1.0000 0.22534  0.72297  0.24954  Biso   1.000  O
  Hf5      1.0000 0.14011  0.03931  0.64147  Biso   1.000  Hf
  Hf6      1.0000 0.13094  0.45396  0.88904  Biso   1.000  Hf
  Hf7      1.0000 0.36575  0.55260  0.60880  Biso   1.000  Hf
  Hf8      1.0000 0.35750  0.96404  0.84947  Biso   1.000  Hf
  O9       1.0000 0.02971  0.32739  0.57924  Biso   1.000  O
  O10      1.0000 0.03060  0.16834  0.82290  Biso   1.000  O
  O11      1.0000 0.46942  0.83401  0.68002  Biso   1.000  O
  O12      1.0000 0.46649  0.68335  0.92153  Biso   1.000  O
  O13      1.0000 0.27309  0.25530  0.73679  Biso   1.000  O
  O14      1.0000 0.26825  0.24544  0.98276  Biso   1.000  O
  O15      1.0000 0.23464  0.74135  0.50255  Biso   1.000  O
  O16      1.0000 0.22324  0.74594  0.75444  Biso   1.000  O
  Hf9      1.0000 0.64052  0.04273  0.15102  Biso   1.000  Hf
  Hf10     1.0000 0.65795  0.46600  0.41048  Biso   1.000  Hf
  Hf11     1.0000 0.85930  0.54249  0.10627  Biso   1.000  Hf
  Hf12     1.0000 0.85860  0.95703  0.35653  Biso   1.000  Hf
  O17      1.0000 0.52525  0.33874  0.08756  Biso   1.000  O
  O18      1.0000 0.55056  0.15440  0.34181  Biso   1.000  O
  O19      1.0000 0.96385  0.81990  0.17481  Biso   1.000  O
  O20      1.0000 0.96251  0.67393  0.42690  Biso   1.000  O
  O21      1.0000 0.78035  0.26054  0.24340  Biso   1.000  O
  O22      1.0000 0.78221  0.23967  0.49994  Biso   1.000  O
  O23      1.0000 0.72262  0.75781  0.01550  Biso   1.000  O
  O24      1.0000 0.72658  0.74516  0.26460  Biso   1.000  O
  Hf13     1.0000 0.63823  0.04872  0.65390  Biso   1.000  Hf
  Hf14     1.0000 0.63510  0.45947  0.90354  Biso   1.000  Hf
  Hf15     1.0000 0.86239  0.54778  0.61249  Biso   1.000  Hf
  Hf16     1.0000 0.85921  0.95889  0.85641  Biso   1.000  Hf
  O25      1.0000 0.53613  0.33304  0.58298  Biso   1.000  O
  O26      1.0000 0.52850  0.17983  0.83296  Biso   1.000  O
  O27      1.0000 0.96741  0.83102  0.67416  Biso   1.000  O
  O28      1.0000 0.96158  0.66775  0.92145  Biso   1.000  O
  O29      1.0000 0.77153  0.26118  0.74758  Biso   1.000  O
  O30      1.0000 0.77131  0.24370  0.99498  Biso   1.000  O
  O31      1.0000 0.72818  0.75918  0.52042  Biso   1.000  O
  O32      1.0000 0.72471  0.74673  0.76805  Biso   1.000  O
  Ce1      1.0000 0.40965  0.46625  0.30935  Biso   1.000  Ce
