data_image0
_cell_length_a       10.1075
_cell_length_b       5.12313
_cell_length_c       10.1075
_cell_angle_alpha    89.998
_cell_angle_beta     89.9975
_cell_angle_gamma    89.9982

_symmetry_space_group_name_H-M    "P 1"
_symmetry_int_tables_number       1

loop_
  _symmetry_equiv_pos_as_xyz
  'x, y, z'

loop_
  _atom_site_label
  _atom_site_occupancy
  _atom_site_fract_x
  _atom_site_fract_y
  _atom_site_fract_z
  _atom_site_thermal_displace_type
  _atom_site_B_iso_or_equiv
  _atom_site_type_symbol
  Ce1      1.0000 0.12558  0.00221  0.12558  Biso   1.000  Ce
  Zr1      1.0000 0.12558  0.00221  0.62558  Biso   1.000  Zr
  Zr2      1.0000 0.62558  0.00221  0.12558  Biso   1.000  Zr
  Zr3      1.0000 0.62558  0.00220  0.62558  Biso   1.000  Zr
  Zr4      1.0000 0.12559  0.50221  0.37851  Biso   1.000  Zr
  Zr5      1.0000 0.12558  0.50222  0.87266  Biso   1.000  Zr
  Zr6      1.0000 0.62558  0.50221  0.37551  Biso   1.000  Zr
  Zr7      1.0000 0.62558  0.50221  0.87566  Biso   1.000  Zr
  Zr8      1.0000 0.37850  0.50221  0.12559  Biso   1.000  Zr
  Zr9      1.0000 0.37551  0.50221  0.62559  Biso   1.000  Zr
  Zr10     1.0000 0.87266  0.50221  0.12558  Biso   1.000  Zr
  Zr11     1.0000 0.87566  0.50221  0.62558  Biso   1.000  Zr
  Zr12     1.0000 0.37689  0.00331  0.37689  Biso   1.000  Zr
  Zr13     1.0000 0.37689  0.00109  0.87427  Biso   1.000  Zr
  Zr14     1.0000 0.87427  0.00109  0.37688  Biso   1.000  Zr
  Zr15     1.0000 0.87427  0.00331  0.87427  Biso   1.000  Zr
  O1       1.0000 0.00040  0.29251  0.00040  Biso   1.000  O
  O2       1.0000 0.00435  0.29442  0.50743  Biso   1.000  O
  O3       1.0000 0.50743  0.29443  0.00435  Biso   1.000  O
  O4       1.0000 0.50271  0.29537  0.50271  Biso   1.000  O
  O5       1.0000 0.99227  0.22830  0.25890  Biso   1.000  O
  O6       1.0000 0.99959  0.20936  0.75364  Biso   1.000  O
  O7       1.0000 0.49753  0.20935  0.25158  Biso   1.000  O
  O8       1.0000 0.49965  0.20970  0.75152  Biso   1.000  O
  O9       1.0000 0.00038  0.71192  0.25078  Biso   1.000  O
  O10      1.0000 0.00433  0.71000  0.74374  Biso   1.000  O
  O11      1.0000 0.50743  0.70998  0.24682  Biso   1.000  O
  O12      1.0000 0.50270  0.70905  0.74846  Biso   1.000  O
  O13      1.0000 0.99227  0.77611  0.99228  Biso   1.000  O
  O14      1.0000 0.99959  0.79508  0.49755  Biso   1.000  O
  O15      1.0000 0.49754  0.79508  0.99959  Biso   1.000  O
  O16      1.0000 0.49965  0.79473  0.49965  Biso   1.000  O
  O17      1.0000 0.25077  0.29250  0.25077  Biso   1.000  O
  O18      1.0000 0.24682  0.29442  0.74374  Biso   1.000  O
  O19      1.0000 0.74373  0.29442  0.24682  Biso   1.000  O
  O20      1.0000 0.74846  0.29535  0.74846  Biso   1.000  O
  O21      1.0000 0.25890  0.22830  0.99227  Biso   1.000  O
  O22      1.0000 0.25158  0.20934  0.49753  Biso   1.000  O
  O23      1.0000 0.75364  0.20936  0.99960  Biso   1.000  O
  O24      1.0000 0.75152  0.20970  0.49965  Biso   1.000  O
  O25      1.0000 0.25078  0.71192  0.00038  Biso   1.000  O
  O26      1.0000 0.24682  0.70999  0.50743  Biso   1.000  O
  O27      1.0000 0.74374  0.71000  0.00434  Biso   1.000  O
  O28      1.0000 0.74846  0.70905  0.50270  Biso   1.000  O
  O29      1.0000 0.25889  0.77612  0.25890  Biso   1.000  O
  O30      1.0000 0.25157  0.79508  0.75363  Biso   1.000  O
  O31      1.0000 0.75362  0.79507  0.25157  Biso   1.000  O
  O32      1.0000 0.75151  0.79472  0.75151  Biso   1.000  O
