data_image0
_cell_length_a       10.1313
_cell_length_b       10.4555
_cell_length_c       10.1689
_cell_angle_alpha    89.8461
_cell_angle_beta     90.283
_cell_angle_gamma    90.3266

_symmetry_space_group_name_H-M    "P 1"
_symmetry_int_tables_number       1

loop_
  _symmetry_equiv_pos_as_xyz
  'x, y, z'

loop_
  _atom_site_label
  _atom_site_occupancy
  _atom_site_fract_x
  _atom_site_fract_y
  _atom_site_fract_z
  _atom_site_thermal_displace_type
  _atom_site_B_iso_or_equiv
  _atom_site_type_symbol
  Zr1      1.0000 0.13395  0.97813  0.10803  Biso   1.000  Zr
  Zr2      1.0000 0.13051  0.23097  0.39254  Biso   1.000  Zr
  Zr3      1.0000 0.37653  0.27043  0.11520  Biso   1.000  Zr
  Zr4      1.0000 0.36751  0.48634  0.37138  Biso   1.000  Zr
  O1       1.0000 0.96439  0.17200  0.26410  Biso   1.000  O
  O2       1.0000 0.03410  0.06521  0.46412  Biso   1.000  O
  O3       1.0000 0.46717  0.43637  0.19318  Biso   1.000  O
  O4       1.0000 0.46973  0.32303  0.44828  Biso   1.000  O
  O5       1.0000 0.23329  0.10427  0.24606  Biso   1.000  O
  O6       1.0000 0.27579  0.13304  0.49636  Biso   1.000  O
  O7       1.0000 0.23721  0.38633  0.49694  Biso   1.000  O
  O8       1.0000 0.23592  0.36660  0.25033  Biso   1.000  O
  Zr5      1.0000 0.13762  0.00728  0.62406  Biso   1.000  Zr
  Zr6      1.0000 0.13893  0.23569  0.84871  Biso   1.000  Zr
  Zr7      1.0000 0.37436  0.26703  0.61970  Biso   1.000  Zr
  Zr8      1.0000 0.36895  0.48751  0.86948  Biso   1.000  Zr
  O9       1.0000 0.03046  0.17261  0.69251  Biso   1.000  O
  O10      1.0000 0.02708  0.07828  0.95812  Biso   1.000  O
  O11      1.0000 0.47443  0.43258  0.69704  Biso   1.000  O
  O12      1.0000 0.46841  0.32123  0.94049  Biso   1.000  O
  O13      1.0000 0.27070  0.11419  0.74121  Biso   1.000  O
  O14      1.0000 0.26682  0.13076  0.99094  Biso   1.000  O
  O15      1.0000 0.23197  0.38965  0.98958  Biso   1.000  O
  O16      1.0000 0.24178  0.36775  0.73905  Biso   1.000  O
  Zr9      1.0000 0.13631  0.52642  0.12230  Biso   1.000  Zr
  Zr10     1.0000 0.13371  0.73650  0.37517  Biso   1.000  Zr
  Zr11     1.0000 0.37431  0.75917  0.12005  Biso   1.000  Zr
  Zr12     1.0000 0.36411  0.98944  0.36531  Biso   1.000  Zr
  O17      1.0000 0.03196  0.68045  0.20196  Biso   1.000  O
  O18      1.0000 0.03334  0.57187  0.44635  Biso   1.000  O
  O19      1.0000 0.46168  0.93047  0.19336  Biso   1.000  O
  O20      1.0000 0.47048  0.82229  0.44402  Biso   1.000  O
  O21      1.0000 0.27396  0.61664  0.24482  Biso   1.000  O
  O22      1.0000 0.26927  0.63559  0.49439  Biso   1.000  O
  O23      1.0000 0.23661  0.88607  0.49123  Biso   1.000  O
  O24      1.0000 0.23790  0.85382  0.24214  Biso   1.000  O
  Zr13     1.0000 0.13328  0.51362  0.61952  Biso   1.000  Zr
  Zr14     1.0000 0.13401  0.73352  0.86629  Biso   1.000  Zr
  Zr15     1.0000 0.37300  0.76510  0.61752  Biso   1.000  Zr
  Zr16     1.0000 0.37205  0.98565  0.86893  Biso   1.000  Zr
  O25      1.0000 0.03423  0.67947  0.69396  Biso   1.000  O
  O26      1.0000 0.03128  0.57527  0.94862  Biso   1.000  O
  O27      1.0000 0.47348  0.93112  0.69723  Biso   1.000  O
  O28      1.0000 0.48111  0.82523  0.95066  Biso   1.000  O
  O29      1.0000 0.26883  0.61394  0.74244  Biso   1.000  O
  O30      1.0000 0.26954  0.63586  0.99185  Biso   1.000  O
  O31      1.0000 0.24550  0.87556  0.98486  Biso   1.000  O
  O32      1.0000 0.23983  0.86166  0.74093  Biso   1.000  O
  Zr17     1.0000 0.62570  0.00713  0.11765  Biso   1.000  Zr
  Zr18     1.0000 0.62718  0.23032  0.37777  Biso   1.000  Zr
  Zr19     1.0000 0.83040  0.26440  0.12795  Biso   1.000  Zr
  Zr20     1.0000 0.86882  0.48319  0.37335  Biso   1.000  Zr
  O33      1.0000 0.51479  0.17180  0.21006  Biso   1.000  O
  O34      1.0000 0.52948  0.06810  0.45261  Biso   1.000  O
  O35      1.0000 0.96553  0.42329  0.19551  Biso   1.000  O
  O36      1.0000 0.97577  0.33138  0.46611  Biso   1.000  O
  O37      1.0000 0.74000  0.10900  0.24595  Biso   1.000  O
  O38      1.0000 0.76938  0.13939  0.49582  Biso   1.000  O
  O39      1.0000 0.73610  0.38616  0.49919  Biso   1.000  O
  O40      1.0000 0.71848  0.37187  0.25418  Biso   1.000  O
  Zr21     1.0000 0.63805  0.01348  0.62136  Biso   1.000  Zr
  Zr22     1.0000 0.63333  0.23601  0.86856  Biso   1.000  Zr
  Zr23     1.0000 0.86687  0.26815  0.62638  Biso   1.000  Zr
  Zr24     1.0000 0.86822  0.48302  0.87753  Biso   1.000  Zr
  O41      1.0000 0.53736  0.18165  0.69483  Biso   1.000  O
  O42      1.0000 0.52988  0.07469  0.94716  Biso   1.000  O
  O43      1.0000 0.97628  0.42796  0.70897  Biso   1.000  O
  O44      1.0000 0.95957  0.31691  0.94404  Biso   1.000  O
  O45      1.0000 0.77076  0.11501  0.74694  Biso   1.000  O
  O46      1.0000 0.76114  0.13200  0.99493  Biso   1.000  O
  O47      1.0000 0.72200  0.38737  0.99707  Biso   1.000  O
  O48      1.0000 0.73536  0.36728  0.74773  Biso   1.000  O
  Zr25     1.0000 0.63290  0.52127  0.12534  Biso   1.000  Zr
  Zr26     1.0000 0.63756  0.73857  0.37611  Biso   1.000  Zr
  Zr27     1.0000 0.86631  0.76451  0.12699  Biso   1.000  Zr
  Zr28     1.0000 0.87360  0.99895  0.36531  Biso   1.000  Zr
  O49      1.0000 0.53859  0.68484  0.19881  Biso   1.000  O
  O50      1.0000 0.53467  0.57176  0.44681  Biso   1.000  O
  O51      1.0000 0.96824  0.92716  0.20265  Biso   1.000  O
  O52      1.0000 0.97217  0.82454  0.45051  Biso   1.000  O
  O53      1.0000 0.77159  0.61647  0.24781  Biso   1.000  O
  O54      1.0000 0.77143  0.63660  0.49646  Biso   1.000  O
  O55      1.0000 0.73757  0.88923  0.49490  Biso   1.000  O
  O56      1.0000 0.73211  0.86458  0.24460  Biso   1.000  O
  Zr29     1.0000 0.63756  0.51704  0.62182  Biso   1.000  Zr
  Zr30     1.0000 0.63817  0.73509  0.87125  Biso   1.000  Zr
  Zr31     1.0000 0.87020  0.76823  0.62068  Biso   1.000  Zr
  Zr32     1.0000 0.87021  0.98715  0.87530  Biso   1.000  Zr
  O57      1.0000 0.53633  0.68272  0.69625  Biso   1.000  O
  O58      1.0000 0.53139  0.57474  0.94922  Biso   1.000  O
  O59      1.0000 0.97782  0.92406  0.71199  Biso   1.000  O
  O60      1.0000 0.98638  0.82974  0.96463  Biso   1.000  O
  O61      1.0000 0.77196  0.61509  0.74641  Biso   1.000  O
  O62      1.0000 0.77029  0.63590  0.99684  Biso   1.000  O
  O63      1.0000 0.74029  0.88378  0.99542  Biso   1.000  O
  O64      1.0000 0.73770  0.86583  0.74552  Biso   1.000  O
  Ce1      1.0000 0.09865  0.24725  0.11319  Biso   1.000  Ce
