data_image0
_cell_length_a       10.1561
_cell_length_b       5.17564
_cell_length_c       10.5378
_cell_angle_alpha    90.0176
_cell_angle_beta     90.1193
_cell_angle_gamma    90.049

_symmetry_space_group_name_H-M    "P 1"
_symmetry_int_tables_number       1

loop_
  _symmetry_equiv_pos_as_xyz
  'x, y, z'

loop_
  _atom_site_label
  _atom_site_occupancy
  _atom_site_fract_x
  _atom_site_fract_y
  _atom_site_fract_z
  _atom_site_thermal_displace_type
  _atom_site_B_iso_or_equiv
  _atom_site_type_symbol
  Ce1      1.0000 0.13487  0.03339  0.16839  Biso   1.000  Ce
  Zr1      1.0000 0.13890  0.04170  0.67098  Biso   1.000  Zr
  Zr2      1.0000 0.13877  0.45625  0.42359  Biso   1.000  Zr
  Zr3      1.0000 0.13975  0.46202  0.91741  Biso   1.000  Zr
  Zr4      1.0000 0.36511  0.53745  0.17004  Biso   1.000  Zr
  Zr5      1.0000 0.36156  0.54095  0.67043  Biso   1.000  Zr
  Zr6      1.0000 0.36298  0.95591  0.42171  Biso   1.000  Zr
  Zr7      1.0000 0.36404  0.95850  0.91887  Biso   1.000  Zr
  Zr8      1.0000 0.63877  0.03923  0.07926  Biso   1.000  Zr
  Zr9      1.0000 0.63841  0.04221  0.58000  Biso   1.000  Zr
  Zr10     1.0000 0.63810  0.45745  0.32985  Biso   1.000  Zr
  Zr11     1.0000 0.63870  0.45734  0.82783  Biso   1.000  Zr
  Zr12     1.0000 0.85617  0.53953  0.07715  Biso   1.000  Zr
  Zr13     1.0000 0.86219  0.54327  0.57954  Biso   1.000  Zr
  Zr14     1.0000 0.85581  0.95764  0.33251  Biso   1.000  Zr
  Zr15     1.0000 0.86180  0.95878  0.82857  Biso   1.000  Zr
  O1       1.0000 0.03272  0.35529  0.08138  Biso   1.000  O
  O2       1.0000 0.03386  0.33686  0.58748  Biso   1.000  O
  O3       1.0000 0.02627  0.17396  0.34045  Biso   1.000  O
  O4       1.0000 0.03427  0.16591  0.83541  Biso   1.000  O
  O5       1.0000 0.46848  0.83148  0.08323  Biso   1.000  O
  O6       1.0000 0.46802  0.82952  0.58365  Biso   1.000  O
  O7       1.0000 0.46972  0.67012  0.33299  Biso   1.000  O
  O8       1.0000 0.46845  0.66830  0.83180  Biso   1.000  O
  O9       1.0000 0.27920  0.25040  0.29955  Biso   1.000  O
  O10      1.0000 0.27547  0.24899  0.79270  Biso   1.000  O
  O11      1.0000 0.28091  0.25653  0.03852  Biso   1.000  O
  O12      1.0000 0.27487  0.24927  0.54563  Biso   1.000  O
  O13      1.0000 0.22929  0.73670  0.29714  Biso   1.000  O
  O14      1.0000 0.22566  0.74967  0.79234  Biso   1.000  O
  O15      1.0000 0.23406  0.73935  0.03780  Biso   1.000  O
  O16      1.0000 0.22533  0.75116  0.54486  Biso   1.000  O
  O17      1.0000 0.53351  0.32753  0.16688  Biso   1.000  O
  O18      1.0000 0.53262  0.32968  0.66647  Biso   1.000  O
  O19      1.0000 0.53325  0.16766  0.41751  Biso   1.000  O
  O20      1.0000 0.53503  0.16749  0.91565  Biso   1.000  O
  O21      1.0000 0.95133  0.83451  0.16746  Biso   1.000  O
  O22      1.0000 0.96664  0.83528  0.66576  Biso   1.000  O
  O23      1.0000 0.96712  0.67172  0.41728  Biso   1.000  O
  O24      1.0000 0.96700  0.67316  0.91539  Biso   1.000  O
  O25      1.0000 0.77549  0.24702  0.95492  Biso   1.000  O
  O26      1.0000 0.77399  0.24978  0.45713  Biso   1.000  O
  O27      1.0000 0.77431  0.25134  0.20611  Biso   1.000  O
  O28      1.0000 0.77537  0.25250  0.70545  Biso   1.000  O
  O29      1.0000 0.72407  0.74780  0.95460  Biso   1.000  O
  O30      1.0000 0.72401  0.74815  0.45667  Biso   1.000  O
  O31      1.0000 0.71825  0.74988  0.20636  Biso   1.000  O
  O32      1.0000 0.72550  0.75136  0.70528  Biso   1.000  O
