data_image0
_cell_length_a       10.0837
_cell_length_b       10.2339
_cell_length_c       10.0838
_cell_angle_alpha    89.9993
_cell_angle_beta     89.9999
_cell_angle_gamma    89.999

_symmetry_space_group_name_H-M    "P 1"
_symmetry_int_tables_number       1

loop_
  _symmetry_equiv_pos_as_xyz
  'x, y, z'

loop_
  _atom_site_label
  _atom_site_occupancy
  _atom_site_fract_x
  _atom_site_fract_y
  _atom_site_fract_z
  _atom_site_thermal_displace_type
  _atom_site_B_iso_or_equiv
  _atom_site_type_symbol
  Ce1      1.0000 0.12524  0.00004  0.12524  Biso   1.000  Ce
  Zr1      1.0000 0.12524  0.00004  0.62524  Biso   1.000  Zr
  Zr2      1.0000 0.12523  0.50004  0.12524  Biso   1.000  Zr
  Zr3      1.0000 0.12524  0.50004  0.62524  Biso   1.000  Zr
  Zr4      1.0000 0.62524  0.00004  0.12524  Biso   1.000  Zr
  Zr5      1.0000 0.62524  0.00004  0.62524  Biso   1.000  Zr
  Zr6      1.0000 0.62523  0.50004  0.12523  Biso   1.000  Zr
  Zr7      1.0000 0.62524  0.50004  0.62523  Biso   1.000  Zr
  Zr8      1.0000 0.12405  0.25166  0.37650  Biso   1.000  Zr
  Zr9      1.0000 0.12643  0.25166  0.87398  Biso   1.000  Zr
  Zr10     1.0000 0.12643  0.74842  0.37650  Biso   1.000  Zr
  Zr11     1.0000 0.12405  0.74842  0.87398  Biso   1.000  Zr
  Zr12     1.0000 0.62508  0.25009  0.37517  Biso   1.000  Zr
  Zr13     1.0000 0.62540  0.25009  0.87530  Biso   1.000  Zr
  Zr14     1.0000 0.62540  0.75000  0.37518  Biso   1.000  Zr
  Zr15     1.0000 0.62508  0.74999  0.87531  Biso   1.000  Zr
  Zr16     1.0000 0.37650  0.25166  0.12405  Biso   1.000  Zr
  Zr17     1.0000 0.37517  0.25009  0.62508  Biso   1.000  Zr
  Zr18     1.0000 0.37650  0.74842  0.12643  Biso   1.000  Zr
  Zr19     1.0000 0.37518  0.74999  0.62540  Biso   1.000  Zr
  Zr20     1.0000 0.87398  0.25166  0.12643  Biso   1.000  Zr
  Zr21     1.0000 0.87530  0.25009  0.62540  Biso   1.000  Zr
  Zr22     1.0000 0.87398  0.74842  0.12405  Biso   1.000  Zr
  Zr23     1.0000 0.87531  0.74999  0.62508  Biso   1.000  Zr
  Zr24     1.0000 0.37692  0.00091  0.37692  Biso   1.000  Zr
  Zr25     1.0000 0.37692  0.99917  0.87356  Biso   1.000  Zr
  Zr26     1.0000 0.37498  0.49939  0.37498  Biso   1.000  Zr
  Zr27     1.0000 0.37498  0.50070  0.87549  Biso   1.000  Zr
  Zr28     1.0000 0.87356  0.99917  0.37692  Biso   1.000  Zr
  Zr29     1.0000 0.87356  0.00091  0.87356  Biso   1.000  Zr
  Zr30     1.0000 0.87549  0.50070  0.37498  Biso   1.000  Zr
  Zr31     1.0000 0.87549  0.49939  0.87549  Biso   1.000  Zr
  O1       1.0000 0.99906  0.14766  0.99907  Biso   1.000  O
  O2       1.0000 0.00364  0.14694  0.50552  Biso   1.000  O
  O3       1.0000 0.00285  0.64345  0.00286  Biso   1.000  O
  O4       1.0000 0.00143  0.64571  0.50280  Biso   1.000  O
  O5       1.0000 0.50552  0.14694  0.00364  Biso   1.000  O
  O6       1.0000 0.50223  0.14638  0.50223  Biso   1.000  O
  O7       1.0000 0.50280  0.64571  0.00143  Biso   1.000  O
  O8       1.0000 0.50103  0.64661  0.50103  Biso   1.000  O
  O9       1.0000 0.99267  0.11273  0.25782  Biso   1.000  O
  O10      1.0000 0.99893  0.10343  0.75206  Biso   1.000  O
  O11      1.0000 0.99883  0.60469  0.25166  Biso   1.000  O
  O12      1.0000 0.00017  0.60370  0.75223  Biso   1.000  O
  O13      1.0000 0.49843  0.10343  0.25156  Biso   1.000  O
  O14      1.0000 0.49955  0.10398  0.75094  Biso   1.000  O
  O15      1.0000 0.49825  0.60370  0.25032  Biso   1.000  O
  O16      1.0000 0.49966  0.60357  0.75083  Biso   1.000  O
  O17      1.0000 0.00285  0.35664  0.24763  Biso   1.000  O
  O18      1.0000 0.00142  0.35438  0.74768  Biso   1.000  O
  O19      1.0000 0.99906  0.85242  0.25142  Biso   1.000  O
  O20      1.0000 0.00364  0.85314  0.74496  Biso   1.000  O
  O21      1.0000 0.50279  0.35438  0.24905  Biso   1.000  O
  O22      1.0000 0.50102  0.35348  0.74945  Biso   1.000  O
  O23      1.0000 0.50552  0.85314  0.24684  Biso   1.000  O
  O24      1.0000 0.50223  0.85371  0.74825  Biso   1.000  O
  O25      1.0000 0.99883  0.39539  0.99883  Biso   1.000  O
  O26      1.0000 0.00017  0.39639  0.49825  Biso   1.000  O
  O27      1.0000 0.99267  0.88735  0.99266  Biso   1.000  O
  O28      1.0000 0.99893  0.89665  0.49842  Biso   1.000  O
  O29      1.0000 0.49825  0.39638  0.00016  Biso   1.000  O
  O30      1.0000 0.49965  0.39651  0.49965  Biso   1.000  O
  O31      1.0000 0.49842  0.89665  0.99892  Biso   1.000  O
  O32      1.0000 0.49955  0.89611  0.49955  Biso   1.000  O
  O33      1.0000 0.25142  0.14766  0.25141  Biso   1.000  O
  O34      1.0000 0.24685  0.14694  0.74496  Biso   1.000  O
  O35      1.0000 0.24763  0.64344  0.24763  Biso   1.000  O
  O36      1.0000 0.24906  0.64571  0.74769  Biso   1.000  O
  O37      1.0000 0.74496  0.14694  0.24684  Biso   1.000  O
  O38      1.0000 0.74825  0.14637  0.74825  Biso   1.000  O
  O39      1.0000 0.74769  0.64571  0.24906  Biso   1.000  O
  O40      1.0000 0.74946  0.64661  0.74946  Biso   1.000  O
  O41      1.0000 0.25781  0.11273  0.99267  Biso   1.000  O
  O42      1.0000 0.25156  0.10343  0.49842  Biso   1.000  O
  O43      1.0000 0.25165  0.60469  0.99883  Biso   1.000  O
  O44      1.0000 0.25032  0.60370  0.49825  Biso   1.000  O
  O45      1.0000 0.75206  0.10343  0.99892  Biso   1.000  O
  O46      1.0000 0.75093  0.10397  0.49955  Biso   1.000  O
  O47      1.0000 0.75223  0.60370  0.00017  Biso   1.000  O
  O48      1.0000 0.75084  0.60357  0.49966  Biso   1.000  O
  O49      1.0000 0.24763  0.35664  0.00285  Biso   1.000  O
  O50      1.0000 0.24905  0.35438  0.50280  Biso   1.000  O
  O51      1.0000 0.25142  0.85243  0.99906  Biso   1.000  O
  O52      1.0000 0.24684  0.85314  0.50552  Biso   1.000  O
  O53      1.0000 0.74769  0.35438  0.00143  Biso   1.000  O
  O54      1.0000 0.74946  0.35347  0.50102  Biso   1.000  O
  O55      1.0000 0.74497  0.85314  0.00364  Biso   1.000  O
  O56      1.0000 0.74825  0.85371  0.50224  Biso   1.000  O
  O57      1.0000 0.25165  0.39539  0.25165  Biso   1.000  O
  O58      1.0000 0.25031  0.39638  0.75223  Biso   1.000  O
  O59      1.0000 0.25782  0.88735  0.25782  Biso   1.000  O
  O60      1.0000 0.25156  0.89665  0.75206  Biso   1.000  O
  O61      1.0000 0.75223  0.39638  0.25032  Biso   1.000  O
  O62      1.0000 0.75083  0.39651  0.75083  Biso   1.000  O
  O63      1.0000 0.75206  0.89665  0.25156  Biso   1.000  O
  O64      1.0000 0.75093  0.89611  0.75093  Biso   1.000  O
