data_image0
_cell_length_a       10.2303
_cell_length_b       10.4029
_cell_length_c       5.25936
_cell_angle_alpha    90.0655
_cell_angle_beta     80.664
_cell_angle_gamma    90.0631

_symmetry_space_group_name_H-M    "P 1"
_symmetry_int_tables_number       1

loop_
  _symmetry_equiv_pos_as_xyz
  'x, y, z'

loop_
  _atom_site_label
  _atom_site_occupancy
  _atom_site_fract_x
  _atom_site_fract_y
  _atom_site_fract_z
  _atom_site_thermal_displace_type
  _atom_site_B_iso_or_equiv
  _atom_site_type_symbol
  Ce1      1.0000 0.13527  0.01686  0.28992  Biso   1.000  Ce
  Zr1      1.0000 0.13834  0.52111  0.28918  Biso   1.000  Zr
  Zr2      1.0000 0.63912  0.02156  0.29235  Biso   1.000  Zr
  Zr3      1.0000 0.63831  0.51962  0.29049  Biso   1.000  Zr
  Zr4      1.0000 0.13935  0.23209  0.78984  Biso   1.000  Zr
  Zr5      1.0000 0.13918  0.72659  0.79038  Biso   1.000  Zr
  Zr6      1.0000 0.63853  0.22944  0.79154  Biso   1.000  Zr
  Zr7      1.0000 0.63870  0.72721  0.78854  Biso   1.000  Zr
  Zr8      1.0000 0.36187  0.27098  0.20748  Biso   1.000  Zr
  Zr9      1.0000 0.36472  0.76838  0.20748  Biso   1.000  Zr
  Zr10     1.0000 0.85985  0.27318  0.20885  Biso   1.000  Zr
  Zr11     1.0000 0.85829  0.76794  0.20830  Biso   1.000  Zr
  Zr12     1.0000 0.36139  0.47811  0.70738  Biso   1.000  Zr
  Zr13     1.0000 0.36524  0.97805  0.70827  Biso   1.000  Zr
  Zr14     1.0000 0.86145  0.47873  0.70750  Biso   1.000  Zr
  Zr15     1.0000 0.85613  0.97811  0.71803  Biso   1.000  Zr
  O1       1.0000 0.03679  0.18288  0.16293  Biso   1.000  O
  O2       1.0000 0.03674  0.67267  0.16374  Biso   1.000  O
  O3       1.0000 0.53572  0.16936  0.16077  Biso   1.000  O
  O4       1.0000 0.53705  0.66772  0.15967  Biso   1.000  O
  O5       1.0000 0.03102  0.08108  0.68259  Biso   1.000  O
  O6       1.0000 0.03570  0.57975  0.66060  Biso   1.000  O
  O7       1.0000 0.53813  0.07990  0.66100  Biso   1.000  O
  O8       1.0000 0.53506  0.58034  0.65856  Biso   1.000  O
  O9       1.0000 0.46464  0.41854  0.33944  Biso   1.000  O
  O10      1.0000 0.46481  0.92011  0.33766  Biso   1.000  O
  O11      1.0000 0.96169  0.42397  0.33466  Biso   1.000  O
  O12      1.0000 0.94905  0.92067  0.34593  Biso   1.000  O
  O13      1.0000 0.46569  0.33166  0.83903  Biso   1.000  O
  O14      1.0000 0.46895  0.83096  0.84070  Biso   1.000  O
  O15      1.0000 0.96267  0.33134  0.83431  Biso   1.000  O
  O16      1.0000 0.96511  0.83126  0.84062  Biso   1.000  O
  O17      1.0000 0.27961  0.13311  0.48726  Biso   1.000  O
  O18      1.0000 0.27589  0.62656  0.47880  Biso   1.000  O
  O19      1.0000 0.77582  0.13000  0.48356  Biso   1.000  O
  O20      1.0000 0.77478  0.62807  0.47947  Biso   1.000  O
  O21      1.0000 0.28075  0.12453  0.97082  Biso   1.000  O
  O22      1.0000 0.27558  0.61925  0.97998  Biso   1.000  O
  O23      1.0000 0.77418  0.12140  0.98501  Biso   1.000  O
  O24      1.0000 0.77577  0.62022  0.97949  Biso   1.000  O
  O25      1.0000 0.22499  0.37963  0.01618  Biso   1.000  O
  O26      1.0000 0.23292  0.87187  0.00555  Biso   1.000  O
  O27      1.0000 0.72371  0.37924  0.01807  Biso   1.000  O
  O28      1.0000 0.72394  0.87816  0.02073  Biso   1.000  O
  O29      1.0000 0.22339  0.37240  0.51566  Biso   1.000  O
  O30      1.0000 0.23083  0.86474  0.52079  Biso   1.000  O
  O31      1.0000 0.72386  0.37124  0.51868  Biso   1.000  O
  O32      1.0000 0.71942  0.86940  0.52224  Biso   1.000  O
