data_image0
_cell_length_a       10.1249
_cell_length_b       10.3302
_cell_length_c       10.5235
_cell_angle_alpha    90.0087
_cell_angle_beta     90.0464
_cell_angle_gamma    90.0168

_symmetry_space_group_name_H-M    "P 1"
_symmetry_int_tables_number       1

loop_
  _symmetry_equiv_pos_as_xyz
  'x, y, z'

loop_
  _atom_site_label
  _atom_site_occupancy
  _atom_site_fract_x
  _atom_site_fract_y
  _atom_site_fract_z
  _atom_site_thermal_displace_type
  _atom_site_B_iso_or_equiv
  _atom_site_type_symbol
  Ce1      1.0000 0.13543  0.01680  0.16852  Biso   1.000  Ce
  Zr1      1.0000 0.13909  0.02074  0.67136  Biso   1.000  Zr
  Zr2      1.0000 0.13840  0.52092  0.17088  Biso   1.000  Zr
  Zr3      1.0000 0.13856  0.52116  0.67075  Biso   1.000  Zr
  Zr4      1.0000 0.13896  0.22920  0.42293  Biso   1.000  Zr
  Zr5      1.0000 0.13930  0.23185  0.91838  Biso   1.000  Zr
  Zr6      1.0000 0.13847  0.72783  0.42179  Biso   1.000  Zr
  Zr7      1.0000 0.13907  0.72794  0.92033  Biso   1.000  Zr
  Zr8      1.0000 0.36139  0.27151  0.17078  Biso   1.000  Zr
  Zr9      1.0000 0.36176  0.27082  0.67079  Biso   1.000  Zr
  Zr10     1.0000 0.36485  0.76827  0.17047  Biso   1.000  Zr
  Zr11     1.0000 0.36097  0.77077  0.67075  Biso   1.000  Zr
  Zr12     1.0000 0.36108  0.47851  0.42066  Biso   1.000  Zr
  Zr13     1.0000 0.36143  0.47890  0.92099  Biso   1.000  Zr
  Zr14     1.0000 0.36320  0.97841  0.42217  Biso   1.000  Zr
  Zr15     1.0000 0.36387  0.97925  0.91897  Biso   1.000  Zr
  Zr16     1.0000 0.63894  0.02095  0.07982  Biso   1.000  Zr
  Zr17     1.0000 0.63871  0.02135  0.58071  Biso   1.000  Zr
  Zr18     1.0000 0.63837  0.51983  0.07830  Biso   1.000  Zr
  Zr19     1.0000 0.63843  0.52086  0.57811  Biso   1.000  Zr
  Zr20     1.0000 0.63798  0.22945  0.32908  Biso   1.000  Zr
  Zr21     1.0000 0.63899  0.22892  0.82879  Biso   1.000  Zr
  Zr22     1.0000 0.63896  0.72822  0.32960  Biso   1.000  Zr
  Zr23     1.0000 0.63837  0.72869  0.82782  Biso   1.000  Zr
  Zr24     1.0000 0.85938  0.27299  0.07755  Biso   1.000  Zr
  Zr25     1.0000 0.86160  0.27144  0.57902  Biso   1.000  Zr
  Zr26     1.0000 0.85790  0.76794  0.07818  Biso   1.000  Zr
  Zr27     1.0000 0.86183  0.77125  0.57942  Biso   1.000  Zr
  Zr28     1.0000 0.86161  0.47869  0.32890  Biso   1.000  Zr
  Zr29     1.0000 0.86101  0.47927  0.82739  Biso   1.000  Zr
  Zr30     1.0000 0.85560  0.97890  0.33246  Biso   1.000  Zr
  Zr31     1.0000 0.86200  0.97913  0.82997  Biso   1.000  Zr
  O1       1.0000 0.03187  0.17464  0.08020  Biso   1.000  O
  O2       1.0000 0.03351  0.16755  0.58676  Biso   1.000  O
  O3       1.0000 0.03302  0.66700  0.08387  Biso   1.000  O
  O4       1.0000 0.03291  0.66600  0.58406  Biso   1.000  O
  O5       1.0000 0.02630  0.08725  0.33985  Biso   1.000  O
  O6       1.0000 0.03435  0.08334  0.83580  Biso   1.000  O
  O7       1.0000 0.03258  0.58467  0.33377  Biso   1.000  O
  O8       1.0000 0.03231  0.58464  0.83265  Biso   1.000  O
  O9       1.0000 0.46732  0.41514  0.08296  Biso   1.000  O
  O10      1.0000 0.46755  0.41495  0.58296  Biso   1.000  O
  O11      1.0000 0.46803  0.91665  0.08416  Biso   1.000  O
  O12      1.0000 0.46768  0.91548  0.58436  Biso   1.000  O
  O13      1.0000 0.46787  0.33572  0.33282  Biso   1.000  O
  O14      1.0000 0.46739  0.33415  0.83333  Biso   1.000  O
  O15      1.0000 0.46930  0.83398  0.33381  Biso   1.000  O
  O16      1.0000 0.46828  0.83450  0.83214  Biso   1.000  O
  O17      1.0000 0.27902  0.12704  0.29978  Biso   1.000  O
  O18      1.0000 0.27561  0.12443  0.79303  Biso   1.000  O
  O19      1.0000 0.27581  0.62266  0.29455  Biso   1.000  O
  O20      1.0000 0.27551  0.62425  0.79452  Biso   1.000  O
  O21      1.0000 0.28140  0.13138  0.03827  Biso   1.000  O
  O22      1.0000 0.27547  0.12516  0.54577  Biso   1.000  O
  O23      1.0000 0.27508  0.62322  0.04501  Biso   1.000  O
  O24      1.0000 0.27508  0.62527  0.54468  Biso   1.000  O
  O25      1.0000 0.22381  0.37398  0.29455  Biso   1.000  O
  O26      1.0000 0.22507  0.37510  0.79388  Biso   1.000  O
  O27      1.0000 0.22980  0.86860  0.29744  Biso   1.000  O
  O28      1.0000 0.22500  0.87410  0.79329  Biso   1.000  O
  O29      1.0000 0.22384  0.37686  0.04431  Biso   1.000  O
  O30      1.0000 0.22482  0.37576  0.54487  Biso   1.000  O
  O31      1.0000 0.23443  0.86813  0.03845  Biso   1.000  O
  O32      1.0000 0.22494  0.87558  0.54483  Biso   1.000  O
  O33      1.0000 0.53278  0.16591  0.16640  Biso   1.000  O
  O34      1.0000 0.53303  0.16566  0.66652  Biso   1.000  O
  O35      1.0000 0.53373  0.66376  0.16668  Biso   1.000  O
  O36      1.0000 0.53236  0.66487  0.66620  Biso   1.000  O
  O37      1.0000 0.53366  0.08423  0.41717  Biso   1.000  O
  O38      1.0000 0.53550  0.08315  0.91514  Biso   1.000  O
  O39      1.0000 0.53236  0.58414  0.41658  Biso   1.000  O
  O40      1.0000 0.53212  0.58502  0.91673  Biso   1.000  O
  O41      1.0000 0.96565  0.41749  0.16553  Biso   1.000  O
  O42      1.0000 0.96693  0.41698  0.66519  Biso   1.000  O
  O43      1.0000 0.95403  0.91345  0.16965  Biso   1.000  O
  O44      1.0000 0.96715  0.91570  0.66742  Biso   1.000  O
  O45      1.0000 0.96747  0.33551  0.41726  Biso   1.000  O
  O46      1.0000 0.96588  0.33584  0.91368  Biso   1.000  O
  O47      1.0000 0.96718  0.83532  0.41711  Biso   1.000  O
  O48      1.0000 0.96879  0.83609  0.91904  Biso   1.000  O
  O49      1.0000 0.77630  0.12451  0.95588  Biso   1.000  O
  O50      1.0000 0.77395  0.12488  0.45725  Biso   1.000  O
  O51      1.0000 0.77460  0.62335  0.95411  Biso   1.000  O
  O52      1.0000 0.77572  0.62431  0.45506  Biso   1.000  O
  O53      1.0000 0.77492  0.12607  0.20641  Biso   1.000  O
  O54      1.0000 0.77594  0.12586  0.70624  Biso   1.000  O
  O55      1.0000 0.77514  0.62505  0.20479  Biso   1.000  O
  O56      1.0000 0.77500  0.62609  0.70435  Biso   1.000  O
  O57      1.0000 0.72360  0.37459  0.95429  Biso   1.000  O
  O58      1.0000 0.72462  0.37450  0.45469  Biso   1.000  O
  O59      1.0000 0.72480  0.87360  0.95538  Biso   1.000  O
  O60      1.0000 0.72376  0.87381  0.45709  Biso   1.000  O
  O61      1.0000 0.72383  0.37589  0.20492  Biso   1.000  O
  O62      1.0000 0.72465  0.37563  0.70447  Biso   1.000  O
  O63      1.0000 0.71890  0.87499  0.20646  Biso   1.000  O
  O64      1.0000 0.72515  0.87583  0.70595  Biso   1.000  O
