data_image0
_cell_length_a       5.05257
_cell_length_b       10.2467
_cell_length_c       10.1071
_cell_angle_alpha    90.0021
_cell_angle_beta     90.0002
_cell_angle_gamma    89.9998

_symmetry_space_group_name_H-M    "P 1"
_symmetry_int_tables_number       1

loop_
  _symmetry_equiv_pos_as_xyz
  'x, y, z'

loop_
  _atom_site_label
  _atom_site_occupancy
  _atom_site_fract_x
  _atom_site_fract_y
  _atom_site_fract_z
  _atom_site_thermal_displace_type
  _atom_site_B_iso_or_equiv
  _atom_site_type_symbol
  Ce1      1.0000 0.25213  0.00025  0.12530  Biso   1.000  Ce
  Zr1      1.0000 0.25212  0.00026  0.62530  Biso   1.000  Zr
  Zr2      1.0000 0.25212  0.50025  0.12531  Biso   1.000  Zr
  Zr3      1.0000 0.25214  0.50026  0.62530  Biso   1.000  Zr
  Zr4      1.0000 0.24972  0.25176  0.37648  Biso   1.000  Zr
  Zr5      1.0000 0.25452  0.25176  0.87413  Biso   1.000  Zr
  Zr6      1.0000 0.25450  0.74874  0.37648  Biso   1.000  Zr
  Zr7      1.0000 0.24970  0.74874  0.87413  Biso   1.000  Zr
  Zr8      1.0000 0.75212  0.25392  0.12530  Biso   1.000  Zr
  Zr9      1.0000 0.75212  0.25022  0.62531  Biso   1.000  Zr
  Zr10     1.0000 0.75211  0.74658  0.12530  Biso   1.000  Zr
  Zr11     1.0000 0.75211  0.75028  0.62530  Biso   1.000  Zr
  Zr12     1.0000 0.75212  0.00025  0.37854  Biso   1.000  Zr
  Zr13     1.0000 0.75213  0.00024  0.87206  Biso   1.000  Zr
  Zr14     1.0000 0.75213  0.50024  0.37508  Biso   1.000  Zr
  Zr15     1.0000 0.75213  0.50025  0.87553  Biso   1.000  Zr
  O1       1.0000 0.00644  0.14851  0.00070  Biso   1.000  O
  O2       1.0000 0.01090  0.14697  0.50640  Biso   1.000  O
  O3       1.0000 0.01302  0.64308  0.00409  Biso   1.000  O
  O4       1.0000 0.00587  0.64604  0.50367  Biso   1.000  O
  O5       1.0000 0.98625  0.11304  0.25866  Biso   1.000  O
  O6       1.0000 0.99882  0.10395  0.75206  Biso   1.000  O
  O7       1.0000 0.99462  0.60488  0.25165  Biso   1.000  O
  O8       1.0000 0.00102  0.60398  0.75288  Biso   1.000  O
  O9       1.0000 0.01303  0.35742  0.24653  Biso   1.000  O
  O10      1.0000 0.00587  0.35446  0.74694  Biso   1.000  O
  O11      1.0000 0.00642  0.85199  0.24991  Biso   1.000  O
  O12      1.0000 0.01087  0.85354  0.74421  Biso   1.000  O
  O13      1.0000 0.99465  0.39562  0.99895  Biso   1.000  O
  O14      1.0000 0.00105  0.39653  0.49773  Biso   1.000  O
  O15      1.0000 0.98626  0.88746  0.99194  Biso   1.000  O
  O16      1.0000 0.99885  0.89656  0.49854  Biso   1.000  O
  O17      1.0000 0.49782  0.14852  0.24990  Biso   1.000  O
  O18      1.0000 0.49332  0.14697  0.74420  Biso   1.000  O
  O19      1.0000 0.49121  0.64309  0.24653  Biso   1.000  O
  O20      1.0000 0.49838  0.64604  0.74694  Biso   1.000  O
  O21      1.0000 0.51800  0.11304  0.99194  Biso   1.000  O
  O22      1.0000 0.50538  0.10394  0.49853  Biso   1.000  O
  O23      1.0000 0.50962  0.60488  0.99896  Biso   1.000  O
  O24      1.0000 0.50324  0.60398  0.49774  Biso   1.000  O
  O25      1.0000 0.49125  0.35742  0.00407  Biso   1.000  O
  O26      1.0000 0.49842  0.35447  0.50365  Biso   1.000  O
  O27      1.0000 0.49782  0.85199  0.00070  Biso   1.000  O
  O28      1.0000 0.49335  0.85354  0.50639  Biso   1.000  O
  O29      1.0000 0.50963  0.39563  0.25164  Biso   1.000  O
  O30      1.0000 0.50324  0.39652  0.75286  Biso   1.000  O
  O31      1.0000 0.51798  0.88747  0.25866  Biso   1.000  O
  O32      1.0000 0.50536  0.89655  0.75207  Biso   1.000  O
