data_image0
_cell_length_a       10.4022
_cell_length_b       10.3811
_cell_length_c       5.35725
_cell_angle_alpha    90.1197
_cell_angle_beta     78.2495
_cell_angle_gamma    89.7144

_symmetry_space_group_name_H-M    "P 1"
_symmetry_int_tables_number       1

loop_
  _symmetry_equiv_pos_as_xyz
  'x, y, z'

loop_
  _atom_site_label
  _atom_site_occupancy
  _atom_site_fract_x
  _atom_site_fract_y
  _atom_site_fract_z
  _atom_site_thermal_displace_type
  _atom_site_B_iso_or_equiv
  _atom_site_type_symbol
  Zr1      1.0000 0.13133  0.01919  0.28146  Biso   1.000  Zr
  Zr2      1.0000 0.12231  0.22526  0.77482  Biso   1.000  Zr
  Zr3      1.0000 0.35173  0.27460  0.15671  Biso   1.000  Zr
  Zr4      1.0000 0.36155  0.50103  0.70186  Biso   1.000  Zr
  O1       1.0000 0.02784  0.15933  0.13970  Biso   1.000  O
  O2       1.0000 0.02167  0.08519  0.63881  Biso   1.000  O
  O3       1.0000 0.47204  0.41573  0.36207  Biso   1.000  O
  O4       1.0000 0.49257  0.36806  0.87756  Biso   1.000  O
  O5       1.0000 0.26249  0.12099  0.44382  Biso   1.000  O
  O6       1.0000 0.26833  0.11841  0.94735  Biso   1.000  O
  O7       1.0000 0.22463  0.38250  0.97291  Biso   1.000  O
  O8       1.0000 0.22824  0.37015  0.48791  Biso   1.000  O
  Zr5      1.0000 0.13980  0.51856  0.28765  Biso   1.000  Zr
  Zr6      1.0000 0.13183  0.72753  0.79586  Biso   1.000  Zr
  Zr7      1.0000 0.35928  0.77200  0.21267  Biso   1.000  Zr
  Zr8      1.0000 0.35854  0.96179  0.70974  Biso   1.000  Zr
  O9       1.0000 0.02593  0.65625  0.14357  Biso   1.000  O
  O10      1.0000 0.03067  0.58991  0.64013  Biso   1.000  O
  O11      1.0000 0.46886  0.91150  0.35612  Biso   1.000  O
  O12      1.0000 0.46757  0.83451  0.86362  Biso   1.000  O
  O13      1.0000 0.27179  0.62848  0.48282  Biso   1.000  O
  O14      1.0000 0.27030  0.62910  0.99137  Biso   1.000  O
  O15      1.0000 0.22165  0.87418  0.02383  Biso   1.000  O
  O16      1.0000 0.22090  0.86803  0.51952  Biso   1.000  O
  Zr9      1.0000 0.64011  0.01962  0.30919  Biso   1.000  Zr
  Zr10     1.0000 0.65236  0.23306  0.82808  Biso   1.000  Zr
  Zr11     1.0000 0.86169  0.27217  0.22700  Biso   1.000  Zr
  Zr12     1.0000 0.86263  0.48073  0.71280  Biso   1.000  Zr
  O17      1.0000 0.52826  0.16916  0.18680  Biso   1.000  O
  O18      1.0000 0.54336  0.07260  0.68876  Biso   1.000  O
  O19      1.0000 0.97229  0.40899  0.35553  Biso   1.000  O
  O20      1.0000 0.96363  0.34159  0.85733  Biso   1.000  O
  O21      1.0000 0.77601  0.12884  0.49688  Biso   1.000  O
  O22      1.0000 0.77795  0.11922  0.00563  Biso   1.000  O
  O23      1.0000 0.73043  0.37816  0.04387  Biso   1.000  O
  O24      1.0000 0.72996  0.37292  0.53946  Biso   1.000  O
  Zr13     1.0000 0.63832  0.52492  0.29762  Biso   1.000  Zr
  Zr14     1.0000 0.63922  0.72871  0.80173  Biso   1.000  Zr
  Zr15     1.0000 0.86044  0.77028  0.21456  Biso   1.000  Zr
  Zr16     1.0000 0.85587  0.97586  0.71599  Biso   1.000  Zr
  O25      1.0000 0.52943  0.66067  0.15288  Biso   1.000  O
  O26      1.0000 0.53262  0.60007  0.64471  Biso   1.000  O
  O27      1.0000 0.96458  0.90601  0.35957  Biso   1.000  O
  O28      1.0000 0.96647  0.83947  0.85833  Biso   1.000  O
  O29      1.0000 0.77490  0.62766  0.48390  Biso   1.000  O
  O30      1.0000 0.77273  0.62214  0.98314  Biso   1.000  O
  O31      1.0000 0.72392  0.87654  0.03237  Biso   1.000  O
  O32      1.0000 0.72362  0.87139  0.52909  Biso   1.000  O
  Ce1      1.0000 0.40862  0.23705  0.61289  Biso   1.000  Ce
