data_image0
_cell_length_a       10.2253
_cell_length_b       10.3557
_cell_length_c       5.35148
_cell_angle_alpha    89.8939
_cell_angle_beta     92.1414
_cell_angle_gamma    89.6398

_symmetry_space_group_name_H-M    "P 1"
_symmetry_int_tables_number       1

loop_
  _symmetry_equiv_pos_as_xyz
  'x, y, z'

loop_
  _atom_site_label
  _atom_site_occupancy
  _atom_site_fract_x
  _atom_site_fract_y
  _atom_site_fract_z
  _atom_site_thermal_displace_type
  _atom_site_B_iso_or_equiv
  _atom_site_type_symbol
  Zr1      1.0000 0.13742  0.01927  0.34962  Biso   1.000  Zr
  Zr2      1.0000 0.14138  0.22750  0.85330  Biso   1.000  Zr
  Zr3      1.0000 0.35005  0.26789  0.38154  Biso   1.000  Zr
  Zr4      1.0000 0.36041  0.48165  0.86271  Biso   1.000  Zr
  Zr5      1.0000 0.63721  0.99561  0.15711  Biso   1.000  Zr
  Zr6      1.0000 0.64689  0.22694  0.60524  Biso   1.000  Zr
  Zr7      1.0000 0.87685  0.27608  0.13723  Biso   1.000  Zr
  Zr8      1.0000 0.86614  0.48137  0.64427  Biso   1.000  Zr
  O1       1.0000 0.03201  0.15300  0.14654  Biso   1.000  O
  O2       1.0000 0.02823  0.09449  0.64919  Biso   1.000  O
  O3       1.0000 0.46009  0.42697  0.20186  Biso   1.000  O
  O4       1.0000 0.47314  0.33105  0.69691  Biso   1.000  O
  O5       1.0000 0.26830  0.12364  0.60866  Biso   1.000  O
  O6       1.0000 0.27440  0.12338  0.10611  Biso   1.000  O
  O7       1.0000 0.22482  0.37666  0.61563  Biso   1.000  O
  O8       1.0000 0.22384  0.37351  0.11012  Biso   1.000  O
  O9       1.0000 0.50707  0.13168  0.37660  Biso   1.000  O
  O10      1.0000 0.52645  0.08312  0.85677  Biso   1.000  O
  O11      1.0000 0.97535  0.41261  0.34524  Biso   1.000  O
  O12      1.0000 0.97997  0.34437  0.84041  Biso   1.000  O
  O13      1.0000 0.77299  0.12906  0.87762  Biso   1.000  O
  O14      1.0000 0.77031  0.12312  0.36343  Biso   1.000  O
  O15      1.0000 0.73741  0.38584  0.88085  Biso   1.000  O
  O16      1.0000 0.72907  0.38002  0.38329  Biso   1.000  O
  Zr9      1.0000 0.14189  0.52182  0.35055  Biso   1.000  Zr
  Zr10     1.0000 0.13727  0.73021  0.84792  Biso   1.000  Zr
  Zr11     1.0000 0.35959  0.76922  0.35900  Biso   1.000  Zr
  Zr12     1.0000 0.36021  0.97542  0.85660  Biso   1.000  Zr
  Zr13     1.0000 0.64284  0.53737  0.15299  Biso   1.000  Zr
  Zr14     1.0000 0.64101  0.72974  0.65801  Biso   1.000  Zr
  Zr15     1.0000 0.86858  0.77112  0.15942  Biso   1.000  Zr
  Zr16     1.0000 0.86366  0.98403  0.65532  Biso   1.000  Zr
  O17      1.0000 0.03368  0.66030  0.15756  Biso   1.000  O
  O18      1.0000 0.03322  0.59320  0.65639  Biso   1.000  O
  O19      1.0000 0.46748  0.89666  0.15731  Biso   1.000  O
  O20      1.0000 0.47171  0.84064  0.66293  Biso   1.000  O
  O21      1.0000 0.27526  0.62508  0.60127  Biso   1.000  O
  O22      1.0000 0.27366  0.62524  0.09802  Biso   1.000  O
  O23      1.0000 0.22572  0.87345  0.60307  Biso   1.000  O
  O24      1.0000 0.22395  0.87507  0.10398  Biso   1.000  O
  O25      1.0000 0.53203  0.66466  0.35129  Biso   1.000  O
  O26      1.0000 0.52923  0.59018  0.84423  Biso   1.000  O
  O27      1.0000 0.97131  0.91048  0.34739  Biso   1.000  O
  O28      1.0000 0.97121  0.84399  0.84742  Biso   1.000  O
  O29      1.0000 0.77903  0.62972  0.90338  Biso   1.000  O
  O30      1.0000 0.78006  0.62974  0.40727  Biso   1.000  O
  O31      1.0000 0.73027  0.87406  0.91320  Biso   1.000  O
  O32      1.0000 0.73218  0.86973  0.42100  Biso   1.000  O
  Ce1      1.0000 0.59385  0.26026  0.08477  Biso   1.000  Ce
