data_image0
_cell_length_a       10.1486
_cell_length_b       10.2778
_cell_length_c       10.1392
_cell_angle_alpha    89.8642
_cell_angle_beta     89.999
_cell_angle_gamma    89.998

_symmetry_space_group_name_H-M    "P 1"
_symmetry_int_tables_number       1

loop_
  _symmetry_equiv_pos_as_xyz
  'x, y, z'

loop_
  _atom_site_label
  _atom_site_occupancy
  _atom_site_fract_x
  _atom_site_fract_y
  _atom_site_fract_z
  _atom_site_thermal_displace_type
  _atom_site_B_iso_or_equiv
  _atom_site_type_symbol
  Zr1      1.0000 0.11380  0.97314  0.11732  Biso   1.000  Zr
  Zr2      1.0000 0.11864  0.24642  0.40085  Biso   1.000  Zr
  Zr3      1.0000 0.41373  0.24961  0.12598  Biso   1.000  Zr
  Zr4      1.0000 0.37397  0.00806  0.37531  Biso   1.000  Zr
  O1       1.0000 0.00597  0.13138  0.99124  Biso   1.000  O
  O2       1.0000 0.01486  0.10572  0.25370  Biso   1.000  O
  O3       1.0000 0.00596  0.36782  0.26075  Biso   1.000  O
  O4       1.0000 0.01483  0.39348  0.99830  Biso   1.000  O
  O5       1.0000 0.28599  0.17225  0.28543  Biso   1.000  O
  O6       1.0000 0.27183  0.08336  0.03034  Biso   1.000  O
  O7       1.0000 0.28600  0.32696  0.96655  Biso   1.000  O
  O8       1.0000 0.27183  0.41585  0.22163  Biso   1.000  O
  Zr5      1.0000 0.12618  0.99171  0.63207  Biso   1.000  Zr
  Zr6      1.0000 0.11864  0.25279  0.85114  Biso   1.000  Zr
  Zr7      1.0000 0.37318  0.24960  0.62599  Biso   1.000  Zr
  Zr8      1.0000 0.37569  0.00147  0.87742  Biso   1.000  Zr
  O9       1.0000 0.98634  0.14072  0.50301  Biso   1.000  O
  O10      1.0000 0.99896  0.10483  0.74549  Biso   1.000  O
  O11      1.0000 0.98634  0.35849  0.74899  Biso   1.000  O
  O12      1.0000 0.99895  0.39438  0.50650  Biso   1.000  O
  O13      1.0000 0.25427  0.13796  0.75865  Biso   1.000  O
  O14      1.0000 0.24411  0.10560  0.51362  Biso   1.000  O
  O15      1.0000 0.25427  0.36125  0.49332  Biso   1.000  O
  O16      1.0000 0.24411  0.39361  0.73835  Biso   1.000  O
  Zr9      1.0000 0.11378  0.52606  0.13465  Biso   1.000  Zr
  Zr10     1.0000 0.12352  0.75906  0.38072  Biso   1.000  Zr
  Zr11     1.0000 0.37772  0.74965  0.12603  Biso   1.000  Zr
  Zr12     1.0000 0.37569  0.49772  0.37455  Biso   1.000  Zr
  O17      1.0000 0.99134  0.64231  0.00212  Biso   1.000  O
  O18      1.0000 0.98695  0.61867  0.25754  Biso   1.000  O
  O19      1.0000 0.99138  0.85689  0.24984  Biso   1.000  O
  O20      1.0000 0.98698  0.88053  0.99443  Biso   1.000  O
  O21      1.0000 0.23861  0.66011  0.24455  Biso   1.000  O
  O22      1.0000 0.24106  0.59170  0.99025  Biso   1.000  O
  O23      1.0000 0.23866  0.83910  0.00737  Biso   1.000  O
  O24      1.0000 0.24115  0.90748  0.26165  Biso   1.000  O
  Zr13     1.0000 0.12619  0.50751  0.61989  Biso   1.000  Zr
  Zr14     1.0000 0.12353  0.74014  0.87127  Biso   1.000  Zr
  Zr15     1.0000 0.37754  0.74962  0.62600  Biso   1.000  Zr
  Zr16     1.0000 0.37396  0.49117  0.87667  Biso   1.000  Zr
  O25      1.0000 0.00047  0.64686  0.50436  Biso   1.000  O
  O26      1.0000 0.00423  0.60259  0.75345  Biso   1.000  O
  O27      1.0000 0.00047  0.85235  0.74760  Biso   1.000  O
  O28      1.0000 0.00425  0.89662  0.49851  Biso   1.000  O
  O29      1.0000 0.25218  0.64248  0.74429  Biso   1.000  O
  O30      1.0000 0.24808  0.60875  0.49232  Biso   1.000  O
  O31      1.0000 0.25220  0.85674  0.50765  Biso   1.000  O
  O32      1.0000 0.24809  0.89047  0.75962  Biso   1.000  O
  Zr17     1.0000 0.62536  0.99346  0.11865  Biso   1.000  Zr
  Zr18     1.0000 0.62834  0.24440  0.38058  Biso   1.000  Zr
  Zr19     1.0000 0.87133  0.24961  0.12598  Biso   1.000  Zr
  Zr20     1.0000 0.87686  0.00324  0.37317  Biso   1.000  Zr
  O33      1.0000 0.51619  0.13703  0.99241  Biso   1.000  O
  O34      1.0000 0.51605  0.10373  0.24933  Biso   1.000  O
  O35      1.0000 0.51618  0.36219  0.25955  Biso   1.000  O
  O36      1.0000 0.51604  0.39550  0.00264  Biso   1.000  O
  O37      1.0000 0.76327  0.14798  0.26370  Biso   1.000  O
  O38      1.0000 0.76038  0.10038  0.01074  Biso   1.000  O
  O39      1.0000 0.76326  0.35124  0.98826  Biso   1.000  O
  O40      1.0000 0.76036  0.39885  0.24123  Biso   1.000  O
  Zr21     1.0000 0.62365  0.99733  0.62838  Biso   1.000  Zr
  Zr22     1.0000 0.62833  0.25483  0.87139  Biso   1.000  Zr
  Zr23     1.0000 0.86683  0.24962  0.62599  Biso   1.000  Zr
  Zr24     1.0000 0.87579  0.00120  0.87489  Biso   1.000  Zr
  O41      1.0000 0.49491  0.14811  0.49797  Biso   1.000  O
  O42      1.0000 0.49835  0.10274  0.74655  Biso   1.000  O
  O43      1.0000 0.49491  0.35111  0.75399  Biso   1.000  O
  O44      1.0000 0.49835  0.39648  0.50542  Biso   1.000  O
  O45      1.0000 0.75098  0.14440  0.75585  Biso   1.000  O
  O46      1.0000 0.74406  0.10270  0.50567  Biso   1.000  O
  O47      1.0000 0.75098  0.35481  0.49611  Biso   1.000  O
  O48      1.0000 0.74406  0.39652  0.74628  Biso   1.000  O
  Zr25     1.0000 0.62532  0.50578  0.13334  Biso   1.000  Zr
  Zr26     1.0000 0.62220  0.75581  0.37775  Biso   1.000  Zr
  Zr27     1.0000 0.86477  0.74961  0.12600  Biso   1.000  Zr
  Zr28     1.0000 0.87578  0.49800  0.37708  Biso   1.000  Zr
  O49      1.0000 0.49281  0.64229  0.99778  Biso   1.000  O
  O50      1.0000 0.49322  0.60900  0.24758  Biso   1.000  O
  O51      1.0000 0.49287  0.85695  0.25423  Biso   1.000  O
  O52      1.0000 0.49325  0.89024  0.00443  Biso   1.000  O
  O53      1.0000 0.73982  0.64758  0.25179  Biso   1.000  O
  O54      1.0000 0.74616  0.60241  0.00175  Biso   1.000  O
  O55      1.0000 0.73984  0.85165  0.00018  Biso   1.000  O
  O56      1.0000 0.74620  0.89681  0.25023  Biso   1.000  O
  Zr29     1.0000 0.62363  0.50189  0.62361  Biso   1.000  Zr
  Zr30     1.0000 0.62218  0.74340  0.87428  Biso   1.000  Zr
  Zr31     1.0000 0.87278  0.74960  0.62601  Biso   1.000  Zr
  Zr32     1.0000 0.87685  0.49597  0.87881  Biso   1.000  Zr
  O57      1.0000 0.49883  0.64697  0.49893  Biso   1.000  O
  O58      1.0000 0.50216  0.60140  0.74968  Biso   1.000  O
  O59      1.0000 0.49882  0.85225  0.75307  Biso   1.000  O
  O60      1.0000 0.50217  0.89782  0.50233  Biso   1.000  O
  O61      1.0000 0.75351  0.64529  0.75369  Biso   1.000  O
  O62      1.0000 0.74966  0.60461  0.50236  Biso   1.000  O
  O63      1.0000 0.75353  0.85393  0.49830  Biso   1.000  O
  O64      1.0000 0.74966  0.89460  0.74963  Biso   1.000  O
  Ce1      1.0000 0.14894  0.24960  0.12600  Biso   1.000  Ce
