data_image0
_cell_length_a       10.0355
_cell_length_b       10.2869
_cell_length_c       5.23676
_cell_angle_alpha    89.8716
_cell_angle_beta     90.409
_cell_angle_gamma    90.3161

_symmetry_space_group_name_H-M    "P 1"
_symmetry_int_tables_number       1

loop_
  _symmetry_equiv_pos_as_xyz
  'x, y, z'

loop_
  _atom_site_label
  _atom_site_occupancy
  _atom_site_fract_x
  _atom_site_fract_y
  _atom_site_fract_z
  _atom_site_thermal_displace_type
  _atom_site_B_iso_or_equiv
  _atom_site_type_symbol
  Hf1      1.0000 0.14068  0.02050  0.34531  Biso   1.000  Hf
  Hf2      1.0000 0.13794  0.22717  0.84771  Biso   1.000  Hf
  Hf3      1.0000 0.35664  0.27137  0.35541  Biso   1.000  Hf
  Hf4      1.0000 0.36046  0.47983  0.84357  Biso   1.000  Hf
  Hf5      1.0000 0.64436  0.02341  0.15251  Biso   1.000  Hf
  Hf6      1.0000 0.64260  0.22280  0.66512  Biso   1.000  Hf
  Hf7      1.0000 0.86045  0.26626  0.15656  Biso   1.000  Hf
  Hf8      1.0000 0.86383  0.47817  0.65621  Biso   1.000  Hf
  O1       1.0000 0.03468  0.16390  0.17063  Biso   1.000  O
  O2       1.0000 0.03653  0.08152  0.66875  Biso   1.000  O
  O3       1.0000 0.46004  0.42832  0.18839  Biso   1.000  O
  O4       1.0000 0.46768  0.33175  0.67915  Biso   1.000  O
  O5       1.0000 0.27657  0.12427  0.59635  Biso   1.000  O
  O6       1.0000 0.27714  0.12562  0.09374  Biso   1.000  O
  O7       1.0000 0.22213  0.37389  0.59515  Biso   1.000  O
  O8       1.0000 0.22249  0.37560  0.09220  Biso   1.000  O
  O9       1.0000 0.52576  0.15655  0.34599  Biso   1.000  O
  O10      1.0000 0.53573  0.07729  0.82754  Biso   1.000  O
  O11      1.0000 0.96493  0.41493  0.33453  Biso   1.000  O
  O12      1.0000 0.96587  0.33303  0.83351  Biso   1.000  O
  O13      1.0000 0.78904  0.11640  0.90161  Biso   1.000  O
  O14      1.0000 0.78022  0.12205  0.41570  Biso   1.000  O
  O15      1.0000 0.72051  0.37355  0.91466  Biso   1.000  O
  O16      1.0000 0.71902  0.37378  0.40711  Biso   1.000  O
  Hf9      1.0000 0.13874  0.51976  0.34219  Biso   1.000  Hf
  Hf10     1.0000 0.14047  0.72778  0.84412  Biso   1.000  Hf
  Hf11     1.0000 0.36224  0.77287  0.34521  Biso   1.000  Hf
  Hf12     1.0000 0.36180  0.97740  0.84823  Biso   1.000  Hf
  Hf13     1.0000 0.63962  0.53203  0.15734  Biso   1.000  Hf
  Hf14     1.0000 0.64038  0.73152  0.65754  Biso   1.000  Hf
  Hf15     1.0000 0.86420  0.77104  0.15750  Biso   1.000  Hf
  Hf16     1.0000 0.86470  0.97531  0.65642  Biso   1.000  Hf
  O17      1.0000 0.03466  0.66396  0.16838  Biso   1.000  O
  O18      1.0000 0.03384  0.58240  0.66868  Biso   1.000  O
  O19      1.0000 0.46820  0.91638  0.17063  Biso   1.000  O
  O20      1.0000 0.46706  0.83272  0.67255  Biso   1.000  O
  O21      1.0000 0.27643  0.62291  0.59010  Biso   1.000  O
  O22      1.0000 0.27728  0.62571  0.09008  Biso   1.000  O
  O23      1.0000 0.22525  0.87319  0.59283  Biso   1.000  O
  O24      1.0000 0.22418  0.87486  0.09253  Biso   1.000  O
  O25      1.0000 0.53487  0.67158  0.33245  Biso   1.000  O
  O26      1.0000 0.53394  0.58456  0.83112  Biso   1.000  O
  O27      1.0000 0.97046  0.91385  0.33053  Biso   1.000  O
  O28      1.0000 0.96924  0.83100  0.83263  Biso   1.000  O
  O29      1.0000 0.77874  0.62459  0.90732  Biso   1.000  O
  O30      1.0000 0.77824  0.62636  0.41085  Biso   1.000  O
  O31      1.0000 0.72573  0.87246  0.91234  Biso   1.000  O
  O32      1.0000 0.72686  0.87455  0.40991  Biso   1.000  O
  Co1      1.0000 0.59640  0.28954  0.14165  Biso   1.000  Co
