data_image0
_cell_length_a       9.98792
_cell_length_b       10.1649
_cell_length_c       5.20327
_cell_angle_alpha    89.9874
_cell_angle_beta     90.8436
_cell_angle_gamma    89.3428

_symmetry_space_group_name_H-M    "P 1"
_symmetry_int_tables_number       1

loop_
  _symmetry_equiv_pos_as_xyz
  'x, y, z'

loop_
  _atom_site_label
  _atom_site_occupancy
  _atom_site_fract_x
  _atom_site_fract_y
  _atom_site_fract_z
  _atom_site_thermal_displace_type
  _atom_site_B_iso_or_equiv
  _atom_site_type_symbol
  Co1      1.0000 0.11890  0.01191  0.38503  Biso   1.000  Co
  Hf1      1.0000 0.14015  0.52292  0.34638  Biso   1.000  Hf
  Hf2      1.0000 0.14636  0.22616  0.83445  Biso   1.000  Hf
  Hf3      1.0000 0.13771  0.73393  0.84644  Biso   1.000  Hf
  Hf4      1.0000 0.35872  0.26975  0.33369  Biso   1.000  Hf
  Hf5      1.0000 0.35539  0.77943  0.33697  Biso   1.000  Hf
  Hf6      1.0000 0.36056  0.47987  0.84348  Biso   1.000  Hf
  Hf7      1.0000 0.35645  0.98368  0.83758  Biso   1.000  Hf
  Hf8      1.0000 0.63678  0.02167  0.15388  Biso   1.000  Hf
  Hf9      1.0000 0.63878  0.52000  0.16184  Biso   1.000  Hf
  Hf10     1.0000 0.63901  0.22997  0.65879  Biso   1.000  Hf
  Hf11     1.0000 0.63453  0.72782  0.65698  Biso   1.000  Hf
  Hf12     1.0000 0.86915  0.26451  0.16901  Biso   1.000  Hf
  Hf13     1.0000 0.85973  0.76956  0.16120  Biso   1.000  Hf
  Hf14     1.0000 0.86385  0.47654  0.66758  Biso   1.000  Hf
  Hf15     1.0000 0.85568  0.97706  0.66184  Biso   1.000  Hf
  O1       1.0000 0.04995  0.14650  0.17550  Biso   1.000  O
  O2       1.0000 0.03289  0.66657  0.17269  Biso   1.000  O
  O3       1.0000 0.03354  0.08134  0.65669  Biso   1.000  O
  O4       1.0000 0.03429  0.58334  0.67760  Biso   1.000  O
  O5       1.0000 0.46522  0.41922  0.17227  Biso   1.000  O
  O6       1.0000 0.46555  0.91911  0.16453  Biso   1.000  O
  O7       1.0000 0.46660  0.33263  0.67019  Biso   1.000  O
  O8       1.0000 0.45983  0.83328  0.66769  Biso   1.000  O
  O9       1.0000 0.26408  0.11502  0.54546  Biso   1.000  O
  O10      1.0000 0.27533  0.62831  0.58996  Biso   1.000  O
  O11      1.0000 0.30451  0.14977  0.03389  Biso   1.000  O
  O12      1.0000 0.27676  0.63196  0.08955  Biso   1.000  O
  O13      1.0000 0.22515  0.37307  0.59137  Biso   1.000  O
  O14      1.0000 0.21004  0.87919  0.58140  Biso   1.000  O
  O15      1.0000 0.21901  0.38234  0.08888  Biso   1.000  O
  O16      1.0000 0.21778  0.89012  0.09038  Biso   1.000  O
  O17      1.0000 0.53690  0.17062  0.32417  Biso   1.000  O
  O18      1.0000 0.53196  0.67018  0.32508  Biso   1.000  O
  O19      1.0000 0.53847  0.07804  0.81521  Biso   1.000  O
  O20      1.0000 0.53456  0.58103  0.82756  Biso   1.000  O
  O21      1.0000 0.97134  0.41055  0.34413  Biso   1.000  O
  O22      1.0000 0.96849  0.91636  0.33930  Biso   1.000  O
  O23      1.0000 0.96989  0.32683  0.84590  Biso   1.000  O
  O24      1.0000 0.96282  0.83401  0.83748  Biso   1.000  O
  O25      1.0000 0.78060  0.12166  0.91447  Biso   1.000  O
  O26      1.0000 0.77704  0.62253  0.91659  Biso   1.000  O
  O27      1.0000 0.77883  0.12462  0.41142  Biso   1.000  O
  O28      1.0000 0.77656  0.62429  0.41702  Biso   1.000  O
  O29      1.0000 0.72793  0.37130  0.92002  Biso   1.000  O
  O30      1.0000 0.72013  0.87141  0.91110  Biso   1.000  O
  O31      1.0000 0.72792  0.37432  0.41594  Biso   1.000  O
  O32      1.0000 0.72428  0.87572  0.41144  Biso   1.000  O
