data_image0
_cell_length_a       5.0087
_cell_length_b       10.1917
_cell_length_c       10.0181
_cell_angle_alpha    89.2506
_cell_angle_beta     86.81
_cell_angle_gamma    88.3017

_symmetry_space_group_name_H-M    "P 1"
_symmetry_int_tables_number       1

loop_
  _symmetry_equiv_pos_as_xyz
  'x, y, z'

loop_
  _atom_site_label
  _atom_site_occupancy
  _atom_site_fract_x
  _atom_site_fract_y
  _atom_site_fract_z
  _atom_site_thermal_displace_type
  _atom_site_B_iso_or_equiv
  _atom_site_type_symbol
  Co1      1.0000 0.23902  0.96129  0.11258  Biso   1.000  Co
  Hf1      1.0000 0.24682  0.00651  0.60282  Biso   1.000  Hf
  Hf2      1.0000 0.25979  0.49671  0.12400  Biso   1.000  Hf
  Hf3      1.0000 0.23278  0.49211  0.63325  Biso   1.000  Hf
  Hf4      1.0000 0.29275  0.26428  0.37848  Biso   1.000  Hf
  Hf5      1.0000 0.24079  0.24841  0.88679  Biso   1.000  Hf
  Hf6      1.0000 0.23749  0.74375  0.38887  Biso   1.000  Hf
  Hf7      1.0000 0.21913  0.75342  0.87040  Biso   1.000  Hf
  Hf8      1.0000 0.78425  0.25761  0.12779  Biso   1.000  Hf
  Hf9      1.0000 0.75308  0.24301  0.62305  Biso   1.000  Hf
  Hf10     1.0000 0.74255  0.76303  0.11946  Biso   1.000  Hf
  Hf11     1.0000 0.70846  0.76277  0.62418  Biso   1.000  Hf
  Hf12     1.0000 0.77147  0.00553  0.35263  Biso   1.000  Hf
  Hf13     1.0000 0.70581  0.00291  0.87125  Biso   1.000  Hf
  Hf14     1.0000 0.75318  0.51106  0.38728  Biso   1.000  Hf
  Hf15     1.0000 0.73093  0.48810  0.87352  Biso   1.000  Hf
  O1       1.0000 0.89071  0.16293  0.95566  Biso   1.000  O
  O2       1.0000 0.01188  0.14589  0.46872  Biso   1.000  O
  O3       1.0000 0.07072  0.66182  0.03823  Biso   1.000  O
  O4       1.0000 0.98868  0.64445  0.52756  Biso   1.000  O
  O5       1.0000 0.03325  0.08478  0.20297  Biso   1.000  O
  O6       1.0000 0.94458  0.08506  0.71609  Biso   1.000  O
  O7       1.0000 0.08742  0.58538  0.28930  Biso   1.000  O
  O8       1.0000 0.03703  0.58891  0.78601  Biso   1.000  O
  O9       1.0000 0.05042  0.34278  0.24232  Biso   1.000  O
  O10      1.0000 0.99081  0.34209  0.74990  Biso   1.000  O
  O11      1.0000 0.03082  0.84836  0.24429  Biso   1.000  O
  O12      1.0000 0.92293  0.83887  0.76969  Biso   1.000  O
  O13      1.0000 0.00721  0.40318  0.00182  Biso   1.000  O
  O14      1.0000 0.00655  0.39416  0.50496  Biso   1.000  O
  O15      1.0000 0.97927  0.91180  0.00207  Biso   1.000  O
  O16      1.0000 0.99185  0.89268  0.49995  Biso   1.000  O
  O17      1.0000 0.56297  0.16354  0.26461  Biso   1.000  O
  O18      1.0000 0.46564  0.14447  0.74902  Biso   1.000  O
  O19      1.0000 0.58352  0.67568  0.28441  Biso   1.000  O
  O20      1.0000 0.52423  0.64535  0.77024  Biso   1.000  O
  O21      1.0000 0.39063  0.08407  0.99952  Biso   1.000  O
  O22      1.0000 0.51945  0.11324  0.50088  Biso   1.000  O
  O23      1.0000 0.57354  0.59492  0.03013  Biso   1.000  O
  O24      1.0000 0.48579  0.61194  0.51925  Biso   1.000  O
  O25      1.0000 0.49465  0.34586  0.00654  Biso   1.000  O
  O26      1.0000 0.51118  0.36481  0.50380  Biso   1.000  O
  O27      1.0000 0.47757  0.84858  0.99340  Biso   1.000  O
  O28      1.0000 0.49868  0.86519  0.48410  Biso   1.000  O
  O29      1.0000 0.54472  0.41396  0.25163  Biso   1.000  O
  O30      1.0000 0.48971  0.38988  0.75468  Biso   1.000  O
  O31      1.0000 0.52126  0.92503  0.22089  Biso   1.000  O
  O32      1.0000 0.43623  0.89548  0.74121  Biso   1.000  O
