data_image0
_cell_length_a       9.99977
_cell_length_b       10.2081
_cell_length_c       10.4244
_cell_angle_alpha    89.9632
_cell_angle_beta     90.4431
_cell_angle_gamma    89.7053

_symmetry_space_group_name_H-M    "P 1"
_symmetry_int_tables_number       1

loop_
  _symmetry_equiv_pos_as_xyz
  'x, y, z'

loop_
  _atom_site_label
  _atom_site_occupancy
  _atom_site_fract_x
  _atom_site_fract_y
  _atom_site_fract_z
  _atom_site_thermal_displace_type
  _atom_site_B_iso_or_equiv
  _atom_site_type_symbol
  Co1      1.0000 0.11889  0.01421  0.19600  Biso   1.000  Co
  Hf1      1.0000 0.13786  0.02057  0.66790  Biso   1.000  Hf
  Hf2      1.0000 0.13965  0.52276  0.17117  Biso   1.000  Hf
  Hf3      1.0000 0.13935  0.52097  0.67287  Biso   1.000  Hf
  Hf4      1.0000 0.13977  0.23123  0.41628  Biso   1.000  Hf
  Hf5      1.0000 0.14611  0.22358  0.92305  Biso   1.000  Hf
  Hf6      1.0000 0.13598  0.72911  0.42136  Biso   1.000  Hf
  Hf7      1.0000 0.14098  0.73368  0.92214  Biso   1.000  Hf
  Hf8      1.0000 0.35859  0.26901  0.16757  Biso   1.000  Hf
  Hf9      1.0000 0.36121  0.27160  0.67017  Biso   1.000  Hf
  Hf10     1.0000 0.35545  0.77814  0.16811  Biso   1.000  Hf
  Hf11     1.0000 0.36147  0.77170  0.67080  Biso   1.000  Hf
  Hf12     1.0000 0.36041  0.47997  0.42096  Biso   1.000  Hf
  Hf13     1.0000 0.36130  0.47874  0.92173  Biso   1.000  Hf
  Hf14     1.0000 0.35687  0.98142  0.41714  Biso   1.000  Hf
  Hf15     1.0000 0.36059  0.98139  0.92195  Biso   1.000  Hf
  Hf16     1.0000 0.63967  0.02202  0.07695  Biso   1.000  Hf
  Hf17     1.0000 0.63567  0.02072  0.57900  Biso   1.000  Hf
  Hf18     1.0000 0.63843  0.52071  0.07927  Biso   1.000  Hf
  Hf19     1.0000 0.63909  0.52061  0.58031  Biso   1.000  Hf
  Hf20     1.0000 0.63719  0.22942  0.32854  Biso   1.000  Hf
  Hf21     1.0000 0.64049  0.22970  0.82968  Biso   1.000  Hf
  Hf22     1.0000 0.63427  0.72804  0.32735  Biso   1.000  Hf
  Hf23     1.0000 0.63922  0.72905  0.82970  Biso   1.000  Hf
  Hf24     1.0000 0.86851  0.26626  0.08378  Biso   1.000  Hf
  Hf25     1.0000 0.86097  0.27021  0.57939  Biso   1.000  Hf
  Hf26     1.0000 0.86257  0.77086  0.07888  Biso   1.000  Hf
  Hf27     1.0000 0.85870  0.76965  0.58048  Biso   1.000  Hf
  Hf28     1.0000 0.86014  0.47938  0.32964  Biso   1.000  Hf
  Hf29     1.0000 0.86505  0.47624  0.83293  Biso   1.000  Hf
  Hf30     1.0000 0.85495  0.97703  0.33166  Biso   1.000  Hf
  Hf31     1.0000 0.86221  0.97976  0.82888  Biso   1.000  Hf
  O1       1.0000 0.04953  0.15238  0.09669  Biso   1.000  O
  O2       1.0000 0.03238  0.16288  0.57731  Biso   1.000  O
  O3       1.0000 0.03503  0.66925  0.08666  Biso   1.000  O
  O4       1.0000 0.03234  0.66533  0.58510  Biso   1.000  O
  O5       1.0000 0.03351  0.07856  0.33392  Biso   1.000  O
  O6       1.0000 0.03471  0.08441  0.83258  Biso   1.000  O
  O7       1.0000 0.03273  0.58240  0.33597  Biso   1.000  O
  O8       1.0000 0.03555  0.58351  0.83750  Biso   1.000  O
  O9       1.0000 0.46602  0.41765  0.08596  Biso   1.000  O
  O10      1.0000 0.46508  0.41935  0.58561  Biso   1.000  O
  O11      1.0000 0.46888  0.91754  0.08381  Biso   1.000  O
  O12      1.0000 0.46298  0.91893  0.58373  Biso   1.000  O
  O13      1.0000 0.46355  0.32991  0.33742  Biso   1.000  O
  O14      1.0000 0.46783  0.33372  0.83413  Biso   1.000  O
  O15      1.0000 0.45951  0.83316  0.33402  Biso   1.000  O
  O16      1.0000 0.46647  0.83264  0.83449  Biso   1.000  O
  O17      1.0000 0.26486  0.11820  0.28157  Biso   1.000  O
  O18      1.0000 0.27636  0.12148  0.78645  Biso   1.000  O
  O19      1.0000 0.27476  0.62834  0.29448  Biso   1.000  O
  O20      1.0000 0.27747  0.62371  0.79447  Biso   1.000  O
  O21      1.0000 0.30155  0.14420  0.02591  Biso   1.000  O
  O22      1.0000 0.27683  0.12874  0.53800  Biso   1.000  O
  O23      1.0000 0.27768  0.63027  0.04402  Biso   1.000  O
  O24      1.0000 0.27554  0.62642  0.54483  Biso   1.000  O
  O25      1.0000 0.22356  0.37525  0.29454  Biso   1.000  O
  O26      1.0000 0.22458  0.37194  0.79573  Biso   1.000  O
  O27      1.0000 0.21044  0.87984  0.29040  Biso   1.000  O
  O28      1.0000 0.22314  0.87346  0.79342  Biso   1.000  O
  O29      1.0000 0.22058  0.38123  0.04514  Biso   1.000  O
  O30      1.0000 0.22166  0.37644  0.54371  Biso   1.000  O
  O31      1.0000 0.22153  0.88592  0.04492  Biso   1.000  O
  O32      1.0000 0.22203  0.87692  0.54201  Biso   1.000  O
  O33      1.0000 0.53641  0.16877  0.16368  Biso   1.000  O
  O34      1.0000 0.53484  0.16950  0.66298  Biso   1.000  O
  O35      1.0000 0.53136  0.66923  0.16315  Biso   1.000  O
  O36      1.0000 0.53518  0.66858  0.66367  Biso   1.000  O
  O37      1.0000 0.53193  0.08135  0.41201  Biso   1.000  O
  O38      1.0000 0.53984  0.07977  0.91052  Biso   1.000  O
  O39      1.0000 0.53320  0.58204  0.41384  Biso   1.000  O
  O40      1.0000 0.53558  0.58146  0.91405  Biso   1.000  O
  O41      1.0000 0.96811  0.41595  0.16706  Biso   1.000  O
  O42      1.0000 0.96860  0.41248  0.66940  Biso   1.000  O
  O43      1.0000 0.97055  0.91879  0.17021  Biso   1.000  O
  O44      1.0000 0.96584  0.91504  0.66577  Biso   1.000  O
  O45      1.0000 0.96455  0.33115  0.41414  Biso   1.000  O
  O46      1.0000 0.97127  0.32914  0.92350  Biso   1.000  O
  O47      1.0000 0.96251  0.83233  0.41649  Biso   1.000  O
  O48      1.0000 0.96621  0.83406  0.91709  Biso   1.000  O
  O49      1.0000 0.78156  0.12341  0.95695  Biso   1.000  O
  O50      1.0000 0.77507  0.12250  0.45575  Biso   1.000  O
  O51      1.0000 0.77898  0.62352  0.95773  Biso   1.000  O
  O52      1.0000 0.77501  0.62336  0.45606  Biso   1.000  O
  O53      1.0000 0.77893  0.12455  0.20623  Biso   1.000  O
  O54      1.0000 0.77707  0.12637  0.70509  Biso   1.000  O
  O55      1.0000 0.77518  0.62596  0.20606  Biso   1.000  O
  O56      1.0000 0.77819  0.62475  0.70774  Biso   1.000  O
  O57      1.0000 0.72768  0.37209  0.95844  Biso   1.000  O
  O58      1.0000 0.72299  0.37349  0.45677  Biso   1.000  O
  O59      1.0000 0.72461  0.87338  0.95552  Biso   1.000  O
  O60      1.0000 0.71884  0.87232  0.45554  Biso   1.000  O
  O61      1.0000 0.72559  0.37415  0.20616  Biso   1.000  O
  O62      1.0000 0.72508  0.37663  0.70719  Biso   1.000  O
  O63      1.0000 0.72626  0.87580  0.20539  Biso   1.000  O
  O64      1.0000 0.72272  0.87636  0.70566  Biso   1.000  O
