data_image0
_cell_length_a       4.95581
_cell_length_b       10.3583
_cell_length_c       9.96516
_cell_angle_alpha    90.7107
_cell_angle_beta     88.9166
_cell_angle_gamma    90.4931

_symmetry_space_group_name_H-M    "P 1"
_symmetry_int_tables_number       1

loop_
  _symmetry_equiv_pos_as_xyz
  'x, y, z'

loop_
  _atom_site_label
  _atom_site_occupancy
  _atom_site_fract_x
  _atom_site_fract_y
  _atom_site_fract_z
  _atom_site_thermal_displace_type
  _atom_site_B_iso_or_equiv
  _atom_site_type_symbol
  Co1      1.0000 0.24496  0.03908  0.10528  Biso   1.000  Co
  Hf1      1.0000 0.26383  0.01562  0.62491  Biso   1.000  Hf
  Hf2      1.0000 0.26997  0.51505  0.12862  Biso   1.000  Hf
  Hf3      1.0000 0.27001  0.51820  0.62499  Biso   1.000  Hf
  Hf4      1.0000 0.27068  0.22655  0.37250  Biso   1.000  Hf
  Hf5      1.0000 0.25806  0.23824  0.87315  Biso   1.000  Hf
  Hf6      1.0000 0.28373  0.73386  0.37764  Biso   1.000  Hf
  Hf7      1.0000 0.26167  0.73781  0.88089  Biso   1.000  Hf
  Hf8      1.0000 0.72791  0.26142  0.12221  Biso   1.000  Hf
  Hf9      1.0000 0.73073  0.26617  0.62358  Biso   1.000  Hf
  Hf10     1.0000 0.75096  0.76331  0.12343  Biso   1.000  Hf
  Hf11     1.0000 0.73792  0.76952  0.62781  Biso   1.000  Hf
  Hf12     1.0000 0.73763  0.48079  0.37596  Biso   1.000  Hf
  Hf13     1.0000 0.72676  0.48781  0.87436  Biso   1.000  Hf
  Hf14     1.0000 0.74049  0.98310  0.37005  Biso   1.000  Hf
  Hf15     1.0000 0.70958  0.98549  0.88099  Biso   1.000  Hf
  O1       1.0000 0.06978  0.17949  0.18887  Biso   1.000  O
  O2       1.0000 0.06774  0.18515  0.69558  Biso   1.000  O
  O3       1.0000 0.08060  0.68496  0.19888  Biso   1.000  O
  O4       1.0000 0.07134  0.68484  0.69825  Biso   1.000  O
  O5       1.0000 0.07417  0.06521  0.44852  Biso   1.000  O
  O6       1.0000 0.05069  0.06991  0.95341  Biso   1.000  O
  O7       1.0000 0.07905  0.56408  0.44435  Biso   1.000  O
  O8       1.0000 0.06189  0.56949  0.95060  Biso   1.000  O
  O9       1.0000 0.93284  0.42699  0.19414  Biso   1.000  O
  O10      1.0000 0.92555  0.43505  0.69320  Biso   1.000  O
  O11      1.0000 0.98798  0.94045  0.18842  Biso   1.000  O
  O12      1.0000 0.92520  0.93688  0.70035  Biso   1.000  O
  O13      1.0000 0.93153  0.31271  0.44160  Biso   1.000  O
  O14      1.0000 0.91180  0.31593  0.94005  Biso   1.000  O
  O15      1.0000 0.94671  0.81955  0.45011  Biso   1.000  O
  O16      1.0000 0.90832  0.81932  0.93884  Biso   1.000  O
  O17      1.0000 0.51876  0.10126  0.23829  Biso   1.000  O
  O18      1.0000 0.53545  0.11918  0.74950  Biso   1.000  O
  O19      1.0000 0.54740  0.60641  0.24893  Biso   1.000  O
  O20      1.0000 0.53710  0.62045  0.75198  Biso   1.000  O
  O21      1.0000 0.54793  0.13180  0.49393  Biso   1.000  O
  O22      1.0000 0.50733  0.13437  0.00012  Biso   1.000  O
  O23      1.0000 0.54971  0.63281  0.50092  Biso   1.000  O
  O24      1.0000 0.53373  0.63722  0.00111  Biso   1.000  O
  O25      1.0000 0.46009  0.38041  0.49901  Biso   1.000  O
  O26      1.0000 0.45239  0.38466  0.99823  Biso   1.000  O
  O27      1.0000 0.47041  0.88393  0.50390  Biso   1.000  O
  O28      1.0000 0.43463  0.89496  0.01380  Biso   1.000  O
  O29      1.0000 0.46299  0.35985  0.24811  Biso   1.000  O
  O30      1.0000 0.45409  0.36988  0.74848  Biso   1.000  O
  O31      1.0000 0.52600  0.84815  0.26186  Biso   1.000  O
  O32      1.0000 0.45285  0.86930  0.75498  Biso   1.000  O
