data_image0
_cell_length_a       5.07226
_cell_length_b       10.3172
_cell_length_c       10.4727
_cell_angle_alpha    90.3581
_cell_angle_beta     79.902
_cell_angle_gamma    90.343

_symmetry_space_group_name_H-M    "P 1"
_symmetry_int_tables_number       1

loop_
  _symmetry_equiv_pos_as_xyz
  'x, y, z'

loop_
  _atom_site_label
  _atom_site_occupancy
  _atom_site_fract_x
  _atom_site_fract_y
  _atom_site_fract_z
  _atom_site_thermal_displace_type
  _atom_site_B_iso_or_equiv
  _atom_site_type_symbol
  Hf1      1.0000 0.27617  0.02257  0.14738  Biso   1.000  Hf
  Hf2      1.0000 0.29425  0.23297  0.39899  Biso   1.000  Hf
  Hf3      1.0000 0.71276  0.27614  0.10310  Biso   1.000  Hf
  Hf4      1.0000 0.71281  0.47469  0.34952  Biso   1.000  Hf
  O1       1.0000 0.06549  0.17103  0.08388  Biso   1.000  O
  O2       1.0000 0.08718  0.07132  0.33781  Biso   1.000  O
  O3       1.0000 0.91664  0.42783  0.16311  Biso   1.000  O
  O4       1.0000 0.94909  0.34402  0.42728  Biso   1.000  O
  O5       1.0000 0.56354  0.12933  0.24074  Biso   1.000  O
  O6       1.0000 0.57066  0.12044  0.48835  Biso   1.000  O
  O7       1.0000 0.44067  0.38233  0.00718  Biso   1.000  O
  O8       1.0000 0.41783  0.37781  0.25401  Biso   1.000  O
  Hf5      1.0000 0.27374  0.02148  0.64695  Biso   1.000  Hf
  Hf6      1.0000 0.27263  0.23001  0.89748  Biso   1.000  Hf
  Hf7      1.0000 0.72577  0.27368  0.60868  Biso   1.000  Hf
  Hf8      1.0000 0.71928  0.47996  0.85594  Biso   1.000  Hf
  O9       1.0000 0.07774  0.17070  0.58175  Biso   1.000  O
  O10      1.0000 0.06862  0.08110  0.83098  Biso   1.000  O
  O11      1.0000 0.92997  0.41931  0.67399  Biso   1.000  O
  O12      1.0000 0.92504  0.33146  0.91957  Biso   1.000  O
  O13      1.0000 0.55118  0.12978  0.74129  Biso   1.000  O
  O14      1.0000 0.54604  0.12284  0.99137  Biso   1.000  O
  O15      1.0000 0.45092  0.37885  0.51434  Biso   1.000  O
  O16      1.0000 0.44672  0.37127  0.76076  Biso   1.000  O
  Hf9      1.0000 0.27093  0.52478  0.14487  Biso   1.000  Hf
  Hf10     1.0000 0.27437  0.72414  0.39651  Biso   1.000  Hf
  Hf11     1.0000 0.71697  0.77175  0.10360  Biso   1.000  Hf
  Hf12     1.0000 0.72190  0.96720  0.35560  Biso   1.000  Hf
  O17      1.0000 0.06686  0.67440  0.07970  Biso   1.000  O
  O18      1.0000 0.06116  0.58341  0.32792  Biso   1.000  O
  O19      1.0000 0.92789  0.91969  0.17062  Biso   1.000  O
  O20      1.0000 0.92697  0.82626  0.42245  Biso   1.000  O
  O21      1.0000 0.54873  0.63015  0.24069  Biso   1.000  O
  O22      1.0000 0.54692  0.61922  0.49093  Biso   1.000  O
  O23      1.0000 0.44375  0.88179  0.01061  Biso   1.000  O
  O24      1.0000 0.44300  0.86884  0.25965  Biso   1.000  O
  Hf13     1.0000 0.27785  0.52254  0.64753  Biso   1.000  Hf
  Hf14     1.0000 0.27213  0.73081  0.89690  Biso   1.000  Hf
  Hf15     1.0000 0.71992  0.76986  0.60553  Biso   1.000  Hf
  Hf16     1.0000 0.71776  0.97979  0.85504  Biso   1.000  Hf
  O25      1.0000 0.06699  0.66718  0.58178  Biso   1.000  O
  O26      1.0000 0.06928  0.58230  0.83186  Biso   1.000  O
  O27      1.0000 0.92653  0.91916  0.67059  Biso   1.000  O
  O28      1.0000 0.92398  0.83292  0.91956  Biso   1.000  O
  O29      1.0000 0.55147  0.62933  0.74182  Biso   1.000  O
  O30      1.0000 0.54842  0.62402  0.99064  Biso   1.000  O
  O31      1.0000 0.44468  0.87785  0.51129  Biso   1.000  O
  O32      1.0000 0.44426  0.87179  0.76025  Biso   1.000  O
  Co1      1.0000 0.81518  0.20989  0.33459  Biso   1.000  Co
