data_image0
_cell_length_a       10.0282
_cell_length_b       10.2585
_cell_length_c       10.4618
_cell_angle_alpha    89.929
_cell_angle_beta     90.2072
_cell_angle_gamma    90.1647

_symmetry_space_group_name_H-M    "P 1"
_symmetry_int_tables_number       1

loop_
  _symmetry_equiv_pos_as_xyz
  'x, y, z'

loop_
  _atom_site_label
  _atom_site_occupancy
  _atom_site_fract_x
  _atom_site_fract_y
  _atom_site_fract_z
  _atom_site_thermal_displace_type
  _atom_site_B_iso_or_equiv
  _atom_site_type_symbol
  Hf1      1.0000 0.13887  0.02104  0.17213  Biso   1.000  Hf
  Hf2      1.0000 0.13787  0.22845  0.42349  Biso   1.000  Hf
  Hf3      1.0000 0.35492  0.27189  0.17581  Biso   1.000  Hf
  Hf4      1.0000 0.36219  0.47871  0.42191  Biso   1.000  Hf
  Hf5      1.0000 0.64364  0.02431  0.07463  Biso   1.000  Hf
  Hf6      1.0000 0.63912  0.22628  0.33227  Biso   1.000  Hf
  Hf7      1.0000 0.85996  0.26690  0.07718  Biso   1.000  Hf
  Hf8      1.0000 0.86189  0.47809  0.32788  Biso   1.000  Hf
  O1       1.0000 0.03415  0.16417  0.08398  Biso   1.000  O
  O2       1.0000 0.03369  0.08317  0.33547  Biso   1.000  O
  O3       1.0000 0.45892  0.42845  0.09359  Biso   1.000  O
  O4       1.0000 0.46604  0.33189  0.33621  Biso   1.000  O
  O5       1.0000 0.27477  0.12447  0.29718  Biso   1.000  O
  O6       1.0000 0.27657  0.12610  0.04542  Biso   1.000  O
  O7       1.0000 0.22109  0.37442  0.29701  Biso   1.000  O
  O8       1.0000 0.22128  0.37631  0.04483  Biso   1.000  O
  O9       1.0000 0.52431  0.15637  0.17233  Biso   1.000  O
  O10      1.0000 0.53326  0.08346  0.41839  Biso   1.000  O
  O11      1.0000 0.96445  0.41490  0.16659  Biso   1.000  O
  O12      1.0000 0.96630  0.33369  0.41707  Biso   1.000  O
  O13      1.0000 0.77657  0.12325  0.45654  Biso   1.000  O
  O14      1.0000 0.77816  0.12465  0.20979  Biso   1.000  O
  O15      1.0000 0.72343  0.37287  0.45523  Biso   1.000  O
  O16      1.0000 0.71792  0.37593  0.20271  Biso   1.000  O
  Hf9      1.0000 0.14065  0.02047  0.67189  Biso   1.000  Hf
  Hf10     1.0000 0.13884  0.22765  0.92173  Biso   1.000  Hf
  Hf11     1.0000 0.36279  0.27053  0.67325  Biso   1.000  Hf
  Hf12     1.0000 0.35970  0.47993  0.92142  Biso   1.000  Hf
  Hf13     1.0000 0.63963  0.02025  0.58001  Biso   1.000  Hf
  Hf14     1.0000 0.64194  0.22566  0.82810  Biso   1.000  Hf
  Hf15     1.0000 0.86191  0.27051  0.57966  Biso   1.000  Hf
  Hf16     1.0000 0.86294  0.47886  0.82898  Biso   1.000  Hf
  O17      1.0000 0.03398  0.16598  0.58561  Biso   1.000  O
  O18      1.0000 0.03640  0.08202  0.83321  Biso   1.000  O
  O19      1.0000 0.46752  0.41616  0.58541  Biso   1.000  O
  O20      1.0000 0.46811  0.33314  0.83814  Biso   1.000  O
  O21      1.0000 0.27835  0.12360  0.79582  Biso   1.000  O
  O22      1.0000 0.27708  0.12575  0.54626  Biso   1.000  O
  O23      1.0000 0.22451  0.37330  0.79556  Biso   1.000  O
  O24      1.0000 0.22470  0.37544  0.54618  Biso   1.000  O
  O25      1.0000 0.53417  0.16582  0.66620  Biso   1.000  O
  O26      1.0000 0.53598  0.07799  0.91121  Biso   1.000  O
  O27      1.0000 0.96724  0.41615  0.66648  Biso   1.000  O
  O28      1.0000 0.96613  0.33310  0.91544  Biso   1.000  O
  O29      1.0000 0.78897  0.11735  0.94912  Biso   1.000  O
  O30      1.0000 0.77836  0.12400  0.70353  Biso   1.000  O
  O31      1.0000 0.72029  0.37411  0.95733  Biso   1.000  O
  O32      1.0000 0.72508  0.37529  0.70588  Biso   1.000  O
  Hf17     1.0000 0.13763  0.52079  0.17140  Biso   1.000  Hf
  Hf18     1.0000 0.13952  0.72803  0.42146  Biso   1.000  Hf
  Hf19     1.0000 0.36122  0.77361  0.17215  Biso   1.000  Hf
  Hf20     1.0000 0.36088  0.97862  0.42303  Biso   1.000  Hf
  Hf21     1.0000 0.63881  0.53241  0.07899  Biso   1.000  Hf
  Hf22     1.0000 0.63935  0.73110  0.32989  Biso   1.000  Hf
  Hf23     1.0000 0.86253  0.77254  0.07923  Biso   1.000  Hf
  Hf24     1.0000 0.86169  0.97813  0.32971  Biso   1.000  Hf
  O33      1.0000 0.03348  0.66550  0.08446  Biso   1.000  O
  O34      1.0000 0.03291  0.58263  0.33465  Biso   1.000  O
  O35      1.0000 0.46781  0.91688  0.08396  Biso   1.000  O
  O36      1.0000 0.46671  0.83463  0.33612  Biso   1.000  O
  O37      1.0000 0.27597  0.62383  0.29481  Biso   1.000  O
  O38      1.0000 0.27650  0.62673  0.04493  Biso   1.000  O
  O39      1.0000 0.22406  0.87416  0.29589  Biso   1.000  O
  O40      1.0000 0.22328  0.87610  0.04582  Biso   1.000  O
  O41      1.0000 0.53409  0.67222  0.16687  Biso   1.000  O
  O42      1.0000 0.53426  0.58350  0.41531  Biso   1.000  O
  O43      1.0000 0.96768  0.91583  0.16691  Biso   1.000  O
  O44      1.0000 0.96717  0.83147  0.41525  Biso   1.000  O
  O45      1.0000 0.77710  0.62313  0.45492  Biso   1.000  O
  O46      1.0000 0.77732  0.62762  0.20581  Biso   1.000  O
  O47      1.0000 0.72441  0.87389  0.45622  Biso   1.000  O
  O48      1.0000 0.72533  0.87644  0.20560  Biso   1.000  O
  Hf25     1.0000 0.13988  0.52005  0.67120  Biso   1.000  Hf
  Hf26     1.0000 0.13969  0.72855  0.92193  Biso   1.000  Hf
  Hf27     1.0000 0.36229  0.77031  0.67177  Biso   1.000  Hf
  Hf28     1.0000 0.36221  0.97774  0.92244  Biso   1.000  Hf
  Hf29     1.0000 0.63983  0.52059  0.57858  Biso   1.000  Hf
  Hf30     1.0000 0.63981  0.72927  0.82753  Biso   1.000  Hf
  Hf31     1.0000 0.86300  0.76958  0.57819  Biso   1.000  Hf
  Hf32     1.0000 0.86426  0.97598  0.82709  Biso   1.000  Hf
  O49      1.0000 0.03473  0.66476  0.58405  Biso   1.000  O
  O50      1.0000 0.03435  0.58351  0.83391  Biso   1.000  O
  O51      1.0000 0.46697  0.91573  0.58547  Biso   1.000  O
  O52      1.0000 0.46705  0.83202  0.83436  Biso   1.000  O
  O53      1.0000 0.27714  0.62289  0.79513  Biso   1.000  O
  O54      1.0000 0.27741  0.62519  0.54495  Biso   1.000  O
  O55      1.0000 0.22470  0.87280  0.79532  Biso   1.000  O
  O56      1.0000 0.22436  0.87497  0.54524  Biso   1.000  O
  O57      1.0000 0.53435  0.66562  0.66513  Biso   1.000  O
  O58      1.0000 0.53331  0.58457  0.91596  Biso   1.000  O
  O59      1.0000 0.96927  0.91444  0.66394  Biso   1.000  O
  O60      1.0000 0.96860  0.83317  0.91674  Biso   1.000  O
  O61      1.0000 0.77829  0.62503  0.95405  Biso   1.000  O
  O62      1.0000 0.77755  0.62517  0.70489  Biso   1.000  O
  O63      1.0000 0.72479  0.87238  0.95517  Biso   1.000  O
  O64      1.0000 0.72503  0.87443  0.70456  Biso   1.000  O
  Co1      1.0000 0.59566  0.28897  0.07027  Biso   1.000  Co
