data_image0
_cell_length_a       10.0757
_cell_length_b       5.0857
_cell_length_c       10.4573
_cell_angle_alpha    90.0672
_cell_angle_beta     80.8729
_cell_angle_gamma    89.1891

_symmetry_space_group_name_H-M    "P 1"
_symmetry_int_tables_number       1

loop_
  _symmetry_equiv_pos_as_xyz
  'x, y, z'

loop_
  _atom_site_label
  _atom_site_occupancy
  _atom_site_fract_x
  _atom_site_fract_y
  _atom_site_fract_z
  _atom_site_thermal_displace_type
  _atom_site_B_iso_or_equiv
  _atom_site_type_symbol
  Co1      1.0000 0.12164  0.02274  0.16993  Biso   1.000  Co
  Hf1      1.0000 0.13838  0.03961  0.64335  Biso   1.000  Hf
  Hf2      1.0000 0.63577  0.04137  0.14446  Biso   1.000  Hf
  Hf3      1.0000 0.63772  0.04293  0.64812  Biso   1.000  Hf
  Hf4      1.0000 0.13754  0.45611  0.39053  Biso   1.000  Hf
  Hf5      1.0000 0.14349  0.45606  0.89423  Biso   1.000  Hf
  Hf6      1.0000 0.63699  0.45561  0.39524  Biso   1.000  Hf
  Hf7      1.0000 0.63801  0.46267  0.89896  Biso   1.000  Hf
  Hf8      1.0000 0.35233  0.55235  0.10033  Biso   1.000  Hf
  Hf9      1.0000 0.36111  0.54641  0.60325  Biso   1.000  Hf
  Hf10     1.0000 0.86902  0.52827  0.10710  Biso   1.000  Hf
  Hf11     1.0000 0.85972  0.53872  0.60658  Biso   1.000  Hf
  Hf12     1.0000 0.35836  0.96034  0.34905  Biso   1.000  Hf
  Hf13     1.0000 0.36021  0.97240  0.85673  Biso   1.000  Hf
  Hf14     1.0000 0.85683  0.95242  0.35669  Biso   1.000  Hf
  Hf15     1.0000 0.86434  0.95419  0.85745  Biso   1.000  Hf
  O1       1.0000 0.04787  0.29604  0.08501  Biso   1.000  O
  O2       1.0000 0.03178  0.31892  0.56996  Biso   1.000  O
  O3       1.0000 0.53318  0.33590  0.07769  Biso   1.000  O
  O4       1.0000 0.53474  0.33458  0.57606  Biso   1.000  O
  O5       1.0000 0.03343  0.15734  0.32335  Biso   1.000  O
  O6       1.0000 0.03561  0.17001  0.82686  Biso   1.000  O
  O7       1.0000 0.53286  0.16619  0.32689  Biso   1.000  O
  O8       1.0000 0.53654  0.17627  0.82583  Biso   1.000  O
  O9       1.0000 0.46475  0.82884  0.17377  Biso   1.000  O
  O10      1.0000 0.46511  0.83556  0.67252  Biso   1.000  O
  O11      1.0000 0.97458  0.82320  0.17581  Biso   1.000  O
  O12      1.0000 0.96836  0.81906  0.67703  Biso   1.000  O
  O13      1.0000 0.46365  0.66910  0.42056  Biso   1.000  O
  O14      1.0000 0.46928  0.68979  0.92606  Biso   1.000  O
  O15      1.0000 0.96282  0.66232  0.42369  Biso   1.000  O
  O16      1.0000 0.96851  0.66177  0.93147  Biso   1.000  O
  O17      1.0000 0.26395  0.24803  0.22874  Biso   1.000  O
  O18      1.0000 0.27412  0.25597  0.73139  Biso   1.000  O
  O19      1.0000 0.77612  0.24809  0.24053  Biso   1.000  O
  O20      1.0000 0.77880  0.25595  0.74179  Biso   1.000  O
  O21      1.0000 0.27667  0.24617  0.48356  Biso   1.000  O
  O22      1.0000 0.29651  0.29347  0.96840  Biso   1.000  O
  O23      1.0000 0.77623  0.23901  0.49098  Biso   1.000  O
  O24      1.0000 0.77942  0.24236  0.99254  Biso   1.000  O
  O25      1.0000 0.21972  0.80589  0.01712  Biso   1.000  O
  O26      1.0000 0.22128  0.75679  0.50634  Biso   1.000  O
  O27      1.0000 0.72822  0.75503  0.01301  Biso   1.000  O
  O28      1.0000 0.72134  0.75416  0.51130  Biso   1.000  O
  O29      1.0000 0.21282  0.75123  0.25680  Biso   1.000  O
  O30      1.0000 0.22547  0.74214  0.76140  Biso   1.000  O
  O31      1.0000 0.72968  0.73430  0.25904  Biso   1.000  O
  O32      1.0000 0.72510  0.74435  0.76251  Biso   1.000  O
