data_image0
_cell_length_a       9.9329
_cell_length_b       5.18505
_cell_length_c       9.95825
_cell_angle_alpha    91.9267
_cell_angle_beta     89.2485
_cell_angle_gamma    90.2171

_symmetry_space_group_name_H-M    "P 1"
_symmetry_int_tables_number       1

loop_
  _symmetry_equiv_pos_as_xyz
  'x, y, z'

loop_
  _atom_site_label
  _atom_site_occupancy
  _atom_site_fract_x
  _atom_site_fract_y
  _atom_site_fract_z
  _atom_site_thermal_displace_type
  _atom_site_B_iso_or_equiv
  _atom_site_type_symbol
  Co1      1.0000 0.11916  0.07305  0.10826  Biso   1.000  Co
  Hf1      1.0000 0.13741  0.03811  0.63154  Biso   1.000  Hf
  Hf2      1.0000 0.63867  0.04521  0.12671  Biso   1.000  Hf
  Hf3      1.0000 0.62512  0.02701  0.61578  Biso   1.000  Hf
  Hf4      1.0000 0.13687  0.43595  0.37296  Biso   1.000  Hf
  Hf5      1.0000 0.13103  0.48392  0.88681  Biso   1.000  Hf
  Hf6      1.0000 0.63876  0.47094  0.37887  Biso   1.000  Hf
  Hf7      1.0000 0.63559  0.47218  0.86712  Biso   1.000  Hf
  Hf8      1.0000 0.38848  0.53060  0.10833  Biso   1.000  Hf
  Hf9      1.0000 0.36367  0.54179  0.63090  Biso   1.000  Hf
  Hf10     1.0000 0.87072  0.54217  0.11951  Biso   1.000  Hf
  Hf11     1.0000 0.87280  0.52937  0.61835  Biso   1.000  Hf
  Hf12     1.0000 0.36337  0.93929  0.37176  Biso   1.000  Hf
  Hf13     1.0000 0.35479  0.98425  0.88663  Biso   1.000  Hf
  Hf14     1.0000 0.87234  0.97132  0.37173  Biso   1.000  Hf
  Hf15     1.0000 0.86266  0.97353  0.86828  Biso   1.000  Hf
  O1       1.0000 0.03948  0.36754  0.18317  Biso   1.000  O
  O2       1.0000 0.03503  0.37215  0.70350  Biso   1.000  O
  O3       1.0000 0.54036  0.37668  0.20284  Biso   1.000  O
  O4       1.0000 0.53380  0.37062  0.69141  Biso   1.000  O
  O5       1.0000 0.03003  0.13479  0.46097  Biso   1.000  O
  O6       1.0000 0.03334  0.13463  0.94432  Biso   1.000  O
  O7       1.0000 0.53672  0.13226  0.43578  Biso   1.000  O
  O8       1.0000 0.51893  0.17645  0.96075  Biso   1.000  O
  O9       1.0000 0.46850  0.87666  0.18837  Biso   1.000  O
  O10      1.0000 0.45799  0.88328  0.70093  Biso   1.000  O
  O11      1.0000 0.98114  0.88019  0.18394  Biso   1.000  O
  O12      1.0000 0.96526  0.86851  0.69065  Biso   1.000  O
  O13      1.0000 0.47569  0.64614  0.46122  Biso   1.000  O
  O14      1.0000 0.46079  0.65714  0.92980  Biso   1.000  O
  O15      1.0000 0.96608  0.62635  0.43220  Biso   1.000  O
  O16      1.0000 0.95481  0.63829  0.93682  Biso   1.000  O
  O17      1.0000 0.21914  0.10488  0.25818  Biso   1.000  O
  O18      1.0000 0.27036  0.25329  0.76032  Biso   1.000  O
  O19      1.0000 0.77912  0.24124  0.24633  Biso   1.000  O
  O20      1.0000 0.76450  0.22790  0.74409  Biso   1.000  O
  O21      1.0000 0.27588  0.25410  0.50069  Biso   1.000  O
  O22      1.0000 0.25426  0.27082  0.01841  Biso   1.000  O
  O23      1.0000 0.76868  0.26566  0.49648  Biso   1.000  O
  O24      1.0000 0.76666  0.27486  0.99512  Biso   1.000  O
  O25      1.0000 0.22571  0.75340  0.50477  Biso   1.000  O
  O26      1.0000 0.22136  0.78708  0.01875  Biso   1.000  O
  O27      1.0000 0.73873  0.77024  0.49504  Biso   1.000  O
  O28      1.0000 0.72368  0.77641  0.99306  Biso   1.000  O
  O29      1.0000 0.27833  0.61306  0.26850  Biso   1.000  O
  O30      1.0000 0.22417  0.74830  0.76004  Biso   1.000  O
  O31      1.0000 0.73605  0.74185  0.24449  Biso   1.000  O
  O32      1.0000 0.73003  0.72990  0.74156  Biso   1.000  O
