data_image0
_cell_length_a       10.2109
_cell_length_b       5.20144
_cell_length_c       10.533
_cell_angle_alpha    90.2652
_cell_angle_beta     80.0417
_cell_angle_gamma    90.3285

_symmetry_space_group_name_H-M    "P 1"
_symmetry_int_tables_number       1

loop_
  _symmetry_equiv_pos_as_xyz
  'x, y, z'

loop_
  _atom_site_label
  _atom_site_occupancy
  _atom_site_fract_x
  _atom_site_fract_y
  _atom_site_fract_z
  _atom_site_thermal_displace_type
  _atom_site_B_iso_or_equiv
  _atom_site_type_symbol
  Zr1      1.0000 0.13581  0.04871  0.14464  Biso   1.000  Zr
  Zr2      1.0000 0.13780  0.46197  0.39556  Biso   1.000  Zr
  Zr3      1.0000 0.35780  0.54811  0.10274  Biso   1.000  Zr
  Zr4      1.0000 0.35486  0.92621  0.35082  Biso   1.000  Zr
  O1       1.0000 0.03284  0.34588  0.07936  Biso   1.000  O
  O2       1.0000 0.03348  0.16956  0.32721  Biso   1.000  O
  O3       1.0000 0.46219  0.84733  0.16624  Biso   1.000  O
  O4       1.0000 0.47454  0.67562  0.42767  Biso   1.000  O
  O5       1.0000 0.27989  0.25842  0.24203  Biso   1.000  O
  O6       1.0000 0.27846  0.24003  0.48637  Biso   1.000  O
  O7       1.0000 0.22197  0.76452  0.00704  Biso   1.000  O
  O8       1.0000 0.20895  0.75151  0.25329  Biso   1.000  O
  Zr5      1.0000 0.13729  0.04542  0.64614  Biso   1.000  Zr
  Zr6      1.0000 0.13627  0.46164  0.89607  Biso   1.000  Zr
  Zr7      1.0000 0.36096  0.54463  0.60900  Biso   1.000  Zr
  Zr8      1.0000 0.35961  0.95984  0.85598  Biso   1.000  Zr
  O9       1.0000 0.03500  0.33706  0.57996  Biso   1.000  O
  O10      1.0000 0.03441  0.16382  0.83038  Biso   1.000  O
  O11      1.0000 0.46489  0.83632  0.67340  Biso   1.000  O
  O12      1.0000 0.46404  0.66600  0.92016  Biso   1.000  O
  O13      1.0000 0.27507  0.25897  0.74105  Biso   1.000  O
  O14      1.0000 0.27319  0.24764  0.99076  Biso   1.000  O
  O15      1.0000 0.22217  0.75576  0.51436  Biso   1.000  O
  O16      1.0000 0.22354  0.74424  0.76010  Biso   1.000  O
  Zr9      1.0000 0.63857  0.04505  0.14547  Biso   1.000  Zr
  Zr10     1.0000 0.64555  0.45281  0.39911  Biso   1.000  Zr
  Zr11     1.0000 0.85924  0.54598  0.10494  Biso   1.000  Zr
  Zr12     1.0000 0.86163  0.95749  0.35455  Biso   1.000  Zr
  O17      1.0000 0.53374  0.34169  0.08182  Biso   1.000  O
  O18      1.0000 0.53858  0.14660  0.33436  Biso   1.000  O
  O19      1.0000 0.96171  0.84615  0.16738  Biso   1.000  O
  O20      1.0000 0.96408  0.67058  0.42243  Biso   1.000  O
  O21      1.0000 0.77611  0.25959  0.24056  Biso   1.000  O
  O22      1.0000 0.77834  0.24027  0.49275  Biso   1.000  O
  O23      1.0000 0.72275  0.76115  0.01086  Biso   1.000  O
  O24      1.0000 0.72396  0.74209  0.26080  Biso   1.000  O
  Zr13     1.0000 0.63876  0.04358  0.64721  Biso   1.000  Zr
  Zr14     1.0000 0.63701  0.45969  0.89698  Biso   1.000  Zr
  Zr15     1.0000 0.86162  0.54532  0.60653  Biso   1.000  Zr
  Zr16     1.0000 0.85974  0.95966  0.85610  Biso   1.000  Zr
  O25      1.0000 0.53515  0.33556  0.58187  Biso   1.000  O
  O26      1.0000 0.53416  0.16506  0.83127  Biso   1.000  O
  O27      1.0000 0.96481  0.83878  0.67217  Biso   1.000  O
  O28      1.0000 0.96237  0.66413  0.91926  Biso   1.000  O
  O29      1.0000 0.77514  0.25998  0.74197  Biso   1.000  O
  O30      1.0000 0.77379  0.24539  0.99126  Biso   1.000  O
  O31      1.0000 0.72501  0.75654  0.51232  Biso   1.000  O
  O32      1.0000 0.72375  0.74432  0.76125  Biso   1.000  O
  Co1      1.0000 0.40073  0.41351  0.34143  Biso   1.000  Co
