data_image0
_cell_length_a       10.0856
_cell_length_b       10.2751
_cell_length_c       10.0855
_cell_angle_alpha    90.0096
_cell_angle_beta     89.9835
_cell_angle_gamma    90.0097

_symmetry_space_group_name_H-M    "P 1"
_symmetry_int_tables_number       1

loop_
  _symmetry_equiv_pos_as_xyz
  'x, y, z'

loop_
  _atom_site_label
  _atom_site_occupancy
  _atom_site_fract_x
  _atom_site_fract_y
  _atom_site_fract_z
  _atom_site_thermal_displace_type
  _atom_site_B_iso_or_equiv
  _atom_site_type_symbol
  Zr1      1.0000 0.12574  0.96841  0.12582  Biso   1.000  Zr
  Zr2      1.0000 0.12400  0.25379  0.38006  Biso   1.000  Zr
  Zr3      1.0000 0.37998  0.25379  0.12409  Biso   1.000  Zr
  Zr4      1.0000 0.37796  0.00394  0.37804  Biso   1.000  Zr
  O1       1.0000 0.99347  0.15513  0.99355  Biso   1.000  O
  O2       1.0000 0.00281  0.09933  0.24801  Biso   1.000  O
  O3       1.0000 0.99095  0.35554  0.26012  Biso   1.000  O
  O4       1.0000 0.00242  0.40111  0.00251  Biso   1.000  O
  O5       1.0000 0.25706  0.15465  0.25714  Biso   1.000  O
  O6       1.0000 0.24794  0.09932  0.00289  Biso   1.000  O
  O7       1.0000 0.26002  0.35553  0.99105  Biso   1.000  O
  O8       1.0000 0.24858  0.40087  0.24868  Biso   1.000  O
  Zr5      1.0000 0.12561  0.99943  0.62563  Biso   1.000  Zr
  Zr6      1.0000 0.12703  0.25384  0.87090  Biso   1.000  Zr
  Zr7      1.0000 0.37527  0.25165  0.62565  Biso   1.000  Zr
  Zr8      1.0000 0.37500  0.00260  0.87624  Biso   1.000  Zr
  O9       1.0000 0.99892  0.14695  0.50060  Biso   1.000  O
  O10      1.0000 0.00020  0.10445  0.74843  Biso   1.000  O
  O11      1.0000 0.99772  0.35670  0.75212  Biso   1.000  O
  O12      1.0000 0.00109  0.39780  0.50423  Biso   1.000  O
  O13      1.0000 0.25212  0.14693  0.75039  Biso   1.000  O
  O14      1.0000 0.25084  0.10440  0.50254  Biso   1.000  O
  O15      1.0000 0.25332  0.35659  0.49897  Biso   1.000  O
  O16      1.0000 0.24997  0.39781  0.74691  Biso   1.000  O
  Zr9      1.0000 0.12554  0.50386  0.12562  Biso   1.000  Zr
  Zr10     1.0000 0.12739  0.74824  0.37980  Biso   1.000  Zr
  Zr11     1.0000 0.37971  0.74824  0.12748  Biso   1.000  Zr
  Zr12     1.0000 0.37498  0.50047  0.37506  Biso   1.000  Zr
  O17      1.0000 0.00055  0.64823  0.00063  Biso   1.000  O
  O18      1.0000 0.00025  0.60219  0.25102  Biso   1.000  O
  O19      1.0000 0.00206  0.84685  0.24927  Biso   1.000  O
  O20      1.0000 0.99494  0.89307  0.99503  Biso   1.000  O
  O21      1.0000 0.25064  0.64800  0.25073  Biso   1.000  O
  O22      1.0000 0.25094  0.60219  0.00034  Biso   1.000  O
  O23      1.0000 0.24918  0.84685  0.00215  Biso   1.000  O
  O24      1.0000 0.25636  0.89268  0.25644  Biso   1.000  O
  Zr13     1.0000 0.12547  0.50195  0.62564  Biso   1.000  Zr
  Zr14     1.0000 0.12373  0.74839  0.87152  Biso   1.000  Zr
  Zr15     1.0000 0.37670  0.75131  0.62645  Biso   1.000  Zr
  Zr16     1.0000 0.37559  0.50016  0.87556  Biso   1.000  Zr
  O25      1.0000 0.99854  0.64679  0.50104  Biso   1.000  O
  O26      1.0000 0.00257  0.60512  0.75158  Biso   1.000  O
  O27      1.0000 0.00071  0.85436  0.74697  Biso   1.000  O
  O28      1.0000 0.00195  0.89738  0.49767  Biso   1.000  O
  O29      1.0000 0.25254  0.64681  0.75032  Biso   1.000  O
  O30      1.0000 0.24851  0.60502  0.49973  Biso   1.000  O
  O31      1.0000 0.25034  0.85428  0.50445  Biso   1.000  O
  O32      1.0000 0.24910  0.89740  0.75368  Biso   1.000  O
  Zr17     1.0000 0.62555  0.99943  0.12569  Biso   1.000  Zr
  Zr18     1.0000 0.62556  0.25165  0.37536  Biso   1.000  Zr
  Zr19     1.0000 0.87083  0.25384  0.12711  Biso   1.000  Zr
  Zr20     1.0000 0.87616  0.00260  0.37508  Biso   1.000  Zr
  O33      1.0000 0.50053  0.14695  0.99900  Biso   1.000  O
  O34      1.0000 0.50246  0.10440  0.25092  Biso   1.000  O
  O35      1.0000 0.49888  0.35659  0.25341  Biso   1.000  O
  O36      1.0000 0.50414  0.39779  0.00118  Biso   1.000  O
  O37      1.0000 0.75031  0.14693  0.25221  Biso   1.000  O
  O38      1.0000 0.74835  0.10444  0.00028  Biso   1.000  O
  O39      1.0000 0.75203  0.35670  0.99781  Biso   1.000  O
  O40      1.0000 0.74682  0.39781  0.25005  Biso   1.000  O
  Zr21     1.0000 0.62559  0.00236  0.62567  Biso   1.000  Zr
  Zr22     1.0000 0.62538  0.25162  0.87585  Biso   1.000  Zr
  Zr23     1.0000 0.87577  0.25162  0.62546  Biso   1.000  Zr
  Zr24     1.0000 0.87325  0.00409  0.87333  Biso   1.000  Zr
  O41      1.0000 0.50041  0.14870  0.50049  Biso   1.000  O
  O42      1.0000 0.50076  0.10423  0.75040  Biso   1.000  O
  O43      1.0000 0.49910  0.35396  0.75202  Biso   1.000  O
  O44      1.0000 0.50148  0.39883  0.50156  Biso   1.000  O
  O45      1.0000 0.75067  0.14875  0.75075  Biso   1.000  O
  O46      1.0000 0.75032  0.10423  0.50085  Biso   1.000  O
  O47      1.0000 0.75193  0.35396  0.49919  Biso   1.000  O
  O48      1.0000 0.74958  0.39885  0.74966  Biso   1.000  O
  Zr25     1.0000 0.62555  0.50195  0.12556  Biso   1.000  Zr
  Zr26     1.0000 0.62637  0.75131  0.37679  Biso   1.000  Zr
  Zr27     1.0000 0.87143  0.74839  0.12381  Biso   1.000  Zr
  Zr28     1.0000 0.87548  0.50016  0.37567  Biso   1.000  Zr
  O49      1.0000 0.50096  0.64679  0.99862  Biso   1.000  O
  O50      1.0000 0.49965  0.60502  0.24859  Biso   1.000  O
  O51      1.0000 0.50437  0.85428  0.25043  Biso   1.000  O
  O52      1.0000 0.49759  0.89738  0.00203  Biso   1.000  O
  O53      1.0000 0.75024  0.64681  0.25262  Biso   1.000  O
  O54      1.0000 0.75150  0.60512  0.00266  Biso   1.000  O
  O55      1.0000 0.74689  0.85436  0.00080  Biso   1.000  O
  O56      1.0000 0.75360  0.89740  0.24919  Biso   1.000  O
  Zr29     1.0000 0.62555  0.50116  0.62563  Biso   1.000  Zr
  Zr30     1.0000 0.62477  0.75141  0.87447  Biso   1.000  Zr
  Zr31     1.0000 0.87438  0.75141  0.62485  Biso   1.000  Zr
  Zr32     1.0000 0.87608  0.50054  0.87616  Biso   1.000  Zr
  O57      1.0000 0.49814  0.64894  0.49822  Biso   1.000  O
  O58      1.0000 0.50215  0.60498  0.74899  Biso   1.000  O
  O59      1.0000 0.50011  0.85509  0.75107  Biso   1.000  O
  O60      1.0000 0.50107  0.89877  0.50115  Biso   1.000  O
  O61      1.0000 0.75292  0.64898  0.75300  Biso   1.000  O
  O62      1.0000 0.74891  0.60498  0.50224  Biso   1.000  O
  O63      1.0000 0.75098  0.85509  0.50020  Biso   1.000  O
  O64      1.0000 0.75003  0.89883  0.75012  Biso   1.000  O
  Co1      1.0000 0.12527  0.19119  0.12534  Biso   1.000  Co
