data_image0
_cell_length_a       10.2146
_cell_length_b       10.4008
_cell_length_c       5.2665
_cell_angle_alpha    90.3176
_cell_angle_beta     79.9575
_cell_angle_gamma    90.3411

_symmetry_space_group_name_H-M    "P 1"
_symmetry_int_tables_number       1

loop_
  _symmetry_equiv_pos_as_xyz
  'x, y, z'

loop_
  _atom_site_label
  _atom_site_occupancy
  _atom_site_fract_x
  _atom_site_fract_y
  _atom_site_fract_z
  _atom_site_thermal_displace_type
  _atom_site_B_iso_or_equiv
  _atom_site_type_symbol
  Zr1      1.0000 0.13648  0.02274  0.29473  Biso   1.000  Zr
  Zr2      1.0000 0.13897  0.23343  0.78975  Biso   1.000  Zr
  Zr3      1.0000 0.35776  0.27750  0.21199  Biso   1.000  Zr
  Zr4      1.0000 0.35554  0.47607  0.70176  Biso   1.000  Zr
  O1       1.0000 0.03711  0.17000  0.15901  Biso   1.000  O
  O2       1.0000 0.03600  0.08216  0.65735  Biso   1.000  O
  O3       1.0000 0.46268  0.42424  0.33708  Biso   1.000  O
  O4       1.0000 0.47390  0.34211  0.85061  Biso   1.000  O
  O5       1.0000 0.28124  0.12983  0.48326  Biso   1.000  O
  O6       1.0000 0.28081  0.12376  0.97301  Biso   1.000  O
  O7       1.0000 0.22106  0.38221  0.01701  Biso   1.000  O
  O8       1.0000 0.21018  0.37828  0.50652  Biso   1.000  O
  Zr5      1.0000 0.13606  0.52446  0.28767  Biso   1.000  Zr
  Zr6      1.0000 0.13549  0.72846  0.79230  Biso   1.000  Zr
  Zr7      1.0000 0.35970  0.76875  0.20940  Biso   1.000  Zr
  Zr8      1.0000 0.35989  0.96744  0.71109  Biso   1.000  Zr
  O9       1.0000 0.03110  0.67157  0.15918  Biso   1.000  O
  O10      1.0000 0.03152  0.58482  0.65848  Biso   1.000  O
  O11      1.0000 0.46416  0.91718  0.34244  Biso   1.000  O
  O12      1.0000 0.46358  0.82637  0.84308  Biso   1.000  O
  O13      1.0000 0.27375  0.62941  0.48130  Biso   1.000  O
  O14      1.0000 0.27214  0.62232  0.98008  Biso   1.000  O
  O15      1.0000 0.22287  0.87941  0.02210  Biso   1.000  O
  O16      1.0000 0.22128  0.86949  0.51813  Biso   1.000  O
  Zr9      1.0000 0.63885  0.02128  0.29199  Biso   1.000  Zr
  Zr10     1.0000 0.64482  0.22889  0.80154  Biso   1.000  Zr
  Zr11     1.0000 0.86202  0.27272  0.21354  Biso   1.000  Zr
  Zr12     1.0000 0.86015  0.47914  0.71220  Biso   1.000  Zr
  O17      1.0000 0.53411  0.17013  0.16902  Biso   1.000  O
  O18      1.0000 0.54019  0.07237  0.67562  Biso   1.000  O
  O19      1.0000 0.96150  0.42197  0.34005  Biso   1.000  O
  O20      1.0000 0.96327  0.33383  0.84233  Biso   1.000  O
  O21      1.0000 0.77668  0.12944  0.48309  Biso   1.000  O
  O22      1.0000 0.77787  0.12064  0.98637  Biso   1.000  O
  O23      1.0000 0.72492  0.37883  0.02672  Biso   1.000  O
  O24      1.0000 0.72379  0.37116  0.52449  Biso   1.000  O
  Zr13     1.0000 0.63824  0.52299  0.29560  Biso   1.000  Zr
  Zr14     1.0000 0.63790  0.72656  0.79245  Biso   1.000  Zr
  Zr15     1.0000 0.85874  0.77269  0.20988  Biso   1.000  Zr
  Zr16     1.0000 0.86068  0.97894  0.71031  Biso   1.000  Zr
  O25      1.0000 0.53458  0.66899  0.16199  Biso   1.000  O
  O26      1.0000 0.53294  0.58209  0.65986  Biso   1.000  O
  O27      1.0000 0.96481  0.92047  0.33964  Biso   1.000  O
  O28      1.0000 0.96312  0.83352  0.84126  Biso   1.000  O
  O29      1.0000 0.77483  0.63009  0.48332  Biso   1.000  O
  O30      1.0000 0.77417  0.62178  0.98347  Biso   1.000  O
  O31      1.0000 0.72267  0.87982  0.02110  Biso   1.000  O
  O32      1.0000 0.72377  0.87167  0.52068  Biso   1.000  O
  Co1      1.0000 0.40344  0.20806  0.67618  Biso   1.000  Co
