data_image0
_cell_length_a       10.0574
_cell_length_b       10.2402
_cell_length_c       5.22791
_cell_angle_alpha    89.9881
_cell_angle_beta     90.9242
_cell_angle_gamma    89.3168

_symmetry_space_group_name_H-M    "P 1"
_symmetry_int_tables_number       1

loop_
  _symmetry_equiv_pos_as_xyz
  'x, y, z'

loop_
  _atom_site_label
  _atom_site_occupancy
  _atom_site_fract_x
  _atom_site_fract_y
  _atom_site_fract_z
  _atom_site_thermal_displace_type
  _atom_site_B_iso_or_equiv
  _atom_site_type_symbol
  Co1      1.0000 0.11859  0.01230  0.38584  Biso   1.000  Co
  Zr1      1.0000 0.14008  0.52295  0.34522  Biso   1.000  Zr
  Zr2      1.0000 0.14639  0.22636  0.83316  Biso   1.000  Zr
  Zr3      1.0000 0.13757  0.73430  0.84498  Biso   1.000  Zr
  Zr4      1.0000 0.35869  0.26990  0.33301  Biso   1.000  Zr
  Zr5      1.0000 0.35503  0.77971  0.33574  Biso   1.000  Zr
  Zr6      1.0000 0.36064  0.48026  0.84290  Biso   1.000  Zr
  Zr7      1.0000 0.35605  0.98378  0.83607  Biso   1.000  Zr
  Zr8      1.0000 0.63658  0.02168  0.15455  Biso   1.000  Zr
  Zr9      1.0000 0.63903  0.52011  0.16288  Biso   1.000  Zr
  Zr10     1.0000 0.63907  0.23018  0.65981  Biso   1.000  Zr
  Zr11     1.0000 0.63454  0.72792  0.65794  Biso   1.000  Zr
  Zr12     1.0000 0.86936  0.26415  0.17088  Biso   1.000  Zr
  Zr13     1.0000 0.86014  0.76986  0.16274  Biso   1.000  Zr
  Zr14     1.0000 0.86396  0.47659  0.66903  Biso   1.000  Zr
  Zr15     1.0000 0.85556  0.97704  0.66296  Biso   1.000  Zr
  O1       1.0000 0.05061  0.14480  0.17673  Biso   1.000  O
  O2       1.0000 0.03252  0.66634  0.17243  Biso   1.000  O
  O3       1.0000 0.03404  0.08042  0.65581  Biso   1.000  O
  O4       1.0000 0.03405  0.58302  0.67769  Biso   1.000  O
  O5       1.0000 0.46563  0.41952  0.17217  Biso   1.000  O
  O6       1.0000 0.46568  0.91916  0.16418  Biso   1.000  O
  O7       1.0000 0.46700  0.33270  0.67018  Biso   1.000  O
  O8       1.0000 0.45934  0.83305  0.66776  Biso   1.000  O
  O9       1.0000 0.26256  0.11524  0.54297  Biso   1.000  O
  O10      1.0000 0.27436  0.62891  0.58925  Biso   1.000  O
  O11      1.0000 0.30377  0.14947  0.03261  Biso   1.000  O
  O12      1.0000 0.27593  0.63188  0.08891  Biso   1.000  O
  O13      1.0000 0.22606  0.37354  0.59109  Biso   1.000  O
  O14      1.0000 0.20968  0.88039  0.58000  Biso   1.000  O
  O15      1.0000 0.21994  0.38210  0.08864  Biso   1.000  O
  O16      1.0000 0.21803  0.88994  0.08956  Biso   1.000  O
  O17      1.0000 0.53675  0.17105  0.32319  Biso   1.000  O
  O18      1.0000 0.53177  0.67040  0.32501  Biso   1.000  O
  O19      1.0000 0.53803  0.07811  0.81459  Biso   1.000  O
  O20      1.0000 0.53434  0.58109  0.82737  Biso   1.000  O
  O21      1.0000 0.97195  0.40969  0.34524  Biso   1.000  O
  O22      1.0000 0.96970  0.91645  0.33898  Biso   1.000  O
  O23      1.0000 0.97020  0.32617  0.84742  Biso   1.000  O
  O24      1.0000 0.96271  0.83355  0.83701  Biso   1.000  O
  O25      1.0000 0.77986  0.12201  0.91476  Biso   1.000  O
  O26      1.0000 0.77632  0.62302  0.91728  Biso   1.000  O
  O27      1.0000 0.77817  0.12420  0.41187  Biso   1.000  O
  O28      1.0000 0.77591  0.62388  0.41794  Biso   1.000  O
  O29      1.0000 0.72899  0.37173  0.92071  Biso   1.000  O
  O30      1.0000 0.72078  0.87185  0.91192  Biso   1.000  O
  O31      1.0000 0.72898  0.37383  0.41667  Biso   1.000  O
  O32      1.0000 0.72506  0.87546  0.41236  Biso   1.000  O
