data_image0
_cell_length_a       5.06626
_cell_length_b       10.2514
_cell_length_c       10.4934
_cell_angle_alpha    90.0935
_cell_angle_beta     81.1276
_cell_angle_gamma    89.2175

_symmetry_space_group_name_H-M    "P 1"
_symmetry_int_tables_number       1

loop_
  _symmetry_equiv_pos_as_xyz
  'x, y, z'

loop_
  _atom_site_label
  _atom_site_occupancy
  _atom_site_fract_x
  _atom_site_fract_y
  _atom_site_fract_z
  _atom_site_thermal_displace_type
  _atom_site_B_iso_or_equiv
  _atom_site_type_symbol
  Co1      1.0000 0.23961  0.01081  0.16995  Biso   1.000  Co
  Zr1      1.0000 0.27286  0.02088  0.64298  Biso   1.000  Zr
  Zr2      1.0000 0.27572  0.52213  0.14445  Biso   1.000  Zr
  Zr3      1.0000 0.28032  0.52072  0.64793  Biso   1.000  Zr
  Zr4      1.0000 0.27596  0.22840  0.38814  Biso   1.000  Zr
  Zr5      1.0000 0.29239  0.22506  0.89647  Biso   1.000  Zr
  Zr6      1.0000 0.27019  0.72780  0.39619  Biso   1.000  Zr
  Zr7      1.0000 0.27352  0.73430  0.89798  Biso   1.000  Zr
  Zr8      1.0000 0.73373  0.26192  0.10489  Biso   1.000  Zr
  Zr9      1.0000 0.72278  0.27187  0.60384  Biso   1.000  Zr
  Zr10     1.0000 0.70996  0.77864  0.10386  Biso   1.000  Zr
  Zr11     1.0000 0.71821  0.77052  0.60742  Biso   1.000  Zr
  Zr12     1.0000 0.72161  0.47918  0.35403  Biso   1.000  Zr
  Zr13     1.0000 0.73018  0.47810  0.85925  Biso   1.000  Zr
  Zr14     1.0000 0.70711  0.97713  0.35256  Biso   1.000  Zr
  Zr15     1.0000 0.72203  0.98486  0.85548  Biso   1.000  Zr
  O1       1.0000 0.10047  0.14701  0.08450  Biso   1.000  O
  O2       1.0000 0.06634  0.16265  0.56873  Biso   1.000  O
  O3       1.0000 0.06461  0.67017  0.08053  Biso   1.000  O
  O4       1.0000 0.06732  0.66582  0.57871  Biso   1.000  O
  O5       1.0000 0.05927  0.08136  0.32013  Biso   1.000  O
  O6       1.0000 0.07676  0.08446  0.82477  Biso   1.000  O
  O7       1.0000 0.07200  0.57917  0.33002  Biso   1.000  O
  O8       1.0000 0.07148  0.58644  0.83016  Biso   1.000  O
  O9       1.0000 0.93906  0.41285  0.17371  Biso   1.000  O
  O10      1.0000 0.93787  0.41264  0.67677  Biso   1.000  O
  O11      1.0000 0.93929  0.91692  0.17291  Biso   1.000  O
  O12      1.0000 0.92894  0.91636  0.67137  Biso   1.000  O
  O13      1.0000 0.93071  0.33323  0.42192  Biso   1.000  O
  O14      1.0000 0.95399  0.33731  0.93239  Biso   1.000  O
  O15      1.0000 0.92024  0.83125  0.42069  Biso   1.000  O
  O16      1.0000 0.91720  0.83336  0.92315  Biso   1.000  O
  O17      1.0000 0.52414  0.11461  0.22594  Biso   1.000  O
  O18      1.0000 0.55158  0.12748  0.73129  Biso   1.000  O
  O19      1.0000 0.54990  0.63229  0.24128  Biso   1.000  O
  O20      1.0000 0.55332  0.62836  0.74275  Biso   1.000  O
  O21      1.0000 0.55346  0.12262  0.48155  Biso   1.000  O
  O22      1.0000 0.60272  0.14074  0.96973  Biso   1.000  O
  O23      1.0000 0.55076  0.62033  0.49215  Biso   1.000  O
  O24      1.0000 0.55088  0.62765  0.99189  Biso   1.000  O
  O25      1.0000 0.46165  0.38170  0.01215  Biso   1.000  O
  O26      1.0000 0.44534  0.37777  0.50900  Biso   1.000  O
  O27      1.0000 0.43559  0.90031  0.01814  Biso   1.000  O
  O28      1.0000 0.44163  0.87781  0.50865  Biso   1.000  O
  O29      1.0000 0.46008  0.36625  0.25823  Biso   1.000  O
  O30      1.0000 0.45695  0.37100  0.76215  Biso   1.000  O
  O31      1.0000 0.42389  0.87589  0.25766  Biso   1.000  O
  O32      1.0000 0.44633  0.87183  0.76154  Biso   1.000  O
