data_image0
_cell_length_a       10.1579
_cell_length_b       10.3055
_cell_length_c       10.4953
_cell_angle_alpha    90.0362
_cell_angle_beta     80.7299
_cell_angle_gamma    89.623

_symmetry_space_group_name_H-M    "P 1"
_symmetry_int_tables_number       1

loop_
  _symmetry_equiv_pos_as_xyz
  'x, y, z'

loop_
  _atom_site_label
  _atom_site_occupancy
  _atom_site_fract_x
  _atom_site_fract_y
  _atom_site_fract_z
  _atom_site_thermal_displace_type
  _atom_site_B_iso_or_equiv
  _atom_site_type_symbol
  Co1      1.0000 0.12014  0.01133  0.17168  Biso   1.000  Co
  Zr1      1.0000 0.13711  0.02064  0.64208  Biso   1.000  Zr
  Zr2      1.0000 0.14035  0.52275  0.14530  Biso   1.000  Zr
  Zr3      1.0000 0.14021  0.52113  0.64624  Biso   1.000  Zr
  Zr4      1.0000 0.63783  0.02191  0.14486  Biso   1.000  Zr
  Zr5      1.0000 0.63793  0.02154  0.64650  Biso   1.000  Zr
  Zr6      1.0000 0.63661  0.52064  0.14416  Biso   1.000  Zr
  Zr7      1.0000 0.63869  0.52125  0.64672  Biso   1.000  Zr
  Zr8      1.0000 0.13904  0.22880  0.38928  Biso   1.000  Zr
  Zr9      1.0000 0.14463  0.22307  0.89526  Biso   1.000  Zr
  Zr10     1.0000 0.13658  0.72864  0.39604  Biso   1.000  Zr
  Zr11     1.0000 0.13960  0.73356  0.89594  Biso   1.000  Zr
  Zr12     1.0000 0.63850  0.22872  0.39509  Biso   1.000  Zr
  Zr13     1.0000 0.64057  0.23051  0.89655  Biso   1.000  Zr
  Zr14     1.0000 0.63736  0.72813  0.39512  Biso   1.000  Zr
  Zr15     1.0000 0.63666  0.72922  0.89716  Biso   1.000  Zr
  Zr16     1.0000 0.35832  0.26769  0.10157  Biso   1.000  Zr
  Zr17     1.0000 0.36058  0.27196  0.60330  Biso   1.000  Zr
  Zr18     1.0000 0.35458  0.77899  0.10303  Biso   1.000  Zr
  Zr19     1.0000 0.36126  0.77248  0.60468  Biso   1.000  Zr
  Zr20     1.0000 0.86866  0.26570  0.10807  Biso   1.000  Zr
  Zr21     1.0000 0.86154  0.27122  0.60502  Biso   1.000  Zr
  Zr22     1.0000 0.86174  0.77066  0.10444  Biso   1.000  Zr
  Zr23     1.0000 0.85899  0.76953  0.60706  Biso   1.000  Zr
  Zr24     1.0000 0.36163  0.47937  0.35370  Biso   1.000  Zr
  Zr25     1.0000 0.36120  0.48000  0.85527  Biso   1.000  Zr
  Zr26     1.0000 0.35793  0.97984  0.35063  Biso   1.000  Zr
  Zr27     1.0000 0.36030  0.98384  0.85555  Biso   1.000  Zr
  Zr28     1.0000 0.86048  0.47866  0.35456  Biso   1.000  Zr
  Zr29     1.0000 0.86503  0.47656  0.85809  Biso   1.000  Zr
  Zr30     1.0000 0.85688  0.97644  0.35738  Biso   1.000  Zr
  Zr31     1.0000 0.86126  0.97950  0.85473  Biso   1.000  Zr
  O1       1.0000 0.04907  0.14854  0.08706  Biso   1.000  O
  O2       1.0000 0.03342  0.16373  0.57120  Biso   1.000  O
  O3       1.0000 0.03545  0.66922  0.08067  Biso   1.000  O
  O4       1.0000 0.03423  0.66663  0.57988  Biso   1.000  O
  O5       1.0000 0.53663  0.16963  0.07986  Biso   1.000  O
  O6       1.0000 0.53548  0.16941  0.57896  Biso   1.000  O
  O7       1.0000 0.53298  0.67005  0.07973  Biso   1.000  O
  O8       1.0000 0.53538  0.66913  0.57887  Biso   1.000  O
  O9       1.0000 0.03480  0.07708  0.32449  Biso   1.000  O
  O10      1.0000 0.03471  0.08281  0.82635  Biso   1.000  O
  O11      1.0000 0.03542  0.58005  0.33028  Biso   1.000  O
  O12      1.0000 0.03697  0.58261  0.83178  Biso   1.000  O
  O13      1.0000 0.53255  0.08286  0.32847  Biso   1.000  O
  O14      1.0000 0.53945  0.08140  0.82985  Biso   1.000  O
  O15      1.0000 0.53649  0.57946  0.33008  Biso   1.000  O
  O16      1.0000 0.53426  0.58431  0.82823  Biso   1.000  O
  O17      1.0000 0.46389  0.41854  0.17013  Biso   1.000  O
  O18      1.0000 0.46467  0.41882  0.67049  Biso   1.000  O
  O19      1.0000 0.46356  0.91833  0.17123  Biso   1.000  O
  O20      1.0000 0.46436  0.92003  0.66940  Biso   1.000  O
  O21      1.0000 0.96904  0.41502  0.17192  Biso   1.000  O
  O22      1.0000 0.96811  0.41411  0.67456  Biso   1.000  O
  O23      1.0000 0.97082  0.91722  0.17359  Biso   1.000  O
  O24      1.0000 0.96413  0.91631  0.67111  Biso   1.000  O
  O25      1.0000 0.46496  0.33235  0.42024  Biso   1.000  O
  O26      1.0000 0.47104  0.33895  0.92237  Biso   1.000  O
  O27      1.0000 0.46271  0.83134  0.41799  Biso   1.000  O
  O28      1.0000 0.46050  0.83260  0.92057  Biso   1.000  O
  O29      1.0000 0.96387  0.32997  0.41952  Biso   1.000  O
  O30      1.0000 0.96996  0.32821  0.92881  Biso   1.000  O
  O31      1.0000 0.96200  0.83022  0.42237  Biso   1.000  O
  O32      1.0000 0.96331  0.83174  0.92204  Biso   1.000  O
  O33      1.0000 0.26296  0.11924  0.22808  Biso   1.000  O
  O34      1.0000 0.27397  0.12695  0.73228  Biso   1.000  O
  O35      1.0000 0.27502  0.63394  0.24118  Biso   1.000  O
  O36      1.0000 0.27600  0.62995  0.74035  Biso   1.000  O
  O37      1.0000 0.77608  0.12570  0.24135  Biso   1.000  O
  O38      1.0000 0.77777  0.12973  0.74014  Biso   1.000  O
  O39      1.0000 0.77585  0.62802  0.24026  Biso   1.000  O
  O40      1.0000 0.77663  0.62755  0.74265  Biso   1.000  O
  O41      1.0000 0.27625  0.12327  0.48315  Biso   1.000  O
  O42      1.0000 0.29751  0.13943  0.96955  Biso   1.000  O
  O43      1.0000 0.27585  0.62127  0.49087  Biso   1.000  O
  O44      1.0000 0.27559  0.62612  0.99057  Biso   1.000  O
  O45      1.0000 0.77610  0.12022  0.49065  Biso   1.000  O
  O46      1.0000 0.77856  0.12096  0.99210  Biso   1.000  O
  O47      1.0000 0.77556  0.62034  0.49136  Biso   1.000  O
  O48      1.0000 0.77637  0.62145  0.99149  Biso   1.000  O
  O49      1.0000 0.22436  0.38264  0.00908  Biso   1.000  O
  O50      1.0000 0.22259  0.37873  0.50787  Biso   1.000  O
  O51      1.0000 0.21921  0.89663  0.01501  Biso   1.000  O
  O52      1.0000 0.22327  0.87913  0.50710  Biso   1.000  O
  O53      1.0000 0.72981  0.37725  0.01197  Biso   1.000  O
  O54      1.0000 0.72410  0.37828  0.51030  Biso   1.000  O
  O55      1.0000 0.72299  0.87945  0.01029  Biso   1.000  O
  O56      1.0000 0.72148  0.87764  0.51047  Biso   1.000  O
  O57      1.0000 0.22615  0.36977  0.25842  Biso   1.000  O
  O58      1.0000 0.22595  0.36961  0.75996  Biso   1.000  O
  O59      1.0000 0.21009  0.87721  0.25689  Biso   1.000  O
  O60      1.0000 0.22373  0.87195  0.75934  Biso   1.000  O
  O61      1.0000 0.72719  0.36842  0.25909  Biso   1.000  O
  O62      1.0000 0.72632  0.37241  0.76126  Biso   1.000  O
  O63      1.0000 0.72686  0.87081  0.25907  Biso   1.000  O
  O64      1.0000 0.72344  0.87098  0.76067  Biso   1.000  O
