data_image0
_cell_length_a       10.0706
_cell_length_b       10.2883
_cell_length_c       10.472
_cell_angle_alpha    89.9455
_cell_angle_beta     90.4968
_cell_angle_gamma    89.7033

_symmetry_space_group_name_H-M    "P 1"
_symmetry_int_tables_number       1

loop_
  _symmetry_equiv_pos_as_xyz
  'x, y, z'

loop_
  _atom_site_label
  _atom_site_occupancy
  _atom_site_fract_x
  _atom_site_fract_y
  _atom_site_fract_z
  _atom_site_thermal_displace_type
  _atom_site_B_iso_or_equiv
  _atom_site_type_symbol
  Co1      1.0000 0.11817  0.01564  0.19775  Biso   1.000  Co
  Zr1      1.0000 0.13784  0.02058  0.66714  Biso   1.000  Zr
  Zr2      1.0000 0.13962  0.52265  0.17042  Biso   1.000  Zr
  Zr3      1.0000 0.13921  0.52092  0.67236  Biso   1.000  Zr
  Zr4      1.0000 0.13955  0.23190  0.41586  Biso   1.000  Zr
  Zr5      1.0000 0.14642  0.22334  0.92284  Biso   1.000  Zr
  Zr6      1.0000 0.13569  0.72945  0.42055  Biso   1.000  Zr
  Zr7      1.0000 0.14138  0.73382  0.92126  Biso   1.000  Zr
  Zr8      1.0000 0.35854  0.26901  0.16709  Biso   1.000  Zr
  Zr9      1.0000 0.36121  0.27154  0.66973  Biso   1.000  Zr
  Zr10     1.0000 0.35517  0.77813  0.16735  Biso   1.000  Zr
  Zr11     1.0000 0.36154  0.77153  0.66994  Biso   1.000  Zr
  Zr12     1.0000 0.36033  0.48031  0.42050  Biso   1.000  Zr
  Zr13     1.0000 0.36144  0.47885  0.92124  Biso   1.000  Zr
  Zr14     1.0000 0.35648  0.98170  0.41640  Biso   1.000  Zr
  Zr15     1.0000 0.36081  0.98105  0.92111  Biso   1.000  Zr
  Zr16     1.0000 0.63982  0.02202  0.07732  Biso   1.000  Zr
  Zr17     1.0000 0.63531  0.02063  0.57953  Biso   1.000  Zr
  Zr18     1.0000 0.63868  0.52086  0.07958  Biso   1.000  Zr
  Zr19     1.0000 0.63909  0.52048  0.58092  Biso   1.000  Zr
  Zr20     1.0000 0.63705  0.22967  0.32890  Biso   1.000  Zr
  Zr21     1.0000 0.64062  0.22985  0.83030  Biso   1.000  Zr
  Zr22     1.0000 0.63397  0.72812  0.32768  Biso   1.000  Zr
  Zr23     1.0000 0.63957  0.72920  0.83023  Biso   1.000  Zr
  Zr24     1.0000 0.86866  0.26622  0.08469  Biso   1.000  Zr
  Zr25     1.0000 0.86075  0.27000  0.57993  Biso   1.000  Zr
  Zr26     1.0000 0.86341  0.77128  0.07955  Biso   1.000  Zr
  Zr27     1.0000 0.85861  0.76950  0.58104  Biso   1.000  Zr
  Zr28     1.0000 0.86003  0.47972  0.33015  Biso   1.000  Zr
  Zr29     1.0000 0.86532  0.47618  0.83361  Biso   1.000  Zr
  Zr30     1.0000 0.85440  0.97695  0.33238  Biso   1.000  Zr
  Zr31     1.0000 0.86240  0.97994  0.82937  Biso   1.000  Zr
  O1       1.0000 0.05016  0.15181  0.09901  Biso   1.000  O
  O2       1.0000 0.03193  0.16308  0.57721  Biso   1.000  O
  O3       1.0000 0.03510  0.66966  0.08685  Biso   1.000  O
  O4       1.0000 0.03209  0.66554  0.58525  Biso   1.000  O
  O5       1.0000 0.03386  0.07708  0.33524  Biso   1.000  O
  O6       1.0000 0.03462  0.08426  0.83268  Biso   1.000  O
  O7       1.0000 0.03260  0.58204  0.33612  Biso   1.000  O
  O8       1.0000 0.03548  0.58278  0.83776  Biso   1.000  O
  O9       1.0000 0.46644  0.41794  0.08600  Biso   1.000  O
  O10      1.0000 0.46515  0.41981  0.58586  Biso   1.000  O
  O11      1.0000 0.46940  0.91766  0.08389  Biso   1.000  O
  O12      1.0000 0.46292  0.91939  0.58389  Biso   1.000  O
  O13      1.0000 0.46342  0.32939  0.33777  Biso   1.000  O
  O14      1.0000 0.46821  0.33350  0.83427  Biso   1.000  O
  O15      1.0000 0.45876  0.83273  0.33428  Biso   1.000  O
  O16      1.0000 0.46691  0.83223  0.83443  Biso   1.000  O
  O17      1.0000 0.26262  0.11867  0.28081  Biso   1.000  O
  O18      1.0000 0.27564  0.12195  0.78627  Biso   1.000  O
  O19      1.0000 0.27373  0.62903  0.29401  Biso   1.000  O
  O20      1.0000 0.27679  0.62412  0.79402  Biso   1.000  O
  O21      1.0000 0.30062  0.14318  0.02616  Biso   1.000  O
  O22      1.0000 0.27584  0.12834  0.53759  Biso   1.000  O
  O23      1.0000 0.27687  0.62940  0.04365  Biso   1.000  O
  O24      1.0000 0.27467  0.62607  0.54436  Biso   1.000  O
  O25      1.0000 0.22430  0.37586  0.29428  Biso   1.000  O
  O26      1.0000 0.22539  0.37228  0.79551  Biso   1.000  O
  O27      1.0000 0.21007  0.88139  0.28953  Biso   1.000  O
  O28      1.0000 0.22412  0.87386  0.79250  Biso   1.000  O
  O29      1.0000 0.22157  0.38055  0.04496  Biso   1.000  O
  O30      1.0000 0.22240  0.37610  0.54343  Biso   1.000  O
  O31      1.0000 0.22329  0.88410  0.04329  Biso   1.000  O
  O32      1.0000 0.22260  0.87652  0.54142  Biso   1.000  O
  O33      1.0000 0.53638  0.16922  0.16323  Biso   1.000  O
  O34      1.0000 0.53458  0.16988  0.66260  Biso   1.000  O
  O35      1.0000 0.53115  0.66954  0.16294  Biso   1.000  O
  O36      1.0000 0.53522  0.66895  0.66324  Biso   1.000  O
  O37      1.0000 0.53143  0.08103  0.41152  Biso   1.000  O
  O38      1.0000 0.53973  0.07970  0.91032  Biso   1.000  O
  O39      1.0000 0.53294  0.58171  0.41344  Biso   1.000  O
  O40      1.0000 0.53554  0.58126  0.91373  Biso   1.000  O
  O41      1.0000 0.96818  0.41620  0.16679  Biso   1.000  O
  O42      1.0000 0.96885  0.41237  0.66943  Biso   1.000  O
  O43      1.0000 0.97205  0.91954  0.17035  Biso   1.000  O
  O44      1.0000 0.96603  0.91533  0.66546  Biso   1.000  O
  O45      1.0000 0.96443  0.33077  0.41374  Biso   1.000  O
  O46      1.0000 0.97164  0.32833  0.92410  Biso   1.000  O
  O47      1.0000 0.96209  0.83172  0.41618  Biso   1.000  O
  O48      1.0000 0.96664  0.83364  0.91672  Biso   1.000  O
  O49      1.0000 0.78098  0.12401  0.95724  Biso   1.000  O
  O50      1.0000 0.77401  0.12283  0.45598  Biso   1.000  O
  O51      1.0000 0.77850  0.62417  0.95809  Biso   1.000  O
  O52      1.0000 0.77402  0.62380  0.45632  Biso   1.000  O
  O53      1.0000 0.77836  0.12421  0.20657  Biso   1.000  O
  O54      1.0000 0.77618  0.12589  0.70537  Biso   1.000  O
  O55      1.0000 0.77443  0.62571  0.20638  Biso   1.000  O
  O56      1.0000 0.77754  0.62422  0.70808  Biso   1.000  O
  O57      1.0000 0.72872  0.37267  0.95870  Biso   1.000  O
  O58      1.0000 0.72368  0.37393  0.45709  Biso   1.000  O
  O59      1.0000 0.72582  0.87403  0.95583  Biso   1.000  O
  O60      1.0000 0.71912  0.87266  0.45591  Biso   1.000  O
  O61      1.0000 0.72643  0.37378  0.20647  Biso   1.000  O
  O62      1.0000 0.72593  0.37610  0.70751  Biso   1.000  O
  O63      1.0000 0.72719  0.87549  0.20573  Biso   1.000  O
  O64      1.0000 0.72356  0.87594  0.70597  Biso   1.000  O
