data_image0
_cell_length_a       10.029
_cell_length_b       10.1924
_cell_length_c       5.01712
_cell_angle_alpha    89.9952
_cell_angle_beta     88.5383
_cell_angle_gamma    90.0023

_symmetry_space_group_name_H-M    "P 1"
_symmetry_int_tables_number       1

loop_
  _symmetry_equiv_pos_as_xyz
  'x, y, z'

loop_
  _atom_site_label
  _atom_site_occupancy
  _atom_site_fract_x
  _atom_site_fract_y
  _atom_site_fract_z
  _atom_site_thermal_displace_type
  _atom_site_B_iso_or_equiv
  _atom_site_type_symbol
  Co1      1.0000 0.12558  0.96715  0.24985  Biso   1.000  Co
  Zr1      1.0000 0.12560  0.50616  0.24987  Biso   1.000  Zr
  Zr2      1.0000 0.62555  0.99968  0.24987  Biso   1.000  Zr
  Zr3      1.0000 0.62561  0.49464  0.24982  Biso   1.000  Zr
  Zr4      1.0000 0.12562  0.25883  0.74991  Biso   1.000  Zr
  Zr5      1.0000 0.12561  0.75679  0.74982  Biso   1.000  Zr
  Zr6      1.0000 0.62560  0.24554  0.74988  Biso   1.000  Zr
  Zr7      1.0000 0.62562  0.75016  0.74978  Biso   1.000  Zr
  Zr8      1.0000 0.36953  0.24781  0.26796  Biso   1.000  Zr
  Zr9      1.0000 0.38076  0.74979  0.25472  Biso   1.000  Zr
  Zr10     1.0000 0.88170  0.24779  0.23178  Biso   1.000  Zr
  Zr11     1.0000 0.87048  0.74982  0.24486  Biso   1.000  Zr
  Zr12     1.0000 0.36942  0.00324  0.77638  Biso   1.000  Zr
  Zr13     1.0000 0.37854  0.49728  0.75602  Biso   1.000  Zr
  Zr14     1.0000 0.88172  0.00324  0.72333  Biso   1.000  Zr
  Zr15     1.0000 0.87267  0.49726  0.74365  Biso   1.000  Zr
  O1       1.0000 0.97194  0.16122  0.91170  Biso   1.000  O
  O2       1.0000 0.00180  0.65334  0.00114  Biso   1.000  O
  O3       1.0000 0.48609  0.14278  0.00495  Biso   1.000  O
  O4       1.0000 0.50068  0.64134  0.00072  Biso   1.000  O
  O5       1.0000 0.02204  0.09094  0.42428  Biso   1.000  O
  O6       1.0000 0.99990  0.60647  0.50427  Biso   1.000  O
  O7       1.0000 0.51357  0.10181  0.51458  Biso   1.000  O
  O8       1.0000 0.50108  0.60399  0.49916  Biso   1.000  O
  O9       1.0000 0.99896  0.35251  0.49122  Biso   1.000  O
  O10      1.0000 0.00368  0.85466  0.47804  Biso   1.000  O
  O11      1.0000 0.49848  0.35260  0.50096  Biso   1.000  O
  O12      1.0000 0.48909  0.85310  0.52678  Biso   1.000  O
  O13      1.0000 0.00409  0.40352  0.99628  Biso   1.000  O
  O14      1.0000 0.01187  0.91422  0.98893  Biso   1.000  O
  O15      1.0000 0.50394  0.39172  0.99753  Biso   1.000  O
  O16      1.0000 0.50375  0.89084  0.01688  Biso   1.000  O
  O17      1.0000 0.27921  0.16121  0.58791  Biso   1.000  O
  O18      1.0000 0.24949  0.65334  0.49871  Biso   1.000  O
  O19      1.0000 0.76506  0.14278  0.49474  Biso   1.000  O
  O20      1.0000 0.75058  0.64134  0.49893  Biso   1.000  O
  O21      1.0000 0.22909  0.09096  0.07528  Biso   1.000  O
  O22      1.0000 0.25138  0.60647  0.99557  Biso   1.000  O
  O23      1.0000 0.73759  0.10178  0.98510  Biso   1.000  O
  O24      1.0000 0.75018  0.60398  0.00050  Biso   1.000  O
  O25      1.0000 0.25226  0.35252  0.00850  Biso   1.000  O
  O26      1.0000 0.24750  0.85467  0.02170  Biso   1.000  O
  O27      1.0000 0.75272  0.35258  0.99876  Biso   1.000  O
  O28      1.0000 0.76213  0.85308  0.97277  Biso   1.000  O
  O29      1.0000 0.24713  0.40353  0.50345  Biso   1.000  O
  O30      1.0000 0.23929  0.91423  0.51080  Biso   1.000  O
  O31      1.0000 0.74729  0.39172  0.50217  Biso   1.000  O
  O32      1.0000 0.74744  0.89085  0.48268  Biso   1.000  O
