data_image0
_cell_length_a       10.1064
_cell_length_b       5.18491
_cell_length_c       10.5289
_cell_angle_alpha    89.9166
_cell_angle_beta     90.3098
_cell_angle_gamma    90.2928

_symmetry_space_group_name_H-M    "P 1"
_symmetry_int_tables_number       1

loop_
  _symmetry_equiv_pos_as_xyz
  'x, y, z'

loop_
  _atom_site_label
  _atom_site_occupancy
  _atom_site_fract_x
  _atom_site_fract_y
  _atom_site_fract_z
  _atom_site_thermal_displace_type
  _atom_site_B_iso_or_equiv
  _atom_site_type_symbol
  Zr1      1.0000 0.13780  0.04127  0.17173  Biso   1.000  Zr
  Zr2      1.0000 0.13838  0.45513  0.42324  Biso   1.000  Zr
  Zr3      1.0000 0.35509  0.54718  0.17590  Biso   1.000  Zr
  Zr4      1.0000 0.36177  0.95651  0.42304  Biso   1.000  Zr
  Zr5      1.0000 0.64482  0.07201  0.07495  Biso   1.000  Zr
  Zr6      1.0000 0.63982  0.45562  0.33426  Biso   1.000  Zr
  Zr7      1.0000 0.86197  0.53716  0.07837  Biso   1.000  Zr
  Zr8      1.0000 0.86230  0.95437  0.32940  Biso   1.000  Zr
  O1       1.0000 0.03418  0.32589  0.08382  Biso   1.000  O
  O2       1.0000 0.03277  0.16386  0.33600  Biso   1.000  O
  O3       1.0000 0.46245  0.85123  0.09013  Biso   1.000  O
  O4       1.0000 0.46701  0.66683  0.33683  Biso   1.000  O
  O5       1.0000 0.27360  0.24949  0.29660  Biso   1.000  O
  O6       1.0000 0.27614  0.25180  0.04511  Biso   1.000  O
  O7       1.0000 0.22274  0.74975  0.29766  Biso   1.000  O
  O8       1.0000 0.22226  0.75129  0.04555  Biso   1.000  O
  O9       1.0000 0.52514  0.32309  0.17317  Biso   1.000  O
  O10      1.0000 0.53349  0.16699  0.41830  Biso   1.000  O
  O11      1.0000 0.96643  0.82884  0.16845  Biso   1.000  O
  O12      1.0000 0.96726  0.66300  0.41710  Biso   1.000  O
  O13      1.0000 0.77616  0.24574  0.45707  Biso   1.000  O
  O14      1.0000 0.77889  0.25073  0.21137  Biso   1.000  O
  O15      1.0000 0.72505  0.74642  0.45657  Biso   1.000  O
  O16      1.0000 0.72071  0.75046  0.20299  Biso   1.000  O
  Zr9      1.0000 0.14124  0.03917  0.67119  Biso   1.000  Zr
  Zr10     1.0000 0.13985  0.45491  0.92173  Biso   1.000  Zr
  Zr11     1.0000 0.36357  0.53974  0.67275  Biso   1.000  Zr
  Zr12     1.0000 0.36045  0.95786  0.92109  Biso   1.000  Zr
  Zr13     1.0000 0.64051  0.03947  0.58070  Biso   1.000  Zr
  Zr14     1.0000 0.64150  0.45271  0.82816  Biso   1.000  Zr
  Zr15     1.0000 0.86316  0.53818  0.58002  Biso   1.000  Zr
  Zr16     1.0000 0.86544  0.95280  0.82804  Biso   1.000  Zr
  O17      1.0000 0.03451  0.32913  0.58532  Biso   1.000  O
  O18      1.0000 0.03627  0.16484  0.83268  Biso   1.000  O
  O19      1.0000 0.46822  0.83070  0.58581  Biso   1.000  O
  O20      1.0000 0.46814  0.66347  0.83662  Biso   1.000  O
  O21      1.0000 0.27769  0.24637  0.79559  Biso   1.000  O
  O22      1.0000 0.27676  0.24839  0.54590  Biso   1.000  O
  O23      1.0000 0.22593  0.74592  0.79557  Biso   1.000  O
  O24      1.0000 0.22621  0.74774  0.54619  Biso   1.000  O
  O25      1.0000 0.53433  0.33030  0.66557  Biso   1.000  O
  O26      1.0000 0.53533  0.15601  0.91090  Biso   1.000  O
  O27      1.0000 0.96993  0.82884  0.66508  Biso   1.000  O
  O28      1.0000 0.96855  0.66628  0.91668  Biso   1.000  O
  O29      1.0000 0.78882  0.23886  0.94881  Biso   1.000  O
  O30      1.0000 0.77799  0.24597  0.70401  Biso   1.000  O
  O31      1.0000 0.72126  0.74629  0.95840  Biso   1.000  O
  O32      1.0000 0.72725  0.74708  0.70596  Biso   1.000  O
  Co1      1.0000 0.59963  0.58470  0.07489  Biso   1.000  Co
