data_image0
_cell_length_a       10.1088
_cell_length_b       5.16352
_cell_length_c       10.1088
_cell_angle_alpha    90.0169
_cell_angle_beta     89.5164
_cell_angle_gamma    90.0164

_symmetry_space_group_name_H-M    "P 1"
_symmetry_int_tables_number       1

loop_
  _symmetry_equiv_pos_as_xyz
  'x, y, z'

loop_
  _atom_site_label
  _atom_site_occupancy
  _atom_site_fract_x
  _atom_site_fract_y
  _atom_site_fract_z
  _atom_site_thermal_displace_type
  _atom_site_B_iso_or_equiv
  _atom_site_type_symbol
  Zr1      1.0000 0.12551  0.90999  0.12551  Biso   1.000  Zr
  Zr2      1.0000 0.12739  0.50465  0.38284  Biso   1.000  Zr
  Zr3      1.0000 0.38283  0.50465  0.12739  Biso   1.000  Zr
  Zr4      1.0000 0.37959  0.00914  0.37959  Biso   1.000  Zr
  O1       1.0000 0.99400  0.31073  0.99401  Biso   1.000  O
  O2       1.0000 0.00502  0.19270  0.24550  Biso   1.000  O
  O3       1.0000 0.98918  0.70208  0.26168  Biso   1.000  O
  O4       1.0000 0.99287  0.79399  0.99287  Biso   1.000  O
  O5       1.0000 0.25632  0.30963  0.25632  Biso   1.000  O
  O6       1.0000 0.24550  0.19272  0.00502  Biso   1.000  O
  O7       1.0000 0.26169  0.70210  0.98918  Biso   1.000  O
  O8       1.0000 0.25804  0.79291  0.25804  Biso   1.000  O
  Zr5      1.0000 0.12540  0.00205  0.62541  Biso   1.000  Zr
  Zr6      1.0000 0.12342  0.50502  0.86779  Biso   1.000  Zr
  Zr7      1.0000 0.37596  0.50696  0.62785  Biso   1.000  Zr
  Zr8      1.0000 0.37307  0.00575  0.87777  Biso   1.000  Zr
  O9       1.0000 0.99761  0.29580  0.49926  Biso   1.000  O
  O10      1.0000 0.00118  0.21307  0.74885  Biso   1.000  O
  O11      1.0000 0.99795  0.71397  0.74726  Biso   1.000  O
  O12      1.0000 0.00259  0.79956  0.50141  Biso   1.000  O
  O13      1.0000 0.25310  0.29584  0.75137  Biso   1.000  O
  O14      1.0000 0.24955  0.21283  0.50170  Biso   1.000  O
  O15      1.0000 0.25277  0.71367  0.50357  Biso   1.000  O
  O16      1.0000 0.24814  0.79960  0.74939  Biso   1.000  O
  Zr9      1.0000 0.62541  0.00206  0.12540  Biso   1.000  Zr
  Zr10     1.0000 0.62785  0.50696  0.37596  Biso   1.000  Zr
  Zr11     1.0000 0.86778  0.50503  0.12342  Biso   1.000  Zr
  Zr12     1.0000 0.87778  0.00574  0.37307  Biso   1.000  Zr
  O17      1.0000 0.49925  0.29580  0.99761  Biso   1.000  O
  O18      1.0000 0.50170  0.21283  0.24955  Biso   1.000  O
  O19      1.0000 0.50357  0.71368  0.25277  Biso   1.000  O
  O20      1.0000 0.50142  0.79956  0.00258  Biso   1.000  O
  O21      1.0000 0.75137  0.29583  0.25310  Biso   1.000  O
  O22      1.0000 0.74885  0.21307  0.00117  Biso   1.000  O
  O23      1.0000 0.74726  0.71397  0.99795  Biso   1.000  O
  O24      1.0000 0.74939  0.79960  0.24814  Biso   1.000  O
  Zr13     1.0000 0.62544  0.01018  0.62544  Biso   1.000  Zr
  Zr14     1.0000 0.62287  0.50706  0.87480  Biso   1.000  Zr
  Zr15     1.0000 0.87480  0.50706  0.62287  Biso   1.000  Zr
  Zr16     1.0000 0.87126  0.00954  0.87126  Biso   1.000  Zr
  O25      1.0000 0.49898  0.30352  0.49898  Biso   1.000  O
  O26      1.0000 0.50145  0.21230  0.74929  Biso   1.000  O
  O27      1.0000 0.49782  0.71199  0.75293  Biso   1.000  O
  O28      1.0000 0.50246  0.80306  0.50246  Biso   1.000  O
  O29      1.0000 0.75177  0.30365  0.75177  Biso   1.000  O
  O30      1.0000 0.74929  0.21230  0.50145  Biso   1.000  O
  O31      1.0000 0.75293  0.71198  0.49782  Biso   1.000  O
  O32      1.0000 0.74830  0.80316  0.74830  Biso   1.000  O
  Co1      1.0000 0.12515  0.35801  0.12516  Biso   1.000  Co
