data_image0
_cell_length_a       10.1027
_cell_length_b       10.3354
_cell_length_c       10.5174
_cell_angle_alpha    89.9358
_cell_angle_beta     90.2077
_cell_angle_gamma    90.1651

_symmetry_space_group_name_H-M    "P 1"
_symmetry_int_tables_number       1

loop_
  _symmetry_equiv_pos_as_xyz
  'x, y, z'

loop_
  _atom_site_label
  _atom_site_occupancy
  _atom_site_fract_x
  _atom_site_fract_y
  _atom_site_fract_z
  _atom_site_thermal_displace_type
  _atom_site_B_iso_or_equiv
  _atom_site_type_symbol
  Zr1      1.0000 0.13886  0.02095  0.17169  Biso   1.000  Zr
  Zr2      1.0000 0.13779  0.22840  0.42318  Biso   1.000  Zr
  Zr3      1.0000 0.35466  0.27190  0.17548  Biso   1.000  Zr
  Zr4      1.0000 0.36214  0.47875  0.42169  Biso   1.000  Zr
  Zr5      1.0000 0.64376  0.02407  0.07487  Biso   1.000  Zr
  Zr6      1.0000 0.63895  0.22630  0.33261  Biso   1.000  Zr
  Zr7      1.0000 0.86019  0.26700  0.07768  Biso   1.000  Zr
  Zr8      1.0000 0.86189  0.47811  0.32813  Biso   1.000  Zr
  O1       1.0000 0.03373  0.16337  0.08335  Biso   1.000  O
  O2       1.0000 0.03308  0.08365  0.33492  Biso   1.000  O
  O3       1.0000 0.46029  0.42660  0.09254  Biso   1.000  O
  O4       1.0000 0.46631  0.33204  0.33601  Biso   1.000  O
  O5       1.0000 0.27403  0.12474  0.29697  Biso   1.000  O
  O6       1.0000 0.27577  0.12581  0.04528  Biso   1.000  O
  O7       1.0000 0.22180  0.37488  0.29702  Biso   1.000  O
  O8       1.0000 0.22196  0.37601  0.04472  Biso   1.000  O
  O9       1.0000 0.52476  0.15775  0.17088  Biso   1.000  O
  O10      1.0000 0.53281  0.08354  0.41811  Biso   1.000  O
  O11      1.0000 0.96504  0.41468  0.16725  Biso   1.000  O
  O12      1.0000 0.96685  0.33412  0.41751  Biso   1.000  O
  O13      1.0000 0.77567  0.12372  0.45658  Biso   1.000  O
  O14      1.0000 0.77727  0.12392  0.20982  Biso   1.000  O
  O15      1.0000 0.72429  0.37333  0.45523  Biso   1.000  O
  O16      1.0000 0.71847  0.37504  0.20235  Biso   1.000  O
  Zr9      1.0000 0.14062  0.02043  0.67169  Biso   1.000  Zr
  Zr10     1.0000 0.13891  0.22764  0.92136  Biso   1.000  Zr
  Zr11     1.0000 0.36270  0.27052  0.67290  Biso   1.000  Zr
  Zr12     1.0000 0.35954  0.47990  0.92083  Biso   1.000  Zr
  Zr13     1.0000 0.63963  0.02014  0.58013  Biso   1.000  Zr
  Zr14     1.0000 0.64171  0.22565  0.82815  Biso   1.000  Zr
  Zr15     1.0000 0.86192  0.27046  0.57994  Biso   1.000  Zr
  Zr16     1.0000 0.86295  0.47877  0.82941  Biso   1.000  Zr
  O17      1.0000 0.03340  0.16550  0.58512  Biso   1.000  O
  O18      1.0000 0.03574  0.08273  0.83277  Biso   1.000  O
  O19      1.0000 0.46802  0.41594  0.58527  Biso   1.000  O
  O20      1.0000 0.46825  0.33328  0.83806  Biso   1.000  O
  O21      1.0000 0.27748  0.12405  0.79575  Biso   1.000  O
  O22      1.0000 0.27619  0.12524  0.54614  Biso   1.000  O
  O23      1.0000 0.22515  0.37380  0.79540  Biso   1.000  O
  O24      1.0000 0.22554  0.37496  0.54617  Biso   1.000  O
  O25      1.0000 0.53359  0.16554  0.66616  Biso   1.000  O
  O26      1.0000 0.53561  0.07826  0.91173  Biso   1.000  O
  O27      1.0000 0.96775  0.41571  0.66687  Biso   1.000  O
  O28      1.0000 0.96649  0.33382  0.91600  Biso   1.000  O
  O29      1.0000 0.78786  0.11786  0.94902  Biso   1.000  O
  O30      1.0000 0.77746  0.12354  0.70339  Biso   1.000  O
  O31      1.0000 0.71955  0.37339  0.95829  Biso   1.000  O
  O32      1.0000 0.72602  0.37495  0.70611  Biso   1.000  O
  Zr17     1.0000 0.13759  0.52088  0.17115  Biso   1.000  Zr
  Zr18     1.0000 0.13945  0.72810  0.42122  Biso   1.000  Zr
  Zr19     1.0000 0.36124  0.77351  0.17196  Biso   1.000  Zr
  Zr20     1.0000 0.36078  0.97853  0.42268  Biso   1.000  Zr
  Zr21     1.0000 0.63889  0.53257  0.07899  Biso   1.000  Zr
  Zr22     1.0000 0.63938  0.73104  0.33020  Biso   1.000  Zr
  Zr23     1.0000 0.86270  0.77249  0.07954  Biso   1.000  Zr
  Zr24     1.0000 0.86161  0.97820  0.32993  Biso   1.000  Zr
  O33      1.0000 0.03305  0.66500  0.08403  Biso   1.000  O
  O34      1.0000 0.03225  0.58304  0.33440  Biso   1.000  O
  O35      1.0000 0.46804  0.91669  0.08400  Biso   1.000  O
  O36      1.0000 0.46716  0.83478  0.33601  Biso   1.000  O
  O37      1.0000 0.27503  0.62424  0.29484  Biso   1.000  O
  O38      1.0000 0.27580  0.62609  0.04489  Biso   1.000  O
  O39      1.0000 0.22487  0.87454  0.29587  Biso   1.000  O
  O40      1.0000 0.22416  0.87555  0.04574  Biso   1.000  O
  O41      1.0000 0.53344  0.67164  0.16738  Biso   1.000  O
  O42      1.0000 0.53374  0.58361  0.41559  Biso   1.000  O
  O43      1.0000 0.96830  0.91523  0.16728  Biso   1.000  O
  O44      1.0000 0.96773  0.83195  0.41568  Biso   1.000  O
  O45      1.0000 0.77621  0.62363  0.45494  Biso   1.000  O
  O46      1.0000 0.77658  0.62720  0.20584  Biso   1.000  O
  O47      1.0000 0.72525  0.87427  0.45621  Biso   1.000  O
  O48      1.0000 0.72626  0.87572  0.20572  Biso   1.000  O
  Zr25     1.0000 0.13972  0.52005  0.67079  Biso   1.000  Zr
  Zr26     1.0000 0.13971  0.72857  0.92159  Biso   1.000  Zr
  Zr27     1.0000 0.36235  0.77038  0.67149  Biso   1.000  Zr
  Zr28     1.0000 0.36237  0.97781  0.92230  Biso   1.000  Zr
  Zr29     1.0000 0.63984  0.52055  0.57883  Biso   1.000  Zr
  Zr30     1.0000 0.63988  0.72927  0.82757  Biso   1.000  Zr
  Zr31     1.0000 0.86302  0.76960  0.57849  Biso   1.000  Zr
  Zr32     1.0000 0.86408  0.97611  0.82754  Biso   1.000  Zr
  O49      1.0000 0.03413  0.66438  0.58366  Biso   1.000  O
  O50      1.0000 0.03358  0.58398  0.83339  Biso   1.000  O
  O51      1.0000 0.46745  0.91548  0.58508  Biso   1.000  O
  O52      1.0000 0.46774  0.83242  0.83393  Biso   1.000  O
  O53      1.0000 0.27620  0.62333  0.79502  Biso   1.000  O
  O54      1.0000 0.27652  0.62477  0.54492  Biso   1.000  O
  O55      1.0000 0.22566  0.87332  0.79537  Biso   1.000  O
  O56      1.0000 0.22517  0.87454  0.54526  Biso   1.000  O
  O57      1.0000 0.53388  0.66541  0.66525  Biso   1.000  O
  O58      1.0000 0.53270  0.58508  0.91611  Biso   1.000  O
  O59      1.0000 0.96980  0.91397  0.66453  Biso   1.000  O
  O60      1.0000 0.96934  0.83371  0.91717  Biso   1.000  O
  O61      1.0000 0.77770  0.62528  0.95380  Biso   1.000  O
  O62      1.0000 0.77672  0.62471  0.70482  Biso   1.000  O
  O63      1.0000 0.72575  0.87251  0.95516  Biso   1.000  O
  O64      1.0000 0.72591  0.87410  0.70454  Biso   1.000  O
  Co1      1.0000 0.59704  0.29059  0.07220  Biso   1.000  Co
