data_image0
_cell_length_a       10.1984
_cell_length_b       10.3767
_cell_length_c       10.5134
_cell_angle_alpha    90.165
_cell_angle_beta     80.1708
_cell_angle_gamma    90.1755

_symmetry_space_group_name_H-M    "P 1"
_symmetry_int_tables_number       1

loop_
  _symmetry_equiv_pos_as_xyz
  'x, y, z'

loop_
  _atom_site_label
  _atom_site_occupancy
  _atom_site_fract_x
  _atom_site_fract_y
  _atom_site_fract_z
  _atom_site_thermal_displace_type
  _atom_site_B_iso_or_equiv
  _atom_site_type_symbol
  Zr1      1.0000 0.13769  0.02282  0.14671  Biso   1.000  Zr
  Zr2      1.0000 0.13985  0.23279  0.39480  Biso   1.000  Zr
  Zr3      1.0000 0.35773  0.27494  0.10280  Biso   1.000  Zr
  Zr4      1.0000 0.35634  0.47483  0.35014  Biso   1.000  Zr
  O1       1.0000 0.03476  0.17025  0.08014  Biso   1.000  O
  O2       1.0000 0.03664  0.08174  0.32933  Biso   1.000  O
  O3       1.0000 0.46164  0.42459  0.16562  Biso   1.000  O
  O4       1.0000 0.47505  0.34145  0.42509  Biso   1.000  O
  O5       1.0000 0.28134  0.12955  0.24216  Biso   1.000  O
  O6       1.0000 0.28174  0.12170  0.48631  Biso   1.000  O
  O7       1.0000 0.22195  0.38153  0.00589  Biso   1.000  O
  O8       1.0000 0.20983  0.37759  0.25320  Biso   1.000  O
  Zr5      1.0000 0.13782  0.02137  0.64561  Biso   1.000  Zr
  Zr6      1.0000 0.13758  0.22921  0.89538  Biso   1.000  Zr
  Zr7      1.0000 0.36136  0.27371  0.60751  Biso   1.000  Zr
  Zr8      1.0000 0.36030  0.47965  0.85500  Biso   1.000  Zr
  O9       1.0000 0.03791  0.16965  0.57997  Biso   1.000  O
  O10      1.0000 0.03504  0.08069  0.82976  Biso   1.000  O
  O11      1.0000 0.46523  0.41905  0.67238  Biso   1.000  O
  O12      1.0000 0.46426  0.33186  0.91986  Biso   1.000  O
  O13      1.0000 0.27557  0.12932  0.74029  Biso   1.000  O
  O14      1.0000 0.27433  0.12231  0.99090  Biso   1.000  O
  O15      1.0000 0.22378  0.37918  0.51199  Biso   1.000  O
  O16      1.0000 0.22402  0.37145  0.75920  Biso   1.000  O
  Zr9      1.0000 0.13660  0.52338  0.14314  Biso   1.000  Zr
  Zr10     1.0000 0.13731  0.72667  0.39572  Biso   1.000  Zr
  Zr11     1.0000 0.35975  0.77077  0.10346  Biso   1.000  Zr
  Zr12     1.0000 0.36053  0.96704  0.35517  Biso   1.000  Zr
  O17      1.0000 0.03368  0.67295  0.07972  Biso   1.000  O
  O18      1.0000 0.03242  0.58367  0.32850  Biso   1.000  O
  O19      1.0000 0.46447  0.91798  0.17069  Biso   1.000  O
  O20      1.0000 0.46391  0.82507  0.42143  Biso   1.000  O
  O21      1.0000 0.27439  0.62942  0.23998  Biso   1.000  O
  O22      1.0000 0.27336  0.62002  0.49050  Biso   1.000  O
  O23      1.0000 0.22348  0.88040  0.00961  Biso   1.000  O
  O24      1.0000 0.22183  0.86913  0.25864  Biso   1.000  O
  Zr13     1.0000 0.13829  0.52242  0.64562  Biso   1.000  Zr
  Zr14     1.0000 0.13698  0.73041  0.89559  Biso   1.000  Zr
  Zr15     1.0000 0.36108  0.76936  0.60574  Biso   1.000  Zr
  Zr16     1.0000 0.36026  0.97908  0.85504  Biso   1.000  Zr
  O25      1.0000 0.03321  0.66854  0.58041  Biso   1.000  O
  O26      1.0000 0.03490  0.58142  0.83117  Biso   1.000  O
  O27      1.0000 0.46384  0.91903  0.66994  Biso   1.000  O
  O28      1.0000 0.46381  0.83157  0.91946  Biso   1.000  O
  O29      1.0000 0.27535  0.62885  0.74098  Biso   1.000  O
  O30      1.0000 0.27462  0.62311  0.98985  Biso   1.000  O
  O31      1.0000 0.22336  0.87774  0.51064  Biso   1.000  O
  O32      1.0000 0.22335  0.87152  0.75960  Biso   1.000  O
  Zr17     1.0000 0.63938  0.02121  0.14548  Biso   1.000  Zr
  Zr18     1.0000 0.64629  0.22819  0.39929  Biso   1.000  Zr
  Zr19     1.0000 0.86023  0.27230  0.10499  Biso   1.000  Zr
  Zr20     1.0000 0.86082  0.47883  0.35453  Biso   1.000  Zr
  O33      1.0000 0.53374  0.17012  0.08402  Biso   1.000  O
  O34      1.0000 0.54114  0.07177  0.33754  Biso   1.000  O
  O35      1.0000 0.96111  0.42235  0.16764  Biso   1.000  O
  O36      1.0000 0.96416  0.33376  0.42121  Biso   1.000  O
  O37      1.0000 0.77716  0.12893  0.24046  Biso   1.000  O
  O38      1.0000 0.77956  0.12002  0.49270  Biso   1.000  O
  O39      1.0000 0.72319  0.37953  0.01067  Biso   1.000  O
  O40      1.0000 0.72382  0.37088  0.26050  Biso   1.000  O
  Zr21     1.0000 0.63818  0.02145  0.64607  Biso   1.000  Zr
  Zr22     1.0000 0.63773  0.22942  0.89698  Biso   1.000  Zr
  Zr23     1.0000 0.86287  0.27182  0.60646  Biso   1.000  Zr
  Zr24     1.0000 0.86050  0.47911  0.85610  Biso   1.000  Zr
  O41      1.0000 0.53612  0.17002  0.58180  Biso   1.000  O
  O42      1.0000 0.53475  0.08106  0.83147  Biso   1.000  O
  O43      1.0000 0.96455  0.41953  0.67144  Biso   1.000  O
  O44      1.0000 0.96322  0.33039  0.91921  Biso   1.000  O
  O45      1.0000 0.77539  0.12951  0.74176  Biso   1.000  O
  O46      1.0000 0.77432  0.12164  0.99123  Biso   1.000  O
  O47      1.0000 0.72583  0.37832  0.51216  Biso   1.000  O
  O48      1.0000 0.72401  0.37138  0.76118  Biso   1.000  O
  Zr25     1.0000 0.63748  0.52285  0.14636  Biso   1.000  Zr
  Zr26     1.0000 0.63880  0.72606  0.39564  Biso   1.000  Zr
  Zr27     1.0000 0.85976  0.77217  0.10469  Biso   1.000  Zr
  Zr28     1.0000 0.86195  0.97814  0.35481  Biso   1.000  Zr
  O49      1.0000 0.53485  0.67077  0.07986  Biso   1.000  O
  O50      1.0000 0.53358  0.58091  0.32930  Biso   1.000  O
  O51      1.0000 0.96457  0.92081  0.16886  Biso   1.000  O
  O52      1.0000 0.96446  0.83183  0.42059  Biso   1.000  O
  O53      1.0000 0.77510  0.62963  0.24087  Biso   1.000  O
  O54      1.0000 0.77531  0.62069  0.49109  Biso   1.000  O
  O55      1.0000 0.72306  0.88013  0.00999  Biso   1.000  O
  O56      1.0000 0.72413  0.87102  0.25990  Biso   1.000  O
  Zr29     1.0000 0.63956  0.52153  0.64678  Biso   1.000  Zr
  Zr30     1.0000 0.63791  0.72920  0.89586  Biso   1.000  Zr
  Zr31     1.0000 0.86014  0.77199  0.60478  Biso   1.000  Zr
  Zr32     1.0000 0.85995  0.97949  0.85488  Biso   1.000  Zr
  O57      1.0000 0.53535  0.66783  0.58164  Biso   1.000  O
  O58      1.0000 0.53503  0.58162  0.83098  Biso   1.000  O
  O59      1.0000 0.96443  0.91959  0.67009  Biso   1.000  O
  O60      1.0000 0.96280  0.83187  0.91918  Biso   1.000  O
  O61      1.0000 0.77571  0.62944  0.74127  Biso   1.000  O
  O62      1.0000 0.77477  0.62221  0.99113  Biso   1.000  O
  O63      1.0000 0.72354  0.87870  0.50997  Biso   1.000  O
  O64      1.0000 0.72360  0.87176  0.75982  Biso   1.000  O
  Co1      1.0000 0.40423  0.20811  0.33790  Biso   1.000  Co
