data_image0
_cell_length_a       10.0595
_cell_length_b       10.3447
_cell_length_c       5.06146
_cell_angle_alpha    88.6801
_cell_angle_beta     87.6024
_cell_angle_gamma    91.0623

_symmetry_space_group_name_H-M    "P 1"
_symmetry_int_tables_number       1

loop_
  _symmetry_equiv_pos_as_xyz
  'x, y, z'

loop_
  _atom_site_label
  _atom_site_occupancy
  _atom_site_fract_x
  _atom_site_fract_y
  _atom_site_fract_z
  _atom_site_thermal_displace_type
  _atom_site_B_iso_or_equiv
  _atom_site_type_symbol
  Hf1      1.0000 0.12102  0.95841  0.22147  Biso   1.000  Hf
  Hf2      1.0000 0.13303  0.28143  0.74587  Biso   1.000  Hf
  Hf3      1.0000 0.38820  0.26406  0.29571  Biso   1.000  Hf
  Hf4      1.0000 0.35913  0.99845  0.75335  Biso   1.000  Hf
  O1       1.0000 0.01521  0.14240  0.95131  Biso   1.000  O
  O2       1.0000 0.99947  0.08491  0.43676  Biso   1.000  O
  O3       1.0000 0.02507  0.32946  0.42945  Biso   1.000  O
  O4       1.0000 0.99473  0.39897  0.96527  Biso   1.000  O
  O5       1.0000 0.25930  0.15545  0.55784  Biso   1.000  O
  O6       1.0000 0.27089  0.08516  0.06484  Biso   1.000  O
  O7       1.0000 0.24738  0.33774  0.04976  Biso   1.000  O
  O8       1.0000 0.26326  0.41478  0.51633  Biso   1.000  O
  Hf5      1.0000 0.12482  0.49895  0.25003  Biso   1.000  Hf
  Hf6      1.0000 0.11783  0.73042  0.72977  Biso   1.000  Hf
  Hf7      1.0000 0.38105  0.76550  0.25465  Biso   1.000  Hf
  Hf8      1.0000 0.38994  0.50722  0.77103  Biso   1.000  Hf
  O9       1.0000 0.98370  0.64203  0.02570  Biso   1.000  O
  O10      1.0000 0.00432  0.57757  0.53769  Biso   1.000  O
  O11      1.0000 0.99129  0.83098  0.47613  Biso   1.000  O
  O12      1.0000 0.99120  0.88389  0.95894  Biso   1.000  O
  O13      1.0000 0.23136  0.65649  0.41625  Biso   1.000  O
  O14      1.0000 0.22079  0.58053  0.91926  Biso   1.000  O
  O15      1.0000 0.24731  0.83488  0.98098  Biso   1.000  O
  O16      1.0000 0.24509  0.89322  0.50305  Biso   1.000  O
  Hf9      1.0000 0.61996  0.01620  0.25267  Biso   1.000  Hf
  Hf10     1.0000 0.64458  0.24310  0.74870  Biso   1.000  Hf
  Hf11     1.0000 0.88565  0.24253  0.20467  Biso   1.000  Hf
  Hf12     1.0000 0.88013  0.99682  0.71517  Biso   1.000  Hf
  O17      1.0000 0.52844  0.17460  0.06288  Biso   1.000  O
  O18      1.0000 0.50825  0.11016  0.55070  Biso   1.000  O
  O19      1.0000 0.51152  0.36346  0.56637  Biso   1.000  O
  O20      1.0000 0.48535  0.42713  0.07608  Biso   1.000  O
  O21      1.0000 0.75459  0.14644  0.47561  Biso   1.000  O
  O22      1.0000 0.76292  0.10544  0.97364  Biso   1.000  O
  O23      1.0000 0.74224  0.36243  0.02230  Biso   1.000  O
  O24      1.0000 0.76496  0.39475  0.52306  Biso   1.000  O
  Hf13     1.0000 0.63389  0.49344  0.29844  Biso   1.000  Hf
  Hf14     1.0000 0.61896  0.76443  0.74224  Biso   1.000  Hf
  Hf15     1.0000 0.85530  0.75771  0.22759  Biso   1.000  Hf
  Hf16     1.0000 0.85837  0.51171  0.78931  Biso   1.000  Hf
  O25      1.0000 0.47039  0.67172  0.95406  Biso   1.000  O
  O26      1.0000 0.49611  0.61611  0.47681  Biso   1.000  O
  O27      1.0000 0.49797  0.86746  0.50091  Biso   1.000  O
  O28      1.0000 0.49560  0.91767  0.00630  Biso   1.000  O
  O29      1.0000 0.74842  0.64773  0.52188  Biso   1.000  O
  O30      1.0000 0.72729  0.61642  0.02183  Biso   1.000  O
  O31      1.0000 0.73996  0.86186  0.98625  Biso   1.000  O
  O32      1.0000 0.74741  0.90042  0.48254  Biso   1.000  O
  Cr1      1.0000 0.13865  0.19215  0.24949  Biso   1.000  Cr
