data_image0
_cell_length_a       5.01635
_cell_length_b       10.4001
_cell_length_c       10.1117
_cell_angle_alpha    90.1096
_cell_angle_beta     90.7265
_cell_angle_gamma    89.3245

_symmetry_space_group_name_H-M    "P 1"
_symmetry_int_tables_number       1

loop_
  _symmetry_equiv_pos_as_xyz
  'x, y, z'

loop_
  _atom_site_label
  _atom_site_occupancy
  _atom_site_fract_x
  _atom_site_fract_y
  _atom_site_fract_z
  _atom_site_thermal_displace_type
  _atom_site_B_iso_or_equiv
  _atom_site_type_symbol
  Hf1      1.0000 0.25650  0.00754  0.13157  Biso   1.000  Hf
  Hf2      1.0000 0.26165  0.23440  0.38538  Biso   1.000  Hf
  Hf3      1.0000 0.82649  0.24146  0.06889  Biso   1.000  Hf
  Hf4      1.0000 0.71515  0.48216  0.39092  Biso   1.000  Hf
  O1       1.0000 0.04730  0.16031  0.21996  Biso   1.000  O
  O2       1.0000 0.06301  0.06480  0.45421  Biso   1.000  O
  O3       1.0000 0.00704  0.39634  0.15447  Biso   1.000  O
  O4       1.0000 0.92255  0.31974  0.45115  Biso   1.000  O
  O5       1.0000 0.51937  0.11857  0.25015  Biso   1.000  O
  O6       1.0000 0.54226  0.13447  0.50586  Biso   1.000  O
  O7       1.0000 0.45437  0.38415  0.51156  Biso   1.000  O
  O8       1.0000 0.46379  0.38339  0.26575  Biso   1.000  O
  Hf5      1.0000 0.26056  0.01668  0.62562  Biso   1.000  Hf
  Hf6      1.0000 0.27300  0.23843  0.86686  Biso   1.000  Hf
  Hf7      1.0000 0.73116  0.27034  0.63375  Biso   1.000  Hf
  Hf8      1.0000 0.73280  0.49210  0.86901  Biso   1.000  Hf
  O9       1.0000 0.07699  0.18304  0.68823  Biso   1.000  O
  O10      1.0000 0.01288  0.07791  0.96399  Biso   1.000  O
  O11      1.0000 0.90509  0.44804  0.67923  Biso   1.000  O
  O12      1.0000 0.90123  0.31200  0.88403  Biso   1.000  O
  O13      1.0000 0.53912  0.11923  0.75406  Biso   1.000  O
  O14      1.0000 0.49723  0.12985  0.00401  Biso   1.000  O
  O15      1.0000 0.49483  0.37881  0.00591  Biso   1.000  O
  O16      1.0000 0.44400  0.37775  0.75295  Biso   1.000  O
  Hf9      1.0000 0.29845  0.52314  0.12556  Biso   1.000  Hf
  Hf10     1.0000 0.26064  0.73575  0.37592  Biso   1.000  Hf
  Hf11     1.0000 0.73350  0.76570  0.12990  Biso   1.000  Hf
  Hf12     1.0000 0.72747  0.98954  0.37650  Biso   1.000  Hf
  O17      1.0000 0.07957  0.67783  0.19373  Biso   1.000  O
  O18      1.0000 0.06862  0.56857  0.44030  Biso   1.000  O
  O19      1.0000 0.92404  0.92378  0.20413  Biso   1.000  O
  O20      1.0000 0.93060  0.81910  0.45102  Biso   1.000  O
  O21      1.0000 0.56869  0.62135  0.25271  Biso   1.000  O
  O22      1.0000 0.53046  0.63481  0.50181  Biso   1.000  O
  O23      1.0000 0.46198  0.88595  0.49885  Biso   1.000  O
  O24      1.0000 0.45667  0.86535  0.25124  Biso   1.000  O
  Hf13     1.0000 0.25553  0.52112  0.62553  Biso   1.000  Hf
  Hf14     1.0000 0.26223  0.73396  0.87540  Biso   1.000  Hf
  Hf15     1.0000 0.72718  0.77101  0.62551  Biso   1.000  Hf
  Hf16     1.0000 0.71452  0.97814  0.87717  Biso   1.000  Hf
  O25      1.0000 0.06378  0.68800  0.69700  Biso   1.000  O
  O26      1.0000 0.08289  0.56311  0.93845  Biso   1.000  O
  O27      1.0000 0.92628  0.93451  0.70459  Biso   1.000  O
  O28      1.0000 0.92901  0.81755  0.95017  Biso   1.000  O
  O29      1.0000 0.53437  0.62374  0.74870  Biso   1.000  O
  O30      1.0000 0.54717  0.63321  0.99846  Biso   1.000  O
  O31      1.0000 0.45239  0.87817  0.00009  Biso   1.000  O
  O32      1.0000 0.45221  0.86809  0.74965  Biso   1.000  O
  Cr1      1.0000 0.33396  0.25820  0.13685  Biso   1.000  Cr
