data_image0
_cell_length_a       10.084
_cell_length_b       5.14275
_cell_length_c       10.4915
_cell_angle_alpha    89.563
_cell_angle_beta     90.7641
_cell_angle_gamma    89.889

_symmetry_space_group_name_H-M    "P 1"
_symmetry_int_tables_number       1

loop_
  _symmetry_equiv_pos_as_xyz
  'x, y, z'

loop_
  _atom_site_label
  _atom_site_occupancy
  _atom_site_fract_x
  _atom_site_fract_y
  _atom_site_fract_z
  _atom_site_thermal_displace_type
  _atom_site_B_iso_or_equiv
  _atom_site_type_symbol
  Hf1      1.0000 0.13995  0.04084  0.17185  Biso   1.000  Hf
  Hf2      1.0000 0.13562  0.45954  0.42267  Biso   1.000  Hf
  Hf3      1.0000 0.35379  0.54015  0.17729  Biso   1.000  Hf
  Hf4      1.0000 0.36059  0.95965  0.42546  Biso   1.000  Hf
  Hf5      1.0000 0.64200  0.06240  0.06858  Biso   1.000  Hf
  Hf6      1.0000 0.63464  0.46492  0.34042  Biso   1.000  Hf
  Hf7      1.0000 0.87366  0.54650  0.07432  Biso   1.000  Hf
  Hf8      1.0000 0.86156  0.96074  0.32951  Biso   1.000  Hf
  O1       1.0000 0.03882  0.32539  0.07923  Biso   1.000  O
  O2       1.0000 0.02754  0.18287  0.32792  Biso   1.000  O
  O3       1.0000 0.47220  0.80914  0.07940  Biso   1.000  O
  O4       1.0000 0.46192  0.67061  0.33718  Biso   1.000  O
  O5       1.0000 0.27012  0.24895  0.29833  Biso   1.000  O
  O6       1.0000 0.27908  0.24411  0.04418  Biso   1.000  O
  O7       1.0000 0.21996  0.74985  0.29789  Biso   1.000  O
  O8       1.0000 0.22391  0.74890  0.04533  Biso   1.000  O
  O9       1.0000 0.51152  0.29041  0.17558  Biso   1.000  O
  O10      1.0000 0.53109  0.16999  0.42345  Biso   1.000  O
  O11      1.0000 0.96880  0.83459  0.16823  Biso   1.000  O
  O12      1.0000 0.96495  0.67816  0.41810  Biso   1.000  O
  O13      1.0000 0.77875  0.24340  0.45511  Biso   1.000  O
  O14      1.0000 0.75848  0.29979  0.19640  Biso   1.000  O
  O15      1.0000 0.72333  0.74754  0.46097  Biso   1.000  O
  O16      1.0000 0.72412  0.78367  0.20846  Biso   1.000  O
  Hf9      1.0000 0.13988  0.03898  0.66988  Biso   1.000  Hf
  Hf10     1.0000 0.14395  0.45060  0.91898  Biso   1.000  Hf
  Hf11     1.0000 0.36517  0.53693  0.67228  Biso   1.000  Hf
  Hf12     1.0000 0.36113  0.94887  0.91868  Biso   1.000  Hf
  Hf13     1.0000 0.63984  0.04183  0.58219  Biso   1.000  Hf
  Hf14     1.0000 0.64252  0.45143  0.83363  Biso   1.000  Hf
  Hf15     1.0000 0.86118  0.54067  0.58123  Biso   1.000  Hf
  Hf16     1.0000 0.86650  0.95539  0.82722  Biso   1.000  Hf
  O17      1.0000 0.03266  0.32823  0.58143  Biso   1.000  O
  O18      1.0000 0.03790  0.16697  0.82986  Biso   1.000  O
  O19      1.0000 0.46759  0.83118  0.58755  Biso   1.000  O
  O20      1.0000 0.46687  0.65523  0.83682  Biso   1.000  O
  O21      1.0000 0.27900  0.24101  0.79385  Biso   1.000  O
  O22      1.0000 0.27481  0.25160  0.54573  Biso   1.000  O
  O23      1.0000 0.22630  0.74249  0.79418  Biso   1.000  O
  O24      1.0000 0.22483  0.75039  0.54567  Biso   1.000  O
  O25      1.0000 0.53600  0.33178  0.66713  Biso   1.000  O
  O26      1.0000 0.53478  0.14504  0.90498  Biso   1.000  O
  O27      1.0000 0.96919  0.82852  0.66425  Biso   1.000  O
  O28      1.0000 0.97377  0.66816  0.91308  Biso   1.000  O
  O29      1.0000 0.79280  0.23594  0.94773  Biso   1.000  O
  O30      1.0000 0.77878  0.24934  0.70357  Biso   1.000  O
  O31      1.0000 0.72584  0.74323  0.96296  Biso   1.000  O
  O32      1.0000 0.72663  0.74891  0.71042  Biso   1.000  O
  Cr1      1.0000 0.61452  0.55579  0.10613  Biso   1.000  Cr
