data_image0
_cell_length_a       9.93857
_cell_length_b       5.19955
_cell_length_c       9.96089
_cell_angle_alpha    91.7925
_cell_angle_beta     89.4937
_cell_angle_gamma    90.1413

_symmetry_space_group_name_H-M    "P 1"
_symmetry_int_tables_number       1

loop_
  _symmetry_equiv_pos_as_xyz
  'x, y, z'

loop_
  _atom_site_label
  _atom_site_occupancy
  _atom_site_fract_x
  _atom_site_fract_y
  _atom_site_fract_z
  _atom_site_thermal_displace_type
  _atom_site_B_iso_or_equiv
  _atom_site_type_symbol
  Cr1      1.0000 0.11551  0.06373  0.11352  Biso   1.000  Cr
  Hf1      1.0000 0.13617  0.44013  0.37334  Biso   1.000  Hf
  Hf2      1.0000 0.38587  0.53139  0.10861  Biso   1.000  Hf
  Hf3      1.0000 0.36465  0.93984  0.37254  Biso   1.000  Hf
  O1       1.0000 0.03570  0.37155  0.18709  Biso   1.000  O
  O2       1.0000 0.03202  0.13180  0.45641  Biso   1.000  O
  O3       1.0000 0.46833  0.87664  0.18923  Biso   1.000  O
  O4       1.0000 0.47492  0.64275  0.45960  Biso   1.000  O
  O5       1.0000 0.22503  0.11430  0.25298  Biso   1.000  O
  O6       1.0000 0.27607  0.25488  0.49935  Biso   1.000  O
  O7       1.0000 0.22636  0.75463  0.50401  Biso   1.000  O
  O8       1.0000 0.27614  0.61895  0.26811  Biso   1.000  O
  Hf4      1.0000 0.13718  0.03815  0.62964  Biso   1.000  Hf
  Hf5      1.0000 0.13275  0.48343  0.88491  Biso   1.000  Hf
  Hf6      1.0000 0.36403  0.54069  0.63007  Biso   1.000  Hf
  Hf7      1.0000 0.35585  0.98369  0.88568  Biso   1.000  Hf
  O9       1.0000 0.03622  0.37329  0.70049  Biso   1.000  O
  O10      1.0000 0.03356  0.13931  0.94595  Biso   1.000  O
  O11      1.0000 0.45886  0.88177  0.69991  Biso   1.000  O
  O12      1.0000 0.46332  0.65785  0.93164  Biso   1.000  O
  O13      1.0000 0.27058  0.25083  0.75748  Biso   1.000  O
  O14      1.0000 0.25826  0.27454  0.01264  Biso   1.000  O
  O15      1.0000 0.22268  0.78340  0.01662  Biso   1.000  O
  O16      1.0000 0.22539  0.74805  0.75870  Biso   1.000  O
  Hf8      1.0000 0.63729  0.04280  0.12598  Biso   1.000  Hf
  Hf9      1.0000 0.63803  0.46859  0.37866  Biso   1.000  Hf
  Hf10     1.0000 0.86874  0.53761  0.12037  Biso   1.000  Hf
  Hf11     1.0000 0.86956  0.96978  0.37465  Biso   1.000  Hf
  O17      1.0000 0.53941  0.37498  0.20199  Biso   1.000  O
  O18      1.0000 0.53751  0.13041  0.43705  Biso   1.000  O
  O19      1.0000 0.98214  0.87782  0.18608  Biso   1.000  O
  O20      1.0000 0.96591  0.62829  0.43540  Biso   1.000  O
  O21      1.0000 0.77778  0.23630  0.24679  Biso   1.000  O
  O22      1.0000 0.76978  0.26510  0.49747  Biso   1.000  O
  O23      1.0000 0.73682  0.76886  0.49668  Biso   1.000  O
  O24      1.0000 0.73622  0.73844  0.24586  Biso   1.000  O
  Hf12     1.0000 0.62616  0.02841  0.61833  Biso   1.000  Hf
  Hf13     1.0000 0.63580  0.47239  0.86841  Biso   1.000  Hf
  Hf14     1.0000 0.87222  0.53141  0.62011  Biso   1.000  Hf
  Hf15     1.0000 0.86357  0.97290  0.86949  Biso   1.000  Hf
  O25      1.0000 0.53453  0.37115  0.69186  Biso   1.000  O
  O26      1.0000 0.52252  0.17078  0.95757  Biso   1.000  O
  O27      1.0000 0.96557  0.87052  0.69175  Biso   1.000  O
  O28      1.0000 0.95674  0.63870  0.93864  Biso   1.000  O
  O29      1.0000 0.76592  0.22995  0.74527  Biso   1.000  O
  O30      1.0000 0.76757  0.27347  0.99585  Biso   1.000  O
  O31      1.0000 0.72564  0.77570  0.99454  Biso   1.000  O
  O32      1.0000 0.73041  0.73218  0.74348  Biso   1.000  O
