data_image0
_cell_length_a       10.1758
_cell_length_b       10.2856
_cell_length_c       10.4654
_cell_angle_alpha    90.2753
_cell_angle_beta     79.9089
_cell_angle_gamma    90.0157

_symmetry_space_group_name_H-M    "P 1"
_symmetry_int_tables_number       1

loop_
  _symmetry_equiv_pos_as_xyz
  'x, y, z'

loop_
  _atom_site_label
  _atom_site_occupancy
  _atom_site_fract_x
  _atom_site_fract_y
  _atom_site_fract_z
  _atom_site_thermal_displace_type
  _atom_site_B_iso_or_equiv
  _atom_site_type_symbol
  Hf1      1.0000 0.13786  0.02178  0.14775  Biso   1.000  Hf
  Hf2      1.0000 0.12836  0.22916  0.39466  Biso   1.000  Hf
  Hf3      1.0000 0.35753  0.27511  0.10928  Biso   1.000  Hf
  Hf4      1.0000 0.36134  0.47988  0.34399  Biso   1.000  Hf
  O1       1.0000 0.03379  0.16849  0.07997  Biso   1.000  O
  O2       1.0000 0.03175  0.07985  0.32713  Biso   1.000  O
  O3       1.0000 0.46297  0.42925  0.15988  Biso   1.000  O
  O4       1.0000 0.49114  0.35533  0.42554  Biso   1.000  O
  O5       1.0000 0.27890  0.13020  0.24953  Biso   1.000  O
  O6       1.0000 0.27264  0.11169  0.49133  Biso   1.000  O
  O7       1.0000 0.22228  0.38033  0.00667  Biso   1.000  O
  O8       1.0000 0.20633  0.37660  0.25335  Biso   1.000  O
  Hf5      1.0000 0.13739  0.02074  0.64662  Biso   1.000  Hf
  Hf6      1.0000 0.13836  0.22919  0.89826  Biso   1.000  Hf
  Hf7      1.0000 0.36683  0.26886  0.61429  Biso   1.000  Hf
  Hf8      1.0000 0.36134  0.47869  0.85596  Biso   1.000  Hf
  O9       1.0000 0.03388  0.16812  0.57903  Biso   1.000  O
  O10      1.0000 0.03457  0.08251  0.82897  Biso   1.000  O
  O11      1.0000 0.46720  0.41743  0.67692  Biso   1.000  O
  O12      1.0000 0.46327  0.33153  0.92188  Biso   1.000  O
  O13      1.0000 0.27582  0.12802  0.74456  Biso   1.000  O
  O14      1.0000 0.27519  0.12167  0.99529  Biso   1.000  O
  O15      1.0000 0.24499  0.36139  0.49580  Biso   1.000  O
  O16      1.0000 0.22163  0.37246  0.75882  Biso   1.000  O
  Hf9      1.0000 0.13633  0.52246  0.14350  Biso   1.000  Hf
  Hf10     1.0000 0.13718  0.72548  0.39676  Biso   1.000  Hf
  Hf11     1.0000 0.36047  0.77115  0.10240  Biso   1.000  Hf
  Hf12     1.0000 0.35735  0.96836  0.35426  Biso   1.000  Hf
  O17      1.0000 0.03240  0.66992  0.07595  Biso   1.000  O
  O18      1.0000 0.03185  0.58411  0.32699  Biso   1.000  O
  O19      1.0000 0.46377  0.91832  0.17077  Biso   1.000  O
  O20      1.0000 0.46573  0.83099  0.42336  Biso   1.000  O
  O21      1.0000 0.27413  0.63043  0.23929  Biso   1.000  O
  O22      1.0000 0.27318  0.61514  0.49081  Biso   1.000  O
  O23      1.0000 0.22282  0.87956  0.00952  Biso   1.000  O
  O24      1.0000 0.22044  0.86928  0.25854  Biso   1.000  O
  Hf13     1.0000 0.14115  0.51846  0.64502  Biso   1.000  Hf
  Hf14     1.0000 0.13747  0.72932  0.89497  Biso   1.000  Hf
  Hf15     1.0000 0.36108  0.76983  0.60524  Biso   1.000  Hf
  Hf16     1.0000 0.36033  0.97879  0.85601  Biso   1.000  Hf
  O25      1.0000 0.03347  0.66443  0.57908  Biso   1.000  O
  O26      1.0000 0.03609  0.58241  0.82500  Biso   1.000  O
  O27      1.0000 0.46444  0.91721  0.67200  Biso   1.000  O
  O28      1.0000 0.46433  0.83214  0.92011  Biso   1.000  O
  O29      1.0000 0.27620  0.62807  0.73998  Biso   1.000  O
  O30      1.0000 0.27518  0.62304  0.98970  Biso   1.000  O
  O31      1.0000 0.22203  0.87224  0.51121  Biso   1.000  O
  O32      1.0000 0.22341  0.87155  0.75980  Biso   1.000  O
  Hf17     1.0000 0.63781  0.02291  0.14504  Biso   1.000  Hf
  Hf18     1.0000 0.64876  0.23010  0.39940  Biso   1.000  Hf
  Hf19     1.0000 0.86011  0.27239  0.10375  Biso   1.000  Hf
  Hf20     1.0000 0.86005  0.48088  0.35236  Biso   1.000  Hf
  O33      1.0000 0.53386  0.17055  0.08298  Biso   1.000  O
  O34      1.0000 0.52901  0.08787  0.33174  Biso   1.000  O
  O35      1.0000 0.96115  0.42178  0.16710  Biso   1.000  O
  O36      1.0000 0.96060  0.33469  0.42074  Biso   1.000  O
  O37      1.0000 0.77512  0.12829  0.24054  Biso   1.000  O
  O38      1.0000 0.78086  0.11881  0.49239  Biso   1.000  O
  O39      1.0000 0.72399  0.37978  0.00930  Biso   1.000  O
  O40      1.0000 0.72479  0.37187  0.25856  Biso   1.000  O
  Hf21     1.0000 0.63944  0.01919  0.64793  Biso   1.000  Hf
  Hf22     1.0000 0.63609  0.22980  0.89808  Biso   1.000  Hf
  Hf23     1.0000 0.86013  0.27107  0.60682  Biso   1.000  Hf
  Hf24     1.0000 0.86222  0.47837  0.85346  Biso   1.000  Hf
  O41      1.0000 0.54049  0.16763  0.58185  Biso   1.000  O
  O42      1.0000 0.53449  0.08097  0.83179  Biso   1.000  O
  O43      1.0000 0.96818  0.41584  0.66967  Biso   1.000  O
  O44      1.0000 0.96468  0.33181  0.92005  Biso   1.000  O
  O45      1.0000 0.77496  0.12892  0.74223  Biso   1.000  O
  O46      1.0000 0.77425  0.12194  0.99116  Biso   1.000  O
  O47      1.0000 0.72665  0.37923  0.51274  Biso   1.000  O
  O48      1.0000 0.72505  0.37146  0.76120  Biso   1.000  O
  Hf25     1.0000 0.63956  0.52459  0.14392  Biso   1.000  Hf
  Hf26     1.0000 0.63860  0.72785  0.39580  Biso   1.000  Hf
  Hf27     1.0000 0.86030  0.77292  0.10256  Biso   1.000  Hf
  Hf28     1.0000 0.85998  0.97588  0.35403  Biso   1.000  Hf
  O49      1.0000 0.53654  0.67235  0.07837  Biso   1.000  O
  O50      1.0000 0.53508  0.58674  0.32425  Biso   1.000  O
  O51      1.0000 0.96444  0.91854  0.16880  Biso   1.000  O
  O52      1.0000 0.96460  0.83117  0.42073  Biso   1.000  O
  O53      1.0000 0.77665  0.63164  0.23945  Biso   1.000  O
  O54      1.0000 0.77512  0.62149  0.49001  Biso   1.000  O
  O55      1.0000 0.72306  0.88106  0.00942  Biso   1.000  O
  O56      1.0000 0.72097  0.87334  0.26010  Biso   1.000  O
  Hf29     1.0000 0.63880  0.52216  0.64691  Biso   1.000  Hf
  Hf30     1.0000 0.63847  0.72941  0.89563  Biso   1.000  Hf
  Hf31     1.0000 0.86189  0.77041  0.60380  Biso   1.000  Hf
  Hf32     1.0000 0.86071  0.97978  0.85407  Biso   1.000  Hf
  O57      1.0000 0.53420  0.66569  0.57882  Biso   1.000  O
  O58      1.0000 0.53495  0.58314  0.83064  Biso   1.000  O
  O59      1.0000 0.96475  0.91822  0.67002  Biso   1.000  O
  O60      1.0000 0.96367  0.83251  0.91854  Biso   1.000  O
  O61      1.0000 0.77636  0.62840  0.73983  Biso   1.000  O
  O62      1.0000 0.77641  0.62215  0.98887  Biso   1.000  O
  O63      1.0000 0.72373  0.87772  0.51039  Biso   1.000  O
  O64      1.0000 0.72462  0.87093  0.75979  Biso   1.000  O
  Cr1      1.0000 0.38892  0.22480  0.37359  Biso   1.000  Cr
