data_image0
_cell_length_a       9.99426
_cell_length_b       10.153
_cell_length_c       4.99608
_cell_angle_alpha    90.0001
_cell_angle_beta     90.0003
_cell_angle_gamma    90.0001

_symmetry_space_group_name_H-M    "P 1"
_symmetry_int_tables_number       1

loop_
  _symmetry_equiv_pos_as_xyz
  'x, y, z'

loop_
  _atom_site_label
  _atom_site_occupancy
  _atom_site_fract_x
  _atom_site_fract_y
  _atom_site_fract_z
  _atom_site_thermal_displace_type
  _atom_site_B_iso_or_equiv
  _atom_site_type_symbol
  Cr1      1.0000 0.12491  0.00006  0.24982  Biso   1.000  Cr
  Hf1      1.0000 0.12491  0.25222  0.74982  Biso   1.000  Hf
  Hf2      1.0000 0.37374  0.24913  0.25988  Biso   1.000  Hf
  Hf3      1.0000 0.37247  0.00005  0.74982  Biso   1.000  Hf
  O1       1.0000 0.97970  0.15279  0.94841  Biso   1.000  O
  O2       1.0000 0.01745  0.09517  0.46029  Biso   1.000  O
  O3       1.0000 0.99759  0.34997  0.49696  Biso   1.000  O
  O4       1.0000 0.00278  0.39901  0.99708  Biso   1.000  O
  O5       1.0000 0.27012  0.15279  0.55122  Biso   1.000  O
  O6       1.0000 0.23237  0.09517  0.03934  Biso   1.000  O
  O7       1.0000 0.25222  0.34996  0.00268  Biso   1.000  O
  O8       1.0000 0.24703  0.39901  0.50256  Biso   1.000  O
  Hf4      1.0000 0.12491  0.50005  0.24982  Biso   1.000  Hf
  Hf5      1.0000 0.12491  0.74789  0.74982  Biso   1.000  Hf
  Hf6      1.0000 0.37374  0.75098  0.23976  Biso   1.000  Hf
  Hf7      1.0000 0.37807  0.50005  0.74982  Biso   1.000  Hf
  O9       1.0000 0.99759  0.65014  0.00268  Biso   1.000  O
  O10      1.0000 0.00278  0.60110  0.50255  Biso   1.000  O
  O11      1.0000 0.97970  0.84732  0.55123  Biso   1.000  O
  O12      1.0000 0.01745  0.90494  0.03935  Biso   1.000  O
  O13      1.0000 0.25222  0.65014  0.49695  Biso   1.000  O
  O14      1.0000 0.24703  0.60110  0.99708  Biso   1.000  O
  O15      1.0000 0.27012  0.84732  0.94840  Biso   1.000  O
  O16      1.0000 0.23237  0.90494  0.46029  Biso   1.000  O
  Hf8      1.0000 0.62491  0.00005  0.24982  Biso   1.000  Hf
  Hf9      1.0000 0.62491  0.24780  0.74982  Biso   1.000  Hf
  Hf10     1.0000 0.87608  0.24913  0.23976  Biso   1.000  Hf
  Hf11     1.0000 0.87735  0.00005  0.74982  Biso   1.000  Hf
  O17      1.0000 0.48309  0.14450  0.98489  Biso   1.000  O
  O18      1.0000 0.51159  0.10656  0.49629  Biso   1.000  O
  O19      1.0000 0.49683  0.35570  0.50430  Biso   1.000  O
  O20      1.0000 0.50331  0.39390  0.00104  Biso   1.000  O
  O21      1.0000 0.76673  0.14450  0.51474  Biso   1.000  O
  O22      1.0000 0.73823  0.10656  0.00335  Biso   1.000  O
  O23      1.0000 0.75299  0.35570  0.99533  Biso   1.000  O
  O24      1.0000 0.74651  0.39390  0.49859  Biso   1.000  O
  Hf12     1.0000 0.62491  0.50005  0.24982  Biso   1.000  Hf
  Hf13     1.0000 0.62491  0.75230  0.74982  Biso   1.000  Hf
  Hf14     1.0000 0.87608  0.75098  0.25988  Biso   1.000  Hf
  Hf15     1.0000 0.87174  0.50005  0.74982  Biso   1.000  Hf
  O25      1.0000 0.49683  0.64441  0.99533  Biso   1.000  O
  O26      1.0000 0.50331  0.60621  0.49859  Biso   1.000  O
  O27      1.0000 0.48309  0.85561  0.51475  Biso   1.000  O
  O28      1.0000 0.51159  0.89354  0.00335  Biso   1.000  O
  O29      1.0000 0.75299  0.64441  0.50430  Biso   1.000  O
  O30      1.0000 0.74651  0.60621  0.00104  Biso   1.000  O
  O31      1.0000 0.76673  0.85561  0.98489  Biso   1.000  O
  O32      1.0000 0.73823  0.89354  0.49629  Biso   1.000  O
