data_image0
_cell_length_a       9.99691
_cell_length_b       10.3798
_cell_length_c       10.0386
_cell_angle_alpha    89.999
_cell_angle_beta     89.3634
_cell_angle_gamma    89.6041

_symmetry_space_group_name_H-M    "P 1"
_symmetry_int_tables_number       1

loop_
  _symmetry_equiv_pos_as_xyz
  'x, y, z'

loop_
  _atom_site_label
  _atom_site_occupancy
  _atom_site_fract_x
  _atom_site_fract_y
  _atom_site_fract_z
  _atom_site_thermal_displace_type
  _atom_site_B_iso_or_equiv
  _atom_site_type_symbol
  Hf1      1.0000 0.12672  0.01119  0.12319  Biso   1.000  Hf
  Hf2      1.0000 0.13070  0.22997  0.39001  Biso   1.000  Hf
  Hf3      1.0000 0.38816  0.27236  0.12009  Biso   1.000  Hf
  Hf4      1.0000 0.36916  0.48288  0.37902  Biso   1.000  Hf
  O1       1.0000 0.01122  0.15641  0.22609  Biso   1.000  O
  O2       1.0000 0.03545  0.06246  0.45732  Biso   1.000  O
  O3       1.0000 0.47854  0.43392  0.20181  Biso   1.000  O
  O4       1.0000 0.46875  0.31816  0.44975  Biso   1.000  O
  O5       1.0000 0.25722  0.12895  0.24752  Biso   1.000  O
  O6       1.0000 0.27409  0.13026  0.50420  Biso   1.000  O
  O7       1.0000 0.23169  0.38236  0.50350  Biso   1.000  O
  O8       1.0000 0.24382  0.37452  0.25197  Biso   1.000  O
  Hf5      1.0000 0.13370  0.01532  0.63122  Biso   1.000  Hf
  Hf6      1.0000 0.12493  0.23505  0.87488  Biso   1.000  Hf
  Hf7      1.0000 0.36595  0.26766  0.62850  Biso   1.000  Hf
  Hf8      1.0000 0.36458  0.48637  0.87351  Biso   1.000  Hf
  O9       1.0000 0.03309  0.18205  0.69220  Biso   1.000  O
  O10      1.0000 0.02878  0.06118  0.94383  Biso   1.000  O
  O11      1.0000 0.46117  0.43716  0.69301  Biso   1.000  O
  O12      1.0000 0.46560  0.32171  0.93823  Biso   1.000  O
  O13      1.0000 0.26747  0.11913  0.75552  Biso   1.000  O
  O14      1.0000 0.25661  0.14421  0.00972  Biso   1.000  O
  O15      1.0000 0.22681  0.38300  0.00530  Biso   1.000  O
  O16      1.0000 0.22770  0.37015  0.75282  Biso   1.000  O
  Hf9      1.0000 0.14255  0.52762  0.12755  Biso   1.000  Hf
  Hf10     1.0000 0.13611  0.73507  0.37727  Biso   1.000  Hf
  Hf11     1.0000 0.36961  0.76916  0.12572  Biso   1.000  Hf
  Hf12     1.0000 0.36530  0.98734  0.37488  Biso   1.000  Hf
  O17      1.0000 0.03345  0.67932  0.19866  Biso   1.000  O
  O18      1.0000 0.03961  0.56492  0.44160  Biso   1.000  O
  O19      1.0000 0.46074  0.93685  0.19473  Biso   1.000  O
  O20      1.0000 0.46575  0.82146  0.44481  Biso   1.000  O
  O21      1.0000 0.27822  0.62334  0.25071  Biso   1.000  O
  O22      1.0000 0.27092  0.63334  0.50046  Biso   1.000  O
  O23      1.0000 0.23083  0.88346  0.49984  Biso   1.000  O
  O24      1.0000 0.22931  0.86988  0.24994  Biso   1.000  O
  Hf13     1.0000 0.13343  0.51707  0.62574  Biso   1.000  Hf
  Hf14     1.0000 0.13236  0.73370  0.87436  Biso   1.000  Hf
  Hf15     1.0000 0.36576  0.76816  0.62496  Biso   1.000  Hf
  Hf16     1.0000 0.36493  0.98575  0.87670  Biso   1.000  Hf
  O25      1.0000 0.03450  0.68424  0.69503  Biso   1.000  O
  O26      1.0000 0.03571  0.56409  0.94600  Biso   1.000  O
  O27      1.0000 0.46325  0.93556  0.69733  Biso   1.000  O
  O28      1.0000 0.46495  0.81972  0.94460  Biso   1.000  O
  O29      1.0000 0.26897  0.61916  0.74885  Biso   1.000  O
  O30      1.0000 0.27105  0.63579  0.99857  Biso   1.000  O
  O31      1.0000 0.22997  0.88233  0.99817  Biso   1.000  O
  O32      1.0000 0.22973  0.86736  0.75038  Biso   1.000  O
  Hf17     1.0000 0.63412  0.01350  0.12648  Biso   1.000  Hf
  Hf18     1.0000 0.63902  0.23528  0.37368  Biso   1.000  Hf
  Hf19     1.0000 0.87295  0.25622  0.11014  Biso   1.000  Hf
  Hf20     1.0000 0.86938  0.48067  0.37560  Biso   1.000  Hf
  O33      1.0000 0.53936  0.18011  0.20195  Biso   1.000  O
  O34      1.0000 0.53559  0.06807  0.44466  Biso   1.000  O
  O35      1.0000 0.99512  0.40384  0.18742  Biso   1.000  O
  O36      1.0000 0.96384  0.31923  0.45152  Biso   1.000  O
  O37      1.0000 0.76589  0.11089  0.24726  Biso   1.000  O
  O38      1.0000 0.77066  0.13612  0.49814  Biso   1.000  O
  O39      1.0000 0.73019  0.38588  0.49631  Biso   1.000  O
  O40      1.0000 0.74682  0.36510  0.24572  Biso   1.000  O
  Hf21     1.0000 0.63219  0.01712  0.62213  Biso   1.000  Hf
  Hf22     1.0000 0.63625  0.23326  0.87272  Biso   1.000  Hf
  Hf23     1.0000 0.86468  0.26791  0.62784  Biso   1.000  Hf
  Hf24     1.0000 0.86450  0.48603  0.87093  Biso   1.000  Hf
  O41      1.0000 0.53407  0.18368  0.69674  Biso   1.000  O
  O42      1.0000 0.52553  0.07425  0.95257  Biso   1.000  O
  O43      1.0000 0.96122  0.43784  0.68924  Biso   1.000  O
  O44      1.0000 0.94179  0.31063  0.91602  Biso   1.000  O
  O45      1.0000 0.76776  0.11622  0.74708  Biso   1.000  O
  O46      1.0000 0.76427  0.12591  0.99550  Biso   1.000  O
  O47      1.0000 0.72497  0.38089  0.99702  Biso   1.000  O
  O48      1.0000 0.72377  0.37038  0.74557  Biso   1.000  O
  Hf25     1.0000 0.64056  0.51659  0.12395  Biso   1.000  Hf
  Hf26     1.0000 0.63462  0.73469  0.37469  Biso   1.000  Hf
  Hf27     1.0000 0.86397  0.76316  0.12446  Biso   1.000  Hf
  Hf28     1.0000 0.87102  0.98641  0.37245  Biso   1.000  Hf
  O49      1.0000 0.54044  0.68676  0.19269  Biso   1.000  O
  O50      1.0000 0.53599  0.57006  0.44438  Biso   1.000  O
  O51      1.0000 0.96160  0.92209  0.19497  Biso   1.000  O
  O52      1.0000 0.96576  0.81607  0.44461  Biso   1.000  O
  O53      1.0000 0.77566  0.61309  0.24651  Biso   1.000  O
  O54      1.0000 0.77210  0.63231  0.49565  Biso   1.000  O
  O55      1.0000 0.73237  0.88504  0.49644  Biso   1.000  O
  O56      1.0000 0.72823  0.86470  0.24774  Biso   1.000  O
  Hf29     1.0000 0.63231  0.51768  0.62346  Biso   1.000  Hf
  Hf30     1.0000 0.63230  0.73304  0.87397  Biso   1.000  Hf
  Hf31     1.0000 0.86556  0.76655  0.62249  Biso   1.000  Hf
  Hf32     1.0000 0.86271  0.97966  0.87267  Biso   1.000  Hf
  O57      1.0000 0.53402  0.68533  0.69408  Biso   1.000  O
  O58      1.0000 0.53336  0.56789  0.94495  Biso   1.000  O
  O59      1.0000 0.96401  0.93022  0.69612  Biso   1.000  O
  O60      1.0000 0.96265  0.81369  0.94529  Biso   1.000  O
  O61      1.0000 0.76751  0.61846  0.74540  Biso   1.000  O
  O62      1.0000 0.76931  0.63181  0.99573  Biso   1.000  O
  O63      1.0000 0.72709  0.87942  0.99769  Biso   1.000  O
  O64      1.0000 0.72736  0.86691  0.74652  Biso   1.000  O
  Cr1      1.0000 0.14324  0.26041  0.13830  Biso   1.000  Cr
