data_image0
_cell_length_a       5.17141
_cell_length_b       10.3391
_cell_length_c       10.5632
_cell_angle_alpha    90.5415
_cell_angle_beta     79.341
_cell_angle_gamma    90.099

_symmetry_space_group_name_H-M    "P 1"
_symmetry_int_tables_number       1

loop_
  _symmetry_equiv_pos_as_xyz
  'x, y, z'

loop_
  _atom_site_label
  _atom_site_occupancy
  _atom_site_fract_x
  _atom_site_fract_y
  _atom_site_fract_z
  _atom_site_thermal_displace_type
  _atom_site_B_iso_or_equiv
  _atom_site_type_symbol
  Zr1      1.0000 0.27459  0.02361  0.14703  Biso   1.000  Zr
  Zr2      1.0000 0.27591  0.23049  0.39906  Biso   1.000  Zr
  Zr3      1.0000 0.71364  0.27593  0.10802  Biso   1.000  Zr
  Zr4      1.0000 0.71891  0.48231  0.34319  Biso   1.000  Zr
  O1       1.0000 0.06135  0.16633  0.08011  Biso   1.000  O
  O2       1.0000 0.04625  0.09163  0.32561  Biso   1.000  O
  O3       1.0000 0.92608  0.42611  0.16196  Biso   1.000  O
  O4       1.0000 0.97413  0.35922  0.42683  Biso   1.000  O
  O5       1.0000 0.55943  0.13002  0.25082  Biso   1.000  O
  O6       1.0000 0.55481  0.11253  0.49275  Biso   1.000  O
  O7       1.0000 0.44815  0.38031  0.00551  Biso   1.000  O
  O8       1.0000 0.41951  0.37918  0.25084  Biso   1.000  O
  Zr5      1.0000 0.27572  0.01821  0.64892  Biso   1.000  Zr
  Zr6      1.0000 0.27076  0.23023  0.89988  Biso   1.000  Zr
  Zr7      1.0000 0.73158  0.26711  0.61521  Biso   1.000  Zr
  Zr8      1.0000 0.72374  0.47821  0.85457  Biso   1.000  Zr
  O9       1.0000 0.07325  0.16254  0.57945  Biso   1.000  O
  O10      1.0000 0.06286  0.08500  0.82874  Biso   1.000  O
  O11      1.0000 0.94442  0.41103  0.67859  Biso   1.000  O
  O12      1.0000 0.93092  0.33541  0.92379  Biso   1.000  O
  O13      1.0000 0.54582  0.12714  0.74648  Biso   1.000  O
  O14      1.0000 0.54404  0.12284  0.99610  Biso   1.000  O
  O15      1.0000 0.49638  0.36250  0.49766  Biso   1.000  O
  O16      1.0000 0.44747  0.37350  0.75928  Biso   1.000  O
  Zr9      1.0000 0.27559  0.52493  0.14209  Biso   1.000  Zr
  Zr10     1.0000 0.27223  0.72494  0.39659  Biso   1.000  Zr
  Zr11     1.0000 0.72017  0.77268  0.10141  Biso   1.000  Zr
  Zr12     1.0000 0.71385  0.96688  0.35460  Biso   1.000  Zr
  O17      1.0000 0.06107  0.66839  0.07191  Biso   1.000  O
  O18      1.0000 0.05954  0.59273  0.31989  Biso   1.000  O
  O19      1.0000 0.93329  0.91464  0.17220  Biso   1.000  O
  O20      1.0000 0.93606  0.83555  0.42665  Biso   1.000  O
  O21      1.0000 0.54660  0.63254  0.23843  Biso   1.000  O
  O22      1.0000 0.54019  0.61694  0.49075  Biso   1.000  O
  O23      1.0000 0.44651  0.88075  0.01018  Biso   1.000  O
  O24      1.0000 0.43987  0.87273  0.25944  Biso   1.000  O
  Zr13     1.0000 0.28035  0.51918  0.64561  Biso   1.000  Zr
  Zr14     1.0000 0.27348  0.72942  0.89475  Biso   1.000  Zr
  Zr15     1.0000 0.72321  0.76890  0.60526  Biso   1.000  Zr
  Zr16     1.0000 0.71987  0.97947  0.85655  Biso   1.000  Zr
  O25      1.0000 0.05934  0.65850  0.57554  Biso   1.000  O
  O26      1.0000 0.06585  0.58770  0.82256  Biso   1.000  O
  O27      1.0000 0.93383  0.91304  0.67488  Biso   1.000  O
  O28      1.0000 0.93113  0.83671  0.92160  Biso   1.000  O
  O29      1.0000 0.54867  0.62685  0.73921  Biso   1.000  O
  O30      1.0000 0.54761  0.62447  0.98805  Biso   1.000  O
  O31      1.0000 0.44750  0.87154  0.51228  Biso   1.000  O
  O32      1.0000 0.45126  0.87170  0.76057  Biso   1.000  O
  Cr1      1.0000 0.77586  0.22749  0.37360  Biso   1.000  Cr
