data_image0
_cell_length_a       10.1598
_cell_length_b       5.17575
_cell_length_c       10.5661
_cell_angle_alpha    89.5732
_cell_angle_beta     90.8035
_cell_angle_gamma    89.8909

_symmetry_space_group_name_H-M    "P 1"
_symmetry_int_tables_number       1

loop_
  _symmetry_equiv_pos_as_xyz
  'x, y, z'

loop_
  _atom_site_label
  _atom_site_occupancy
  _atom_site_fract_x
  _atom_site_fract_y
  _atom_site_fract_z
  _atom_site_thermal_displace_type
  _atom_site_B_iso_or_equiv
  _atom_site_type_symbol
  Zr1      1.0000 0.13984  0.04162  0.17187  Biso   1.000  Zr
  Zr2      1.0000 0.13572  0.45949  0.42268  Biso   1.000  Zr
  Zr3      1.0000 0.35350  0.54068  0.17736  Biso   1.000  Zr
  Zr4      1.0000 0.36066  0.95934  0.42549  Biso   1.000  Zr
  Zr5      1.0000 0.64221  0.06062  0.06859  Biso   1.000  Zr
  Zr6      1.0000 0.63458  0.46562  0.34001  Biso   1.000  Zr
  Zr7      1.0000 0.87387  0.54707  0.07562  Biso   1.000  Zr
  Zr8      1.0000 0.86182  0.96074  0.33004  Biso   1.000  Zr
  O1       1.0000 0.03745  0.32092  0.07726  Biso   1.000  O
  O2       1.0000 0.02610  0.18702  0.32650  Biso   1.000  O
  O3       1.0000 0.47477  0.80124  0.07750  Biso   1.000  O
  O4       1.0000 0.46282  0.67510  0.33516  Biso   1.000  O
  O5       1.0000 0.26932  0.24983  0.29840  Biso   1.000  O
  O6       1.0000 0.27812  0.24420  0.04456  Biso   1.000  O
  O7       1.0000 0.22057  0.75068  0.29824  Biso   1.000  O
  O8       1.0000 0.22509  0.74885  0.04573  Biso   1.000  O
  O9       1.0000 0.51213  0.29279  0.17542  Biso   1.000  O
  O10      1.0000 0.52972  0.17315  0.42494  Biso   1.000  O
  O11      1.0000 0.97025  0.83200  0.17013  Biso   1.000  O
  O12      1.0000 0.96633  0.68199  0.41960  Biso   1.000  O
  O13      1.0000 0.77811  0.24435  0.45463  Biso   1.000  O
  O14      1.0000 0.75666  0.29883  0.19528  Biso   1.000  O
  O15      1.0000 0.72466  0.74867  0.46120  Biso   1.000  O
  O16      1.0000 0.72526  0.77912  0.20829  Biso   1.000  O
  Zr9      1.0000 0.13980  0.03925  0.66984  Biso   1.000  Zr
  Zr10     1.0000 0.14369  0.45031  0.91892  Biso   1.000  Zr
  Zr11     1.0000 0.36510  0.53738  0.67228  Biso   1.000  Zr
  Zr12     1.0000 0.36107  0.94857  0.91877  Biso   1.000  Zr
  Zr13     1.0000 0.63994  0.04194  0.58164  Biso   1.000  Zr
  Zr14     1.0000 0.64264  0.45073  0.83255  Biso   1.000  Zr
  Zr15     1.0000 0.86132  0.54089  0.58139  Biso   1.000  Zr
  Zr16     1.0000 0.86639  0.95499  0.82768  Biso   1.000  Zr
  O17      1.0000 0.03156  0.32506  0.57974  Biso   1.000  O
  O18      1.0000 0.03633  0.17130  0.82807  Biso   1.000  O
  O19      1.0000 0.46902  0.82667  0.58563  Biso   1.000  O
  O20      1.0000 0.46835  0.66081  0.83466  Biso   1.000  O
  O21      1.0000 0.27800  0.24129  0.79426  Biso   1.000  O
  O22      1.0000 0.27375  0.25074  0.54600  Biso   1.000  O
  O23      1.0000 0.22694  0.74288  0.79460  Biso   1.000  O
  O24      1.0000 0.22574  0.74967  0.54615  Biso   1.000  O
  O25      1.0000 0.53449  0.32746  0.66866  Biso   1.000  O
  O26      1.0000 0.53265  0.15125  0.90776  Biso   1.000  O
  O27      1.0000 0.97032  0.82524  0.66595  Biso   1.000  O
  O28      1.0000 0.97463  0.67235  0.91521  Biso   1.000  O
  O29      1.0000 0.79103  0.23588  0.94654  Biso   1.000  O
  O30      1.0000 0.77785  0.24870  0.70277  Biso   1.000  O
  O31      1.0000 0.72474  0.73981  0.96439  Biso   1.000  O
  O32      1.0000 0.72776  0.74880  0.71052  Biso   1.000  O
  Cr1      1.0000 0.61606  0.55449  0.10680  Biso   1.000  Cr
