data_image0
_cell_length_a       10.0932
_cell_length_b       5.22061
_cell_length_c       10.168
_cell_angle_alpha    90.9032
_cell_angle_beta     88.3464
_cell_angle_gamma    89.6912

_symmetry_space_group_name_H-M    "P 1"
_symmetry_int_tables_number       1

loop_
  _symmetry_equiv_pos_as_xyz
  'x, y, z'

loop_
  _atom_site_label
  _atom_site_occupancy
  _atom_site_fract_x
  _atom_site_fract_y
  _atom_site_fract_z
  _atom_site_thermal_displace_type
  _atom_site_B_iso_or_equiv
  _atom_site_type_symbol
  Zr1      1.0000 0.13438  0.04595  0.12860  Biso   1.000  Zr
  Zr2      1.0000 0.13897  0.46718  0.38895  Biso   1.000  Zr
  Zr3      1.0000 0.40261  0.50159  0.09688  Biso   1.000  Zr
  Zr4      1.0000 0.37159  0.95747  0.37667  Biso   1.000  Zr
  O1       1.0000 0.01819  0.32015  0.22896  Biso   1.000  O
  O2       1.0000 0.03695  0.12794  0.45758  Biso   1.000  O
  O3       1.0000 0.46871  0.84217  0.19610  Biso   1.000  O
  O4       1.0000 0.47480  0.64517  0.45235  Biso   1.000  O
  O5       1.0000 0.26802  0.28536  0.23918  Biso   1.000  O
  O6       1.0000 0.27772  0.25806  0.50022  Biso   1.000  O
  O7       1.0000 0.23933  0.76170  0.50866  Biso   1.000  O
  O8       1.0000 0.22090  0.77892  0.26649  Biso   1.000  O
  Zr5      1.0000 0.13367  0.03173  0.62802  Biso   1.000  Zr
  Zr6      1.0000 0.12061  0.48046  0.87234  Biso   1.000  Zr
  Zr7      1.0000 0.36704  0.53581  0.62920  Biso   1.000  Zr
  Zr8      1.0000 0.35907  0.98132  0.87415  Biso   1.000  Zr
  O9       1.0000 0.02944  0.36054  0.69635  Biso   1.000  O
  O10      1.0000 0.01370  0.13574  0.96032  Biso   1.000  O
  O11      1.0000 0.46126  0.87923  0.69543  Biso   1.000  O
  O12      1.0000 0.47064  0.66776  0.92499  Biso   1.000  O
  O13      1.0000 0.26411  0.24399  0.75240  Biso   1.000  O
  O14      1.0000 0.24622  0.29651  0.00290  Biso   1.000  O
  O15      1.0000 0.23285  0.76912  0.00690  Biso   1.000  O
  O16      1.0000 0.22798  0.74289  0.75525  Biso   1.000  O
  Zr9      1.0000 0.63766  0.01741  0.12991  Biso   1.000  Zr
  Zr10     1.0000 0.64297  0.46853  0.37235  Biso   1.000  Zr
  Zr11     1.0000 0.87655  0.49333  0.10693  Biso   1.000  Zr
  Zr12     1.0000 0.87791  0.96494  0.36912  Biso   1.000  Zr
  O17      1.0000 0.54343  0.34956  0.20745  Biso   1.000  O
  O18      1.0000 0.53916  0.13677  0.44229  Biso   1.000  O
  O19      1.0000 0.98788  0.79469  0.18361  Biso   1.000  O
  O20      1.0000 0.97078  0.64272  0.45114  Biso   1.000  O
  O21      1.0000 0.77523  0.20643  0.24188  Biso   1.000  O
  O22      1.0000 0.77371  0.27013  0.49213  Biso   1.000  O
  O23      1.0000 0.73837  0.77444  0.49092  Biso   1.000  O
  O24      1.0000 0.74504  0.71523  0.24140  Biso   1.000  O
  Zr13     1.0000 0.63109  0.03036  0.61579  Biso   1.000  Zr
  Zr14     1.0000 0.63736  0.46974  0.86631  Biso   1.000  Zr
  Zr15     1.0000 0.86786  0.53322  0.62141  Biso   1.000  Zr
  Zr16     1.0000 0.85813  0.96838  0.86991  Biso   1.000  Zr
  O25      1.0000 0.53193  0.36405  0.69631  Biso   1.000  O
  O26      1.0000 0.50361  0.18692  0.97049  Biso   1.000  O
  O27      1.0000 0.96614  0.86347  0.69636  Biso   1.000  O
  O28      1.0000 0.93824  0.61999  0.91893  Biso   1.000  O
  O29      1.0000 0.76454  0.22997  0.74134  Biso   1.000  O
  O30      1.0000 0.75140  0.25219  0.99204  Biso   1.000  O
  O31      1.0000 0.71935  0.76104  0.99233  Biso   1.000  O
  O32      1.0000 0.72473  0.73518  0.73886  Biso   1.000  O
  Cr1      1.0000 0.15214  0.53270  0.13967  Biso   1.000  Cr
