data_image0
_cell_length_a       10.0556
_cell_length_b       10.1902
_cell_length_c       10.0556
_cell_angle_alpha    89.9995
_cell_angle_beta     90.2464
_cell_angle_gamma    89.9976

_symmetry_space_group_name_H-M    "P 1"
_symmetry_int_tables_number       1

loop_
  _symmetry_equiv_pos_as_xyz
  'x, y, z'

loop_
  _atom_site_label
  _atom_site_occupancy
  _atom_site_fract_x
  _atom_site_fract_y
  _atom_site_fract_z
  _atom_site_thermal_displace_type
  _atom_site_B_iso_or_equiv
  _atom_site_type_symbol
  Cr1      1.0000 0.12504  0.01108  0.12503  Biso   1.000  Cr
  Zr1      1.0000 0.12509  0.00217  0.62512  Biso   1.000  Zr
  Zr2      1.0000 0.12512  0.49868  0.12511  Biso   1.000  Zr
  Zr3      1.0000 0.12513  0.50061  0.62510  Biso   1.000  Zr
  Zr4      1.0000 0.62512  0.00217  0.12509  Biso   1.000  Zr
  Zr5      1.0000 0.62510  0.99888  0.62510  Biso   1.000  Zr
  Zr6      1.0000 0.62510  0.50061  0.12513  Biso   1.000  Zr
  Zr7      1.0000 0.62511  0.50128  0.62511  Biso   1.000  Zr
  Zr8      1.0000 0.12749  0.25089  0.37587  Biso   1.000  Zr
  Zr9      1.0000 0.12275  0.25089  0.87440  Biso   1.000  Zr
  Zr10     1.0000 0.12131  0.74867  0.37414  Biso   1.000  Zr
  Zr11     1.0000 0.12890  0.74863  0.87605  Biso   1.000  Zr
  Zr12     1.0000 0.62616  0.24913  0.37548  Biso   1.000  Zr
  Zr13     1.0000 0.62407  0.24915  0.87475  Biso   1.000  Zr
  Zr14     1.0000 0.62238  0.75183  0.37409  Biso   1.000  Zr
  Zr15     1.0000 0.62781  0.75180  0.87613  Biso   1.000  Zr
  Zr16     1.0000 0.37587  0.25089  0.12748  Biso   1.000  Zr
  Zr17     1.0000 0.37547  0.24913  0.62616  Biso   1.000  Zr
  Zr18     1.0000 0.37414  0.74867  0.12131  Biso   1.000  Zr
  Zr19     1.0000 0.37409  0.75183  0.62238  Biso   1.000  Zr
  Zr20     1.0000 0.87440  0.25089  0.12275  Biso   1.000  Zr
  Zr21     1.0000 0.87475  0.24915  0.62408  Biso   1.000  Zr
  Zr22     1.0000 0.87604  0.74863  0.12891  Biso   1.000  Zr
  Zr23     1.0000 0.87613  0.75180  0.62781  Biso   1.000  Zr
  Zr24     1.0000 0.37121  0.00213  0.37120  Biso   1.000  Zr
  Zr25     1.0000 0.37558  0.99669  0.87464  Biso   1.000  Zr
  Zr26     1.0000 0.37623  0.50174  0.37623  Biso   1.000  Zr
  Zr27     1.0000 0.37681  0.49950  0.87342  Biso   1.000  Zr
  Zr28     1.0000 0.87464  0.99669  0.37558  Biso   1.000  Zr
  Zr29     1.0000 0.87898  0.00210  0.87898  Biso   1.000  Zr
  Zr30     1.0000 0.87343  0.49950  0.37680  Biso   1.000  Zr
  Zr31     1.0000 0.87400  0.50173  0.87400  Biso   1.000  Zr
  O1       1.0000 0.98827  0.14964  0.98827  Biso   1.000  O
  O2       1.0000 0.99179  0.14425  0.48700  Biso   1.000  O
  O3       1.0000 0.99757  0.64971  0.99758  Biso   1.000  O
  O4       1.0000 0.99631  0.64405  0.49815  Biso   1.000  O
  O5       1.0000 0.48700  0.14425  0.99179  Biso   1.000  O
  O6       1.0000 0.49197  0.14493  0.49197  Biso   1.000  O
  O7       1.0000 0.49814  0.64406  0.99632  Biso   1.000  O
  O8       1.0000 0.49655  0.64476  0.49656  Biso   1.000  O
  O9       1.0000 0.01387  0.09357  0.23645  Biso   1.000  O
  O10      1.0000 0.00404  0.10791  0.74277  Biso   1.000  O
  O11      1.0000 0.00186  0.60025  0.24835  Biso   1.000  O
  O12      1.0000 0.00239  0.60656  0.74818  Biso   1.000  O
  O13      1.0000 0.50752  0.10790  0.24618  Biso   1.000  O
  O14      1.0000 0.50499  0.10657  0.74523  Biso   1.000  O
  O15      1.0000 0.50203  0.60657  0.24787  Biso   1.000  O
  O16      1.0000 0.50247  0.60674  0.74781  Biso   1.000  O
  O17      1.0000 0.99795  0.34948  0.25229  Biso   1.000  O
  O18      1.0000 0.99644  0.35670  0.75246  Biso   1.000  O
  O19      1.0000 0.97583  0.84453  0.27436  Biso   1.000  O
  O20      1.0000 0.99297  0.85668  0.76803  Biso   1.000  O
  O21      1.0000 0.49779  0.35672  0.25377  Biso   1.000  O
  O22      1.0000 0.49670  0.35634  0.75351  Biso   1.000  O
  O23      1.0000 0.48215  0.85669  0.25725  Biso   1.000  O
  O24      1.0000 0.49497  0.85554  0.75524  Biso   1.000  O
  O25      1.0000 0.00124  0.39765  0.00123  Biso   1.000  O
  O26      1.0000 0.00250  0.39391  0.50180  Biso   1.000  O
  O27      1.0000 0.02213  0.90553  0.02212  Biso   1.000  O
  O28      1.0000 0.00164  0.89339  0.51352  Biso   1.000  O
  O29      1.0000 0.50181  0.39391  0.00248  Biso   1.000  O
  O30      1.0000 0.50252  0.39418  0.50251  Biso   1.000  O
  O31      1.0000 0.51352  0.89339  0.00163  Biso   1.000  O
  O32      1.0000 0.50276  0.89485  0.50275  Biso   1.000  O
  O33      1.0000 0.26210  0.14978  0.26209  Biso   1.000  O
  O34      1.0000 0.25843  0.14425  0.76326  Biso   1.000  O
  O35      1.0000 0.25261  0.64974  0.25261  Biso   1.000  O
  O36      1.0000 0.25394  0.64405  0.75205  Biso   1.000  O
  O37      1.0000 0.76327  0.14424  0.25842  Biso   1.000  O
  O38      1.0000 0.75825  0.14492  0.75824  Biso   1.000  O
  O39      1.0000 0.75205  0.64404  0.25393  Biso   1.000  O
  O40      1.0000 0.75371  0.64476  0.75370  Biso   1.000  O
  O41      1.0000 0.23644  0.09358  0.01385  Biso   1.000  O
  O42      1.0000 0.24617  0.10790  0.50750  Biso   1.000  O
  O43      1.0000 0.24834  0.60026  0.00185  Biso   1.000  O
  O44      1.0000 0.24785  0.60658  0.50203  Biso   1.000  O
  O45      1.0000 0.74276  0.10791  0.00403  Biso   1.000  O
  O46      1.0000 0.74522  0.10657  0.50498  Biso   1.000  O
  O47      1.0000 0.74817  0.60656  0.00238  Biso   1.000  O
  O48      1.0000 0.74779  0.60674  0.50245  Biso   1.000  O
  O49      1.0000 0.25230  0.34948  0.99795  Biso   1.000  O
  O50      1.0000 0.25378  0.35672  0.49779  Biso   1.000  O
  O51      1.0000 0.27436  0.84454  0.97583  Biso   1.000  O
  O52      1.0000 0.25726  0.85669  0.48216  Biso   1.000  O
  O53      1.0000 0.75247  0.35670  0.99644  Biso   1.000  O
  O54      1.0000 0.75352  0.35633  0.49670  Biso   1.000  O
  O55      1.0000 0.76804  0.85668  0.99297  Biso   1.000  O
  O56      1.0000 0.75525  0.85554  0.49497  Biso   1.000  O
  O57      1.0000 0.24900  0.39771  0.24901  Biso   1.000  O
  O58      1.0000 0.24772  0.39391  0.74846  Biso   1.000  O
  O59      1.0000 0.22805  0.90562  0.22805  Biso   1.000  O
  O60      1.0000 0.24859  0.89339  0.73669  Biso   1.000  O
  O61      1.0000 0.74845  0.39391  0.24773  Biso   1.000  O
  O62      1.0000 0.74770  0.39418  0.74771  Biso   1.000  O
  O63      1.0000 0.73668  0.89339  0.24860  Biso   1.000  O
  O64      1.0000 0.74746  0.89485  0.74747  Biso   1.000  O
