data_image0
_cell_length_a       10.0388
_cell_length_b       5.13815
_cell_length_c       10.4485
_cell_angle_alpha    89.6778
_cell_angle_beta     89.967
_cell_angle_gamma    90.0281

_symmetry_space_group_name_H-M    "P 1"
_symmetry_int_tables_number       1

loop_
  _symmetry_equiv_pos_as_xyz
  'x, y, z'

loop_
  _atom_site_label
  _atom_site_occupancy
  _atom_site_fract_x
  _atom_site_fract_y
  _atom_site_fract_z
  _atom_site_thermal_displace_type
  _atom_site_B_iso_or_equiv
  _atom_site_type_symbol
  Cr1      1.0000 0.12896  0.05375  0.18013  Biso   1.000  Cr
  Zr1      1.0000 0.13936  0.04269  0.67132  Biso   1.000  Zr
  Zr2      1.0000 0.14013  0.46680  0.41815  Biso   1.000  Zr
  Zr3      1.0000 0.14127  0.45027  0.92503  Biso   1.000  Zr
  Zr4      1.0000 0.35465  0.54277  0.17053  Biso   1.000  Zr
  Zr5      1.0000 0.36136  0.54395  0.67098  Biso   1.000  Zr
  Zr6      1.0000 0.35806  0.96321  0.41722  Biso   1.000  Zr
  Zr7      1.0000 0.35842  0.95252  0.92485  Biso   1.000  Zr
  Zr8      1.0000 0.63823  0.04432  0.07890  Biso   1.000  Zr
  Zr9      1.0000 0.63737  0.04177  0.57931  Biso   1.000  Zr
  Zr10     1.0000 0.63677  0.46009  0.32760  Biso   1.000  Zr
  Zr11     1.0000 0.63895  0.45919  0.83064  Biso   1.000  Zr
  Zr12     1.0000 0.86775  0.54084  0.08031  Biso   1.000  Zr
  Zr13     1.0000 0.86039  0.54122  0.57834  Biso   1.000  Zr
  Zr14     1.0000 0.86203  0.96351  0.32864  Biso   1.000  Zr
  Zr15     1.0000 0.86169  0.95635  0.82938  Biso   1.000  Zr
  O1       1.0000 0.03612  0.32024  0.09203  Biso   1.000  O
  O2       1.0000 0.03093  0.32388  0.57696  Biso   1.000  O
  O3       1.0000 0.03717  0.16949  0.32420  Biso   1.000  O
  O4       1.0000 0.03204  0.16821  0.83243  Biso   1.000  O
  O5       1.0000 0.46905  0.82938  0.08637  Biso   1.000  O
  O6       1.0000 0.46432  0.83812  0.58487  Biso   1.000  O
  O7       1.0000 0.46190  0.66331  0.33635  Biso   1.000  O
  O8       1.0000 0.46645  0.66656  0.83583  Biso   1.000  O
  O9       1.0000 0.26964  0.25155  0.29333  Biso   1.000  O
  O10      1.0000 0.27716  0.24661  0.79772  Biso   1.000  O
  O11      1.0000 0.26624  0.22859  0.05507  Biso   1.000  O
  O12      1.0000 0.27635  0.25560  0.54440  Biso   1.000  O
  O13      1.0000 0.21947  0.76551  0.28904  Biso   1.000  O
  O14      1.0000 0.22324  0.74556  0.79381  Biso   1.000  O
  O15      1.0000 0.22572  0.73795  0.04292  Biso   1.000  O
  O16      1.0000 0.22252  0.75390  0.54216  Biso   1.000  O
  O17      1.0000 0.53266  0.33703  0.16462  Biso   1.000  O
  O18      1.0000 0.53425  0.33680  0.66467  Biso   1.000  O
  O19      1.0000 0.53352  0.16524  0.41305  Biso   1.000  O
  O20      1.0000 0.53220  0.16801  0.91677  Biso   1.000  O
  O21      1.0000 0.98671  0.84291  0.16373  Biso   1.000  O
  O22      1.0000 0.96807  0.82655  0.66590  Biso   1.000  O
  O23      1.0000 0.96558  0.66803  0.41194  Biso   1.000  O
  O24      1.0000 0.96910  0.66257  0.91823  Biso   1.000  O
  O25      1.0000 0.77827  0.25165  0.95663  Biso   1.000  O
  O26      1.0000 0.77647  0.24802  0.45376  Biso   1.000  O
  O27      1.0000 0.77625  0.25163  0.20499  Biso   1.000  O
  O28      1.0000 0.77623  0.25051  0.70554  Biso   1.000  O
  O29      1.0000 0.72571  0.74983  0.95609  Biso   1.000  O
  O30      1.0000 0.72314  0.74913  0.45493  Biso   1.000  O
  O31      1.0000 0.73427  0.75264  0.20501  Biso   1.000  O
  O32      1.0000 0.72389  0.75176  0.70532  Biso   1.000  O
