data_image0
_cell_length_a       10.2587
_cell_length_b       10.3539
_cell_length_c       10.5305
_cell_angle_alpha    90.269
_cell_angle_beta     79.886
_cell_angle_gamma    90.017

_symmetry_space_group_name_H-M    "P 1"
_symmetry_int_tables_number       1

loop_
  _symmetry_equiv_pos_as_xyz
  'x, y, z'

loop_
  _atom_site_label
  _atom_site_occupancy
  _atom_site_fract_x
  _atom_site_fract_y
  _atom_site_fract_z
  _atom_site_thermal_displace_type
  _atom_site_B_iso_or_equiv
  _atom_site_type_symbol
  Zr1      1.0000 0.13798  0.02180  0.14751  Biso   1.000  Zr
  Zr2      1.0000 0.12802  0.22921  0.39437  Biso   1.000  Zr
  Zr3      1.0000 0.35730  0.27533  0.10864  Biso   1.000  Zr
  Zr4      1.0000 0.36125  0.47971  0.34393  Biso   1.000  Zr
  O1       1.0000 0.03292  0.16747  0.07897  Biso   1.000  O
  O2       1.0000 0.03123  0.08045  0.32595  Biso   1.000  O
  O3       1.0000 0.46386  0.42793  0.16080  Biso   1.000  O
  O4       1.0000 0.49073  0.35290  0.42416  Biso   1.000  O
  O5       1.0000 0.27958  0.13115  0.25078  Biso   1.000  O
  O6       1.0000 0.27266  0.11311  0.49182  Biso   1.000  O
  O7       1.0000 0.22290  0.38012  0.00596  Biso   1.000  O
  O8       1.0000 0.20720  0.37707  0.25253  Biso   1.000  O
  Zr5      1.0000 0.13712  0.02089  0.64636  Biso   1.000  Zr
  Zr6      1.0000 0.13818  0.22923  0.89777  Biso   1.000  Zr
  Zr7      1.0000 0.36675  0.26822  0.61422  Biso   1.000  Zr
  Zr8      1.0000 0.36123  0.47883  0.85572  Biso   1.000  Zr
  O9       1.0000 0.03245  0.16685  0.57822  Biso   1.000  O
  O10      1.0000 0.03347  0.08357  0.82805  Biso   1.000  O
  O11      1.0000 0.46808  0.41632  0.67734  Biso   1.000  O
  O12      1.0000 0.46412  0.33279  0.92215  Biso   1.000  O
  O13      1.0000 0.27469  0.12770  0.74515  Biso   1.000  O
  O14      1.0000 0.27428  0.12188  0.99556  Biso   1.000  O
  O15      1.0000 0.24709  0.35966  0.49394  Biso   1.000  O
  O16      1.0000 0.22206  0.37291  0.75827  Biso   1.000  O
  Zr9      1.0000 0.13655  0.52248  0.14292  Biso   1.000  Zr
  Zr10     1.0000 0.13719  0.72544  0.39633  Biso   1.000  Zr
  Zr11     1.0000 0.36049  0.77123  0.10271  Biso   1.000  Zr
  Zr12     1.0000 0.35727  0.96884  0.35452  Biso   1.000  Zr
  O17      1.0000 0.03148  0.66890  0.07489  Biso   1.000  O
  O18      1.0000 0.03116  0.58526  0.32608  Biso   1.000  O
  O19      1.0000 0.46484  0.91711  0.17165  Biso   1.000  O
  O20      1.0000 0.46683  0.83278  0.42433  Biso   1.000  O
  O21      1.0000 0.27335  0.63035  0.23913  Biso   1.000  O
  O22      1.0000 0.27200  0.61512  0.49097  Biso   1.000  O
  O23      1.0000 0.22355  0.87930  0.00948  Biso   1.000  O
  O24      1.0000 0.22119  0.86974  0.25826  Biso   1.000  O
  Zr13     1.0000 0.14085  0.51856  0.64479  Biso   1.000  Zr
  Zr14     1.0000 0.13735  0.72944  0.89449  Biso   1.000  Zr
  Zr15     1.0000 0.36107  0.77003  0.60553  Biso   1.000  Zr
  Zr16     1.0000 0.36029  0.97878  0.85638  Biso   1.000  Zr
  O25      1.0000 0.03247  0.66345  0.57819  Biso   1.000  O
  O26      1.0000 0.03511  0.58349  0.82401  Biso   1.000  O
  O27      1.0000 0.46526  0.91599  0.67300  Biso   1.000  O
  O28      1.0000 0.46518  0.83343  0.92105  Biso   1.000  O
  O29      1.0000 0.27525  0.62798  0.73981  Biso   1.000  O
  O30      1.0000 0.27434  0.62331  0.98945  Biso   1.000  O
  O31      1.0000 0.22277  0.87227  0.51113  Biso   1.000  O
  O32      1.0000 0.22407  0.87189  0.75982  Biso   1.000  O
  Zr17     1.0000 0.63764  0.02315  0.14423  Biso   1.000  Zr
  Zr18     1.0000 0.64964  0.22989  0.39862  Biso   1.000  Zr
  Zr19     1.0000 0.86031  0.27244  0.10394  Biso   1.000  Zr
  Zr20     1.0000 0.86016  0.48113  0.35265  Biso   1.000  Zr
  O33      1.0000 0.53297  0.16935  0.08190  Biso   1.000  O
  O34      1.0000 0.52696  0.09152  0.33042  Biso   1.000  O
  O35      1.0000 0.96195  0.42074  0.16772  Biso   1.000  O
  O36      1.0000 0.96130  0.33624  0.42159  Biso   1.000  O
  O37      1.0000 0.77435  0.12768  0.24024  Biso   1.000  O
  O38      1.0000 0.78049  0.11913  0.49204  Biso   1.000  O
  O39      1.0000 0.72475  0.37961  0.00932  Biso   1.000  O
  O40      1.0000 0.72572  0.37204  0.25859  Biso   1.000  O
  Zr21     1.0000 0.63938  0.01916  0.64733  Biso   1.000  Zr
  Zr22     1.0000 0.63600  0.22988  0.89741  Biso   1.000  Zr
  Zr23     1.0000 0.86008  0.27124  0.60722  Biso   1.000  Zr
  Zr24     1.0000 0.86211  0.47851  0.85386  Biso   1.000  Zr
  O41      1.0000 0.53970  0.16571  0.58005  Biso   1.000  O
  O42      1.0000 0.53338  0.08234  0.83080  Biso   1.000  O
  O43      1.0000 0.96895  0.41495  0.67030  Biso   1.000  O
  O44      1.0000 0.96537  0.33283  0.92046  Biso   1.000  O
  O45      1.0000 0.77389  0.12871  0.74203  Biso   1.000  O
  O46      1.0000 0.77337  0.12236  0.99084  Biso   1.000  O
  O47      1.0000 0.72690  0.37886  0.51258  Biso   1.000  O
  O48      1.0000 0.72580  0.37196  0.76117  Biso   1.000  O
  Zr25     1.0000 0.63956  0.52453  0.14361  Biso   1.000  Zr
  Zr26     1.0000 0.63838  0.72790  0.39532  Biso   1.000  Zr
  Zr27     1.0000 0.86034  0.77294  0.10284  Biso   1.000  Zr
  Zr28     1.0000 0.86030  0.97555  0.35417  Biso   1.000  Zr
  O49      1.0000 0.53549  0.67103  0.07750  Biso   1.000  O
  O50      1.0000 0.53475  0.58730  0.32391  Biso   1.000  O
  O51      1.0000 0.96546  0.91761  0.16902  Biso   1.000  O
  O52      1.0000 0.96543  0.83199  0.42128  Biso   1.000  O
  O53      1.0000 0.77594  0.63135  0.23919  Biso   1.000  O
  O54      1.0000 0.77421  0.62184  0.48990  Biso   1.000  O
  O55      1.0000 0.72372  0.88087  0.00947  Biso   1.000  O
  O56      1.0000 0.72193  0.87366  0.26003  Biso   1.000  O
  Zr29     1.0000 0.63849  0.52225  0.64633  Biso   1.000  Zr
  Zr30     1.0000 0.63830  0.72938  0.89515  Biso   1.000  Zr
  Zr31     1.0000 0.86186  0.77039  0.60417  Biso   1.000  Zr
  Zr32     1.0000 0.86061  0.97977  0.85441  Biso   1.000  Zr
  O57      1.0000 0.53312  0.66474  0.57801  Biso   1.000  O
  O58      1.0000 0.53386  0.58453  0.82954  Biso   1.000  O
  O59      1.0000 0.96563  0.91724  0.67063  Biso   1.000  O
  O60      1.0000 0.96434  0.83353  0.91899  Biso   1.000  O
  O61      1.0000 0.77541  0.62815  0.73966  Biso   1.000  O
  O62      1.0000 0.77550  0.62256  0.98872  Biso   1.000  O
  O63      1.0000 0.72466  0.87744  0.51039  Biso   1.000  O
  O64      1.0000 0.72541  0.87124  0.75983  Biso   1.000  O
  Cr1      1.0000 0.38711  0.22424  0.37412  Biso   1.000  Cr
