data_image0
_cell_length_a       5.02558
_cell_length_b       10.0782
_cell_length_c       10.1251
_cell_angle_alpha    90.005
_cell_angle_beta     89.9998
_cell_angle_gamma    89.9989

_symmetry_space_group_name_H-M    "P 1"
_symmetry_int_tables_number       1

loop_
  _symmetry_equiv_pos_as_xyz
  'x, y, z'

loop_
  _atom_site_label
  _atom_site_occupancy
  _atom_site_fract_x
  _atom_site_fract_y
  _atom_site_fract_z
  _atom_site_thermal_displace_type
  _atom_site_B_iso_or_equiv
  _atom_site_type_symbol
  Cr1      1.0000 0.25072  0.00008  0.12536  Biso   1.000  Cr
  Zr1      1.0000 0.25065  0.00011  0.62541  Biso   1.000  Zr
  Zr2      1.0000 0.25067  0.50011  0.12541  Biso   1.000  Zr
  Zr3      1.0000 0.25064  0.50010  0.62539  Biso   1.000  Zr
  Zr4      1.0000 0.26008  0.24915  0.37454  Biso   1.000  Zr
  Zr5      1.0000 0.24121  0.24920  0.87624  Biso   1.000  Zr
  Zr6      1.0000 0.24120  0.75103  0.37458  Biso   1.000  Zr
  Zr7      1.0000 0.26003  0.75103  0.87625  Biso   1.000  Zr
  Zr8      1.0000 0.75068  0.24954  0.12539  Biso   1.000  Zr
  Zr9      1.0000 0.75064  0.25151  0.62539  Biso   1.000  Zr
  Zr10     1.0000 0.75061  0.75067  0.12541  Biso   1.000  Zr
  Zr11     1.0000 0.75063  0.74870  0.62541  Biso   1.000  Zr
  Zr12     1.0000 0.75064  0.00009  0.37610  Biso   1.000  Zr
  Zr13     1.0000 0.75060  0.00011  0.87472  Biso   1.000  Zr
  Zr14     1.0000 0.75065  0.50009  0.37525  Biso   1.000  Zr
  Zr15     1.0000 0.75064  0.50011  0.87555  Biso   1.000  Zr
  O1       1.0000 0.94754  0.14795  0.97520  Biso   1.000  O
  O2       1.0000 0.99239  0.13403  0.47870  Biso   1.000  O
  O3       1.0000 0.98717  0.64422  0.98620  Biso   1.000  O
  O4       1.0000 0.99216  0.63389  0.48644  Biso   1.000  O
  O5       1.0000 0.04324  0.10294  0.22443  Biso   1.000  O
  O6       1.0000 0.00318  0.11776  0.73096  Biso   1.000  O
  O7       1.0000 0.00488  0.60968  0.23795  Biso   1.000  O
  O8       1.0000 0.00276  0.61667  0.73684  Biso   1.000  O
  O9       1.0000 0.98725  0.35600  0.26459  Biso   1.000  O
  O10      1.0000 0.99217  0.36632  0.76435  Biso   1.000  O
  O11      1.0000 0.94750  0.85225  0.27561  Biso   1.000  O
  O12      1.0000 0.99234  0.86617  0.77211  Biso   1.000  O
  O13      1.0000 0.00494  0.39052  0.01284  Biso   1.000  O
  O14      1.0000 0.00272  0.38355  0.51395  Biso   1.000  O
  O15      1.0000 0.04301  0.89727  0.02636  Biso   1.000  O
  O16      1.0000 0.00321  0.88245  0.51985  Biso   1.000  O
  O17      1.0000 0.55390  0.14796  0.27560  Biso   1.000  O
  O18      1.0000 0.50889  0.13404  0.77209  Biso   1.000  O
  O19      1.0000 0.51403  0.64420  0.26460  Biso   1.000  O
  O20      1.0000 0.50913  0.63391  0.76437  Biso   1.000  O
  O21      1.0000 0.45821  0.10297  0.02635  Biso   1.000  O
  O22      1.0000 0.49808  0.11774  0.51983  Biso   1.000  O
  O23      1.0000 0.49633  0.60971  0.01284  Biso   1.000  O
  O24      1.0000 0.49853  0.61666  0.51396  Biso   1.000  O
  O25      1.0000 0.51410  0.35602  0.98619  Biso   1.000  O
  O26      1.0000 0.50910  0.36630  0.48643  Biso   1.000  O
  O27      1.0000 0.55363  0.85232  0.97526  Biso   1.000  O
  O28      1.0000 0.50892  0.86616  0.47873  Biso   1.000  O
  O29      1.0000 0.49639  0.39051  0.23794  Biso   1.000  O
  O30      1.0000 0.49854  0.38355  0.73684  Biso   1.000  O
  O31      1.0000 0.45816  0.89728  0.22449  Biso   1.000  O
  O32      1.0000 0.49804  0.88245  0.73099  Biso   1.000  O
