data_image0
_cell_length_a       10.1226
_cell_length_b       5.15104
_cell_length_c       10.4391
_cell_angle_alpha    89.9681
_cell_angle_beta     80.3759
_cell_angle_gamma    89.9175

_symmetry_space_group_name_H-M    "P 1"
_symmetry_int_tables_number       1

loop_
  _symmetry_equiv_pos_as_xyz
  'x, y, z'

loop_
  _atom_site_label
  _atom_site_occupancy
  _atom_site_fract_x
  _atom_site_fract_y
  _atom_site_fract_z
  _atom_site_thermal_displace_type
  _atom_site_B_iso_or_equiv
  _atom_site_type_symbol
  Cr1      1.0000 0.13260  0.04969  0.14946  Biso   1.000  Cr
  Zr1      1.0000 0.13935  0.04327  0.64508  Biso   1.000  Zr
  Zr2      1.0000 0.63834  0.04610  0.14486  Biso   1.000  Zr
  Zr3      1.0000 0.63759  0.04135  0.64645  Biso   1.000  Zr
  Zr4      1.0000 0.13983  0.45903  0.39119  Biso   1.000  Zr
  Zr5      1.0000 0.14070  0.45580  0.89825  Biso   1.000  Zr
  Zr6      1.0000 0.63974  0.45948  0.39463  Biso   1.000  Zr
  Zr7      1.0000 0.63667  0.45810  0.89755  Biso   1.000  Zr
  Zr8      1.0000 0.35428  0.54690  0.10640  Biso   1.000  Zr
  Zr9      1.0000 0.36143  0.54491  0.60464  Biso   1.000  Zr
  Zr10     1.0000 0.86770  0.54261  0.10518  Biso   1.000  Zr
  Zr11     1.0000 0.86018  0.54122  0.60460  Biso   1.000  Zr
  Zr12     1.0000 0.35904  0.95909  0.35159  Biso   1.000  Zr
  Zr13     1.0000 0.35694  0.95900  0.85898  Biso   1.000  Zr
  Zr14     1.0000 0.86414  0.96100  0.35287  Biso   1.000  Zr
  Zr15     1.0000 0.86117  0.95732  0.85559  Biso   1.000  Zr
  O1       1.0000 0.03943  0.31805  0.08495  Biso   1.000  O
  O2       1.0000 0.03331  0.32871  0.57399  Biso   1.000  O
  O3       1.0000 0.53463  0.34489  0.08310  Biso   1.000  O
  O4       1.0000 0.53802  0.34585  0.58225  Biso   1.000  O
  O5       1.0000 0.04127  0.15792  0.31734  Biso   1.000  O
  O6       1.0000 0.03465  0.16571  0.82905  Biso   1.000  O
  O7       1.0000 0.53653  0.15994  0.33147  Biso   1.000  O
  O8       1.0000 0.53556  0.15357  0.83512  Biso   1.000  O
  O9       1.0000 0.46530  0.83883  0.16829  Biso   1.000  O
  O10      1.0000 0.46178  0.84534  0.66889  Biso   1.000  O
  O11      1.0000 0.98339  0.84069  0.16501  Biso   1.000  O
  O12      1.0000 0.96547  0.83313  0.67056  Biso   1.000  O
  O13      1.0000 0.46421  0.66050  0.41747  Biso   1.000  O
  O14      1.0000 0.45625  0.64971  0.91770  Biso   1.000  O
  O15      1.0000 0.96372  0.65881  0.41679  Biso   1.000  O
  O16      1.0000 0.96571  0.65821  0.92235  Biso   1.000  O
  O17      1.0000 0.27015  0.25072  0.23644  Biso   1.000  O
  O18      1.0000 0.27690  0.25854  0.74233  Biso   1.000  O
  O19      1.0000 0.77829  0.25837  0.24030  Biso   1.000  O
  O20      1.0000 0.77537  0.25746  0.74178  Biso   1.000  O
  O21      1.0000 0.27707  0.24485  0.48930  Biso   1.000  O
  O22      1.0000 0.27015  0.23724  0.99853  Biso   1.000  O
  O23      1.0000 0.77761  0.24058  0.48977  Biso   1.000  O
  O24      1.0000 0.77755  0.24549  0.99174  Biso   1.000  O
  O25      1.0000 0.21647  0.77154  0.01511  Biso   1.000  O
  O26      1.0000 0.22291  0.75798  0.50813  Biso   1.000  O
  O27      1.0000 0.72493  0.75881  0.01005  Biso   1.000  O
  O28      1.0000 0.72412  0.75854  0.50925  Biso   1.000  O
  O29      1.0000 0.22127  0.74723  0.25750  Biso   1.000  O
  O30      1.0000 0.22269  0.74160  0.76048  Biso   1.000  O
  O31      1.0000 0.73280  0.74439  0.25731  Biso   1.000  O
  O32      1.0000 0.72280  0.74195  0.76032  Biso   1.000  O
