data_image0
_cell_length_a       10.1495
_cell_length_b       10.3325
_cell_length_c       10.4628
_cell_angle_alpha    89.964
_cell_angle_beta     80.3968
_cell_angle_gamma    89.9652

_symmetry_space_group_name_H-M    "P 1"
_symmetry_int_tables_number       1

loop_
  _symmetry_equiv_pos_as_xyz
  'x, y, z'

loop_
  _atom_site_label
  _atom_site_occupancy
  _atom_site_fract_x
  _atom_site_fract_y
  _atom_site_fract_z
  _atom_site_thermal_displace_type
  _atom_site_B_iso_or_equiv
  _atom_site_type_symbol
  Cr1      1.0000 0.13396  0.02517  0.14937  Biso   1.000  Cr
  Zr1      1.0000 0.13886  0.02116  0.64496  Biso   1.000  Zr
  Zr2      1.0000 0.13985  0.52137  0.14579  Biso   1.000  Zr
  Zr3      1.0000 0.13924  0.52148  0.64554  Biso   1.000  Zr
  Zr4      1.0000 0.63881  0.02191  0.14518  Biso   1.000  Zr
  Zr5      1.0000 0.63769  0.02050  0.64566  Biso   1.000  Zr
  Zr6      1.0000 0.63840  0.52260  0.14503  Biso   1.000  Zr
  Zr7      1.0000 0.63898  0.52135  0.64596  Biso   1.000  Zr
  Zr8      1.0000 0.13948  0.22820  0.39239  Biso   1.000  Zr
  Zr9      1.0000 0.13942  0.22549  0.89801  Biso   1.000  Zr
  Zr10     1.0000 0.13914  0.73001  0.39427  Biso   1.000  Zr
  Zr11     1.0000 0.13944  0.73040  0.89615  Biso   1.000  Zr
  Zr12     1.0000 0.63880  0.22836  0.39503  Biso   1.000  Zr
  Zr13     1.0000 0.63836  0.22889  0.89556  Biso   1.000  Zr
  Zr14     1.0000 0.63998  0.73011  0.39503  Biso   1.000  Zr
  Zr15     1.0000 0.63730  0.72857  0.89738  Biso   1.000  Zr
  Zr16     1.0000 0.35925  0.26905  0.10541  Biso   1.000  Zr
  Zr17     1.0000 0.36078  0.27169  0.60507  Biso   1.000  Zr
  Zr18     1.0000 0.35608  0.77597  0.10549  Biso   1.000  Zr
  Zr19     1.0000 0.36172  0.77174  0.60439  Biso   1.000  Zr
  Zr20     1.0000 0.86358  0.26934  0.10593  Biso   1.000  Zr
  Zr21     1.0000 0.86085  0.27091  0.60406  Biso   1.000  Zr
  Zr22     1.0000 0.86547  0.77394  0.10416  Biso   1.000  Zr
  Zr23     1.0000 0.86042  0.77095  0.60506  Biso   1.000  Zr
  Zr24     1.0000 0.36205  0.47938  0.35473  Biso   1.000  Zr
  Zr25     1.0000 0.36009  0.47861  0.85525  Biso   1.000  Zr
  Zr26     1.0000 0.35848  0.97878  0.35201  Biso   1.000  Zr
  Zr27     1.0000 0.35813  0.97919  0.85791  Biso   1.000  Zr
  Zr28     1.0000 0.86090  0.47907  0.35428  Biso   1.000  Zr
  Zr29     1.0000 0.86187  0.47820  0.85608  Biso   1.000  Zr
  Zr30     1.0000 0.86485  0.98022  0.35240  Biso   1.000  Zr
  Zr31     1.0000 0.86023  0.97899  0.85424  Biso   1.000  Zr
  O1       1.0000 0.03899  0.16014  0.08457  Biso   1.000  O
  O2       1.0000 0.03379  0.16493  0.57445  Biso   1.000  O
  O3       1.0000 0.03628  0.66947  0.08160  Biso   1.000  O
  O4       1.0000 0.03564  0.66969  0.58058  Biso   1.000  O
  O5       1.0000 0.53618  0.17114  0.08204  Biso   1.000  O
  O6       1.0000 0.53678  0.17125  0.58188  Biso   1.000  O
  O7       1.0000 0.53430  0.67150  0.08209  Biso   1.000  O
  O8       1.0000 0.53724  0.67161  0.58138  Biso   1.000  O
  O9       1.0000 0.04177  0.07941  0.31670  Biso   1.000  O
  O10      1.0000 0.03413  0.08204  0.82811  Biso   1.000  O
  O11      1.0000 0.03632  0.57953  0.33134  Biso   1.000  O
  O12      1.0000 0.03640  0.58012  0.83191  Biso   1.000  O
  O13      1.0000 0.53487  0.08052  0.33047  Biso   1.000  O
  O14      1.0000 0.53533  0.07836  0.83339  Biso   1.000  O
  O15      1.0000 0.53756  0.57923  0.33217  Biso   1.000  O
  O16      1.0000 0.53608  0.57836  0.83249  Biso   1.000  O
  O17      1.0000 0.46351  0.42049  0.16822  Biso   1.000  O
  O18      1.0000 0.46321  0.42146  0.66848  Biso   1.000  O
  O19      1.0000 0.46534  0.91934  0.16918  Biso   1.000  O
  O20      1.0000 0.46270  0.92107  0.66928  Biso   1.000  O
  O21      1.0000 0.96581  0.41863  0.16927  Biso   1.000  O
  O22      1.0000 0.96519  0.41753  0.67044  Biso   1.000  O
  O23      1.0000 0.97945  0.92417  0.16423  Biso   1.000  O
  O24      1.0000 0.96415  0.91916  0.66897  Biso   1.000  O
  O25      1.0000 0.46393  0.32977  0.41903  Biso   1.000  O
  O26      1.0000 0.46094  0.32636  0.91793  Biso   1.000  O
  O27      1.0000 0.46422  0.83004  0.41743  Biso   1.000  O
  O28      1.0000 0.45984  0.82855  0.91886  Biso   1.000  O
  O29      1.0000 0.96371  0.32855  0.41748  Biso   1.000  O
  O30      1.0000 0.96581  0.32835  0.92250  Biso   1.000  O
  O31      1.0000 0.96417  0.83083  0.41821  Biso   1.000  O
  O32      1.0000 0.96379  0.83011  0.91865  Biso   1.000  O
  O33      1.0000 0.27074  0.12396  0.23630  Biso   1.000  O
  O34      1.0000 0.27631  0.12863  0.74237  Biso   1.000  O
  O35      1.0000 0.27615  0.63091  0.24130  Biso   1.000  O
  O36      1.0000 0.27652  0.62932  0.74099  Biso   1.000  O
  O37      1.0000 0.77671  0.12843  0.24064  Biso   1.000  O
  O38      1.0000 0.77522  0.12893  0.74040  Biso   1.000  O
  O39      1.0000 0.77714  0.63040  0.24049  Biso   1.000  O
  O40      1.0000 0.77630  0.62859  0.74198  Biso   1.000  O
  O41      1.0000 0.27656  0.12183  0.48944  Biso   1.000  O
  O42      1.0000 0.27023  0.11687  0.99861  Biso   1.000  O
  O43      1.0000 0.27660  0.62137  0.49079  Biso   1.000  O
  O44      1.0000 0.27585  0.62207  0.99124  Biso   1.000  O
  O45      1.0000 0.77741  0.12025  0.48929  Biso   1.000  O
  O46      1.0000 0.77632  0.12129  0.99074  Biso   1.000  O
  O47      1.0000 0.77656  0.62105  0.49099  Biso   1.000  O
  O48      1.0000 0.77712  0.62225  0.99174  Biso   1.000  O
  O49      1.0000 0.22320  0.37856  0.01022  Biso   1.000  O
  O50      1.0000 0.22328  0.37872  0.50901  Biso   1.000  O
  O51      1.0000 0.21728  0.88568  0.01367  Biso   1.000  O
  O52      1.0000 0.22370  0.87911  0.50844  Biso   1.000  O
  O53      1.0000 0.72490  0.37887  0.00977  Biso   1.000  O
  O54      1.0000 0.72406  0.37896  0.50952  Biso   1.000  O
  O55      1.0000 0.72384  0.87939  0.00968  Biso   1.000  O
  O56      1.0000 0.72402  0.87923  0.50889  Biso   1.000  O
  O57      1.0000 0.22501  0.37033  0.25942  Biso   1.000  O
  O58      1.0000 0.22342  0.36997  0.76010  Biso   1.000  O
  O59      1.0000 0.21928  0.87500  0.25700  Biso   1.000  O
  O60      1.0000 0.22321  0.87134  0.75959  Biso   1.000  O
  O61      1.0000 0.72474  0.37042  0.25887  Biso   1.000  O
  O62      1.0000 0.72389  0.37113  0.75983  Biso   1.000  O
  O63      1.0000 0.73168  0.87315  0.25780  Biso   1.000  O
  O64      1.0000 0.72283  0.87067  0.75976  Biso   1.000  O
