data_image0
_cell_length_a       5.11548
_cell_length_b       10.1762
_cell_length_c       10.16
_cell_angle_alpha    87.8907
_cell_angle_beta     93.3169
_cell_angle_gamma    89.241

_symmetry_space_group_name_H-M    "P 1"
_symmetry_int_tables_number       1

loop_
  _symmetry_equiv_pos_as_xyz
  'x, y, z'

loop_
  _atom_site_label
  _atom_site_occupancy
  _atom_site_fract_x
  _atom_site_fract_y
  _atom_site_fract_z
  _atom_site_thermal_displace_type
  _atom_site_B_iso_or_equiv
  _atom_site_type_symbol
  Cs1      1.0000 0.26473  0.01060  0.13935  Biso   1.000  Cs
  Hf1      1.0000 0.22140  0.98988  0.63314  Biso   1.000  Hf
  Hf2      1.0000 0.30154  0.50961  0.13278  Biso   1.000  Hf
  Hf3      1.0000 0.21864  0.50752  0.62900  Biso   1.000  Hf
  Hf4      1.0000 0.25479  0.25137  0.38610  Biso   1.000  Hf
  Hf5      1.0000 0.25906  0.25486  0.86638  Biso   1.000  Hf
  Hf6      1.0000 0.23873  0.74373  0.37582  Biso   1.000  Hf
  Hf7      1.0000 0.27463  0.75608  0.88946  Biso   1.000  Hf
  Hf8      1.0000 0.77939  0.26572  0.12105  Biso   1.000  Hf
  Hf9      1.0000 0.72500  0.23118  0.63344  Biso   1.000  Hf
  Hf10     1.0000 0.80294  0.73450  0.11811  Biso   1.000  Hf
  Hf11     1.0000 0.72452  0.75126  0.63233  Biso   1.000  Hf
  Hf12     1.0000 0.75161  0.02032  0.37893  Biso   1.000  Hf
  Hf13     1.0000 0.74427  0.99802  0.88575  Biso   1.000  Hf
  Hf14     1.0000 0.75294  0.51464  0.38629  Biso   1.000  Hf
  Hf15     1.0000 0.71780  0.49980  0.87242  Biso   1.000  Hf
  O1       1.0000 0.05863  0.12784  0.00673  Biso   1.000  O
  O2       1.0000 0.00209  0.14847  0.50949  Biso   1.000  O
  O3       1.0000 0.04609  0.61954  0.99724  Biso   1.000  O
  O4       1.0000 0.97866  0.65511  0.50136  Biso   1.000  O
  O5       1.0000 0.97892  0.13464  0.26740  Biso   1.000  O
  O6       1.0000 0.96647  0.09797  0.75977  Biso   1.000  O
  O7       1.0000 0.02411  0.60485  0.25067  Biso   1.000  O
  O8       1.0000 0.93042  0.58860  0.73444  Biso   1.000  O
  O9       1.0000 0.13157  0.34827  0.20591  Biso   1.000  O
  O10      1.0000 0.03928  0.34137  0.70507  Biso   1.000  O
  O11      1.0000 0.93162  0.85325  0.27306  Biso   1.000  O
  O12      1.0000 0.02471  0.84031  0.75016  Biso   1.000  O
  O13      1.0000 0.94243  0.35551  0.95456  Biso   1.000  O
  O14      1.0000 0.08326  0.41582  0.45750  Biso   1.000  O
  O15      1.0000 0.99231  0.86480  0.99350  Biso   1.000  O
  O16      1.0000 0.89314  0.90812  0.53000  Biso   1.000  O
  O17      1.0000 0.53041  0.17548  0.26158  Biso   1.000  O
  O18      1.0000 0.45732  0.12959  0.74460  Biso   1.000  O
  O19      1.0000 0.50551  0.65845  0.25119  Biso   1.000  O
  O20      1.0000 0.43995  0.63462  0.75371  Biso   1.000  O
  O21      1.0000 0.57780  0.14107  0.98558  Biso   1.000  O
  O22      1.0000 0.48554  0.09945  0.50467  Biso   1.000  O
  O23      1.0000 0.55097  0.61908  0.00303  Biso   1.000  O
  O24      1.0000 0.48988  0.60175  0.50273  Biso   1.000  O
  O25      1.0000 0.44586  0.38166  0.99023  Biso   1.000  O
  O26      1.0000 0.58020  0.34818  0.47518  Biso   1.000  O
  O27      1.0000 0.51930  0.86066  0.01401  Biso   1.000  O
  O28      1.0000 0.39218  0.83936  0.53333  Biso   1.000  O
  O29      1.0000 0.64093  0.42307  0.21869  Biso   1.000  O
  O30      1.0000 0.51849  0.38102  0.73930  Biso   1.000  O
  O31      1.0000 0.43729  0.91300  0.30127  Biso   1.000  O
  O32      1.0000 0.51883  0.88381  0.76589  Biso   1.000  O
