data_image0
_cell_length_a       10.0999
_cell_length_b       5.1686
_cell_length_c       10.4781
_cell_angle_alpha    89.7789
_cell_angle_beta     90.7292
_cell_angle_gamma    90.4599

_symmetry_space_group_name_H-M    "P 1"
_symmetry_int_tables_number       1

loop_
  _symmetry_equiv_pos_as_xyz
  'x, y, z'

loop_
  _atom_site_label
  _atom_site_occupancy
  _atom_site_fract_x
  _atom_site_fract_y
  _atom_site_fract_z
  _atom_site_thermal_displace_type
  _atom_site_B_iso_or_equiv
  _atom_site_type_symbol
  Cs1      1.0000 0.11484  0.00968  0.13577  Biso   1.000  Cs
  Hf1      1.0000 0.14031  0.04209  0.66969  Biso   1.000  Hf
  Hf2      1.0000 0.13820  0.45033  0.41900  Biso   1.000  Hf
  Hf3      1.0000 0.13949  0.46518  0.91132  Biso   1.000  Hf
  Hf4      1.0000 0.36463  0.52621  0.17601  Biso   1.000  Hf
  Hf5      1.0000 0.36010  0.53980  0.66735  Biso   1.000  Hf
  Hf6      1.0000 0.35733  0.95704  0.41734  Biso   1.000  Hf
  Hf7      1.0000 0.37135  0.94736  0.91705  Biso   1.000  Hf
  Hf8      1.0000 0.63940  0.04016  0.08265  Biso   1.000  Hf
  Hf9      1.0000 0.63461  0.04051  0.58091  Biso   1.000  Hf
  Hf10     1.0000 0.63769  0.45995  0.33316  Biso   1.000  Hf
  Hf11     1.0000 0.63973  0.45851  0.82654  Biso   1.000  Hf
  Hf12     1.0000 0.85062  0.53540  0.07755  Biso   1.000  Hf
  Hf13     1.0000 0.86451  0.54364  0.58105  Biso   1.000  Hf
  Hf14     1.0000 0.85550  0.96859  0.34394  Biso   1.000  Hf
  Hf15     1.0000 0.86120  0.96156  0.82770  Biso   1.000  Hf
  O1       1.0000 0.04091  0.43479  0.08983  Biso   1.000  O
  O2       1.0000 0.03723  0.34865  0.59460  Biso   1.000  O
  O3       1.0000 0.02530  0.16110  0.35364  Biso   1.000  O
  O4       1.0000 0.03689  0.15521  0.84098  Biso   1.000  O
  O5       1.0000 0.47492  0.83012  0.08500  Biso   1.000  O
  O6       1.0000 0.46576  0.82799  0.58219  Biso   1.000  O
  O7       1.0000 0.47308  0.67801  0.33184  Biso   1.000  O
  O8       1.0000 0.47161  0.66919  0.82723  Biso   1.000  O
  O9       1.0000 0.28295  0.24850  0.30138  Biso   1.000  O
  O10      1.0000 0.27856  0.24807  0.79321  Biso   1.000  O
  O11      1.0000 0.27193  0.22199  0.03971  Biso   1.000  O
  O12      1.0000 0.27484  0.24943  0.54493  Biso   1.000  O
  O13      1.0000 0.23253  0.72095  0.29828  Biso   1.000  O
  O14      1.0000 0.22485  0.74765  0.78863  Biso   1.000  O
  O15      1.0000 0.25959  0.69226  0.02527  Biso   1.000  O
  O16      1.0000 0.22211  0.75434  0.54338  Biso   1.000  O
  O17      1.0000 0.53620  0.32826  0.16868  Biso   1.000  O
  O18      1.0000 0.53209  0.32834  0.66697  Biso   1.000  O
  O19      1.0000 0.53354  0.16820  0.41771  Biso   1.000  O
  O20      1.0000 0.53709  0.17280  0.91866  Biso   1.000  O
  O21      1.0000 0.92876  0.87468  0.16301  Biso   1.000  O
  O22      1.0000 0.96390  0.84734  0.66309  Biso   1.000  O
  O23      1.0000 0.96212  0.66108  0.41372  Biso   1.000  O
  O24      1.0000 0.96496  0.66638  0.91023  Biso   1.000  O
  O25      1.0000 0.77952  0.24714  0.95756  Biso   1.000  O
  O26      1.0000 0.77292  0.25186  0.46219  Biso   1.000  O
  O27      1.0000 0.77541  0.26120  0.21120  Biso   1.000  O
  O28      1.0000 0.77550  0.25388  0.70803  Biso   1.000  O
  O29      1.0000 0.72399  0.75007  0.95540  Biso   1.000  O
  O30      1.0000 0.72211  0.74943  0.46090  Biso   1.000  O
  O31      1.0000 0.72379  0.75417  0.20912  Biso   1.000  O
  O32      1.0000 0.72557  0.75091  0.70643  Biso   1.000  O
