data_image0
_cell_length_a       10.16
_cell_length_b       10.1762
_cell_length_c       5.11546
_cell_angle_alpha    89.2409
_cell_angle_beta     93.3159
_cell_angle_gamma    87.8924

_symmetry_space_group_name_H-M    "P 1"
_symmetry_int_tables_number       1

loop_
  _symmetry_equiv_pos_as_xyz
  'x, y, z'

loop_
  _atom_site_label
  _atom_site_occupancy
  _atom_site_fract_x
  _atom_site_fract_y
  _atom_site_fract_z
  _atom_site_thermal_displace_type
  _atom_site_B_iso_or_equiv
  _atom_site_type_symbol
  Cs1      1.0000 0.13935  0.01059  0.26481  Biso   1.000  Cs
  Hf1      1.0000 0.13277  0.50961  0.30161  Biso   1.000  Hf
  Hf2      1.0000 0.63313  0.98989  0.22148  Biso   1.000  Hf
  Hf3      1.0000 0.62899  0.50752  0.21871  Biso   1.000  Hf
  Hf4      1.0000 0.12105  0.26571  0.77946  Biso   1.000  Hf
  Hf5      1.0000 0.11810  0.73449  0.80300  Biso   1.000  Hf
  Hf6      1.0000 0.63344  0.23119  0.72507  Biso   1.000  Hf
  Hf7      1.0000 0.63233  0.75127  0.72459  Biso   1.000  Hf
  Hf8      1.0000 0.38609  0.25137  0.25486  Biso   1.000  Hf
  Hf9      1.0000 0.37581  0.74374  0.23879  Biso   1.000  Hf
  Hf10     1.0000 0.86637  0.25485  0.25912  Biso   1.000  Hf
  Hf11     1.0000 0.88944  0.75607  0.27468  Biso   1.000  Hf
  Hf12     1.0000 0.37893  0.02031  0.75168  Biso   1.000  Hf
  Hf13     1.0000 0.38629  0.51464  0.75301  Biso   1.000  Hf
  Hf14     1.0000 0.88574  0.99800  0.74436  Biso   1.000  Hf
  Hf15     1.0000 0.87242  0.49978  0.71788  Biso   1.000  Hf
  O1       1.0000 0.00673  0.12784  0.05870  Biso   1.000  O
  O2       1.0000 0.99724  0.61953  0.04616  Biso   1.000  O
  O3       1.0000 0.50948  0.14847  0.00217  Biso   1.000  O
  O4       1.0000 0.50136  0.65511  0.97873  Biso   1.000  O
  O5       1.0000 0.98557  0.14107  0.57787  Biso   1.000  O
  O6       1.0000 0.00302  0.61908  0.55104  Biso   1.000  O
  O7       1.0000 0.50466  0.09945  0.48561  Biso   1.000  O
  O8       1.0000 0.50272  0.60176  0.48995  Biso   1.000  O
  O9       1.0000 0.99022  0.38165  0.44594  Biso   1.000  O
  O10      1.0000 0.01400  0.86064  0.51936  Biso   1.000  O
  O11      1.0000 0.47517  0.34818  0.58027  Biso   1.000  O
  O12      1.0000 0.53332  0.83936  0.39226  Biso   1.000  O
  O13      1.0000 0.95457  0.35551  0.94251  Biso   1.000  O
  O14      1.0000 0.99350  0.86479  0.99236  Biso   1.000  O
  O15      1.0000 0.45750  0.41582  0.08332  Biso   1.000  O
  O16      1.0000 0.53000  0.90812  0.89322  Biso   1.000  O
  O17      1.0000 0.26157  0.17548  0.53048  Biso   1.000  O
  O18      1.0000 0.25118  0.65845  0.50557  Biso   1.000  O
  O19      1.0000 0.74458  0.12960  0.45738  Biso   1.000  O
  O20      1.0000 0.75370  0.63463  0.44004  Biso   1.000  O
  O21      1.0000 0.26740  0.13463  0.97899  Biso   1.000  O
  O22      1.0000 0.25067  0.60485  0.02418  Biso   1.000  O
  O23      1.0000 0.75977  0.09798  0.96654  Biso   1.000  O
  O24      1.0000 0.73445  0.58862  0.93050  Biso   1.000  O
  O25      1.0000 0.20591  0.34827  0.13163  Biso   1.000  O
  O26      1.0000 0.27305  0.85325  0.93169  Biso   1.000  O
  O27      1.0000 0.70508  0.34139  0.03933  Biso   1.000  O
  O28      1.0000 0.75016  0.84032  0.02476  Biso   1.000  O
  O29      1.0000 0.21868  0.42307  0.64100  Biso   1.000  O
  O30      1.0000 0.30126  0.91299  0.43737  Biso   1.000  O
  O31      1.0000 0.73928  0.38102  0.51855  Biso   1.000  O
  O32      1.0000 0.76589  0.88382  0.51889  Biso   1.000  O
