data_image0
_cell_length_a       10.0628
_cell_length_b       10.3797
_cell_length_c       5.23025
_cell_angle_alpha    89.6705
_cell_angle_beta     90.7313
_cell_angle_gamma    90.3466

_symmetry_space_group_name_H-M    "P 1"
_symmetry_int_tables_number       1

loop_
  _symmetry_equiv_pos_as_xyz
  'x, y, z'

loop_
  _atom_site_label
  _atom_site_occupancy
  _atom_site_fract_x
  _atom_site_fract_y
  _atom_site_fract_z
  _atom_site_thermal_displace_type
  _atom_site_B_iso_or_equiv
  _atom_site_type_symbol
  Cs1      1.0000 0.11841  0.01231  0.28181  Biso   1.000  Cs
  Hf1      1.0000 0.13901  0.51927  0.33540  Biso   1.000  Hf
  Hf2      1.0000 0.13592  0.23317  0.83131  Biso   1.000  Hf
  Hf3      1.0000 0.14039  0.72541  0.83121  Biso   1.000  Hf
  Hf4      1.0000 0.35908  0.26843  0.34924  Biso   1.000  Hf
  Hf5      1.0000 0.36492  0.76634  0.33163  Biso   1.000  Hf
  Hf6      1.0000 0.36113  0.47747  0.83971  Biso   1.000  Hf
  Hf7      1.0000 0.36588  0.97605  0.82320  Biso   1.000  Hf
  Hf8      1.0000 0.63743  0.02094  0.16959  Biso   1.000  Hf
  Hf9      1.0000 0.63581  0.51898  0.15655  Biso   1.000  Hf
  Hf10     1.0000 0.63756  0.23029  0.66149  Biso   1.000  Hf
  Hf11     1.0000 0.63956  0.72874  0.65543  Biso   1.000  Hf
  Hf12     1.0000 0.85535  0.27692  0.16016  Biso   1.000  Hf
  Hf13     1.0000 0.85939  0.76207  0.15439  Biso   1.000  Hf
  Hf14     1.0000 0.86085  0.48024  0.65452  Biso   1.000  Hf
  Hf15     1.0000 0.85652  0.98431  0.69001  Biso   1.000  Hf
  O1       1.0000 0.04201  0.21433  0.19940  Biso   1.000  O
  O2       1.0000 0.03940  0.67631  0.18017  Biso   1.000  O
  O3       1.0000 0.02569  0.08018  0.73515  Biso   1.000  O
  O4       1.0000 0.03573  0.57698  0.67091  Biso   1.000  O
  O5       1.0000 0.46750  0.41360  0.16778  Biso   1.000  O
  O6       1.0000 0.47109  0.91624  0.16601  Biso   1.000  O
  O7       1.0000 0.46779  0.33558  0.66555  Biso   1.000  O
  O8       1.0000 0.47487  0.83700  0.65320  Biso   1.000  O
  O9       1.0000 0.28424  0.13244  0.61230  Biso   1.000  O
  O10      1.0000 0.27844  0.61971  0.58165  Biso   1.000  O
  O11      1.0000 0.27364  0.12031  0.08742  Biso   1.000  O
  O12      1.0000 0.27349  0.61609  0.08397  Biso   1.000  O
  O13      1.0000 0.22172  0.37521  0.58274  Biso   1.000  O
  O14      1.0000 0.23158  0.86069  0.57726  Biso   1.000  O
  O15      1.0000 0.22763  0.37299  0.08307  Biso   1.000  O
  O16      1.0000 0.25066  0.85382  0.04680  Biso   1.000  O
  O17      1.0000 0.53271  0.16614  0.33531  Biso   1.000  O
  O18      1.0000 0.53570  0.66351  0.33132  Biso   1.000  O
  O19      1.0000 0.53802  0.08304  0.83426  Biso   1.000  O
  O20      1.0000 0.53245  0.58545  0.83323  Biso   1.000  O
  O21      1.0000 0.95682  0.43318  0.30895  Biso   1.000  O
  O22      1.0000 0.94568  0.91942  0.35068  Biso   1.000  O
  O23      1.0000 0.95905  0.33053  0.81234  Biso   1.000  O
  O24      1.0000 0.96725  0.83162  0.83920  Biso   1.000  O
  O25      1.0000 0.77468  0.12707  0.92987  Biso   1.000  O
  O26      1.0000 0.77696  0.62346  0.90973  Biso   1.000  O
  O27      1.0000 0.77719  0.12784  0.42631  Biso   1.000  O
  O28      1.0000 0.77487  0.62543  0.41047  Biso   1.000  O
  O29      1.0000 0.72116  0.37709  0.90909  Biso   1.000  O
  O30      1.0000 0.72396  0.87375  0.92159  Biso   1.000  O
  O31      1.0000 0.72221  0.37579  0.41094  Biso   1.000  O
  O32      1.0000 0.72857  0.87430  0.41765  Biso   1.000  O
