data_image0
_cell_length_a       10.1393
_cell_length_b       10.3217
_cell_length_c       10.4358
_cell_angle_alpha    90.0521
_cell_angle_beta     80.8503
_cell_angle_gamma    90.1792

_symmetry_space_group_name_H-M    "P 1"
_symmetry_int_tables_number       1

loop_
  _symmetry_equiv_pos_as_xyz
  'x, y, z'

loop_
  _atom_site_label
  _atom_site_occupancy
  _atom_site_fract_x
  _atom_site_fract_y
  _atom_site_fract_z
  _atom_site_thermal_displace_type
  _atom_site_B_iso_or_equiv
  _atom_site_type_symbol
  Cs1      1.0000 0.11296  0.99953  0.11416  Biso   1.000  Cs
  Hf1      1.0000 0.13939  0.02148  0.64571  Biso   1.000  Hf
  Hf2      1.0000 0.13879  0.52103  0.14457  Biso   1.000  Hf
  Hf3      1.0000 0.14024  0.52123  0.64396  Biso   1.000  Hf
  Hf4      1.0000 0.64176  0.02138  0.14735  Biso   1.000  Hf
  Hf5      1.0000 0.64026  0.02266  0.64712  Biso   1.000  Hf
  Hf6      1.0000 0.63587  0.51728  0.14843  Biso   1.000  Hf
  Hf7      1.0000 0.63861  0.52001  0.64587  Biso   1.000  Hf
  Hf8      1.0000 0.13832  0.22351  0.39106  Biso   1.000  Hf
  Hf9      1.0000 0.14021  0.23425  0.89273  Biso   1.000  Hf
  Hf10     1.0000 0.13935  0.72804  0.39539  Biso   1.000  Hf
  Hf11     1.0000 0.14089  0.72640  0.89329  Biso   1.000  Hf
  Hf12     1.0000 0.63564  0.23008  0.39786  Biso   1.000  Hf
  Hf13     1.0000 0.63976  0.22956  0.89738  Biso   1.000  Hf
  Hf14     1.0000 0.63478  0.72626  0.39833  Biso   1.000  Hf
  Hf15     1.0000 0.64134  0.72866  0.89309  Biso   1.000  Hf
  Hf16     1.0000 0.35862  0.26623  0.10583  Biso   1.000  Hf
  Hf17     1.0000 0.36025  0.27055  0.60255  Biso   1.000  Hf
  Hf18     1.0000 0.37033  0.76650  0.10836  Biso   1.000  Hf
  Hf19     1.0000 0.36103  0.77203  0.60304  Biso   1.000  Hf
  Hf20     1.0000 0.85580  0.27488  0.10719  Biso   1.000  Hf
  Hf21     1.0000 0.86334  0.27199  0.60419  Biso   1.000  Hf
  Hf22     1.0000 0.85467  0.76181  0.10218  Biso   1.000  Hf
  Hf23     1.0000 0.86276  0.77065  0.60415  Biso   1.000  Hf
  Hf24     1.0000 0.35742  0.47634  0.35347  Biso   1.000  Hf
  Hf25     1.0000 0.36375  0.47789  0.85420  Biso   1.000  Hf
  Hf26     1.0000 0.35958  0.98038  0.35143  Biso   1.000  Hf
  Hf27     1.0000 0.36856  0.97994  0.84903  Biso   1.000  Hf
  Hf28     1.0000 0.86212  0.47942  0.35558  Biso   1.000  Hf
  Hf29     1.0000 0.86197  0.47799  0.85313  Biso   1.000  Hf
  Hf30     1.0000 0.85290  0.98145  0.36564  Biso   1.000  Hf
  Hf31     1.0000 0.86272  0.97929  0.85556  Biso   1.000  Hf
  O1       1.0000 0.04124  0.20011  0.08865  Biso   1.000  O
  O2       1.0000 0.03652  0.17021  0.58129  Biso   1.000  O
  O3       1.0000 0.04069  0.68328  0.08705  Biso   1.000  O
  O4       1.0000 0.03707  0.67109  0.58249  Biso   1.000  O
  O5       1.0000 0.53864  0.16967  0.08122  Biso   1.000  O
  O6       1.0000 0.53517  0.17039  0.58245  Biso   1.000  O
  O7       1.0000 0.54301  0.66863  0.08003  Biso   1.000  O
  O8       1.0000 0.53538  0.66916  0.58245  Biso   1.000  O
  O9       1.0000 0.02726  0.07754  0.33834  Biso   1.000  O
  O10      1.0000 0.03847  0.08009  0.83534  Biso   1.000  O
  O11      1.0000 0.03746  0.57876  0.33124  Biso   1.000  O
  O12      1.0000 0.03731  0.57909  0.83224  Biso   1.000  O
  O13      1.0000 0.53898  0.07726  0.33277  Biso   1.000  O
  O14      1.0000 0.54139  0.07916  0.83054  Biso   1.000  O
  O15      1.0000 0.53316  0.57844  0.33138  Biso   1.000  O
  O16      1.0000 0.53856  0.57790  0.83141  Biso   1.000  O
  O17      1.0000 0.46250  0.41679  0.17013  Biso   1.000  O
  O18      1.0000 0.46345  0.41981  0.66878  Biso   1.000  O
  O19      1.0000 0.46918  0.91932  0.16818  Biso   1.000  O
  O20      1.0000 0.46567  0.92076  0.66748  Biso   1.000  O
  O21      1.0000 0.95744  0.43048  0.16517  Biso   1.000  O
  O22      1.0000 0.96438  0.42163  0.66876  Biso   1.000  O
  O23      1.0000 0.91258  0.93932  0.17018  Biso   1.000  O
  O24      1.0000 0.96399  0.92026  0.67085  Biso   1.000  O
  O25      1.0000 0.46190  0.32883  0.41886  Biso   1.000  O
  O26      1.0000 0.46558  0.32919  0.91874  Biso   1.000  O
  O27      1.0000 0.46362  0.82960  0.42071  Biso   1.000  O
  O28      1.0000 0.47049  0.82881  0.91612  Biso   1.000  O
  O29      1.0000 0.96254  0.32912  0.41765  Biso   1.000  O
  O30      1.0000 0.96149  0.32950  0.91777  Biso   1.000  O
  O31      1.0000 0.96231  0.82892  0.41629  Biso   1.000  O
  O32      1.0000 0.96832  0.83298  0.92399  Biso   1.000  O
  O33      1.0000 0.28551  0.13417  0.24780  Biso   1.000  O
  O34      1.0000 0.27686  0.12962  0.73775  Biso   1.000  O
  O35      1.0000 0.27827  0.62206  0.23865  Biso   1.000  O
  O36      1.0000 0.27713  0.62870  0.73947  Biso   1.000  O
  O37      1.0000 0.77318  0.13575  0.24592  Biso   1.000  O
  O38      1.0000 0.77923  0.13011  0.74248  Biso   1.000  O
  O39      1.0000 0.77311  0.62811  0.24220  Biso   1.000  O
  O40      1.0000 0.77769  0.62933  0.73992  Biso   1.000  O
  O41      1.0000 0.27448  0.11981  0.49203  Biso   1.000  O
  O42      1.0000 0.28591  0.12777  0.97706  Biso   1.000  O
  O43      1.0000 0.27594  0.62050  0.48993  Biso   1.000  O
  O44      1.0000 0.27609  0.61952  0.98979  Biso   1.000  O
  O45      1.0000 0.77309  0.12264  0.49553  Biso   1.000  O
  O46      1.0000 0.77920  0.12132  0.99310  Biso   1.000  O
  O47      1.0000 0.77573  0.62048  0.49132  Biso   1.000  O
  O48      1.0000 0.77924  0.61940  0.98974  Biso   1.000  O
  O49      1.0000 0.22572  0.38107  0.00724  Biso   1.000  O
  O50      1.0000 0.22227  0.37900  0.50791  Biso   1.000  O
  O51      1.0000 0.24945  0.86844  0.99896  Biso   1.000  O
  O52      1.0000 0.22284  0.87980  0.51064  Biso   1.000  O
  O53      1.0000 0.72253  0.38033  0.00956  Biso   1.000  O
  O54      1.0000 0.72380  0.37939  0.51047  Biso   1.000  O
  O55      1.0000 0.72434  0.87750  0.00800  Biso   1.000  O
  O56      1.0000 0.72224  0.87865  0.51335  Biso   1.000  O
  O57      1.0000 0.21895  0.37065  0.25689  Biso   1.000  O
  O58      1.0000 0.22388  0.37180  0.75764  Biso   1.000  O
  O59      1.0000 0.23822  0.85609  0.26285  Biso   1.000  O
  O60      1.0000 0.22484  0.87044  0.75940  Biso   1.000  O
  O61      1.0000 0.72185  0.37294  0.26155  Biso   1.000  O
  O62      1.0000 0.72466  0.37070  0.75945  Biso   1.000  O
  O63      1.0000 0.71772  0.86832  0.26368  Biso   1.000  O
  O64      1.0000 0.72627  0.87077  0.75936  Biso   1.000  O
