data_image0
_cell_length_a       10.1233
_cell_length_b       5.15301
_cell_length_c       10.7705
_cell_angle_alpha    88.9414
_cell_angle_beta     91.2462
_cell_angle_gamma    90.2083

_symmetry_space_group_name_H-M    "P 1"
_symmetry_int_tables_number       1

loop_
  _symmetry_equiv_pos_as_xyz
  'x, y, z'

loop_
  _atom_site_label
  _atom_site_occupancy
  _atom_site_fract_x
  _atom_site_fract_y
  _atom_site_fract_z
  _atom_site_thermal_displace_type
  _atom_site_B_iso_or_equiv
  _atom_site_type_symbol
  Hf1      1.0000 0.13698  0.04233  0.17385  Biso   1.000  Hf
  Hf2      1.0000 0.13610  0.44593  0.42479  Biso   1.000  Hf
  Hf3      1.0000 0.34841  0.55018  0.19026  Biso   1.000  Hf
  Hf4      1.0000 0.36091  0.94770  0.42714  Biso   1.000  Hf
  Hf5      1.0000 0.63184  0.04277  0.10439  Biso   1.000  Hf
  Hf6      1.0000 0.63829  0.45281  0.33740  Biso   1.000  Hf
  Hf7      1.0000 0.87366  0.54921  0.07392  Biso   1.000  Hf
  Hf8      1.0000 0.86306  0.95442  0.32975  Biso   1.000  Hf
  O1       1.0000 0.03310  0.30938  0.07290  Biso   1.000  O
  O2       1.0000 0.02787  0.18340  0.32589  Biso   1.000  O
  O3       1.0000 0.43594  0.88951  0.11976  Biso   1.000  O
  O4       1.0000 0.46537  0.66739  0.34089  Biso   1.000  O
  O5       1.0000 0.26870  0.24504  0.29987  Biso   1.000  O
  O6       1.0000 0.27898  0.26991  0.04429  Biso   1.000  O
  O7       1.0000 0.21936  0.74595  0.30460  Biso   1.000  O
  O8       1.0000 0.21572  0.75763  0.05153  Biso   1.000  O
  O9       1.0000 0.51953  0.31293  0.19853  Biso   1.000  O
  O10      1.0000 0.52942  0.16710  0.42598  Biso   1.000  O
  O11      1.0000 0.97211  0.81224  0.18069  Biso   1.000  O
  O12      1.0000 0.97190  0.67947  0.42678  Biso   1.000  O
  O13      1.0000 0.77648  0.23639  0.44916  Biso   1.000  O
  O14      1.0000 0.77563  0.25751  0.20313  Biso   1.000  O
  O15      1.0000 0.72948  0.73437  0.46186  Biso   1.000  O
  O16      1.0000 0.71946  0.75223  0.21994  Biso   1.000  O
  Hf9      1.0000 0.14225  0.03236  0.67457  Biso   1.000  Hf
  Hf10     1.0000 0.14290  0.46441  0.92058  Biso   1.000  Hf
  Hf11     1.0000 0.35913  0.53300  0.67011  Biso   1.000  Hf
  Hf12     1.0000 0.35431  0.97260  0.93205  Biso   1.000  Hf
  Hf13     1.0000 0.64118  0.01791  0.56957  Biso   1.000  Hf
  Hf14     1.0000 0.64316  0.42701  0.78641  Biso   1.000  Hf
  Hf15     1.0000 0.87239  0.54053  0.58033  Biso   1.000  Hf
  Hf16     1.0000 0.87085  0.97808  0.83422  Biso   1.000  Hf
  O17      1.0000 0.03260  0.30792  0.57741  Biso   1.000  O
  O18      1.0000 0.03805  0.18733  0.82450  Biso   1.000  O
  O19      1.0000 0.47412  0.79038  0.57162  Biso   1.000  O
  O20      1.0000 0.47553  0.66674  0.80398  Biso   1.000  O
  O21      1.0000 0.27864  0.24551  0.79633  Biso   1.000  O
  O22      1.0000 0.27312  0.23674  0.54538  Biso   1.000  O
  O23      1.0000 0.22933  0.74619  0.80006  Biso   1.000  O
  O24      1.0000 0.22426  0.74199  0.55034  Biso   1.000  O
  O25      1.0000 0.52216  0.27431  0.66234  Biso   1.000  O
  O26      1.0000 0.53857  0.11960  0.92667  Biso   1.000  O
  O27      1.0000 0.97524  0.81228  0.67575  Biso   1.000  O
  O28      1.0000 0.98183  0.68971  0.92206  Biso   1.000  O
  O29      1.0000 0.78742  0.32061  0.92034  Biso   1.000  O
  O30      1.0000 0.78014  0.22602  0.68445  Biso   1.000  O
  O31      1.0000 0.77215  0.85681  0.98894  Biso   1.000  O
  O32      1.0000 0.73351  0.73894  0.71039  Biso   1.000  O
  Cs1      1.0000 0.56772  0.56782  0.00962  Biso   1.000  Cs
