data_image0
_cell_length_a       10.1034
_cell_length_b       5.13844
_cell_length_c       10.1031
_cell_angle_alpha    88.8197
_cell_angle_beta     90.129
_cell_angle_gamma    88.8173

_symmetry_space_group_name_H-M    "P 1"
_symmetry_int_tables_number       1

loop_
  _symmetry_equiv_pos_as_xyz
  'x, y, z'

loop_
  _atom_site_label
  _atom_site_occupancy
  _atom_site_fract_x
  _atom_site_fract_y
  _atom_site_fract_z
  _atom_site_thermal_displace_type
  _atom_site_B_iso_or_equiv
  _atom_site_type_symbol
  Cs1      1.0000 0.12895  0.01562  0.12890  Biso   1.000  Cs
  Hf1      1.0000 0.12094  0.00696  0.62446  Biso   1.000  Hf
  Hf2      1.0000 0.62447  0.00692  0.12093  Biso   1.000  Hf
  Hf3      1.0000 0.62386  0.00269  0.62383  Biso   1.000  Hf
  Hf4      1.0000 0.12294  0.50933  0.38387  Biso   1.000  Hf
  Hf5      1.0000 0.12896  0.50145  0.87195  Biso   1.000  Hf
  Hf6      1.0000 0.62475  0.50108  0.37338  Biso   1.000  Hf
  Hf7      1.0000 0.62982  0.50079  0.87364  Biso   1.000  Hf
  Hf8      1.0000 0.38389  0.50925  0.12297  Biso   1.000  Hf
  Hf9      1.0000 0.37337  0.50101  0.62472  Biso   1.000  Hf
  Hf10     1.0000 0.87198  0.50146  0.12899  Biso   1.000  Hf
  Hf11     1.0000 0.87359  0.50076  0.62985  Biso   1.000  Hf
  Hf12     1.0000 0.37824  0.02203  0.37824  Biso   1.000  Hf
  Hf13     1.0000 0.37153  0.98946  0.86469  Biso   1.000  Hf
  Hf14     1.0000 0.86473  0.98964  0.37149  Biso   1.000  Hf
  Hf15     1.0000 0.87367  0.98296  0.87367  Biso   1.000  Hf
  O1       1.0000 0.01310  0.26447  0.01309  Biso   1.000  O
  O2       1.0000 0.01278  0.31729  0.52307  Biso   1.000  O
  O3       1.0000 0.52301  0.31710  0.01268  Biso   1.000  O
  O4       1.0000 0.50226  0.30064  0.50220  Biso   1.000  O
  O5       1.0000 0.98578  0.24428  0.27635  Biso   1.000  O
  O6       1.0000 0.00087  0.20261  0.76590  Biso   1.000  O
  O7       1.0000 0.50338  0.20734  0.25326  Biso   1.000  O
  O8       1.0000 0.50162  0.20178  0.75327  Biso   1.000  O
  O9       1.0000 0.99063  0.70446  0.25513  Biso   1.000  O
  O10      1.0000 0.00693  0.70711  0.73578  Biso   1.000  O
  O11      1.0000 0.50058  0.71305  0.25153  Biso   1.000  O
  O12      1.0000 0.50086  0.70033  0.74958  Biso   1.000  O
  O13      1.0000 0.98113  0.72222  0.98113  Biso   1.000  O
  O14      1.0000 0.00269  0.81790  0.49255  Biso   1.000  O
  O15      1.0000 0.49263  0.81772  0.00263  Biso   1.000  O
  O16      1.0000 0.50188  0.80324  0.50184  Biso   1.000  O
  O17      1.0000 0.26725  0.34099  0.26729  Biso   1.000  O
  O18      1.0000 0.24711  0.28706  0.74204  Biso   1.000  O
  O19      1.0000 0.74196  0.28705  0.24707  Biso   1.000  O
  O20      1.0000 0.74845  0.29153  0.74848  Biso   1.000  O
  O21      1.0000 0.27631  0.24389  0.98588  Biso   1.000  O
  O22      1.0000 0.25335  0.20739  0.50346  Biso   1.000  O
  O23      1.0000 0.76591  0.20263  0.00089  Biso   1.000  O
  O24      1.0000 0.75335  0.20189  0.50165  Biso   1.000  O
  O25      1.0000 0.25525  0.70412  0.99049  Biso   1.000  O
  O26      1.0000 0.25160  0.71311  0.50048  Biso   1.000  O
  O27      1.0000 0.73580  0.70710  0.00692  Biso   1.000  O
  O28      1.0000 0.74961  0.70042  0.50085  Biso   1.000  O
  O29      1.0000 0.25258  0.80835  0.25242  Biso   1.000  O
  O30      1.0000 0.25048  0.78423  0.74803  Biso   1.000  O
  O31      1.0000 0.74814  0.78423  0.25046  Biso   1.000  O
  O32      1.0000 0.75149  0.78974  0.75147  Biso   1.000  O
