data_image0
_cell_length_a       10.1521
_cell_length_b       10.291
_cell_length_c       5.07917
_cell_angle_alpha    90.8987
_cell_angle_beta     90.7056
_cell_angle_gamma    90.6412

_symmetry_space_group_name_H-M    "P 1"
_symmetry_int_tables_number       1

loop_
  _symmetry_equiv_pos_as_xyz
  'x, y, z'

loop_
  _atom_site_label
  _atom_site_occupancy
  _atom_site_fract_x
  _atom_site_fract_y
  _atom_site_fract_z
  _atom_site_thermal_displace_type
  _atom_site_B_iso_or_equiv
  _atom_site_type_symbol
  Cs1      1.0000 0.12444  0.00721  0.24865  Biso   1.000  Cs
  Zr1      1.0000 0.12511  0.49734  0.25019  Biso   1.000  Zr
  Zr2      1.0000 0.62499  0.99896  0.26748  Biso   1.000  Zr
  Zr3      1.0000 0.62490  0.49736  0.25451  Biso   1.000  Zr
  Zr4      1.0000 0.12066  0.25864  0.74599  Biso   1.000  Zr
  Zr5      1.0000 0.13092  0.74390  0.75225  Biso   1.000  Zr
  Zr6      1.0000 0.61862  0.25244  0.75115  Biso   1.000  Zr
  Zr7      1.0000 0.62796  0.74625  0.76455  Biso   1.000  Zr
  Zr8      1.0000 0.37744  0.25024  0.22091  Biso   1.000  Zr
  Zr9      1.0000 0.37717  0.74504  0.25829  Biso   1.000  Zr
  Zr10     1.0000 0.86400  0.24806  0.26948  Biso   1.000  Zr
  Zr11     1.0000 0.87607  0.74740  0.27267  Biso   1.000  Zr
  Zr12     1.0000 0.38589  0.98948  0.76095  Biso   1.000  Zr
  Zr13     1.0000 0.37265  0.50032  0.75188  Biso   1.000  Zr
  Zr14     1.0000 0.87125  0.00072  0.76369  Biso   1.000  Zr
  Zr15     1.0000 0.87573  0.50461  0.75210  Biso   1.000  Zr
  O1       1.0000 0.99641  0.15928  0.01054  Biso   1.000  O
  O2       1.0000 0.00492  0.64956  0.02053  Biso   1.000  O
  O3       1.0000 0.51333  0.14131  0.01236  Biso   1.000  O
  O4       1.0000 0.50655  0.64140  0.01473  Biso   1.000  O
  O5       1.0000 0.97719  0.12564  0.54624  Biso   1.000  O
  O6       1.0000 0.00044  0.60424  0.51229  Biso   1.000  O
  O7       1.0000 0.48649  0.10137  0.49737  Biso   1.000  O
  O8       1.0000 0.49871  0.60001  0.51000  Biso   1.000  O
  O9       1.0000 0.00566  0.36057  0.46356  Biso   1.000  O
  O10      1.0000 0.98914  0.84725  0.55321  Biso   1.000  O
  O11      1.0000 0.50580  0.35157  0.48289  Biso   1.000  O
  O12      1.0000 0.50928  0.84937  0.50274  Biso   1.000  O
  O13      1.0000 0.00335  0.40119  0.96644  Biso   1.000  O
  O14      1.0000 0.99918  0.89420  0.02727  Biso   1.000  O
  O15      1.0000 0.49476  0.39155  0.98987  Biso   1.000  O
  O16      1.0000 0.50758  0.89042  0.00510  Biso   1.000  O
  O17      1.0000 0.22873  0.15195  0.43399  Biso   1.000  O
  O18      1.0000 0.24814  0.63721  0.49142  Biso   1.000  O
  O19      1.0000 0.73574  0.14386  0.51110  Biso   1.000  O
  O20      1.0000 0.74717  0.64342  0.50432  Biso   1.000  O
  O21      1.0000 0.27060  0.13074  0.91154  Biso   1.000  O
  O22      1.0000 0.25269  0.60476  0.99363  Biso   1.000  O
  O23      1.0000 0.75577  0.09776  0.02411  Biso   1.000  O
  O24      1.0000 0.75309  0.59972  0.00681  Biso   1.000  O
  O25      1.0000 0.24376  0.36323  0.02297  Biso   1.000  O
  O26      1.0000 0.26311  0.84769  0.99590  Biso   1.000  O
  O27      1.0000 0.74242  0.35136  0.01400  Biso   1.000  O
  O28      1.0000 0.75511  0.84781  0.01295  Biso   1.000  O
  O29      1.0000 0.25190  0.38962  0.51724  Biso   1.000  O
  O30      1.0000 0.26380  0.87852  0.52100  Biso   1.000  O
  O31      1.0000 0.75247  0.39411  0.51086  Biso   1.000  O
  O32      1.0000 0.75014  0.89604  0.51196  Biso   1.000  O
