data_image0
_cell_length_a       10.2433
_cell_length_b       5.21649
_cell_length_c       10.4989
_cell_angle_alpha    90.1789
_cell_angle_beta     81.2829
_cell_angle_gamma    90.5617

_symmetry_space_group_name_H-M    "P 1"
_symmetry_int_tables_number       1

loop_
  _symmetry_equiv_pos_as_xyz
  'x, y, z'

loop_
  _atom_site_label
  _atom_site_occupancy
  _atom_site_fract_x
  _atom_site_fract_y
  _atom_site_fract_z
  _atom_site_thermal_displace_type
  _atom_site_B_iso_or_equiv
  _atom_site_type_symbol
  Cs1      1.0000 0.11093  0.99931  0.11469  Biso   1.000  Cs
  Zr1      1.0000 0.14077  0.04313  0.64342  Biso   1.000  Zr
  Zr2      1.0000 0.63883  0.03582  0.14878  Biso   1.000  Zr
  Zr3      1.0000 0.63954  0.04311  0.64679  Biso   1.000  Zr
  Zr4      1.0000 0.13829  0.44582  0.39109  Biso   1.000  Zr
  Zr5      1.0000 0.14056  0.46585  0.89002  Biso   1.000  Zr
  Zr6      1.0000 0.63271  0.45657  0.39933  Biso   1.000  Zr
  Zr7      1.0000 0.64246  0.45989  0.89435  Biso   1.000  Zr
  Zr8      1.0000 0.36685  0.52120  0.10973  Biso   1.000  Zr
  Zr9      1.0000 0.36016  0.54185  0.60167  Biso   1.000  Zr
  Zr10     1.0000 0.85177  0.53149  0.10585  Biso   1.000  Zr
  Zr11     1.0000 0.86525  0.54335  0.60530  Biso   1.000  Zr
  Zr12     1.0000 0.35679  0.95493  0.35127  Biso   1.000  Zr
  Zr13     1.0000 0.37035  0.95659  0.84906  Biso   1.000  Zr
  Zr14     1.0000 0.85408  0.96402  0.36884  Biso   1.000  Zr
  Zr15     1.0000 0.86264  0.95980  0.85455  Biso   1.000  Zr
  O1       1.0000 0.04330  0.43936  0.09045  Biso   1.000  O
  O2       1.0000 0.03778  0.34571  0.58460  Biso   1.000  O
  O3       1.0000 0.54361  0.33643  0.08088  Biso   1.000  O
  O4       1.0000 0.53404  0.33886  0.58337  Biso   1.000  O
  O5       1.0000 0.02697  0.15392  0.34160  Biso   1.000  O
  O6       1.0000 0.03871  0.16001  0.83582  Biso   1.000  O
  O7       1.0000 0.53594  0.15217  0.33296  Biso   1.000  O
  O8       1.0000 0.54293  0.15268  0.83179  Biso   1.000  O
  O9       1.0000 0.46891  0.83043  0.16851  Biso   1.000  O
  O10      1.0000 0.46526  0.84124  0.66666  Biso   1.000  O
  O11      1.0000 0.91486  0.89531  0.16923  Biso   1.000  O
  O12      1.0000 0.96404  0.84828  0.66871  Biso   1.000  O
  O13      1.0000 0.46303  0.65597  0.41976  Biso   1.000  O
  O14      1.0000 0.47280  0.65192  0.91305  Biso   1.000  O
  O15      1.0000 0.96129  0.65705  0.41680  Biso   1.000  O
  O16      1.0000 0.96467  0.66516  0.91745  Biso   1.000  O
  O17      1.0000 0.28280  0.24623  0.24430  Biso   1.000  O
  O18      1.0000 0.27733  0.25939  0.73801  Biso   1.000  O
  O19      1.0000 0.76940  0.26930  0.24752  Biso   1.000  O
  O20      1.0000 0.77880  0.26115  0.74217  Biso   1.000  O
  O21      1.0000 0.27333  0.24077  0.49088  Biso   1.000  O
  O22      1.0000 0.27907  0.24178  0.98146  Biso   1.000  O
  O23      1.0000 0.77140  0.24524  0.49666  Biso   1.000  O
  O24      1.0000 0.78033  0.24050  0.99289  Biso   1.000  O
  O25      1.0000 0.25458  0.73645  0.99519  Biso   1.000  O
  O26      1.0000 0.22364  0.75992  0.50903  Biso   1.000  O
  O27      1.0000 0.72496  0.75681  0.00902  Biso   1.000  O
  O28      1.0000 0.72291  0.75740  0.51464  Biso   1.000  O
  O29      1.0000 0.23696  0.70723  0.26129  Biso   1.000  O
  O30      1.0000 0.22485  0.74392  0.75693  Biso   1.000  O
  O31      1.0000 0.72169  0.74415  0.26414  Biso   1.000  O
  O32      1.0000 0.72786  0.74253  0.75951  Biso   1.000  O
