data_image0
_cell_length_a       10.1119
_cell_length_b       10.391
_cell_length_c       10.492
_cell_angle_alpha    89.8758
_cell_angle_beta     90.3906
_cell_angle_gamma    90.198

_symmetry_space_group_name_H-M    "P 1"
_symmetry_int_tables_number       1

loop_
  _symmetry_equiv_pos_as_xyz
  'x, y, z'

loop_
  _atom_site_label
  _atom_site_occupancy
  _atom_site_fract_x
  _atom_site_fract_y
  _atom_site_fract_z
  _atom_site_thermal_displace_type
  _atom_site_B_iso_or_equiv
  _atom_site_type_symbol
  Cs1      1.0000 0.11758  0.01214  0.13860  Biso   1.000  Cs
  Zr1      1.0000 0.13977  0.02103  0.67151  Biso   1.000  Zr
  Zr2      1.0000 0.13912  0.51877  0.16975  Biso   1.000  Zr
  Zr3      1.0000 0.13880  0.52116  0.66810  Biso   1.000  Zr
  Zr4      1.0000 0.13824  0.22580  0.42004  Biso   1.000  Zr
  Zr5      1.0000 0.13607  0.23662  0.91442  Biso   1.000  Zr
  Zr6      1.0000 0.13807  0.72948  0.41856  Biso   1.000  Zr
  Zr7      1.0000 0.14131  0.72593  0.91786  Biso   1.000  Zr
  Zr8      1.0000 0.35908  0.26793  0.17423  Biso   1.000  Zr
  Zr9      1.0000 0.36071  0.27027  0.66972  Biso   1.000  Zr
  Zr10     1.0000 0.36592  0.76690  0.17103  Biso   1.000  Zr
  Zr11     1.0000 0.35995  0.77059  0.66691  Biso   1.000  Zr
  Zr12     1.0000 0.35976  0.47864  0.41969  Biso   1.000  Zr
  Zr13     1.0000 0.36247  0.47790  0.92056  Biso   1.000  Zr
  Zr14     1.0000 0.35794  0.97992  0.41683  Biso   1.000  Zr
  Zr15     1.0000 0.36852  0.97521  0.91581  Biso   1.000  Zr
  Zr16     1.0000 0.64092  0.02059  0.08208  Biso   1.000  Zr
  Zr17     1.0000 0.63516  0.02054  0.58252  Biso   1.000  Zr
  Zr18     1.0000 0.63643  0.51906  0.08028  Biso   1.000  Zr
  Zr19     1.0000 0.63788  0.52052  0.57802  Biso   1.000  Zr
  Zr20     1.0000 0.63640  0.22987  0.33147  Biso   1.000  Zr
  Zr21     1.0000 0.63927  0.22969  0.82923  Biso   1.000  Zr
  Zr22     1.0000 0.64018  0.72909  0.33064  Biso   1.000  Zr
  Zr23     1.0000 0.63858  0.72849  0.82700  Biso   1.000  Zr
  Zr24     1.0000 0.85341  0.27516  0.07984  Biso   1.000  Zr
  Zr25     1.0000 0.86241  0.27191  0.58044  Biso   1.000  Zr
  Zr26     1.0000 0.85822  0.76203  0.07610  Biso   1.000  Zr
  Zr27     1.0000 0.86266  0.77072  0.58100  Biso   1.000  Zr
  Zr28     1.0000 0.86177  0.47977  0.33051  Biso   1.000  Zr
  Zr29     1.0000 0.86052  0.47977  0.82694  Biso   1.000  Zr
  Zr30     1.0000 0.85558  0.98386  0.34364  Biso   1.000  Zr
  Zr31     1.0000 0.86189  0.97948  0.83084  Biso   1.000  Zr
  O1       1.0000 0.03994  0.21304  0.09391  Biso   1.000  O
  O2       1.0000 0.03619  0.17436  0.59453  Biso   1.000  O
  O3       1.0000 0.03828  0.67609  0.08981  Biso   1.000  O
  O4       1.0000 0.03563  0.67099  0.58889  Biso   1.000  O
  O5       1.0000 0.02574  0.07956  0.35621  Biso   1.000  O
  O6       1.0000 0.03645  0.07923  0.84348  Biso   1.000  O
  O7       1.0000 0.03574  0.57948  0.33665  Biso   1.000  O
  O8       1.0000 0.03486  0.57775  0.83702  Biso   1.000  O
  O9       1.0000 0.46735  0.41493  0.08530  Biso   1.000  O
  O10      1.0000 0.46673  0.41591  0.58379  Biso   1.000  O
  O11      1.0000 0.47394  0.91655  0.08441  Biso   1.000  O
  O12      1.0000 0.46453  0.91673  0.58373  Biso   1.000  O
  O13      1.0000 0.46642  0.33490  0.33410  Biso   1.000  O
  O14      1.0000 0.46685  0.33244  0.83394  Biso   1.000  O
  O15      1.0000 0.47303  0.83664  0.33257  Biso   1.000  O
  O16      1.0000 0.47018  0.83376  0.82900  Biso   1.000  O
  O17      1.0000 0.28173  0.13029  0.30302  Biso   1.000  O
  O18      1.0000 0.27671  0.12548  0.79493  Biso   1.000  O
  O19      1.0000 0.27721  0.62027  0.29249  Biso   1.000  O
  O20      1.0000 0.27656  0.62397  0.79228  Biso   1.000  O
  O21      1.0000 0.27287  0.12053  0.04065  Biso   1.000  O
  O22      1.0000 0.27489  0.12421  0.54672  Biso   1.000  O
  O23      1.0000 0.27326  0.61544  0.04408  Biso   1.000  O
  O24      1.0000 0.27496  0.62571  0.54193  Biso   1.000  O
  O25      1.0000 0.22215  0.37415  0.29276  Biso   1.000  O
  O26      1.0000 0.22384  0.37522  0.79219  Biso   1.000  O
  O27      1.0000 0.23224  0.86216  0.29652  Biso   1.000  O
  O28      1.0000 0.22543  0.87360  0.78933  Biso   1.000  O
  O29      1.0000 0.22860  0.37208  0.04166  Biso   1.000  O
  O30      1.0000 0.22409  0.37610  0.54342  Biso   1.000  O
  O31      1.0000 0.25291  0.85245  0.02752  Biso   1.000  O
  O32      1.0000 0.22223  0.87679  0.54256  Biso   1.000  O
  O33      1.0000 0.53358  0.16692  0.16574  Biso   1.000  O
  O34      1.0000 0.53252  0.16674  0.66630  Biso   1.000  O
  O35      1.0000 0.53625  0.66530  0.16635  Biso   1.000  O
  O36      1.0000 0.53289  0.66584  0.66417  Biso   1.000  O
  O37      1.0000 0.53384  0.08261  0.41606  Biso   1.000  O
  O38      1.0000 0.53753  0.08325  0.91599  Biso   1.000  O
  O39      1.0000 0.53292  0.58369  0.41508  Biso   1.000  O
  O40      1.0000 0.53287  0.58443  0.91644  Biso   1.000  O
  O41      1.0000 0.95800  0.43061  0.15646  Biso   1.000  O
  O42      1.0000 0.96385  0.42336  0.66027  Biso   1.000  O
  O43      1.0000 0.94638  0.92186  0.17108  Biso   1.000  O
  O44      1.0000 0.96504  0.92067  0.66520  Biso   1.000  O
  O45      1.0000 0.96423  0.33103  0.41241  Biso   1.000  O
  O46      1.0000 0.95934  0.32832  0.90499  Biso   1.000  O
  O47      1.0000 0.96276  0.82901  0.41422  Biso   1.000  O
  O48      1.0000 0.97036  0.83404  0.91905  Biso   1.000  O
  O49      1.0000 0.77888  0.12472  0.95928  Biso   1.000  O
  O50      1.0000 0.77161  0.12649  0.46189  Biso   1.000  O
  O51      1.0000 0.77578  0.62337  0.95490  Biso   1.000  O
  O52      1.0000 0.77645  0.62438  0.45623  Biso   1.000  O
  O53      1.0000 0.77626  0.12753  0.21049  Biso   1.000  O
  O54      1.0000 0.77529  0.12567  0.70898  Biso   1.000  O
  O55      1.0000 0.77537  0.62468  0.20593  Biso   1.000  O
  O56      1.0000 0.77495  0.62586  0.70542  Biso   1.000  O
  O57      1.0000 0.72176  0.37636  0.95475  Biso   1.000  O
  O58      1.0000 0.72379  0.37546  0.45572  Biso   1.000  O
  O59      1.0000 0.72638  0.87358  0.95601  Biso   1.000  O
  O60      1.0000 0.72249  0.87445  0.46069  Biso   1.000  O
  O61      1.0000 0.72246  0.37602  0.20673  Biso   1.000  O
  O62      1.0000 0.72435  0.37506  0.70485  Biso   1.000  O
  O63      1.0000 0.73022  0.87408  0.20743  Biso   1.000  O
  O64      1.0000 0.72546  0.87497  0.70727  Biso   1.000  O
