data_image0
_cell_length_a       5.0908
_cell_length_b       10.5016
_cell_length_c       10.4938
_cell_angle_alpha    89.8789
_cell_angle_beta     81.3133
_cell_angle_gamma    90.5725

_symmetry_space_group_name_H-M    "P 1"
_symmetry_int_tables_number       1

loop_
  _symmetry_equiv_pos_as_xyz
  'x, y, z'

loop_
  _atom_site_label
  _atom_site_occupancy
  _atom_site_fract_x
  _atom_site_fract_y
  _atom_site_fract_z
  _atom_site_thermal_displace_type
  _atom_site_B_iso_or_equiv
  _atom_site_type_symbol
  Cs1      1.0000 0.23427  0.01084  0.11791  Biso   1.000  Cs
  Zr1      1.0000 0.28071  0.02329  0.64774  Biso   1.000  Zr
  Zr2      1.0000 0.27090  0.51671  0.14533  Biso   1.000  Zr
  Zr3      1.0000 0.27789  0.52127  0.64235  Biso   1.000  Zr
  Zr4      1.0000 0.27025  0.22638  0.39550  Biso   1.000  Zr
  Zr5      1.0000 0.27137  0.23691  0.89096  Biso   1.000  Zr
  Zr6      1.0000 0.27224  0.72774  0.39474  Biso   1.000  Zr
  Zr7      1.0000 0.28920  0.72615  0.89022  Biso   1.000  Zr
  Zr8      1.0000 0.70274  0.27280  0.10991  Biso   1.000  Zr
  Zr9      1.0000 0.72366  0.27196  0.60477  Biso   1.000  Zr
  Zr10     1.0000 0.72609  0.75469  0.10306  Biso   1.000  Zr
  Zr11     1.0000 0.72518  0.77145  0.60169  Biso   1.000  Zr
  Zr12     1.0000 0.71588  0.47816  0.35595  Biso   1.000  Zr
  Zr13     1.0000 0.72522  0.47828  0.85196  Biso   1.000  Zr
  Zr14     1.0000 0.70422  0.98411  0.36487  Biso   1.000  Zr
  Zr15     1.0000 0.73557  0.97490  0.85051  Biso   1.000  Zr
  O1       1.0000 0.08274  0.21348  0.08574  Biso   1.000  O
  O2       1.0000 0.07281  0.17531  0.58874  Biso   1.000  O
  O3       1.0000 0.09159  0.67645  0.08382  Biso   1.000  O
  O4       1.0000 0.07459  0.67255  0.58350  Biso   1.000  O
  O5       1.0000 0.05894  0.07565  0.35105  Biso   1.000  O
  O6       1.0000 0.08048  0.07782  0.83710  Biso   1.000  O
  O7       1.0000 0.06748  0.57802  0.33203  Biso   1.000  O
  O8       1.0000 0.07896  0.57415  0.83299  Biso   1.000  O
  O9       1.0000 0.90626  0.43009  0.16524  Biso   1.000  O
  O10      1.0000 0.92368  0.42518  0.66491  Biso   1.000  O
  O11      1.0000 0.88605  0.92216  0.17849  Biso   1.000  O
  O12      1.0000 0.93180  0.92108  0.66926  Biso   1.000  O
  O13      1.0000 0.92113  0.32834  0.41757  Biso   1.000  O
  O14      1.0000 0.91128  0.32248  0.90921  Biso   1.000  O
  O15      1.0000 0.92692  0.82893  0.41982  Biso   1.000  O
  O16      1.0000 0.96187  0.83418  0.92169  Biso   1.000  O
  O17      1.0000 0.56897  0.13805  0.25133  Biso   1.000  O
  O18      1.0000 0.55612  0.13104  0.74338  Biso   1.000  O
  O19      1.0000 0.54528  0.62107  0.23972  Biso   1.000  O
  O20      1.0000 0.55620  0.62895  0.73810  Biso   1.000  O
  O21      1.0000 0.54208  0.12301  0.49829  Biso   1.000  O
  O22      1.0000 0.55261  0.11840  0.98920  Biso   1.000  O
  O23      1.0000 0.54887  0.62187  0.48916  Biso   1.000  O
  O24      1.0000 0.55833  0.61439  0.98976  Biso   1.000  O
  O25      1.0000 0.44762  0.38107  0.00595  Biso   1.000  O
  O26      1.0000 0.44584  0.38079  0.50900  Biso   1.000  O
  O27      1.0000 0.50249  0.85794  0.99085  Biso   1.000  O
  O28      1.0000 0.44494  0.88147  0.51169  Biso   1.000  O
  O29      1.0000 0.43328  0.37186  0.25926  Biso   1.000  O
  O30      1.0000 0.44572  0.37219  0.75651  Biso   1.000  O
  O31      1.0000 0.48206  0.85494  0.26149  Biso   1.000  O
  O32      1.0000 0.45468  0.87028  0.75482  Biso   1.000  O
