data_image0
_cell_length_a       10.2638
_cell_length_b       10.3884
_cell_length_c       10.6166
_cell_angle_alpha    89.9957
_cell_angle_beta     79.7194
_cell_angle_gamma    90.1498

_symmetry_space_group_name_H-M    "P 1"
_symmetry_int_tables_number       1

loop_
  _symmetry_equiv_pos_as_xyz
  'x, y, z'

loop_
  _atom_site_label
  _atom_site_occupancy
  _atom_site_fract_x
  _atom_site_fract_y
  _atom_site_fract_z
  _atom_site_thermal_displace_type
  _atom_site_B_iso_or_equiv
  _atom_site_type_symbol
  Zr1      1.0000 0.13014  0.02088  0.14321  Biso   1.000  Zr
  Zr2      1.0000 0.13029  0.22576  0.39258  Biso   1.000  Zr
  Zr3      1.0000 0.34610  0.27322  0.08439  Biso   1.000  Zr
  Zr4      1.0000 0.35936  0.49094  0.35679  Biso   1.000  Zr
  O1       1.0000 0.03032  0.16556  0.07250  Biso   1.000  O
  O2       1.0000 0.02399  0.08239  0.32806  Biso   1.000  O
  O3       1.0000 0.45773  0.43427  0.15957  Biso   1.000  O
  O4       1.0000 0.48589  0.38839  0.46141  Biso   1.000  O
  O5       1.0000 0.25500  0.12874  0.22993  Biso   1.000  O
  O6       1.0000 0.27484  0.11498  0.48463  Biso   1.000  O
  O7       1.0000 0.21507  0.38409  0.00313  Biso   1.000  O
  O8       1.0000 0.22055  0.37425  0.25689  Biso   1.000  O
  Zr5      1.0000 0.14022  0.02095  0.64279  Biso   1.000  Zr
  Zr6      1.0000 0.13236  0.22853  0.88889  Biso   1.000  Zr
  Zr7      1.0000 0.36540  0.28212  0.60854  Biso   1.000  Zr
  Zr8      1.0000 0.35866  0.48245  0.85738  Biso   1.000  Zr
  O9       1.0000 0.03627  0.16580  0.57737  Biso   1.000  O
  O10      1.0000 0.03069  0.08486  0.82334  Biso   1.000  O
  O11      1.0000 0.47059  0.40803  0.69422  Biso   1.000  O
  O12      1.0000 0.46549  0.33687  0.92370  Biso   1.000  O
  O13      1.0000 0.27300  0.12991  0.73583  Biso   1.000  O
  O14      1.0000 0.26912  0.12370  0.98131  Biso   1.000  O
  O15      1.0000 0.22884  0.37537  0.50678  Biso   1.000  O
  O16      1.0000 0.22419  0.37452  0.75794  Biso   1.000  O
  Zr9      1.0000 0.13834  0.52276  0.14818  Biso   1.000  Zr
  Zr10     1.0000 0.13449  0.72963  0.39690  Biso   1.000  Zr
  Zr11     1.0000 0.35920  0.77504  0.10440  Biso   1.000  Zr
  Zr12     1.0000 0.36491  0.96291  0.36006  Biso   1.000  Zr
  O17      1.0000 0.03169  0.66410  0.07667  Biso   1.000  O
  O18      1.0000 0.03145  0.58534  0.32733  Biso   1.000  O
  O19      1.0000 0.46501  0.91834  0.17622  Biso   1.000  O
  O20      1.0000 0.46117  0.82062  0.42572  Biso   1.000  O
  O21      1.0000 0.27228  0.63313  0.24251  Biso   1.000  O
  O22      1.0000 0.27004  0.62261  0.49325  Biso   1.000  O
  O23      1.0000 0.22309  0.88043  0.01061  Biso   1.000  O
  O24      1.0000 0.22344  0.87166  0.26231  Biso   1.000  O
  Zr13     1.0000 0.13677  0.52155  0.64579  Biso   1.000  Zr
  Zr14     1.0000 0.13624  0.72856  0.89714  Biso   1.000  Zr
  Zr15     1.0000 0.36050  0.76822  0.60863  Biso   1.000  Zr
  Zr16     1.0000 0.35898  0.97975  0.85219  Biso   1.000  Zr
  O25      1.0000 0.02950  0.66353  0.57728  Biso   1.000  O
  O26      1.0000 0.03149  0.58648  0.82613  Biso   1.000  O
  O27      1.0000 0.46495  0.91497  0.67134  Biso   1.000  O
  O28      1.0000 0.46478  0.83934  0.92292  Biso   1.000  O
  O29      1.0000 0.27384  0.62701  0.74204  Biso   1.000  O
  O30      1.0000 0.27429  0.62577  0.99330  Biso   1.000  O
  O31      1.0000 0.22376  0.87355  0.51317  Biso   1.000  O
  O32      1.0000 0.22356  0.87097  0.76119  Biso   1.000  O
  Zr17     1.0000 0.64317  0.01510  0.14812  Biso   1.000  Zr
  Zr18     1.0000 0.66134  0.22948  0.41130  Biso   1.000  Zr
  Zr19     1.0000 0.85936  0.27336  0.10586  Biso   1.000  Zr
  Zr20     1.0000 0.86112  0.47851  0.35426  Biso   1.000  Zr
  O33      1.0000 0.52899  0.15650  0.07006  Biso   1.000  O
  O34      1.0000 0.56605  0.04450  0.34901  Biso   1.000  O
  O35      1.0000 0.96629  0.41495  0.17374  Biso   1.000  O
  O36      1.0000 0.96479  0.33301  0.42433  Biso   1.000  O
  O37      1.0000 0.77903  0.12999  0.24150  Biso   1.000  O
  O38      1.0000 0.78437  0.11777  0.49882  Biso   1.000  O
  O39      1.0000 0.72222  0.37823  0.01364  Biso   1.000  O
  O40      1.0000 0.72245  0.37217  0.26408  Biso   1.000  O
  Zr21     1.0000 0.63643  0.02143  0.64580  Biso   1.000  Zr
  Zr22     1.0000 0.63710  0.22545  0.89833  Biso   1.000  Zr
  Zr23     1.0000 0.86533  0.27068  0.61267  Biso   1.000  Zr
  Zr24     1.0000 0.85828  0.47946  0.85643  Biso   1.000  Zr
  O41      1.0000 0.53546  0.16902  0.57739  Biso   1.000  O
  O42      1.0000 0.52989  0.08721  0.82261  Biso   1.000  O
  O43      1.0000 0.96819  0.41511  0.67551  Biso   1.000  O
  O44      1.0000 0.96248  0.33535  0.92193  Biso   1.000  O
  O45      1.0000 0.77331  0.12765  0.74432  Biso   1.000  O
  O46      1.0000 0.77510  0.12117  0.99249  Biso   1.000  O
  O47      1.0000 0.73337  0.37611  0.51839  Biso   1.000  O
  O48      1.0000 0.72588  0.37149  0.76476  Biso   1.000  O
  Zr25     1.0000 0.63351  0.52513  0.14292  Biso   1.000  Zr
  Zr26     1.0000 0.64036  0.72450  0.39612  Biso   1.000  Zr
  Zr27     1.0000 0.86002  0.76758  0.10389  Biso   1.000  Zr
  Zr28     1.0000 0.85547  0.97418  0.35497  Biso   1.000  Zr
  O49      1.0000 0.53391  0.67478  0.07600  Biso   1.000  O
  O50      1.0000 0.53095  0.59432  0.31928  Biso   1.000  O
  O51      1.0000 0.96236  0.91152  0.17516  Biso   1.000  O
  O52      1.0000 0.96355  0.83360  0.42397  Biso   1.000  O
  O53      1.0000 0.77588  0.62452  0.23980  Biso   1.000  O
  O54      1.0000 0.77273  0.61868  0.48969  Biso   1.000  O
  O55      1.0000 0.72514  0.87789  0.01007  Biso   1.000  O
  O56      1.0000 0.72660  0.86226  0.25681  Biso   1.000  O
  Zr29     1.0000 0.63584  0.51988  0.64758  Biso   1.000  Zr
  Zr30     1.0000 0.63555  0.73091  0.89495  Biso   1.000  Zr
  Zr31     1.0000 0.85965  0.77167  0.60583  Biso   1.000  Zr
  Zr32     1.0000 0.86007  0.97788  0.85474  Biso   1.000  Zr
  O57      1.0000 0.53141  0.66118  0.57903  Biso   1.000  O
  O58      1.0000 0.53024  0.58921  0.82847  Biso   1.000  O
  O59      1.0000 0.96579  0.91429  0.67308  Biso   1.000  O
  O60      1.0000 0.96653  0.83567  0.92378  Biso   1.000  O
  O61      1.0000 0.77214  0.62801  0.73930  Biso   1.000  O
  O62      1.0000 0.77209  0.62216  0.98864  Biso   1.000  O
  O63      1.0000 0.72248  0.87512  0.51124  Biso   1.000  O
  O64      1.0000 0.72336  0.87291  0.76054  Biso   1.000  O
  Cs1      1.0000 0.44712  0.23370  0.29893  Biso   1.000  Cs
