data_image0
_cell_length_a       10.131
_cell_length_b       10.4578
_cell_length_c       5.25072
_cell_angle_alpha    89.6352
_cell_angle_beta     90.7866
_cell_angle_gamma    90.3706

_symmetry_space_group_name_H-M    "P 1"
_symmetry_int_tables_number       1

loop_
  _symmetry_equiv_pos_as_xyz
  'x, y, z'

loop_
  _atom_site_label
  _atom_site_occupancy
  _atom_site_fract_x
  _atom_site_fract_y
  _atom_site_fract_z
  _atom_site_thermal_displace_type
  _atom_site_B_iso_or_equiv
  _atom_site_type_symbol
  Cs1      1.0000 0.11836  0.01254  0.27897  Biso   1.000  Cs
  Zr1      1.0000 0.13883  0.51876  0.33375  Biso   1.000  Zr
  Zr2      1.0000 0.13528  0.23331  0.82968  Biso   1.000  Zr
  Zr3      1.0000 0.14039  0.72589  0.82891  Biso   1.000  Zr
  Zr4      1.0000 0.35913  0.26821  0.34879  Biso   1.000  Zr
  Zr5      1.0000 0.36481  0.76592  0.33042  Biso   1.000  Zr
  Zr6      1.0000 0.36112  0.47762  0.83859  Biso   1.000  Zr
  Zr7      1.0000 0.36564  0.97611  0.82137  Biso   1.000  Zr
  Zr8      1.0000 0.63728  0.02039  0.17075  Biso   1.000  Zr
  Zr9      1.0000 0.63590  0.51887  0.15782  Biso   1.000  Zr
  Zr10     1.0000 0.63757  0.23030  0.66288  Biso   1.000  Zr
  Zr11     1.0000 0.63984  0.72903  0.65635  Biso   1.000  Zr
  Zr12     1.0000 0.85529  0.27636  0.16204  Biso   1.000  Zr
  Zr13     1.0000 0.85980  0.76193  0.15594  Biso   1.000  Zr
  Zr14     1.0000 0.86091  0.48039  0.65662  Biso   1.000  Zr
  Zr15     1.0000 0.85684  0.98465  0.69139  Biso   1.000  Zr
  O1       1.0000 0.04185  0.21570  0.20317  Biso   1.000  O
  O2       1.0000 0.03990  0.67788  0.18326  Biso   1.000  O
  O3       1.0000 0.02607  0.07917  0.73803  Biso   1.000  O
  O4       1.0000 0.03623  0.57548  0.67359  Biso   1.000  O
  O5       1.0000 0.46763  0.41415  0.16846  Biso   1.000  O
  O6       1.0000 0.47143  0.91620  0.16534  Biso   1.000  O
  O7       1.0000 0.46796  0.33524  0.66612  Biso   1.000  O
  O8       1.0000 0.47535  0.83688  0.65288  Biso   1.000  O
  O9       1.0000 0.28338  0.13291  0.61226  Biso   1.000  O
  O10      1.0000 0.27759  0.62016  0.58022  Biso   1.000  O
  O11      1.0000 0.27217  0.11865  0.08911  Biso   1.000  O
  O12      1.0000 0.27243  0.61573  0.08231  Biso   1.000  O
  O13      1.0000 0.22248  0.37565  0.58184  Biso   1.000  O
  O14      1.0000 0.23238  0.86135  0.57570  Biso   1.000  O
  O15      1.0000 0.22855  0.37207  0.08182  Biso   1.000  O
  O16      1.0000 0.25054  0.85389  0.04606  Biso   1.000  O
  O17      1.0000 0.53230  0.16628  0.33488  Biso   1.000  O
  O18      1.0000 0.53556  0.66395  0.33083  Biso   1.000  O
  O19      1.0000 0.53753  0.08278  0.83353  Biso   1.000  O
  O20      1.0000 0.53229  0.58527  0.83281  Biso   1.000  O
  O21      1.0000 0.95647  0.43455  0.30615  Biso   1.000  O
  O22      1.0000 0.94673  0.92220  0.34758  Biso   1.000  O
  O23      1.0000 0.95843  0.32906  0.80940  Biso   1.000  O
  O24      1.0000 0.96697  0.83053  0.83737  Biso   1.000  O
  O25      1.0000 0.77383  0.12735  0.93074  Biso   1.000  O
  O26      1.0000 0.77638  0.62399  0.91094  Biso   1.000  O
  O27      1.0000 0.77605  0.12732  0.42743  Biso   1.000  O
  O28      1.0000 0.77429  0.62483  0.41144  Biso   1.000  O
  O29      1.0000 0.72180  0.37746  0.91033  Biso   1.000  O
  O30      1.0000 0.72474  0.87415  0.92221  Biso   1.000  O
  O31      1.0000 0.72307  0.37536  0.41203  Biso   1.000  O
  O32      1.0000 0.73063  0.87355  0.41790  Biso   1.000  O
