data_image0
_cell_length_a       5.10861
_cell_length_b       10.5078
_cell_length_c       10.6708
_cell_angle_alpha    90.4924
_cell_angle_beta     80.6166
_cell_angle_gamma    90.812

_symmetry_space_group_name_H-M    "P 1"
_symmetry_int_tables_number       1

loop_
  _symmetry_equiv_pos_as_xyz
  'x, y, z'

loop_
  _atom_site_label
  _atom_site_occupancy
  _atom_site_fract_x
  _atom_site_fract_y
  _atom_site_fract_z
  _atom_site_thermal_displace_type
  _atom_site_B_iso_or_equiv
  _atom_site_type_symbol
  Zr1      1.0000 0.28547  0.01287  0.12731  Biso   1.000  Zr
  Zr2      1.0000 0.29936  0.24156  0.41696  Biso   1.000  Zr
  Zr3      1.0000 0.68713  0.27705  0.07809  Biso   1.000  Zr
  Zr4      1.0000 0.72248  0.48383  0.35566  Biso   1.000  Zr
  O1       1.0000 0.04451  0.15125  0.04771  Biso   1.000  O
  O2       1.0000 0.09653  0.04393  0.42932  Biso   1.000  O
  O3       1.0000 0.92322  0.42260  0.16270  Biso   1.000  O
  O4       1.0000 0.95894  0.36373  0.44723  Biso   1.000  O
  O5       1.0000 0.46204  0.14061  0.22565  Biso   1.000  O
  O6       1.0000 0.57065  0.12351  0.49097  Biso   1.000  O
  O7       1.0000 0.42541  0.38504  0.00418  Biso   1.000  O
  O8       1.0000 0.44319  0.37877  0.25769  Biso   1.000  O
  Zr5      1.0000 0.25315  0.02523  0.62601  Biso   1.000  Zr
  Zr6      1.0000 0.25497  0.22072  0.87796  Biso   1.000  Zr
  Zr7      1.0000 0.72963  0.27850  0.61500  Biso   1.000  Zr
  Zr8      1.0000 0.70656  0.48593  0.85708  Biso   1.000  Zr
  O9       1.0000 0.09911  0.20130  0.60659  Biso   1.000  O
  O10      1.0000 0.06097  0.07514  0.81146  Biso   1.000  O
  O11      1.0000 0.91433  0.43053  0.68200  Biso   1.000  O
  O12      1.0000 0.91214  0.33281  0.91076  Biso   1.000  O
  O13      1.0000 0.54479  0.12587  0.73278  Biso   1.000  O
  O14      1.0000 0.53558  0.12256  0.97445  Biso   1.000  O
  O15      1.0000 0.46444  0.38472  0.51710  Biso   1.000  O
  O16      1.0000 0.44237  0.37129  0.76062  Biso   1.000  O
  Zr9      1.0000 0.27123  0.52544  0.14732  Biso   1.000  Zr
  Zr10     1.0000 0.28718  0.72691  0.39462  Biso   1.000  Zr
  Zr11     1.0000 0.72380  0.77504  0.10957  Biso   1.000  Zr
  Zr12     1.0000 0.75384  0.95932  0.38078  Biso   1.000  Zr
  O17      1.0000 0.06904  0.67762  0.08397  Biso   1.000  O
  O18      1.0000 0.07439  0.58431  0.32478  Biso   1.000  O
  O19      1.0000 0.93233  0.92616  0.19052  Biso   1.000  O
  O20      1.0000 0.91598  0.80361  0.42258  Biso   1.000  O
  O21      1.0000 0.55707  0.63333  0.24240  Biso   1.000  O
  O22      1.0000 0.54192  0.61904  0.49235  Biso   1.000  O
  O23      1.0000 0.46037  0.87917  0.00657  Biso   1.000  O
  O24      1.0000 0.45219  0.87114  0.25974  Biso   1.000  O
  Zr13     1.0000 0.26709  0.52148  0.64829  Biso   1.000  Zr
  Zr14     1.0000 0.26615  0.73110  0.89822  Biso   1.000  Zr
  Zr15     1.0000 0.71535  0.75983  0.61058  Biso   1.000  Zr
  Zr16     1.0000 0.71470  0.97644  0.84499  Biso   1.000  Zr
  O25      1.0000 0.07175  0.66728  0.58266  Biso   1.000  O
  O26      1.0000 0.06016  0.58642  0.83466  Biso   1.000  O
  O27      1.0000 0.91870  0.91276  0.66465  Biso   1.000  O
  O28      1.0000 0.93468  0.84207  0.92866  Biso   1.000  O
  O29      1.0000 0.54082  0.62574  0.74441  Biso   1.000  O
  O30      1.0000 0.54561  0.62740  0.99448  Biso   1.000  O
  O31      1.0000 0.45767  0.87251  0.51325  Biso   1.000  O
  O32      1.0000 0.44339  0.86511  0.76054  Biso   1.000  O
  Cs1      1.0000 0.91027  0.20151  0.27911  Biso   1.000  Cs
