data_image0
_cell_length_a       10.0792
_cell_length_b       10.5089
_cell_length_c       5.08526
_cell_angle_alpha    89.7794
_cell_angle_beta     89.706
_cell_angle_gamma    90.3175

_symmetry_space_group_name_H-M    "P 1"
_symmetry_int_tables_number       1

loop_
  _symmetry_equiv_pos_as_xyz
  'x, y, z'

loop_
  _atom_site_label
  _atom_site_occupancy
  _atom_site_fract_x
  _atom_site_fract_y
  _atom_site_fract_z
  _atom_site_thermal_displace_type
  _atom_site_B_iso_or_equiv
  _atom_site_type_symbol
  Cs1      1.0000 0.11189  0.01312  0.23955  Biso   1.000  Cs
  Zr1      1.0000 0.13496  0.51554  0.25285  Biso   1.000  Zr
  Zr2      1.0000 0.63403  0.01498  0.24737  Biso   1.000  Zr
  Zr3      1.0000 0.63153  0.51429  0.25390  Biso   1.000  Zr
  Zr4      1.0000 0.13195  0.23911  0.74529  Biso   1.000  Zr
  Zr5      1.0000 0.13744  0.73180  0.75556  Biso   1.000  Zr
  Zr6      1.0000 0.62998  0.23286  0.74794  Biso   1.000  Zr
  Zr7      1.0000 0.63344  0.73219  0.75114  Biso   1.000  Zr
  Zr8      1.0000 0.36542  0.26655  0.26590  Biso   1.000  Zr
  Zr9      1.0000 0.36962  0.76103  0.25253  Biso   1.000  Zr
  Zr10     1.0000 0.85643  0.27128  0.24506  Biso   1.000  Zr
  Zr11     1.0000 0.86468  0.75626  0.23968  Biso   1.000  Zr
  Zr12     1.0000 0.36501  0.48226  0.75782  Biso   1.000  Zr
  Zr13     1.0000 0.36773  0.98038  0.74441  Biso   1.000  Zr
  Zr14     1.0000 0.86558  0.48395  0.75163  Biso   1.000  Zr
  Zr15     1.0000 0.85789  0.98405  0.75116  Biso   1.000  Zr
  O1       1.0000 0.03804  0.22649  0.36810  Biso   1.000  O
  O2       1.0000 0.03775  0.68904  0.38701  Biso   1.000  O
  O3       1.0000 0.54045  0.18497  0.38033  Biso   1.000  O
  O4       1.0000 0.53719  0.68006  0.39664  Biso   1.000  O
  O5       1.0000 0.02903  0.07434  0.76418  Biso   1.000  O
  O6       1.0000 0.03333  0.56771  0.89327  Biso   1.000  O
  O7       1.0000 0.53660  0.06478  0.88893  Biso   1.000  O
  O8       1.0000 0.53376  0.56507  0.89721  Biso   1.000  O
  O9       1.0000 0.46560  0.43076  0.39905  Biso   1.000  O
  O10      1.0000 0.47086  0.93098  0.39468  Biso   1.000  O
  O11      1.0000 0.95828  0.44272  0.38429  Biso   1.000  O
  O12      1.0000 0.93955  0.93515  0.37313  Biso   1.000  O
  O13      1.0000 0.46204  0.31248  0.89309  Biso   1.000  O
  O14      1.0000 0.47379  0.81600  0.90003  Biso   1.000  O
  O15      1.0000 0.96070  0.32061  0.88485  Biso   1.000  O
  O16      1.0000 0.96967  0.82182  0.89186  Biso   1.000  O
  O17      1.0000 0.29022  0.13580  0.53865  Biso   1.000  O
  O18      1.0000 0.26921  0.61178  0.50132  Biso   1.000  O
  O19      1.0000 0.76821  0.11791  0.49380  Biso   1.000  O
  O20      1.0000 0.76962  0.61464  0.49362  Biso   1.000  O
  O21      1.0000 0.25918  0.12360  0.02121  Biso   1.000  O
  O22      1.0000 0.27054  0.62761  0.00286  Biso   1.000  O
  O23      1.0000 0.77112  0.13273  0.99405  Biso   1.000  O
  O24      1.0000 0.76827  0.63035  0.99234  Biso   1.000  O
  O25      1.0000 0.23096  0.38064  0.00620  Biso   1.000  O
  O26      1.0000 0.24513  0.86916  0.98878  Biso   1.000  O
  O27      1.0000 0.72628  0.38323  0.99776  Biso   1.000  O
  O28      1.0000 0.72904  0.87798  0.00353  Biso   1.000  O
  O29      1.0000 0.22935  0.37370  0.50404  Biso   1.000  O
  O30      1.0000 0.24805  0.85206  0.51498  Biso   1.000  O
  O31      1.0000 0.72776  0.36845  0.50107  Biso   1.000  O
  O32      1.0000 0.73536  0.86384  0.49885  Biso   1.000  O
