data_image0
_cell_length_a       5.07457
_cell_length_b       10.6483
_cell_length_c       10.3216
_cell_angle_alpha    86.7066
_cell_angle_beta     91.7687
_cell_angle_gamma    92.2293

_symmetry_space_group_name_H-M    "P 1"
_symmetry_int_tables_number       1

loop_
  _symmetry_equiv_pos_as_xyz
  'x, y, z'

loop_
  _atom_site_label
  _atom_site_occupancy
  _atom_site_fract_x
  _atom_site_fract_y
  _atom_site_fract_z
  _atom_site_thermal_displace_type
  _atom_site_B_iso_or_equiv
  _atom_site_type_symbol
  Zr1      1.0000 0.29599  0.99711  0.10622  Biso   1.000  Zr
  Zr2      1.0000 0.23052  0.22669  0.41555  Biso   1.000  Zr
  Zr3      1.0000 0.62695  0.27059  0.17517  Biso   1.000  Zr
  Zr4      1.0000 0.73823  0.48878  0.38990  Biso   1.000  Zr
  O1       1.0000 0.90994  0.17939  0.27884  Biso   1.000  O
  O2       1.0000 0.08023  0.04594  0.45783  Biso   1.000  O
  O3       1.0000 0.90156  0.43963  0.21970  Biso   1.000  O
  O4       1.0000 0.93658  0.33239  0.46541  Biso   1.000  O
  O5       1.0000 0.41733  0.11269  0.25828  Biso   1.000  O
  O6       1.0000 0.56456  0.13403  0.50225  Biso   1.000  O
  O7       1.0000 0.46729  0.38307  0.51464  Biso   1.000  O
  O8       1.0000 0.39544  0.37504  0.27582  Biso   1.000  O
  Zr5      1.0000 0.31697  0.99691  0.61398  Biso   1.000  Zr
  Zr6      1.0000 0.28252  0.20693  0.82577  Biso   1.000  Zr
  Zr7      1.0000 0.75523  0.27382  0.63496  Biso   1.000  Zr
  Zr8      1.0000 0.74656  0.47685  0.86008  Biso   1.000  Zr
  O9       1.0000 0.12850  0.17755  0.64590  Biso   1.000  O
  O10      1.0000 0.08616  0.05733  0.93151  Biso   1.000  O
  O11      1.0000 0.90528  0.45965  0.66749  Biso   1.000  O
  O12      1.0000 0.90479  0.29095  0.82874  Biso   1.000  O
  O13      1.0000 0.56817  0.09951  0.74772  Biso   1.000  O
  O14      1.0000 0.52806  0.14749  0.01578  Biso   1.000  O
  O15      1.0000 0.55294  0.40480  0.02169  Biso   1.000  O
  O16      1.0000 0.44086  0.37188  0.75538  Biso   1.000  O
  Zr9      1.0000 0.26357  0.53500  0.14231  Biso   1.000  Zr
  Zr10     1.0000 0.28078  0.74189  0.37798  Biso   1.000  Zr
  Zr11     1.0000 0.74036  0.76734  0.12967  Biso   1.000  Zr
  Zr12     1.0000 0.75227  0.00184  0.35694  Biso   1.000  Zr
  O17      1.0000 0.07842  0.69012  0.20016  Biso   1.000  O
  O18      1.0000 0.08087  0.57737  0.44540  Biso   1.000  O
  O19      1.0000 0.93967  0.94514  0.18424  Biso   1.000  O
  O20      1.0000 0.95069  0.81794  0.44228  Biso   1.000  O
  O21      1.0000 0.54740  0.62562  0.26053  Biso   1.000  O
  O22      1.0000 0.54359  0.63728  0.50540  Biso   1.000  O
  O23      1.0000 0.49468  0.88456  0.48950  Biso   1.000  O
  O24      1.0000 0.48389  0.86797  0.24142  Biso   1.000  O
  Zr13     1.0000 0.27529  0.51679  0.62406  Biso   1.000  Zr
  Zr14     1.0000 0.27701  0.72984  0.87150  Biso   1.000  Zr
  Zr15     1.0000 0.76347  0.76167  0.61756  Biso   1.000  Zr
  Zr16     1.0000 0.77355  0.96289  0.86131  Biso   1.000  Zr
  O25      1.0000 0.08430  0.68000  0.69957  Biso   1.000  O
  O26      1.0000 0.07062  0.55117  0.95396  Biso   1.000  O
  O27      1.0000 0.98085  0.92029  0.70234  Biso   1.000  O
  O28      1.0000 0.96302  0.80659  0.95499  Biso   1.000  O
  O29      1.0000 0.54410  0.61303  0.75789  Biso   1.000  O
  O30      1.0000 0.51376  0.65034  0.01444  Biso   1.000  O
  O31      1.0000 0.49240  0.88571  0.98686  Biso   1.000  O
  O32      1.0000 0.50222  0.85099  0.74080  Biso   1.000  O
  Cs1      1.0000 0.09050  0.27869  0.05808  Biso   1.000  Cs
