data_image0
_cell_length_a       10.1408
_cell_length_b       10.2877
_cell_length_c       10.4837
_cell_angle_alpha    90.1582
_cell_angle_beta     79.9415
_cell_angle_gamma    90.0587

_symmetry_space_group_name_H-M    "P 1"
_symmetry_int_tables_number       1

loop_
  _symmetry_equiv_pos_as_xyz
  'x, y, z'

loop_
  _atom_site_label
  _atom_site_occupancy
  _atom_site_fract_x
  _atom_site_fract_y
  _atom_site_fract_z
  _atom_site_thermal_displace_type
  _atom_site_B_iso_or_equiv
  _atom_site_type_symbol
  Hf1      1.0000 0.13545  0.02181  0.14460  Biso   1.000  Hf
  Hf2      1.0000 0.13986  0.23041  0.39438  Biso   1.000  Hf
  Hf3      1.0000 0.35568  0.27432  0.10065  Biso   1.000  Hf
  Hf4      1.0000 0.35828  0.47702  0.34902  Biso   1.000  Hf
  O1       1.0000 0.03350  0.16951  0.07909  Biso   1.000  O
  O2       1.0000 0.03465  0.08118  0.32971  Biso   1.000  O
  O3       1.0000 0.46113  0.42610  0.16449  Biso   1.000  O
  O4       1.0000 0.47912  0.34627  0.43191  Biso   1.000  O
  O5       1.0000 0.27222  0.12438  0.23802  Biso   1.000  O
  O6       1.0000 0.27972  0.11860  0.48985  Biso   1.000  O
  O7       1.0000 0.21989  0.38174  0.00549  Biso   1.000  O
  O8       1.0000 0.20908  0.37511  0.25372  Biso   1.000  O
  Hf5      1.0000 0.13851  0.02126  0.64606  Biso   1.000  Hf
  Hf6      1.0000 0.13688  0.22916  0.89523  Biso   1.000  Hf
  Hf7      1.0000 0.36150  0.27292  0.60809  Biso   1.000  Hf
  Hf8      1.0000 0.36024  0.47964  0.85481  Biso   1.000  Hf
  O9       1.0000 0.03843  0.16938  0.57953  Biso   1.000  O
  O10      1.0000 0.03443  0.08169  0.82895  Biso   1.000  O
  O11      1.0000 0.46583  0.41725  0.67483  Biso   1.000  O
  O12      1.0000 0.46409  0.33285  0.92062  Biso   1.000  O
  O13      1.0000 0.27611  0.12918  0.74042  Biso   1.000  O
  O14      1.0000 0.27376  0.12221  0.98897  Biso   1.000  O
  O15      1.0000 0.22643  0.37729  0.50987  Biso   1.000  O
  O16      1.0000 0.22350  0.37137  0.75898  Biso   1.000  O
  Hf9      1.0000 0.13700  0.52303  0.14413  Biso   1.000  Hf
  Hf10     1.0000 0.13731  0.72614  0.39643  Biso   1.000  Hf
  Hf11     1.0000 0.36021  0.77160  0.10390  Biso   1.000  Hf
  Hf12     1.0000 0.35810  0.96876  0.35605  Biso   1.000  Hf
  O17      1.0000 0.03298  0.67067  0.07883  Biso   1.000  O
  O18      1.0000 0.03306  0.58304  0.32850  Biso   1.000  O
  O19      1.0000 0.46411  0.91828  0.17276  Biso   1.000  O
  O20      1.0000 0.46359  0.82850  0.42203  Biso   1.000  O
  O21      1.0000 0.27505  0.62918  0.24024  Biso   1.000  O
  O22      1.0000 0.27494  0.61977  0.49038  Biso   1.000  O
  O23      1.0000 0.22292  0.87965  0.00986  Biso   1.000  O
  O24      1.0000 0.22168  0.86894  0.26009  Biso   1.000  O
  Hf13     1.0000 0.13935  0.52178  0.64542  Biso   1.000  Hf
  Hf14     1.0000 0.13712  0.72938  0.89634  Biso   1.000  Hf
  Hf15     1.0000 0.36073  0.76970  0.60534  Biso   1.000  Hf
  Hf16     1.0000 0.36016  0.97871  0.85449  Biso   1.000  Hf
  O25      1.0000 0.03350  0.66712  0.57978  Biso   1.000  O
  O26      1.0000 0.03517  0.58204  0.82951  Biso   1.000  O
  O27      1.0000 0.46426  0.91748  0.67128  Biso   1.000  O
  O28      1.0000 0.46426  0.83324  0.92134  Biso   1.000  O
  O29      1.0000 0.27620  0.62851  0.74073  Biso   1.000  O
  O30      1.0000 0.27563  0.62319  0.99031  Biso   1.000  O
  O31      1.0000 0.22224  0.87674  0.51075  Biso   1.000  O
  O32      1.0000 0.22287  0.87109  0.75997  Biso   1.000  O
  Hf17     1.0000 0.63922  0.02114  0.14634  Biso   1.000  Hf
  Hf18     1.0000 0.65076  0.22996  0.40300  Biso   1.000  Hf
  Hf19     1.0000 0.85935  0.27270  0.10497  Biso   1.000  Hf
  Hf20     1.0000 0.86151  0.47863  0.35400  Biso   1.000  Hf
  O33      1.0000 0.53257  0.16850  0.08205  Biso   1.000  O
  O34      1.0000 0.53855  0.07645  0.33610  Biso   1.000  O
  O35      1.0000 0.96091  0.42127  0.16876  Biso   1.000  O
  O36      1.0000 0.96475  0.33237  0.42147  Biso   1.000  O
  O37      1.0000 0.77644  0.12936  0.24211  Biso   1.000  O
  O38      1.0000 0.78063  0.11955  0.49385  Biso   1.000  O
  O39      1.0000 0.72211  0.37944  0.01118  Biso   1.000  O
  O40      1.0000 0.72192  0.37131  0.26148  Biso   1.000  O
  Hf21     1.0000 0.63824  0.02109  0.64780  Biso   1.000  Hf
  Hf22     1.0000 0.63753  0.22930  0.89782  Biso   1.000  Hf
  Hf23     1.0000 0.86438  0.27163  0.60713  Biso   1.000  Hf
  Hf24     1.0000 0.86064  0.47918  0.85547  Biso   1.000  Hf
  O41      1.0000 0.53648  0.16819  0.58073  Biso   1.000  O
  O42      1.0000 0.53417  0.08218  0.83062  Biso   1.000  O
  O43      1.0000 0.96589  0.41857  0.67197  Biso   1.000  O
  O44      1.0000 0.96255  0.33123  0.92026  Biso   1.000  O
  O45      1.0000 0.77590  0.12953  0.74243  Biso   1.000  O
  O46      1.0000 0.77461  0.12135  0.99196  Biso   1.000  O
  O47      1.0000 0.72724  0.37818  0.51345  Biso   1.000  O
  O48      1.0000 0.72410  0.37148  0.76183  Biso   1.000  O
  Hf25     1.0000 0.63741  0.52310  0.14675  Biso   1.000  Hf
  Hf26     1.0000 0.63877  0.72662  0.39638  Biso   1.000  Hf
  Hf27     1.0000 0.85905  0.77172  0.10439  Biso   1.000  Hf
  Hf28     1.0000 0.86173  0.97708  0.35491  Biso   1.000  Hf
  O49      1.0000 0.53529  0.67117  0.07953  Biso   1.000  O
  O50      1.0000 0.53319  0.58337  0.32818  Biso   1.000  O
  O51      1.0000 0.96251  0.91844  0.17096  Biso   1.000  O
  O52      1.0000 0.96396  0.83095  0.42126  Biso   1.000  O
  O53      1.0000 0.77593  0.63031  0.24128  Biso   1.000  O
  O54      1.0000 0.77552  0.62031  0.49102  Biso   1.000  O
  O55      1.0000 0.72246  0.88015  0.01039  Biso   1.000  O
  O56      1.0000 0.72174  0.87150  0.26067  Biso   1.000  O
  Hf29     1.0000 0.63905  0.52187  0.64767  Biso   1.000  Hf
  Hf30     1.0000 0.63776  0.72923  0.89664  Biso   1.000  Hf
  Hf31     1.0000 0.86041  0.77161  0.60456  Biso   1.000  Hf
  Hf32     1.0000 0.86020  0.97907  0.85449  Biso   1.000  Hf
  O57      1.0000 0.53458  0.66678  0.58027  Biso   1.000  O
  O58      1.0000 0.53450  0.58313  0.83024  Biso   1.000  O
  O59      1.0000 0.96404  0.91879  0.67044  Biso   1.000  O
  O60      1.0000 0.96337  0.83265  0.92045  Biso   1.000  O
  O61      1.0000 0.77615  0.62922  0.74104  Biso   1.000  O
  O62      1.0000 0.77528  0.62193  0.99078  Biso   1.000  O
  O63      1.0000 0.72261  0.87864  0.51069  Biso   1.000  O
  O64      1.0000 0.72309  0.87146  0.76056  Biso   1.000  O
  Cu1      1.0000 0.42155  0.22110  0.31890  Biso   1.000  Cu
