data_image0
_cell_length_a       5.04817
_cell_length_b       10.224
_cell_length_c       10.4433
_cell_angle_alpha    90.3867
_cell_angle_beta     80.6052
_cell_angle_gamma    89.593

_symmetry_space_group_name_H-M    "P 1"
_symmetry_int_tables_number       1

loop_
  _symmetry_equiv_pos_as_xyz
  'x, y, z'

loop_
  _atom_site_label
  _atom_site_occupancy
  _atom_site_fract_x
  _atom_site_fract_y
  _atom_site_fract_z
  _atom_site_thermal_displace_type
  _atom_site_B_iso_or_equiv
  _atom_site_type_symbol
  Cu1      1.0000 0.24477  0.01063  0.16799  Biso   1.000  Cu
  Hf1      1.0000 0.27998  0.22894  0.38948  Biso   1.000  Hf
  Hf2      1.0000 0.72767  0.26388  0.10157  Biso   1.000  Hf
  Hf3      1.0000 0.72308  0.47764  0.35246  Biso   1.000  Hf
  O1       1.0000 0.08538  0.16414  0.07984  Biso   1.000  O
  O2       1.0000 0.06201  0.08164  0.32300  Biso   1.000  O
  O3       1.0000 0.93204  0.41740  0.17095  Biso   1.000  O
  O4       1.0000 0.92937  0.33042  0.41935  Biso   1.000  O
  O5       1.0000 0.52780  0.11651  0.23048  Biso   1.000  O
  O6       1.0000 0.55362  0.12170  0.48280  Biso   1.000  O
  O7       1.0000 0.45543  0.38396  0.00958  Biso   1.000  O
  O8       1.0000 0.45439  0.36672  0.25774  Biso   1.000  O
  Hf4      1.0000 0.27410  0.02097  0.64404  Biso   1.000  Hf
  Hf5      1.0000 0.28512  0.22674  0.89744  Biso   1.000  Hf
  Hf6      1.0000 0.72220  0.27133  0.60258  Biso   1.000  Hf
  Hf7      1.0000 0.72646  0.47913  0.85671  Biso   1.000  Hf
  O9       1.0000 0.06619  0.16185  0.56908  Biso   1.000  O
  O10      1.0000 0.07452  0.08458  0.82447  Biso   1.000  O
  O11      1.0000 0.93557  0.41411  0.67350  Biso   1.000  O
  O12      1.0000 0.94530  0.33829  0.92659  Biso   1.000  O
  O13      1.0000 0.55288  0.12779  0.73207  Biso   1.000  O
  O14      1.0000 0.59025  0.13849  0.97215  Biso   1.000  O
  O15      1.0000 0.44464  0.37702  0.50839  Biso   1.000  O
  O16      1.0000 0.45365  0.37128  0.76015  Biso   1.000  O
  Hf8      1.0000 0.27496  0.52155  0.14502  Biso   1.000  Hf
  Hf9      1.0000 0.27528  0.72519  0.39806  Biso   1.000  Hf
  Hf10     1.0000 0.71571  0.77461  0.10427  Biso   1.000  Hf
  Hf11     1.0000 0.71196  0.97460  0.35414  Biso   1.000  Hf
  O17      1.0000 0.06894  0.67106  0.08088  Biso   1.000  O
  O18      1.0000 0.07243  0.57863  0.33096  Biso   1.000  O
  O19      1.0000 0.93092  0.92029  0.17261  Biso   1.000  O
  O20      1.0000 0.92833  0.83148  0.42211  Biso   1.000  O
  O21      1.0000 0.55291  0.62772  0.24073  Biso   1.000  O
  O22      1.0000 0.55408  0.61913  0.49219  Biso   1.000  O
  O23      1.0000 0.43919  0.89592  0.01934  Biso   1.000  O
  O24      1.0000 0.44898  0.86584  0.26257  Biso   1.000  O
  Hf12     1.0000 0.28064  0.52050  0.64793  Biso   1.000  Hf
  Hf13     1.0000 0.27261  0.73361  0.89848  Biso   1.000  Hf
  Hf14     1.0000 0.72131  0.77072  0.60750  Biso   1.000  Hf
  Hf15     1.0000 0.72069  0.98510  0.85595  Biso   1.000  Hf
  O25      1.0000 0.06962  0.66607  0.58068  Biso   1.000  O
  O26      1.0000 0.07201  0.58560  0.83021  Biso   1.000  O
  O27      1.0000 0.92895  0.91681  0.67226  Biso   1.000  O
  O28      1.0000 0.91777  0.83388  0.92297  Biso   1.000  O
  O29      1.0000 0.55382  0.62941  0.74259  Biso   1.000  O
  O30      1.0000 0.55216  0.62788  0.99132  Biso   1.000  O
  O31      1.0000 0.44520  0.87695  0.51150  Biso   1.000  O
  O32      1.0000 0.44512  0.87230  0.76330  Biso   1.000  O
