data_image0
_cell_length_a       10.0735
_cell_length_b       10.2987
_cell_length_c       5.07412
_cell_angle_alpha    90.8307
_cell_angle_beta     89.3018
_cell_angle_gamma    90.4245

_symmetry_space_group_name_H-M    "P 1"
_symmetry_int_tables_number       1

loop_
  _symmetry_equiv_pos_as_xyz
  'x, y, z'

loop_
  _atom_site_label
  _atom_site_occupancy
  _atom_site_fract_x
  _atom_site_fract_y
  _atom_site_fract_z
  _atom_site_thermal_displace_type
  _atom_site_B_iso_or_equiv
  _atom_site_type_symbol
  Hf1      1.0000 0.14650  0.96707  0.30659  Biso   1.000  Hf
  Hf2      1.0000 0.11243  0.25821  0.63505  Biso   1.000  Hf
  Hf3      1.0000 0.38134  0.23952  0.22974  Biso   1.000  Hf
  Hf4      1.0000 0.39842  0.00693  0.74940  Biso   1.000  Hf
  O1       1.0000 0.99683  0.15574  0.90858  Biso   1.000  O
  O2       1.0000 0.99121  0.09996  0.43860  Biso   1.000  O
  O3       1.0000 0.96672  0.37078  0.47105  Biso   1.000  O
  O4       1.0000 0.99868  0.40281  0.97072  Biso   1.000  O
  O5       1.0000 0.25364  0.12204  0.54629  Biso   1.000  O
  O6       1.0000 0.28152  0.06315  0.06680  Biso   1.000  O
  O7       1.0000 0.26311  0.31396  0.91158  Biso   1.000  O
  O8       1.0000 0.24213  0.39358  0.44126  Biso   1.000  O
  Hf5      1.0000 0.10105  0.50865  0.25683  Biso   1.000  Hf
  Hf6      1.0000 0.13246  0.73416  0.78279  Biso   1.000  Hf
  Hf7      1.0000 0.39090  0.75187  0.31259  Biso   1.000  Hf
  Hf8      1.0000 0.35974  0.48355  0.73406  Biso   1.000  Hf
  O9       1.0000 0.98928  0.65289  0.04450  Biso   1.000  O
  O10      1.0000 0.00883  0.60504  0.55289  Biso   1.000  O
  O11      1.0000 0.01011  0.84862  0.53072  Biso   1.000  O
  O12      1.0000 0.00679  0.90369  0.02689  Biso   1.000  O
  O13      1.0000 0.25487  0.63449  0.49869  Biso   1.000  O
  O14      1.0000 0.22386  0.57006  0.96529  Biso   1.000  O
  O15      1.0000 0.23596  0.81245  0.09836  Biso   1.000  O
  O16      1.0000 0.26267  0.87710  0.58814  Biso   1.000  O
  Hf9      1.0000 0.64093  0.02002  0.22270  Biso   1.000  Hf
  Hf10     1.0000 0.63155  0.26646  0.72773  Biso   1.000  Hf
  Hf11     1.0000 0.88312  0.25053  0.18772  Biso   1.000  Hf
  Hf12     1.0000 0.89503  0.99464  0.75212  Biso   1.000  Hf
  O17      1.0000 0.51258  0.14818  0.97053  Biso   1.000  O
  O18      1.0000 0.50088  0.10716  0.46860  Biso   1.000  O
  O19      1.0000 0.48779  0.35319  0.49389  Biso   1.000  O
  O20      1.0000 0.49130  0.39274  0.99911  Biso   1.000  O
  O21      1.0000 0.73487  0.18446  0.42861  Biso   1.000  O
  O22      1.0000 0.75640  0.11499  0.94206  Biso   1.000  O
  O23      1.0000 0.74415  0.36751  0.01874  Biso   1.000  O
  O24      1.0000 0.71848  0.43481  0.55429  Biso   1.000  O
  Hf13     1.0000 0.60706  0.49660  0.24998  Biso   1.000  Hf
  Hf14     1.0000 0.61346  0.74471  0.80276  Biso   1.000  Hf
  Hf15     1.0000 0.86520  0.77176  0.26498  Biso   1.000  Hf
  Hf16     1.0000 0.86301  0.51883  0.77182  Biso   1.000  Hf
  O25      1.0000 0.48518  0.63880  0.03638  Biso   1.000  O
  O26      1.0000 0.50510  0.60779  0.53697  Biso   1.000  O
  O27      1.0000 0.51708  0.86072  0.54088  Biso   1.000  O
  O28      1.0000 0.50007  0.89267  0.03736  Biso   1.000  O
  O29      1.0000 0.76766  0.68306  0.56736  Biso   1.000  O
  O30      1.0000 0.73824  0.61859  0.05521  Biso   1.000  O
  O31      1.0000 0.75410  0.86694  0.97787  Biso   1.000  O
  O32      1.0000 0.77337  0.93332  0.45344  Biso   1.000  O
  Cu1      1.0000 0.14348  0.20238  0.11999  Biso   1.000  Cu
