data_image0
_cell_length_a       5.01286
_cell_length_b       10.406
_cell_length_c       10.0571
_cell_angle_alpha    89.4963
_cell_angle_beta     90.0915
_cell_angle_gamma    89.9651

_symmetry_space_group_name_H-M    "P 1"
_symmetry_int_tables_number       1

loop_
  _symmetry_equiv_pos_as_xyz
  'x, y, z'

loop_
  _atom_site_label
  _atom_site_occupancy
  _atom_site_fract_x
  _atom_site_fract_y
  _atom_site_fract_z
  _atom_site_thermal_displace_type
  _atom_site_B_iso_or_equiv
  _atom_site_type_symbol
  Hf1      1.0000 0.26129  0.01617  0.11810  Biso   1.000  Hf
  Hf2      1.0000 0.26155  0.23017  0.38585  Biso   1.000  Hf
  Hf3      1.0000 0.68132  0.26086  0.12586  Biso   1.000  Hf
  Hf4      1.0000 0.73831  0.48411  0.37624  Biso   1.000  Hf
  O1       1.0000 0.00261  0.16825  0.22596  Biso   1.000  O
  O2       1.0000 0.07112  0.06456  0.45502  Biso   1.000  O
  O3       1.0000 0.92365  0.43193  0.19219  Biso   1.000  O
  O4       1.0000 0.93370  0.32076  0.45090  Biso   1.000  O
  O5       1.0000 0.50253  0.11463  0.25193  Biso   1.000  O
  O6       1.0000 0.54779  0.13411  0.49902  Biso   1.000  O
  O7       1.0000 0.46600  0.38332  0.50142  Biso   1.000  O
  O8       1.0000 0.44392  0.37175  0.25528  Biso   1.000  O
  Hf5      1.0000 0.27673  0.01331  0.62642  Biso   1.000  Hf
  Hf6      1.0000 0.28059  0.22703  0.86839  Biso   1.000  Hf
  Hf7      1.0000 0.73895  0.26681  0.62707  Biso   1.000  Hf
  Hf8      1.0000 0.74316  0.48401  0.87536  Biso   1.000  Hf
  O9       1.0000 0.07986  0.18194  0.69193  Biso   1.000  O
  O10      1.0000 0.08828  0.05966  0.93553  Biso   1.000  O
  O11      1.0000 0.93932  0.43266  0.69782  Biso   1.000  O
  O12      1.0000 0.93438  0.31340  0.94307  Biso   1.000  O
  O13      1.0000 0.55097  0.11459  0.74631  Biso   1.000  O
  O14      1.0000 0.57415  0.12229  0.99239  Biso   1.000  O
  O15      1.0000 0.46672  0.38971  0.99839  Biso   1.000  O
  O16      1.0000 0.47043  0.36669  0.74981  Biso   1.000  O
  Hf9      1.0000 0.26812  0.52868  0.12766  Biso   1.000  Hf
  Hf10     1.0000 0.27400  0.73697  0.37714  Biso   1.000  Hf
  Hf11     1.0000 0.73038  0.76744  0.12601  Biso   1.000  Hf
  Hf12     1.0000 0.74075  0.98842  0.37003  Biso   1.000  Hf
  O17      1.0000 0.07207  0.68574  0.19833  Biso   1.000  O
  O18      1.0000 0.07430  0.56805  0.44536  Biso   1.000  O
  O19      1.0000 0.92757  0.93215  0.19146  Biso   1.000  O
  O20      1.0000 0.93426  0.81864  0.44293  Biso   1.000  O
  O21      1.0000 0.54624  0.62029  0.25068  Biso   1.000  O
  O22      1.0000 0.54440  0.63333  0.49931  Biso   1.000  O
  O23      1.0000 0.47032  0.88526  0.49737  Biso   1.000  O
  O24      1.0000 0.46178  0.86769  0.24818  Biso   1.000  O
  Hf13     1.0000 0.27474  0.51569  0.62585  Biso   1.000  Hf
  Hf14     1.0000 0.27271  0.73402  0.87372  Biso   1.000  Hf
  Hf15     1.0000 0.74162  0.76584  0.62286  Biso   1.000  Hf
  Hf16     1.0000 0.74178  0.97826  0.87344  Biso   1.000  Hf
  O25      1.0000 0.07721  0.68224  0.69429  Biso   1.000  O
  O26      1.0000 0.07380  0.56883  0.94763  Biso   1.000  O
  O27      1.0000 0.94160  0.92909  0.69539  Biso   1.000  O
  O28      1.0000 0.93531  0.81386  0.94690  Biso   1.000  O
  O29      1.0000 0.54572  0.61587  0.74939  Biso   1.000  O
  O30      1.0000 0.54150  0.63443  0.99968  Biso   1.000  O
  O31      1.0000 0.46206  0.87978  0.99869  Biso   1.000  O
  O32      1.0000 0.47182  0.86446  0.74780  Biso   1.000  O
  Cu1      1.0000 0.16915  0.28341  0.10636  Biso   1.000  Cu
