data_image0
_cell_length_a       9.98636
_cell_length_b       10.3868
_cell_length_c       10.0302
_cell_angle_alpha    89.7955
_cell_angle_beta     89.9707
_cell_angle_gamma    89.9789

_symmetry_space_group_name_H-M    "P 1"
_symmetry_int_tables_number       1

loop_
  _symmetry_equiv_pos_as_xyz
  'x, y, z'

loop_
  _atom_site_label
  _atom_site_occupancy
  _atom_site_fract_x
  _atom_site_fract_y
  _atom_site_fract_z
  _atom_site_thermal_displace_type
  _atom_site_B_iso_or_equiv
  _atom_site_type_symbol
  Hf1      1.0000 0.13429  0.02081  0.12052  Biso   1.000  Hf
  Hf2      1.0000 0.13461  0.23068  0.38600  Biso   1.000  Hf
  Hf3      1.0000 0.36549  0.26572  0.12302  Biso   1.000  Hf
  Hf4      1.0000 0.36724  0.48413  0.37637  Biso   1.000  Hf
  O1       1.0000 0.00681  0.16755  0.22637  Biso   1.000  O
  O2       1.0000 0.03695  0.06433  0.45478  Biso   1.000  O
  O3       1.0000 0.46228  0.43430  0.19474  Biso   1.000  O
  O4       1.0000 0.46315  0.31653  0.44496  Biso   1.000  O
  O5       1.0000 0.26587  0.11969  0.25168  Biso   1.000  O
  O6       1.0000 0.27275  0.13121  0.50196  Biso   1.000  O
  O7       1.0000 0.23116  0.38231  0.50146  Biso   1.000  O
  O8       1.0000 0.22657  0.37071  0.25246  Biso   1.000  O
  Hf5      1.0000 0.13529  0.01439  0.62940  Biso   1.000  Hf
  Hf6      1.0000 0.13929  0.22871  0.87246  Biso   1.000  Hf
  Hf7      1.0000 0.36782  0.26684  0.62691  Biso   1.000  Hf
  Hf8      1.0000 0.36926  0.48526  0.87330  Biso   1.000  Hf
  O9       1.0000 0.03666  0.18224  0.69488  Biso   1.000  O
  O10      1.0000 0.03874  0.06200  0.94057  Biso   1.000  O
  O11      1.0000 0.46659  0.43380  0.69388  Biso   1.000  O
  O12      1.0000 0.46512  0.31547  0.94178  Biso   1.000  O
  O13      1.0000 0.27322  0.11624  0.74814  Biso   1.000  O
  O14      1.0000 0.28678  0.12465  0.99305  Biso   1.000  O
  O15      1.0000 0.23445  0.38906  0.99890  Biso   1.000  O
  O16      1.0000 0.23209  0.36759  0.74978  Biso   1.000  O
  Hf9      1.0000 0.13628  0.52974  0.12587  Biso   1.000  Hf
  Hf10     1.0000 0.13536  0.73599  0.37801  Biso   1.000  Hf
  Hf11     1.0000 0.36593  0.76866  0.12668  Biso   1.000  Hf
  Hf12     1.0000 0.36459  0.98391  0.37591  Biso   1.000  Hf
  O17      1.0000 0.03509  0.68520  0.19789  Biso   1.000  O
  O18      1.0000 0.03670  0.56687  0.44431  Biso   1.000  O
  O19      1.0000 0.46202  0.93517  0.19500  Biso   1.000  O
  O20      1.0000 0.46508  0.81609  0.44334  Biso   1.000  O
  O21      1.0000 0.27317  0.62185  0.25075  Biso   1.000  O
  O22      1.0000 0.27120  0.63214  0.49983  Biso   1.000  O
  O23      1.0000 0.23083  0.88222  0.50073  Biso   1.000  O
  O24      1.0000 0.22933  0.86933  0.25037  Biso   1.000  O
  Hf13     1.0000 0.13423  0.51578  0.62635  Biso   1.000  Hf
  Hf14     1.0000 0.13376  0.73508  0.87405  Biso   1.000  Hf
  Hf15     1.0000 0.36877  0.76533  0.62462  Biso   1.000  Hf
  Hf16     1.0000 0.36935  0.97998  0.87439  Biso   1.000  Hf
  O25      1.0000 0.03745  0.68407  0.69255  Biso   1.000  O
  O26      1.0000 0.03635  0.56796  0.94588  Biso   1.000  O
  O27      1.0000 0.46702  0.93239  0.69186  Biso   1.000  O
  O28      1.0000 0.46747  0.81555  0.94705  Biso   1.000  O
  O29      1.0000 0.27057  0.61701  0.74925  Biso   1.000  O
  O30      1.0000 0.27098  0.63581  0.99918  Biso   1.000  O
  O31      1.0000 0.22955  0.88109  0.99980  Biso   1.000  O
  O32      1.0000 0.23343  0.86576  0.74949  Biso   1.000  O
  Hf17     1.0000 0.63026  0.01326  0.12277  Biso   1.000  Hf
  Hf18     1.0000 0.63056  0.23170  0.37702  Biso   1.000  Hf
  Hf19     1.0000 0.84675  0.26323  0.12733  Biso   1.000  Hf
  Hf20     1.0000 0.86791  0.48331  0.37602  Biso   1.000  Hf
  O33      1.0000 0.53350  0.18328  0.19297  Biso   1.000  O
  O34      1.0000 0.53483  0.06561  0.44482  Biso   1.000  O
  O35      1.0000 0.96454  0.43030  0.19068  Biso   1.000  O
  O36      1.0000 0.96709  0.31961  0.45008  Biso   1.000  O
  O37      1.0000 0.75860  0.11397  0.24908  Biso   1.000  O
  O38      1.0000 0.77165  0.13467  0.49738  Biso   1.000  O
  O39      1.0000 0.73094  0.38300  0.49970  Biso   1.000  O
  O40      1.0000 0.72589  0.36830  0.25211  Biso   1.000  O
  Hf21     1.0000 0.63653  0.01548  0.62358  Biso   1.000  Hf
  Hf22     1.0000 0.63303  0.23200  0.87260  Biso   1.000  Hf
  Hf23     1.0000 0.86698  0.26645  0.62675  Biso   1.000  Hf
  Hf24     1.0000 0.86743  0.48167  0.87770  Biso   1.000  Hf
  O41      1.0000 0.53865  0.18392  0.69155  Biso   1.000  O
  O42      1.0000 0.54143  0.06269  0.93901  Biso   1.000  O
  O43      1.0000 0.96570  0.43351  0.69785  Biso   1.000  O
  O44      1.0000 0.96238  0.31374  0.94484  Biso   1.000  O
  O45      1.0000 0.77232  0.11627  0.74801  Biso   1.000  O
  O46      1.0000 0.77043  0.13029  0.99840  Biso   1.000  O
  O47      1.0000 0.72579  0.38099  0.00084  Biso   1.000  O
  O48      1.0000 0.73084  0.36755  0.75005  Biso   1.000  O
  Hf25     1.0000 0.63176  0.51801  0.12675  Biso   1.000  Hf
  Hf26     1.0000 0.63559  0.73452  0.37530  Biso   1.000  Hf
  Hf27     1.0000 0.86498  0.76628  0.12510  Biso   1.000  Hf
  Hf28     1.0000 0.87149  0.98743  0.37013  Biso   1.000  Hf
  O49      1.0000 0.53676  0.68499  0.19480  Biso   1.000  O
  O50      1.0000 0.53679  0.56643  0.44465  Biso   1.000  O
  O51      1.0000 0.96476  0.93159  0.19074  Biso   1.000  O
  O52      1.0000 0.96510  0.81783  0.44343  Biso   1.000  O
  O53      1.0000 0.77114  0.61631  0.24952  Biso   1.000  O
  O54      1.0000 0.77158  0.63286  0.49899  Biso   1.000  O
  O55      1.0000 0.73300  0.88482  0.49671  Biso   1.000  O
  O56      1.0000 0.72996  0.86647  0.24774  Biso   1.000  O
  Hf29     1.0000 0.63680  0.51638  0.62556  Biso   1.000  Hf
  Hf30     1.0000 0.63636  0.73271  0.87529  Biso   1.000  Hf
  Hf31     1.0000 0.86746  0.76679  0.62410  Biso   1.000  Hf
  Hf32     1.0000 0.86677  0.98183  0.87468  Biso   1.000  Hf
  O57      1.0000 0.53715  0.68266  0.69547  Biso   1.000  O
  O58      1.0000 0.53669  0.56659  0.94547  Biso   1.000  O
  O59      1.0000 0.96658  0.93084  0.69729  Biso   1.000  O
  O60      1.0000 0.96351  0.81399  0.94402  Biso   1.000  O
  O61      1.0000 0.77245  0.61696  0.74961  Biso   1.000  O
  O62      1.0000 0.77044  0.63074  0.99986  Biso   1.000  O
  O63      1.0000 0.73063  0.88047  0.99861  Biso   1.000  O
  O64      1.0000 0.73104  0.86664  0.74799  Biso   1.000  O
  Cu1      1.0000 0.09677  0.28609  0.11400  Biso   1.000  Cu
