data_image0
_cell_length_a       9.90787
_cell_length_b       5.17595
_cell_length_c       9.98783
_cell_angle_alpha    90.4601
_cell_angle_beta     88.7974
_cell_angle_gamma    90.1776

_symmetry_space_group_name_H-M    "P 1"
_symmetry_int_tables_number       1

loop_
  _symmetry_equiv_pos_as_xyz
  'x, y, z'

loop_
  _atom_site_label
  _atom_site_occupancy
  _atom_site_fract_x
  _atom_site_fract_y
  _atom_site_fract_z
  _atom_site_thermal_displace_type
  _atom_site_B_iso_or_equiv
  _atom_site_type_symbol
  Cu1      1.0000 0.12142  0.05766  0.10316  Biso   1.000  Cu
  Hf1      1.0000 0.14101  0.45541  0.37751  Biso   1.000  Hf
  Hf2      1.0000 0.36415  0.52732  0.13378  Biso   1.000  Hf
  Hf3      1.0000 0.36392  0.96137  0.37735  Biso   1.000  Hf
  O1       1.0000 0.04353  0.35564  0.18325  Biso   1.000  O
  O2       1.0000 0.03981  0.12522  0.44928  Biso   1.000  O
  O3       1.0000 0.47092  0.85981  0.19816  Biso   1.000  O
  O4       1.0000 0.46964  0.63591  0.45339  Biso   1.000  O
  O5       1.0000 0.27681  0.22818  0.25437  Biso   1.000  O
  O6       1.0000 0.27434  0.26007  0.50601  Biso   1.000  O
  O7       1.0000 0.22796  0.75858  0.50880  Biso   1.000  O
  O8       1.0000 0.24330  0.71192  0.26472  Biso   1.000  O
  Hf4      1.0000 0.13508  0.03750  0.63257  Biso   1.000  Hf
  Hf5      1.0000 0.13118  0.47667  0.88053  Biso   1.000  Hf
  Hf6      1.0000 0.36603  0.53826  0.63145  Biso   1.000  Hf
  Hf7      1.0000 0.35995  0.97094  0.88432  Biso   1.000  Hf
  O9       1.0000 0.03744  0.37980  0.69366  Biso   1.000  O
  O10      1.0000 0.03351  0.13130  0.92105  Biso   1.000  O
  O11      1.0000 0.46154  0.87296  0.70069  Biso   1.000  O
  O12      1.0000 0.44919  0.62249  0.94201  Biso   1.000  O
  O13      1.0000 0.27195  0.24581  0.75785  Biso   1.000  O
  O14      1.0000 0.25726  0.26128  0.00943  Biso   1.000  O
  O15      1.0000 0.21944  0.77932  0.01565  Biso   1.000  O
  O16      1.0000 0.22583  0.74539  0.75835  Biso   1.000  O
  Hf8      1.0000 0.63653  0.03435  0.12884  Biso   1.000  Hf
  Hf9      1.0000 0.63699  0.46950  0.37556  Biso   1.000  Hf
  Hf10     1.0000 0.87080  0.53216  0.11994  Biso   1.000  Hf
  Hf11     1.0000 0.87440  0.97083  0.37213  Biso   1.000  Hf
  O17      1.0000 0.54002  0.37195  0.19607  Biso   1.000  O
  O18      1.0000 0.53889  0.13228  0.44164  Biso   1.000  O
  O19      1.0000 0.97808  0.87103  0.18342  Biso   1.000  O
  O20      1.0000 0.96477  0.62399  0.43441  Biso   1.000  O
  O21      1.0000 0.77669  0.23549  0.24704  Biso   1.000  O
  O22      1.0000 0.77199  0.26510  0.49646  Biso   1.000  O
  O23      1.0000 0.73442  0.76800  0.49646  Biso   1.000  O
  O24      1.0000 0.74070  0.73707  0.24661  Biso   1.000  O
  Hf12     1.0000 0.63082  0.03124  0.62168  Biso   1.000  Hf
  Hf13     1.0000 0.62923  0.46520  0.87565  Biso   1.000  Hf
  Hf14     1.0000 0.86595  0.53191  0.62087  Biso   1.000  Hf
  Hf15     1.0000 0.85850  0.96617  0.86977  Biso   1.000  Hf
  O25      1.0000 0.53545  0.36841  0.69492  Biso   1.000  O
  O26      1.0000 0.53155  0.13169  0.95033  Biso   1.000  O
  O27      1.0000 0.95936  0.87148  0.68670  Biso   1.000  O
  O28      1.0000 0.95652  0.63388  0.93662  Biso   1.000  O
  O29      1.0000 0.76659  0.23513  0.74662  Biso   1.000  O
  O30      1.0000 0.76980  0.26439  0.99681  Biso   1.000  O
  O31      1.0000 0.72251  0.75960  0.99818  Biso   1.000  O
  O32      1.0000 0.72555  0.73243  0.74671  Biso   1.000  O
