data_image0
_cell_length_a       10.1834
_cell_length_b       5.14893
_cell_length_c       10.5124
_cell_angle_alpha    90.2473
_cell_angle_beta     79.5514
_cell_angle_gamma    90.0696

_symmetry_space_group_name_H-M    "P 1"
_symmetry_int_tables_number       1

loop_
  _symmetry_equiv_pos_as_xyz
  'x, y, z'

loop_
  _atom_site_label
  _atom_site_occupancy
  _atom_site_fract_x
  _atom_site_fract_y
  _atom_site_fract_z
  _atom_site_thermal_displace_type
  _atom_site_B_iso_or_equiv
  _atom_site_type_symbol
  Hf1      1.0000 0.13333  0.04517  0.14206  Biso   1.000  Hf
  Hf2      1.0000 0.13872  0.45699  0.39429  Biso   1.000  Hf
  Hf3      1.0000 0.35491  0.54840  0.10219  Biso   1.000  Hf
  Hf4      1.0000 0.35547  0.93387  0.35032  Biso   1.000  Hf
  O1       1.0000 0.03094  0.34236  0.07777  Biso   1.000  O
  O2       1.0000 0.03125  0.16790  0.32823  Biso   1.000  O
  O3       1.0000 0.46141  0.85155  0.16710  Biso   1.000  O
  O4       1.0000 0.47748  0.68638  0.43310  Biso   1.000  O
  O5       1.0000 0.26738  0.24890  0.23655  Biso   1.000  O
  O6       1.0000 0.27737  0.23502  0.49014  Biso   1.000  O
  O7       1.0000 0.22010  0.76299  0.00603  Biso   1.000  O
  O8       1.0000 0.20791  0.75029  0.25447  Biso   1.000  O
  Hf5      1.0000 0.13893  0.04357  0.64541  Biso   1.000  Hf
  Hf6      1.0000 0.13546  0.45991  0.89564  Biso   1.000  Hf
  Hf7      1.0000 0.36096  0.54316  0.60924  Biso   1.000  Hf
  Hf8      1.0000 0.35949  0.95943  0.85533  Biso   1.000  Hf
  O9       1.0000 0.03595  0.33493  0.57879  Biso   1.000  O
  O10      1.0000 0.03366  0.16652  0.82824  Biso   1.000  O
  O11      1.0000 0.46593  0.83173  0.67602  Biso   1.000  O
  O12      1.0000 0.46402  0.66998  0.92253  Biso   1.000  O
  O13      1.0000 0.27546  0.25742  0.74063  Biso   1.000  O
  O14      1.0000 0.27285  0.24865  0.98866  Biso   1.000  O
  O15      1.0000 0.22492  0.74984  0.51148  Biso   1.000  O
  O16      1.0000 0.22326  0.74379  0.75956  Biso   1.000  O
  Hf9      1.0000 0.63822  0.04503  0.14704  Biso   1.000  Hf
  Hf10     1.0000 0.65013  0.45765  0.40358  Biso   1.000  Hf
  Hf11     1.0000 0.85760  0.54552  0.10507  Biso   1.000  Hf
  Hf12     1.0000 0.86253  0.95570  0.35481  Biso   1.000  Hf
  O17      1.0000 0.53272  0.34213  0.08233  Biso   1.000  O
  O18      1.0000 0.53838  0.15297  0.33550  Biso   1.000  O
  O19      1.0000 0.95908  0.84120  0.16975  Biso   1.000  O
  O20      1.0000 0.96437  0.66521  0.42255  Biso   1.000  O
  O21      1.0000 0.77573  0.26108  0.24277  Biso   1.000  O
  O22      1.0000 0.77904  0.23876  0.49440  Biso   1.000  O
  O23      1.0000 0.72160  0.76097  0.01197  Biso   1.000  O
  O24      1.0000 0.72123  0.74361  0.26261  Biso   1.000  O
  Hf13     1.0000 0.63830  0.04340  0.64970  Biso   1.000  Hf
  Hf14     1.0000 0.63621  0.46039  0.89868  Biso   1.000  Hf
  Hf15     1.0000 0.86382  0.54383  0.60727  Biso   1.000  Hf
  Hf16     1.0000 0.85993  0.95971  0.85551  Biso   1.000  Hf
  O25      1.0000 0.53524  0.33264  0.58120  Biso   1.000  O
  O26      1.0000 0.53303  0.16882  0.83110  Biso   1.000  O
  O27      1.0000 0.96557  0.83681  0.67222  Biso   1.000  O
  O28      1.0000 0.96208  0.66682  0.92074  Biso   1.000  O
  O29      1.0000 0.77509  0.25968  0.74283  Biso   1.000  O
  O30      1.0000 0.77333  0.24482  0.99220  Biso   1.000  O
  O31      1.0000 0.72619  0.75535  0.51426  Biso   1.000  O
  O32      1.0000 0.72388  0.74452  0.76277  Biso   1.000  O
  Cu1      1.0000 0.42088  0.43453  0.32032  Biso   1.000  Cu
