data_image0
_cell_length_a       9.99726
_cell_length_b       10.2117
_cell_length_c       5.20804
_cell_angle_alpha    89.6264
_cell_angle_beta     91.1994
_cell_angle_gamma    89.6729

_symmetry_space_group_name_H-M    "P 1"
_symmetry_int_tables_number       1

loop_
  _symmetry_equiv_pos_as_xyz
  'x, y, z'

loop_
  _atom_site_label
  _atom_site_occupancy
  _atom_site_fract_x
  _atom_site_fract_y
  _atom_site_fract_z
  _atom_site_thermal_displace_type
  _atom_site_B_iso_or_equiv
  _atom_site_type_symbol
  Cu1      1.0000 0.11912  0.01739  0.39286  Biso   1.000  Cu
  Hf1      1.0000 0.14504  0.22867  0.84139  Biso   1.000  Hf
  Hf2      1.0000 0.35933  0.26990  0.33189  Biso   1.000  Hf
  Hf3      1.0000 0.36080  0.47968  0.84097  Biso   1.000  Hf
  Hf4      1.0000 0.63713  0.02188  0.15631  Biso   1.000  Hf
  Hf5      1.0000 0.63819  0.22996  0.65948  Biso   1.000  Hf
  Hf6      1.0000 0.86493  0.26668  0.16985  Biso   1.000  Hf
  Hf7      1.0000 0.86342  0.47727  0.66703  Biso   1.000  Hf
  O1       1.0000 0.04530  0.15472  0.18475  Biso   1.000  O
  O2       1.0000 0.02986  0.08063  0.70792  Biso   1.000  O
  O3       1.0000 0.46632  0.41787  0.16888  Biso   1.000  O
  O4       1.0000 0.46549  0.33165  0.66838  Biso   1.000  O
  O5       1.0000 0.26010  0.11728  0.55032  Biso   1.000  O
  O6       1.0000 0.30114  0.14478  0.03859  Biso   1.000  O
  O7       1.0000 0.22508  0.37299  0.59055  Biso   1.000  O
  O8       1.0000 0.21980  0.38021  0.09017  Biso   1.000  O
  O9       1.0000 0.53522  0.16906  0.32527  Biso   1.000  O
  O10      1.0000 0.53763  0.07876  0.81694  Biso   1.000  O
  O11      1.0000 0.96867  0.41243  0.34320  Biso   1.000  O
  O12      1.0000 0.96858  0.33009  0.85006  Biso   1.000  O
  O13      1.0000 0.77770  0.12361  0.91837  Biso   1.000  O
  O14      1.0000 0.77725  0.12627  0.41732  Biso   1.000  O
  O15      1.0000 0.72602  0.37285  0.91854  Biso   1.000  O
  O16      1.0000 0.72612  0.37528  0.41546  Biso   1.000  O
  Hf8      1.0000 0.13934  0.52140  0.34404  Biso   1.000  Hf
  Hf9      1.0000 0.13814  0.73183  0.83929  Biso   1.000  Hf
  Hf10     1.0000 0.35761  0.77535  0.32803  Biso   1.000  Hf
  Hf11     1.0000 0.35769  0.98129  0.83297  Biso   1.000  Hf
  Hf12     1.0000 0.63962  0.52076  0.16013  Biso   1.000  Hf
  Hf13     1.0000 0.63616  0.72889  0.65490  Biso   1.000  Hf
  Hf14     1.0000 0.86271  0.77066  0.16060  Biso   1.000  Hf
  Hf15     1.0000 0.85629  0.97936  0.66906  Biso   1.000  Hf
  O17      1.0000 0.03574  0.66971  0.17447  Biso   1.000  O
  O18      1.0000 0.03551  0.57973  0.67606  Biso   1.000  O
  O19      1.0000 0.46784  0.91796  0.16201  Biso   1.000  O
  O20      1.0000 0.46207  0.83376  0.66022  Biso   1.000  O
  O21      1.0000 0.27577  0.62815  0.58584  Biso   1.000  O
  O22      1.0000 0.27611  0.62507  0.08635  Biso   1.000  O
  O23      1.0000 0.21319  0.87785  0.56636  Biso   1.000  O
  O24      1.0000 0.22971  0.87499  0.06407  Biso   1.000  O
  O25      1.0000 0.53358  0.66900  0.32265  Biso   1.000  O
  O26      1.0000 0.53470  0.58160  0.82476  Biso   1.000  O
  O27      1.0000 0.96468  0.92531  0.33685  Biso   1.000  O
  O28      1.0000 0.96192  0.82949  0.83079  Biso   1.000  O
  O29      1.0000 0.77761  0.62383  0.91708  Biso   1.000  O
  O30      1.0000 0.77741  0.62539  0.41624  Biso   1.000  O
  O31      1.0000 0.72118  0.87297  0.91206  Biso   1.000  O
  O32      1.0000 0.72717  0.87571  0.41066  Biso   1.000  O
