data_image0
_cell_length_a       10.0989
_cell_length_b       10.2237
_cell_length_c       5.21813
_cell_angle_alpha    90.4234
_cell_angle_beta     80.6184
_cell_angle_gamma    89.6011

_symmetry_space_group_name_H-M    "P 1"
_symmetry_int_tables_number       1

loop_
  _symmetry_equiv_pos_as_xyz
  'x, y, z'

loop_
  _atom_site_label
  _atom_site_occupancy
  _atom_site_fract_x
  _atom_site_fract_y
  _atom_site_fract_z
  _atom_site_thermal_displace_type
  _atom_site_B_iso_or_equiv
  _atom_site_type_symbol
  Cu1      1.0000 0.12240  0.00834  0.33405  Biso   1.000  Cu
  Hf1      1.0000 0.14221  0.22540  0.78065  Biso   1.000  Hf
  Hf2      1.0000 0.35788  0.26848  0.19716  Biso   1.000  Hf
  Hf3      1.0000 0.36139  0.47952  0.70679  Biso   1.000  Hf
  O1       1.0000 0.04116  0.15553  0.13894  Biso   1.000  O
  O2       1.0000 0.03356  0.07970  0.64737  Biso   1.000  O
  O3       1.0000 0.46455  0.41662  0.34192  Biso   1.000  O
  O4       1.0000 0.47047  0.33972  0.84619  Biso   1.000  O
  O5       1.0000 0.26203  0.11606  0.44339  Biso   1.000  O
  O6       1.0000 0.29663  0.14157  0.92301  Biso   1.000  O
  O7       1.0000 0.22254  0.38307  0.01310  Biso   1.000  O
  O8       1.0000 0.22693  0.36751  0.51397  Biso   1.000  O
  Hf4      1.0000 0.14069  0.52197  0.29323  Biso   1.000  Hf
  Hf5      1.0000 0.13727  0.73015  0.79896  Biso   1.000  Hf
  Hf6      1.0000 0.35766  0.77645  0.21360  Biso   1.000  Hf
  Hf7      1.0000 0.35955  0.98219  0.70743  Biso   1.000  Hf
  O9       1.0000 0.03479  0.66839  0.16490  Biso   1.000  O
  O10      1.0000 0.03700  0.58112  0.66438  Biso   1.000  O
  O11      1.0000 0.46633  0.91774  0.34574  Biso   1.000  O
  O12      1.0000 0.46007  0.83322  0.84470  Biso   1.000  O
  O13      1.0000 0.27635  0.62983  0.48325  Biso   1.000  O
  O14      1.0000 0.27633  0.62548  0.98407  Biso   1.000  O
  O15      1.0000 0.22125  0.89509  0.03759  Biso   1.000  O
  O16      1.0000 0.22148  0.86848  0.53071  Biso   1.000  O
  Hf8      1.0000 0.63777  0.02316  0.29225  Biso   1.000  Hf
  Hf9      1.0000 0.64002  0.23077  0.79240  Biso   1.000  Hf
  Hf10     1.0000 0.86723  0.26694  0.20986  Biso   1.000  Hf
  Hf11     1.0000 0.86282  0.47746  0.71129  Biso   1.000  Hf
  O17      1.0000 0.53456  0.16842  0.15723  Biso   1.000  O
  O18      1.0000 0.53797  0.08255  0.65686  Biso   1.000  O
  O19      1.0000 0.96911  0.41428  0.34715  Biso   1.000  O
  O20      1.0000 0.96704  0.32987  0.84644  Biso   1.000  O
  O21      1.0000 0.77798  0.12848  0.48117  Biso   1.000  O
  O22      1.0000 0.77679  0.12089  0.98181  Biso   1.000  O
  O23      1.0000 0.72770  0.37798  0.02249  Biso   1.000  O
  O24      1.0000 0.72643  0.37078  0.52038  Biso   1.000  O
  Hf12     1.0000 0.63705  0.52013  0.29236  Biso   1.000  Hf
  Hf13     1.0000 0.63589  0.72866  0.79506  Biso   1.000  Hf
  Hf14     1.0000 0.86001  0.76934  0.20957  Biso   1.000  Hf
  Hf15     1.0000 0.85717  0.97716  0.71310  Biso   1.000  Hf
  O25      1.0000 0.53411  0.66874  0.15818  Biso   1.000  O
  O26      1.0000 0.53457  0.58334  0.65699  Biso   1.000  O
  O27      1.0000 0.96356  0.91939  0.34562  Biso   1.000  O
  O28      1.0000 0.96223  0.83132  0.84626  Biso   1.000  O
  O29      1.0000 0.77654  0.62799  0.48371  Biso   1.000  O
  O30      1.0000 0.77630  0.62136  0.98333  Biso   1.000  O
  O31      1.0000 0.72114  0.87862  0.02137  Biso   1.000  O
  O32      1.0000 0.72547  0.87076  0.52002  Biso   1.000  O
