data_image0
_cell_length_a       9.97598
_cell_length_b       5.11161
_cell_length_c       10.3952
_cell_angle_alpha    89.6552
_cell_angle_beta     91.1008
_cell_angle_gamma    89.762

_symmetry_space_group_name_H-M    "P 1"
_symmetry_int_tables_number       1

loop_
  _symmetry_equiv_pos_as_xyz
  'x, y, z'

loop_
  _atom_site_label
  _atom_site_occupancy
  _atom_site_fract_x
  _atom_site_fract_y
  _atom_site_fract_z
  _atom_site_thermal_displace_type
  _atom_site_B_iso_or_equiv
  _atom_site_type_symbol
  Cu1      1.0000 0.12139  0.03819  0.19693  Biso   1.000  Cu
  Hf1      1.0000 0.13504  0.46729  0.41635  Biso   1.000  Hf
  Hf2      1.0000 0.35517  0.54708  0.16157  Biso   1.000  Hf
  Hf3      1.0000 0.35594  0.96308  0.41562  Biso   1.000  Hf
  Hf4      1.0000 0.64143  0.04322  0.07822  Biso   1.000  Hf
  Hf5      1.0000 0.63336  0.45809  0.32734  Biso   1.000  Hf
  Hf6      1.0000 0.87181  0.53389  0.08437  Biso   1.000  Hf
  Hf7      1.0000 0.85442  0.95967  0.33508  Biso   1.000  Hf
  O1       1.0000 0.04907  0.32466  0.09892  Biso   1.000  O
  O2       1.0000 0.03057  0.15202  0.35724  Biso   1.000  O
  O3       1.0000 0.47091  0.83630  0.08569  Biso   1.000  O
  O4       1.0000 0.45370  0.65154  0.33744  Biso   1.000  O
  O5       1.0000 0.26160  0.24518  0.28109  Biso   1.000  O
  O6       1.0000 0.29984  0.27921  0.02687  Biso   1.000  O
  O7       1.0000 0.21327  0.76002  0.28648  Biso   1.000  O
  O8       1.0000 0.22664  0.76047  0.03824  Biso   1.000  O
  O9       1.0000 0.53562  0.34212  0.16056  Biso   1.000  O
  O10      1.0000 0.53145  0.15658  0.40849  Biso   1.000  O
  O11      1.0000 0.96606  0.85508  0.16912  Biso   1.000  O
  O12      1.0000 0.95740  0.65490  0.41360  Biso   1.000  O
  O13      1.0000 0.77131  0.24753  0.45842  Biso   1.000  O
  O14      1.0000 0.77733  0.25308  0.20911  Biso   1.000  O
  O15      1.0000 0.71706  0.74752  0.45723  Biso   1.000  O
  O16      1.0000 0.72935  0.74866  0.20655  Biso   1.000  O
  Hf8      1.0000 0.13873  0.03978  0.66782  Biso   1.000  Hf
  Hf9      1.0000 0.14835  0.45241  0.92178  Biso   1.000  Hf
  Hf10     1.0000 0.36116  0.54248  0.66825  Biso   1.000  Hf
  Hf11     1.0000 0.36177  0.95883  0.92044  Biso   1.000  Hf
  Hf12     1.0000 0.63536  0.04117  0.58121  Biso   1.000  Hf
  Hf13     1.0000 0.64134  0.45999  0.83108  Biso   1.000  Hf
  Hf14     1.0000 0.85726  0.53975  0.58169  Biso   1.000  Hf
  Hf15     1.0000 0.86595  0.95549  0.83348  Biso   1.000  Hf
  O17      1.0000 0.03356  0.33907  0.58543  Biso   1.000  O
  O18      1.0000 0.03843  0.16079  0.83576  Biso   1.000  O
  O19      1.0000 0.46069  0.84421  0.58436  Biso   1.000  O
  O20      1.0000 0.46789  0.66248  0.83357  Biso   1.000  O
  O21      1.0000 0.27841  0.24106  0.78534  Biso   1.000  O
  O22      1.0000 0.27556  0.25754  0.53610  Biso   1.000  O
  O23      1.0000 0.22388  0.74105  0.79063  Biso   1.000  O
  O24      1.0000 0.21973  0.75498  0.53943  Biso   1.000  O
  O25      1.0000 0.53663  0.34402  0.66009  Biso   1.000  O
  O26      1.0000 0.54240  0.15509  0.90916  Biso   1.000  O
  O27      1.0000 0.96535  0.83153  0.66625  Biso   1.000  O
  O28      1.0000 0.97127  0.65577  0.92236  Biso   1.000  O
  O29      1.0000 0.78455  0.24791  0.95996  Biso   1.000  O
  O30      1.0000 0.77837  0.25067  0.70889  Biso   1.000  O
  O31      1.0000 0.72959  0.74479  0.95876  Biso   1.000  O
  O32      1.0000 0.72404  0.75373  0.70762  Biso   1.000  O
