data_image0
_cell_length_a       5.02993
_cell_length_b       10.2332
_cell_length_c       10.054
_cell_angle_alpha    92.7712
_cell_angle_beta     93.9149
_cell_angle_gamma    89.756

_symmetry_space_group_name_H-M    "P 1"
_symmetry_int_tables_number       1

loop_
  _symmetry_equiv_pos_as_xyz
  'x, y, z'

loop_
  _atom_site_label
  _atom_site_occupancy
  _atom_site_fract_x
  _atom_site_fract_y
  _atom_site_fract_z
  _atom_site_thermal_displace_type
  _atom_site_B_iso_or_equiv
  _atom_site_type_symbol
  Cu1      1.0000 0.28623  0.03635  0.10972  Biso   1.000  Cu
  Hf1      1.0000 0.24517  0.25388  0.37335  Biso   1.000  Hf
  Hf2      1.0000 0.76159  0.24091  0.10875  Biso   1.000  Hf
  Hf3      1.0000 0.75685  0.00044  0.35414  Biso   1.000  Hf
  O1       1.0000 0.04198  0.14283  0.99663  Biso   1.000  O
  O2       1.0000 0.99745  0.10092  0.23748  Biso   1.000  O
  O3       1.0000 0.90056  0.33177  0.28291  Biso   1.000  O
  O4       1.0000 0.93473  0.40399  0.03156  Biso   1.000  O
  O5       1.0000 0.47995  0.15809  0.22850  Biso   1.000  O
  O6       1.0000 0.54521  0.10232  0.97215  Biso   1.000  O
  O7       1.0000 0.43582  0.34327  0.03264  Biso   1.000  O
  O8       1.0000 0.40134  0.41896  0.28835  Biso   1.000  O
  Hf4      1.0000 0.27692  0.00947  0.60396  Biso   1.000  Hf
  Hf5      1.0000 0.27318  0.24502  0.86419  Biso   1.000  Hf
  Hf6      1.0000 0.77581  0.23902  0.61902  Biso   1.000  Hf
  Hf7      1.0000 0.81942  0.98256  0.87718  Biso   1.000  Hf
  O9       1.0000 0.00843  0.14120  0.48909  Biso   1.000  O
  O10      1.0000 0.01008  0.09210  0.73886  Biso   1.000  O
  O11      1.0000 0.94802  0.33812  0.78081  Biso   1.000  O
  O12      1.0000 0.01117  0.38946  0.52259  Biso   1.000  O
  O13      1.0000 0.48205  0.16332  0.71979  Biso   1.000  O
  O14      1.0000 0.50472  0.10877  0.47637  Biso   1.000  O
  O15      1.0000 0.51183  0.35902  0.51920  Biso   1.000  O
  O16      1.0000 0.45625  0.40741  0.78060  Biso   1.000  O
  Hf8      1.0000 0.24612  0.50860  0.12526  Biso   1.000  Hf
  Hf9      1.0000 0.19767  0.73676  0.38344  Biso   1.000  Hf
  Hf10     1.0000 0.72170  0.74470  0.12990  Biso   1.000  Hf
  Hf11     1.0000 0.74871  0.48822  0.39348  Biso   1.000  Hf
  O17      1.0000 0.00943  0.65359  0.01177  Biso   1.000  O
  O18      1.0000 0.95076  0.58998  0.25773  Biso   1.000  O
  O19      1.0000 0.96194  0.84460  0.26355  Biso   1.000  O
  O20      1.0000 0.11542  0.90560  0.00349  Biso   1.000  O
  O21      1.0000 0.44011  0.66925  0.24094  Biso   1.000  O
  O22      1.0000 0.49877  0.59539  0.00256  Biso   1.000  O
  O23      1.0000 0.61191  0.83395  0.96125  Biso   1.000  O
  O24      1.0000 0.49946  0.92048  0.20449  Biso   1.000  O
  Hf12     1.0000 0.28312  0.50961  0.62962  Biso   1.000  Hf
  Hf13     1.0000 0.26586  0.74123  0.88547  Biso   1.000  Hf
  Hf14     1.0000 0.72770  0.76683  0.61500  Biso   1.000  Hf
  Hf15     1.0000 0.77138  0.50702  0.87521  Biso   1.000  Hf
  O25      1.0000 0.99040  0.63782  0.51503  Biso   1.000  O
  O26      1.0000 0.04959  0.58621  0.77044  Biso   1.000  O
  O27      1.0000 0.01676  0.83595  0.75692  Biso   1.000  O
  O28      1.0000 0.97730  0.89299  0.50556  Biso   1.000  O
  O29      1.0000 0.53728  0.65324  0.74979  Biso   1.000  O
  O30      1.0000 0.49008  0.61301  0.49932  Biso   1.000  O
  O31      1.0000 0.47962  0.86118  0.47402  Biso   1.000  O
  O32      1.0000 0.53873  0.91356  0.72414  Biso   1.000  O
