data_image0
_cell_length_a       10.0525
_cell_length_b       10.2702
_cell_length_c       10.1113
_cell_angle_alpha    90.5148
_cell_angle_beta     89.601
_cell_angle_gamma    90.3446

_symmetry_space_group_name_H-M    "P 1"
_symmetry_int_tables_number       1

loop_
  _symmetry_equiv_pos_as_xyz
  'x, y, z'

loop_
  _atom_site_label
  _atom_site_occupancy
  _atom_site_fract_x
  _atom_site_fract_y
  _atom_site_fract_z
  _atom_site_thermal_displace_type
  _atom_site_B_iso_or_equiv
  _atom_site_type_symbol
  Hf1      1.0000 0.14568  0.96813  0.15153  Biso   1.000  Hf
  Hf2      1.0000 0.11268  0.25701  0.33819  Biso   1.000  Hf
  Hf3      1.0000 0.38017  0.23828  0.11754  Biso   1.000  Hf
  Hf4      1.0000 0.39864  0.00692  0.37452  Biso   1.000  Hf
  O1       1.0000 0.99573  0.15316  0.96148  Biso   1.000  O
  O2       1.0000 0.99321  0.10138  0.22713  Biso   1.000  O
  O3       1.0000 0.96851  0.36832  0.24063  Biso   1.000  O
  O4       1.0000 0.99872  0.40137  0.98139  Biso   1.000  O
  O5       1.0000 0.25590  0.12552  0.27052  Biso   1.000  O
  O6       1.0000 0.27406  0.06655  0.02692  Biso   1.000  O
  O7       1.0000 0.26097  0.31644  0.95876  Biso   1.000  O
  O8       1.0000 0.24294  0.39143  0.22493  Biso   1.000  O
  Hf5      1.0000 0.14362  0.97795  0.64213  Biso   1.000  Hf
  Hf6      1.0000 0.10838  0.26077  0.82973  Biso   1.000  Hf
  Hf7      1.0000 0.36915  0.23606  0.61083  Biso   1.000  Hf
  Hf8      1.0000 0.39606  0.00709  0.87397  Biso   1.000  Hf
  O9       1.0000 0.01335  0.14335  0.47150  Biso   1.000  O
  O10      1.0000 0.99800  0.10793  0.72265  Biso   1.000  O
  O11      1.0000 0.97597  0.36616  0.72803  Biso   1.000  O
  O12      1.0000 0.00523  0.39504  0.48357  Biso   1.000  O
  O13      1.0000 0.25048  0.13503  0.75935  Biso   1.000  O
  O14      1.0000 0.27984  0.06640  0.52757  Biso   1.000  O
  O15      1.0000 0.26500  0.31660  0.46151  Biso   1.000  O
  O16      1.0000 0.23622  0.38708  0.71726  Biso   1.000  O
  Hf9      1.0000 0.10488  0.50441  0.12732  Biso   1.000  Hf
  Hf10     1.0000 0.13330  0.73230  0.38767  Biso   1.000  Hf
  Hf11     1.0000 0.39126  0.75275  0.15444  Biso   1.000  Hf
  Hf12     1.0000 0.36205  0.48319  0.36765  Biso   1.000  Hf
  O17      1.0000 0.98891  0.65245  0.01726  Biso   1.000  O
  O18      1.0000 0.00723  0.60459  0.26889  Biso   1.000  O
  O19      1.0000 0.01191  0.84868  0.26535  Biso   1.000  O
  O20      1.0000 0.00462  0.90324  0.01466  Biso   1.000  O
  O21      1.0000 0.25402  0.63410  0.24519  Biso   1.000  O
  O22      1.0000 0.22329  0.56975  0.97875  Biso   1.000  O
  O23      1.0000 0.23683  0.81467  0.04330  Biso   1.000  O
  O24      1.0000 0.26458  0.87727  0.28930  Biso   1.000  O
  Hf13     1.0000 0.10125  0.51004  0.62712  Biso   1.000  Hf
  Hf14     1.0000 0.13042  0.73608  0.88819  Biso   1.000  Hf
  Hf15     1.0000 0.38781  0.75368  0.65239  Biso   1.000  Hf
  Hf16     1.0000 0.35863  0.48144  0.86261  Biso   1.000  Hf
  O25      1.0000 0.98783  0.64902  0.51578  Biso   1.000  O
  O26      1.0000 0.00111  0.60730  0.76958  Biso   1.000  O
  O27      1.0000 0.00936  0.85225  0.76465  Biso   1.000  O
  O28      1.0000 0.00239  0.89739  0.51531  Biso   1.000  O
  O29      1.0000 0.25019  0.63481  0.74486  Biso   1.000  O
  O30      1.0000 0.22470  0.57075  0.48094  Biso   1.000  O
  O31      1.0000 0.23454  0.81601  0.54291  Biso   1.000  O
  O32      1.0000 0.25917  0.88435  0.78514  Biso   1.000  O
  Hf17     1.0000 0.64077  0.01900  0.11233  Biso   1.000  Hf
  Hf18     1.0000 0.63216  0.26761  0.36635  Biso   1.000  Hf
  Hf19     1.0000 0.88125  0.25112  0.09886  Biso   1.000  Hf
  Hf20     1.0000 0.89719  0.99426  0.37760  Biso   1.000  Hf
  O33      1.0000 0.50978  0.14852  0.98623  Biso   1.000  O
  O34      1.0000 0.50107  0.10688  0.23458  Biso   1.000  O
  O35      1.0000 0.48948  0.35360  0.24397  Biso   1.000  O
  O36      1.0000 0.49103  0.39309  0.99449  Biso   1.000  O
  O37      1.0000 0.73403  0.18278  0.21556  Biso   1.000  O
  O38      1.0000 0.75442  0.11491  0.97073  Biso   1.000  O
  O39      1.0000 0.74369  0.36774  0.00920  Biso   1.000  O
  O40      1.0000 0.71985  0.43403  0.27463  Biso   1.000  O
  Hf21     1.0000 0.64067  0.01981  0.61109  Biso   1.000  Hf
  Hf22     1.0000 0.62929  0.26395  0.86121  Biso   1.000  Hf
  Hf23     1.0000 0.88828  0.24494  0.59139  Biso   1.000  Hf
  Hf24     1.0000 0.89382  0.99489  0.87601  Biso   1.000  Hf
  O41      1.0000 0.51296  0.14834  0.48703  Biso   1.000  O
  O42      1.0000 0.50227  0.10548  0.73685  Biso   1.000  O
  O43      1.0000 0.48523  0.35116  0.74126  Biso   1.000  O
  O44      1.0000 0.49805  0.39365  0.49308  Biso   1.000  O
  O45      1.0000 0.73735  0.18304  0.71288  Biso   1.000  O
  O46      1.0000 0.76021  0.11541  0.47040  Biso   1.000  O
  O47      1.0000 0.74989  0.36641  0.50822  Biso   1.000  O
  O48      1.0000 0.72021  0.43187  0.77567  Biso   1.000  O
  Hf25     1.0000 0.60499  0.49518  0.12319  Biso   1.000  Hf
  Hf26     1.0000 0.61437  0.74390  0.40121  Biso   1.000  Hf
  Hf27     1.0000 0.86711  0.76957  0.13355  Biso   1.000  Hf
  Hf28     1.0000 0.86461  0.51675  0.38391  Biso   1.000  Hf
  O49      1.0000 0.48474  0.63934  0.01679  Biso   1.000  O
  O50      1.0000 0.50551  0.60819  0.26692  Biso   1.000  O
  O51      1.0000 0.51968  0.86124  0.26774  Biso   1.000  O
  O52      1.0000 0.49789  0.89442  0.01669  Biso   1.000  O
  O53      1.0000 0.76890  0.68215  0.28518  Biso   1.000  O
  O54      1.0000 0.73819  0.61857  0.02868  Biso   1.000  O
  O55      1.0000 0.75311  0.86624  0.98893  Biso   1.000  O
  O56      1.0000 0.77621  0.93252  0.22640  Biso   1.000  O
  Hf29     1.0000 0.60687  0.49610  0.62461  Biso   1.000  Hf
  Hf30     1.0000 0.61159  0.74586  0.90033  Biso   1.000  Hf
  Hf31     1.0000 0.86725  0.76859  0.63330  Biso   1.000  Hf
  Hf32     1.0000 0.85869  0.52165  0.88829  Biso   1.000  Hf
  O57      1.0000 0.48324  0.63887  0.51659  Biso   1.000  O
  O58      1.0000 0.50218  0.60648  0.76668  Biso   1.000  O
  O59      1.0000 0.51364  0.85987  0.76927  Biso   1.000  O
  O60      1.0000 0.49942  0.89203  0.51777  Biso   1.000  O
  O61      1.0000 0.76302  0.68186  0.78356  Biso   1.000  O
  O62      1.0000 0.73824  0.61671  0.52732  Biso   1.000  O
  O63      1.0000 0.75269  0.86652  0.49001  Biso   1.000  O
  O64      1.0000 0.77338  0.93169  0.72681  Biso   1.000  O
  Cu1      1.0000 0.13983  0.20776  0.07276  Biso   1.000  Cu
