data_image0
_cell_length_a       10.0613
_cell_length_b       5.13327
_cell_length_c       10.5056
_cell_angle_alpha    89.8108
_cell_angle_beta     90.8466
_cell_angle_gamma    90.0438

_symmetry_space_group_name_H-M    "P 1"
_symmetry_int_tables_number       1

loop_
  _symmetry_equiv_pos_as_xyz
  'x, y, z'

loop_
  _atom_site_label
  _atom_site_occupancy
  _atom_site_fract_x
  _atom_site_fract_y
  _atom_site_fract_z
  _atom_site_thermal_displace_type
  _atom_site_B_iso_or_equiv
  _atom_site_type_symbol
  Hf1      1.0000 0.13514  0.04170  0.17240  Biso   1.000  Hf
  Hf2      1.0000 0.13697  0.45460  0.42516  Biso   1.000  Hf
  Hf3      1.0000 0.35020  0.54191  0.18149  Biso   1.000  Hf
  Hf4      1.0000 0.36222  0.95631  0.42578  Biso   1.000  Hf
  Hf5      1.0000 0.64425  0.06407  0.07354  Biso   1.000  Hf
  Hf6      1.0000 0.63946  0.45774  0.33327  Biso   1.000  Hf
  Hf7      1.0000 0.86012  0.54126  0.07679  Biso   1.000  Hf
  Hf8      1.0000 0.86088  0.95646  0.32890  Biso   1.000  Hf
  O1       1.0000 0.03422  0.33233  0.08471  Biso   1.000  O
  O2       1.0000 0.03194  0.16721  0.33453  Biso   1.000  O
  O3       1.0000 0.46274  0.84604  0.09175  Biso   1.000  O
  O4       1.0000 0.46612  0.66929  0.33662  Biso   1.000  O
  O5       1.0000 0.27207  0.24819  0.29914  Biso   1.000  O
  O6       1.0000 0.27676  0.25008  0.04751  Biso   1.000  O
  O7       1.0000 0.22051  0.74887  0.29998  Biso   1.000  O
  O8       1.0000 0.22263  0.75131  0.04882  Biso   1.000  O
  O9       1.0000 0.52169  0.31178  0.17959  Biso   1.000  O
  O10      1.0000 0.53234  0.17161  0.42105  Biso   1.000  O
  O11      1.0000 0.96455  0.83186  0.16716  Biso   1.000  O
  O12      1.0000 0.96634  0.66602  0.41707  Biso   1.000  O
  O13      1.0000 0.77649  0.24587  0.45524  Biso   1.000  O
  O14      1.0000 0.77639  0.25754  0.20740  Biso   1.000  O
  O15      1.0000 0.72421  0.74703  0.45627  Biso   1.000  O
  O16      1.0000 0.72229  0.75594  0.20664  Biso   1.000  O
  Hf9      1.0000 0.14259  0.03878  0.67268  Biso   1.000  Hf
  Hf10     1.0000 0.14033  0.45683  0.92315  Biso   1.000  Hf
  Hf11     1.0000 0.36488  0.53844  0.67492  Biso   1.000  Hf
  Hf12     1.0000 0.36104  0.95827  0.92290  Biso   1.000  Hf
  Hf13     1.0000 0.64083  0.04012  0.57975  Biso   1.000  Hf
  Hf14     1.0000 0.64572  0.45359  0.82599  Biso   1.000  Hf
  Hf15     1.0000 0.86372  0.54024  0.57898  Biso   1.000  Hf
  Hf16     1.0000 0.86818  0.95679  0.82581  Biso   1.000  Hf
  O17      1.0000 0.03464  0.32671  0.58463  Biso   1.000  O
  O18      1.0000 0.04010  0.16488  0.83352  Biso   1.000  O
  O19      1.0000 0.46954  0.82770  0.58626  Biso   1.000  O
  O20      1.0000 0.47003  0.66240  0.83807  Biso   1.000  O
  O21      1.0000 0.28018  0.24612  0.79687  Biso   1.000  O
  O22      1.0000 0.27750  0.24872  0.54776  Biso   1.000  O
  O23      1.0000 0.22752  0.74515  0.79749  Biso   1.000  O
  O24      1.0000 0.22646  0.74808  0.54792  Biso   1.000  O
  O25      1.0000 0.53542  0.32746  0.66756  Biso   1.000  O
  O26      1.0000 0.53615  0.15201  0.91085  Biso   1.000  O
  O27      1.0000 0.97226  0.82607  0.66492  Biso   1.000  O
  O28      1.0000 0.97142  0.66672  0.91635  Biso   1.000  O
  O29      1.0000 0.79066  0.24248  0.94828  Biso   1.000  O
  O30      1.0000 0.78074  0.24717  0.70183  Biso   1.000  O
  O31      1.0000 0.73479  0.76306  0.95082  Biso   1.000  O
  O32      1.0000 0.72833  0.74737  0.70395  Biso   1.000  O
  Cu1      1.0000 0.57529  0.56041  0.05322  Biso   1.000  Cu
