data_image0
_cell_length_a       10.098
_cell_length_b       10.2546
_cell_length_c       10.4425
_cell_angle_alpha    90.2199
_cell_angle_beta     80.4753
_cell_angle_gamma    89.8005

_symmetry_space_group_name_H-M    "P 1"
_symmetry_int_tables_number       1

loop_
  _symmetry_equiv_pos_as_xyz
  'x, y, z'

loop_
  _atom_site_label
  _atom_site_occupancy
  _atom_site_fract_x
  _atom_site_fract_y
  _atom_site_fract_z
  _atom_site_thermal_displace_type
  _atom_site_B_iso_or_equiv
  _atom_site_type_symbol
  Cu1      1.0000 0.12374  0.00919  0.16873  Biso   1.000  Cu
  Hf1      1.0000 0.14030  0.22870  0.39032  Biso   1.000  Hf
  Hf2      1.0000 0.35791  0.26783  0.09998  Biso   1.000  Hf
  Hf3      1.0000 0.36185  0.47790  0.35278  Biso   1.000  Hf
  O1       1.0000 0.04269  0.16514  0.08075  Biso   1.000  O
  O2       1.0000 0.03583  0.07748  0.32616  Biso   1.000  O
  O3       1.0000 0.46408  0.41807  0.16964  Biso   1.000  O
  O4       1.0000 0.46438  0.33107  0.41996  Biso   1.000  O
  O5       1.0000 0.26609  0.11823  0.23039  Biso   1.000  O
  O6       1.0000 0.27684  0.12217  0.48400  Biso   1.000  O
  O7       1.0000 0.22390  0.38393  0.00839  Biso   1.000  O
  O8       1.0000 0.22530  0.36792  0.25741  Biso   1.000  O
  Hf4      1.0000 0.13774  0.02061  0.64344  Biso   1.000  Hf
  Hf5      1.0000 0.14142  0.22472  0.89659  Biso   1.000  Hf
  Hf6      1.0000 0.36078  0.27155  0.60301  Biso   1.000  Hf
  Hf7      1.0000 0.36088  0.47994  0.85467  Biso   1.000  Hf
  O9       1.0000 0.03327  0.16264  0.57051  Biso   1.000  O
  O10      1.0000 0.03446  0.08293  0.82564  Biso   1.000  O
  O11      1.0000 0.46425  0.41916  0.67004  Biso   1.000  O
  O12      1.0000 0.46926  0.33765  0.92132  Biso   1.000  O
  O13      1.0000 0.27499  0.12729  0.73317  Biso   1.000  O
  O14      1.0000 0.29386  0.13770  0.97200  Biso   1.000  O
  O15      1.0000 0.22170  0.37781  0.50761  Biso   1.000  O
  O16      1.0000 0.22495  0.37017  0.75928  Biso   1.000  O
  Hf8      1.0000 0.13923  0.52252  0.14544  Biso   1.000  Hf
  Hf9      1.0000 0.13788  0.72617  0.39808  Biso   1.000  Hf
  Hf10     1.0000 0.35757  0.77533  0.10577  Biso   1.000  Hf
  Hf11     1.0000 0.36011  0.97701  0.35229  Biso   1.000  Hf
  O17      1.0000 0.03637  0.67131  0.08138  Biso   1.000  O
  O18      1.0000 0.03618  0.57889  0.33115  Biso   1.000  O
  O19      1.0000 0.46626  0.91757  0.17143  Biso   1.000  O
  O20      1.0000 0.46418  0.83069  0.42007  Biso   1.000  O
  O21      1.0000 0.27667  0.62824  0.24114  Biso   1.000  O
  O22      1.0000 0.27714  0.61973  0.49174  Biso   1.000  O
  O23      1.0000 0.22042  0.89517  0.01933  Biso   1.000  O
  O24      1.0000 0.22216  0.86600  0.26293  Biso   1.000  O
  Hf12     1.0000 0.14039  0.52068  0.64679  Biso   1.000  Hf
  Hf13     1.0000 0.13882  0.73199  0.89704  Biso   1.000  Hf
  Hf14     1.0000 0.36164  0.77214  0.60603  Biso   1.000  Hf
  Hf15     1.0000 0.36031  0.98459  0.85619  Biso   1.000  Hf
  O25      1.0000 0.03466  0.66691  0.58169  Biso   1.000  O
  O26      1.0000 0.03714  0.58233  0.83166  Biso   1.000  O
  O27      1.0000 0.46408  0.92019  0.67035  Biso   1.000  O
  O28      1.0000 0.45900  0.83233  0.92142  Biso   1.000  O
  O29      1.0000 0.27659  0.63020  0.74105  Biso   1.000  O
  O30      1.0000 0.27611  0.62605  0.99092  Biso   1.000  O
  O31      1.0000 0.22372  0.87807  0.51083  Biso   1.000  O
  O32      1.0000 0.22317  0.87219  0.76257  Biso   1.000  O
  Hf16     1.0000 0.63832  0.02310  0.14512  Biso   1.000  Hf
  Hf17     1.0000 0.63889  0.22882  0.39522  Biso   1.000  Hf
  Hf18     1.0000 0.86706  0.26745  0.10524  Biso   1.000  Hf
  Hf19     1.0000 0.86081  0.47815  0.35359  Biso   1.000  Hf
  O33      1.0000 0.53573  0.16963  0.07959  Biso   1.000  O
  O34      1.0000 0.53365  0.08233  0.32878  Biso   1.000  O
  O35      1.0000 0.96522  0.41989  0.17001  Biso   1.000  O
  O36      1.0000 0.96380  0.32881  0.41797  Biso   1.000  O
  O37      1.0000 0.77611  0.12771  0.24140  Biso   1.000  O
  O38      1.0000 0.77655  0.12001  0.49010  Biso   1.000  O
  O39      1.0000 0.72675  0.37919  0.01015  Biso   1.000  O
  O40      1.0000 0.72459  0.36977  0.25952  Biso   1.000  O
  Hf20     1.0000 0.63810  0.02176  0.64647  Biso   1.000  Hf
  Hf21     1.0000 0.64010  0.23082  0.89644  Biso   1.000  Hf
  Hf22     1.0000 0.86113  0.27121  0.60351  Biso   1.000  Hf
  Hf23     1.0000 0.86322  0.47782  0.85598  Biso   1.000  Hf
  O41      1.0000 0.53593  0.16942  0.57938  Biso   1.000  O
  O42      1.0000 0.53909  0.08138  0.82974  Biso   1.000  O
  O43      1.0000 0.96704  0.41524  0.67218  Biso   1.000  O
  O44      1.0000 0.96714  0.33095  0.92376  Biso   1.000  O
  O45      1.0000 0.77803  0.13005  0.73959  Biso   1.000  O
  O46      1.0000 0.77751  0.12170  0.99081  Biso   1.000  O
  O47      1.0000 0.72379  0.37838  0.50992  Biso   1.000  O
  O48      1.0000 0.72490  0.37211  0.75991  Biso   1.000  O
  Hf24     1.0000 0.63727  0.52026  0.14523  Biso   1.000  Hf
  Hf25     1.0000 0.63842  0.72744  0.39599  Biso   1.000  Hf
  Hf26     1.0000 0.86126  0.77046  0.10289  Biso   1.000  Hf
  Hf27     1.0000 0.85747  0.97625  0.35631  Biso   1.000  Hf
  O49      1.0000 0.53461  0.66984  0.08016  Biso   1.000  O
  O50      1.0000 0.53630  0.57950  0.33052  Biso   1.000  O
  O51      1.0000 0.96356  0.92213  0.17162  Biso   1.000  O
  O52      1.0000 0.96351  0.83036  0.42168  Biso   1.000  O
  O53      1.0000 0.77654  0.62892  0.24028  Biso   1.000  O
  O54      1.0000 0.77650  0.62003  0.49100  Biso   1.000  O
  O55      1.0000 0.72256  0.87998  0.00981  Biso   1.000  O
  O56      1.0000 0.72648  0.87088  0.25899  Biso   1.000  O
  Hf28     1.0000 0.63874  0.52128  0.64676  Biso   1.000  Hf
  Hf29     1.0000 0.63624  0.72990  0.89723  Biso   1.000  Hf
  Hf30     1.0000 0.85987  0.77004  0.60577  Biso   1.000  Hf
  Hf31     1.0000 0.86093  0.97952  0.85408  Biso   1.000  Hf
  O57      1.0000 0.53625  0.66916  0.57964  Biso   1.000  O
  O58      1.0000 0.53475  0.58368  0.82887  Biso   1.000  O
  O59      1.0000 0.96381  0.91683  0.67104  Biso   1.000  O
  O60      1.0000 0.96336  0.83188  0.92113  Biso   1.000  O
  O61      1.0000 0.77676  0.62865  0.74211  Biso   1.000  O
  O62      1.0000 0.77683  0.62231  0.99096  Biso   1.000  O
  O63      1.0000 0.72190  0.87787  0.51010  Biso   1.000  O
  O64      1.0000 0.72236  0.87107  0.76033  Biso   1.000  O
