data_image0
_cell_length_a       5.07603
_cell_length_b       10.3452
_cell_length_c       10.068
_cell_angle_alpha    91.775
_cell_angle_beta     89.3367
_cell_angle_gamma    92.8864

_symmetry_space_group_name_H-M    "P 1"
_symmetry_int_tables_number       1

loop_
  _symmetry_equiv_pos_as_xyz
  'x, y, z'

loop_
  _atom_site_label
  _atom_site_occupancy
  _atom_site_fract_x
  _atom_site_fract_y
  _atom_site_fract_z
  _atom_site_thermal_displace_type
  _atom_site_B_iso_or_equiv
  _atom_site_type_symbol
  Hf1      1.0000 0.30424  0.96889  0.14608  Biso   1.000  Hf
  Hf2      1.0000 0.24956  0.24241  0.38639  Biso   1.000  Hf
  Hf3      1.0000 0.64677  0.26170  0.11803  Biso   1.000  Hf
  Hf4      1.0000 0.75083  0.00773  0.39746  Biso   1.000  Hf
  O1       1.0000 0.91005  0.15057  0.00245  Biso   1.000  O
  O2       1.0000 0.07395  0.06520  0.28402  Biso   1.000  O
  O3       1.0000 0.93699  0.31653  0.26855  Biso   1.000  O
  O4       1.0000 0.97570  0.39363  0.01052  Biso   1.000  O
  O5       1.0000 0.55558  0.12680  0.25746  Biso   1.000  O
  O6       1.0000 0.43582  0.09939  0.99250  Biso   1.000  O
  O7       1.0000 0.47980  0.36934  0.97158  Biso   1.000  O
  O8       1.0000 0.46785  0.40095  0.24485  Biso   1.000  O
  Hf5      1.0000 0.21811  0.02109  0.63953  Biso   1.000  Hf
  Hf6      1.0000 0.19276  0.24496  0.88776  Biso   1.000  Hf
  Hf7      1.0000 0.73653  0.26551  0.63433  Biso   1.000  Hf
  Hf8      1.0000 0.74093  0.99303  0.89526  Biso   1.000  Hf
  O9       1.0000 0.98146  0.15136  0.51530  Biso   1.000  O
  O10      1.0000 0.94396  0.11210  0.75883  Biso   1.000  O
  O11      1.0000 0.02965  0.36608  0.75453  Biso   1.000  O
  O12      1.0000 0.04248  0.39728  0.49893  Biso   1.000  O
  O13      1.0000 0.43640  0.18484  0.73938  Biso   1.000  O
  O14      1.0000 0.47635  0.10572  0.50506  Biso   1.000  O
  O15      1.0000 0.53832  0.34801  0.48672  Biso   1.000  O
  O16      1.0000 0.56363  0.43482  0.72173  Biso   1.000  O
  Hf9      1.0000 0.27354  0.51297  0.10824  Biso   1.000  Hf
  Hf10     1.0000 0.30015  0.74883  0.38026  Biso   1.000  Hf
  Hf11     1.0000 0.77880  0.73811  0.12268  Biso   1.000  Hf
  Hf12     1.0000 0.78176  0.48016  0.37272  Biso   1.000  Hf
  O17      1.0000 0.05188  0.64541  0.98821  Biso   1.000  O
  O18      1.0000 0.96048  0.57472  0.22195  Biso   1.000  O
  O19      1.0000 0.08566  0.81845  0.23541  Biso   1.000  O
  O20      1.0000 0.00846  0.89867  0.00677  Biso   1.000  O
  O21      1.0000 0.47964  0.64705  0.23473  Biso   1.000  O
  O22      1.0000 0.55416  0.60650  0.99351  Biso   1.000  O
  O23      1.0000 0.51213  0.84709  0.00354  Biso   1.000  O
  O24      1.0000 0.58649  0.88310  0.25441  Biso   1.000  O
  Hf13     1.0000 0.27251  0.51448  0.62575  Biso   1.000  Hf
  Hf14     1.0000 0.23475  0.77269  0.85758  Biso   1.000  Hf
  Hf15     1.0000 0.78199  0.74399  0.60505  Biso   1.000  Hf
  Hf16     1.0000 0.78979  0.50116  0.87732  Biso   1.000  Hf
  O25      1.0000 0.02728  0.63973  0.48347  Biso   1.000  O
  O26      1.0000 0.99582  0.61697  0.73735  Biso   1.000  O
  O27      1.0000 0.94796  0.86366  0.75419  Biso   1.000  O
  O28      1.0000 0.02634  0.89385  0.50015  Biso   1.000  O
  O29      1.0000 0.47638  0.68258  0.72757  Biso   1.000  O
  O30      1.0000 0.52974  0.60252  0.48654  Biso   1.000  O
  O31      1.0000 0.53233  0.85836  0.50686  Biso   1.000  O
  O32      1.0000 0.43549  0.93425  0.77169  Biso   1.000  O
  Cu1      1.0000 0.12819  0.20150  0.14799  Biso   1.000  Cu
