data_image0
_cell_length_a       10.0377
_cell_length_b       10.2494
_cell_length_c       10.4821
_cell_angle_alpha    89.89
_cell_angle_beta     90.3991
_cell_angle_gamma    90.0232

_symmetry_space_group_name_H-M    "P 1"
_symmetry_int_tables_number       1

loop_
  _symmetry_equiv_pos_as_xyz
  'x, y, z'

loop_
  _atom_site_label
  _atom_site_occupancy
  _atom_site_fract_x
  _atom_site_fract_y
  _atom_site_fract_z
  _atom_site_thermal_displace_type
  _atom_site_B_iso_or_equiv
  _atom_site_type_symbol
  Hf1      1.0000 0.13776  0.02090  0.17228  Biso   1.000  Hf
  Hf2      1.0000 0.13680  0.22795  0.42508  Biso   1.000  Hf
  Hf3      1.0000 0.35033  0.26995  0.18015  Biso   1.000  Hf
  Hf4      1.0000 0.36197  0.47927  0.42323  Biso   1.000  Hf
  Hf5      1.0000 0.64151  0.02283  0.07318  Biso   1.000  Hf
  Hf6      1.0000 0.63838  0.22723  0.33283  Biso   1.000  Hf
  Hf7      1.0000 0.85952  0.26903  0.07673  Biso   1.000  Hf
  Hf8      1.0000 0.86143  0.47830  0.32870  Biso   1.000  Hf
  O1       1.0000 0.03393  0.16585  0.08433  Biso   1.000  O
  O2       1.0000 0.03202  0.08443  0.33448  Biso   1.000  O
  O3       1.0000 0.46356  0.42202  0.09120  Biso   1.000  O
  O4       1.0000 0.46552  0.33393  0.33535  Biso   1.000  O
  O5       1.0000 0.27241  0.12433  0.29915  Biso   1.000  O
  O6       1.0000 0.27703  0.12555  0.04689  Biso   1.000  O
  O7       1.0000 0.21993  0.37435  0.29862  Biso   1.000  O
  O8       1.0000 0.22329  0.37640  0.04695  Biso   1.000  O
  O9       1.0000 0.51999  0.15161  0.17994  Biso   1.000  O
  O10      1.0000 0.53199  0.08552  0.42104  Biso   1.000  O
  O11      1.0000 0.96464  0.41522  0.16681  Biso   1.000  O
  O12      1.0000 0.96618  0.33440  0.41776  Biso   1.000  O
  O13      1.0000 0.77613  0.12351  0.45555  Biso   1.000  O
  O14      1.0000 0.77490  0.12742  0.20715  Biso   1.000  O
  O15      1.0000 0.72329  0.37323  0.45552  Biso   1.000  O
  O16      1.0000 0.72020  0.37829  0.20583  Biso   1.000  O
  Hf9      1.0000 0.14065  0.02037  0.67270  Biso   1.000  Hf
  Hf10     1.0000 0.13896  0.22784  0.92223  Biso   1.000  Hf
  Hf11     1.0000 0.36328  0.27043  0.67391  Biso   1.000  Hf
  Hf12     1.0000 0.36043  0.47994  0.92184  Biso   1.000  Hf
  Hf13     1.0000 0.63976  0.02022  0.57979  Biso   1.000  Hf
  Hf14     1.0000 0.64425  0.22633  0.82568  Biso   1.000  Hf
  Hf15     1.0000 0.86187  0.27092  0.57942  Biso   1.000  Hf
  Hf16     1.0000 0.86495  0.48036  0.82749  Biso   1.000  Hf
  O17      1.0000 0.03338  0.16492  0.58523  Biso   1.000  O
  O18      1.0000 0.03680  0.08237  0.83353  Biso   1.000  O
  O19      1.0000 0.46829  0.41532  0.58486  Biso   1.000  O
  O20      1.0000 0.46971  0.33431  0.83692  Biso   1.000  O
  O21      1.0000 0.27851  0.12381  0.79624  Biso   1.000  O
  O22      1.0000 0.27685  0.12538  0.54722  Biso   1.000  O
  O23      1.0000 0.22564  0.37358  0.79666  Biso   1.000  O
  O24      1.0000 0.22501  0.37537  0.54713  Biso   1.000  O
  O25      1.0000 0.53437  0.16502  0.66675  Biso   1.000  O
  O26      1.0000 0.53628  0.07522  0.90869  Biso   1.000  O
  O27      1.0000 0.96896  0.41513  0.66649  Biso   1.000  O
  O28      1.0000 0.96899  0.33409  0.91561  Biso   1.000  O
  O29      1.0000 0.78976  0.11887  0.94850  Biso   1.000  O
  O30      1.0000 0.77976  0.12380  0.70220  Biso   1.000  O
  O31      1.0000 0.73064  0.38160  0.95271  Biso   1.000  O
  O32      1.0000 0.72620  0.37559  0.70450  Biso   1.000  O
  Hf17     1.0000 0.13680  0.52148  0.17173  Biso   1.000  Hf
  Hf18     1.0000 0.13890  0.72844  0.42156  Biso   1.000  Hf
  Hf19     1.0000 0.36134  0.77293  0.17248  Biso   1.000  Hf
  Hf20     1.0000 0.36135  0.97810  0.42392  Biso   1.000  Hf
  Hf21     1.0000 0.64208  0.53042  0.07938  Biso   1.000  Hf
  Hf22     1.0000 0.63958  0.73077  0.32933  Biso   1.000  Hf
  Hf23     1.0000 0.86261  0.77310  0.07884  Biso   1.000  Hf
  Hf24     1.0000 0.86072  0.97902  0.32864  Biso   1.000  Hf
  O33      1.0000 0.03378  0.66594  0.08407  Biso   1.000  O
  O34      1.0000 0.03279  0.58402  0.33372  Biso   1.000  O
  O35      1.0000 0.46828  0.91416  0.08254  Biso   1.000  O
  O36      1.0000 0.46763  0.83579  0.33451  Biso   1.000  O
  O37      1.0000 0.27598  0.62371  0.29521  Biso   1.000  O
  O38      1.0000 0.27705  0.62586  0.04550  Biso   1.000  O
  O39      1.0000 0.22405  0.87412  0.29630  Biso   1.000  O
  O40      1.0000 0.22318  0.87576  0.04682  Biso   1.000  O
  O41      1.0000 0.53402  0.66840  0.16736  Biso   1.000  O
  O42      1.0000 0.53331  0.58521  0.41667  Biso   1.000  O
  O43      1.0000 0.96686  0.91687  0.16676  Biso   1.000  O
  O44      1.0000 0.96692  0.83333  0.41563  Biso   1.000  O
  O45      1.0000 0.77685  0.62341  0.45469  Biso   1.000  O
  O46      1.0000 0.77791  0.62828  0.20527  Biso   1.000  O
  O47      1.0000 0.72428  0.87425  0.45564  Biso   1.000  O
  O48      1.0000 0.72487  0.87663  0.20517  Biso   1.000  O
  Hf25     1.0000 0.14050  0.52036  0.67160  Biso   1.000  Hf
  Hf26     1.0000 0.14043  0.72917  0.92235  Biso   1.000  Hf
  Hf27     1.0000 0.36242  0.77011  0.67227  Biso   1.000  Hf
  Hf28     1.0000 0.36233  0.97753  0.92240  Biso   1.000  Hf
  Hf29     1.0000 0.63978  0.52100  0.57850  Biso   1.000  Hf
  Hf30     1.0000 0.63960  0.72904  0.82784  Biso   1.000  Hf
  Hf31     1.0000 0.86295  0.77042  0.57817  Biso   1.000  Hf
  Hf32     1.0000 0.86420  0.97642  0.82730  Biso   1.000  Hf
  O49      1.0000 0.03429  0.66436  0.58324  Biso   1.000  O
  O50      1.0000 0.03609  0.58481  0.83370  Biso   1.000  O
  O51      1.0000 0.46800  0.91406  0.58469  Biso   1.000  O
  O52      1.0000 0.46698  0.83155  0.83390  Biso   1.000  O
  O53      1.0000 0.27814  0.62291  0.79552  Biso   1.000  O
  O54      1.0000 0.27694  0.62535  0.54545  Biso   1.000  O
  O55      1.0000 0.22495  0.87269  0.79568  Biso   1.000  O
  O56      1.0000 0.22457  0.87516  0.54564  Biso   1.000  O
  O57      1.0000 0.53381  0.66417  0.66668  Biso   1.000  O
  O58      1.0000 0.53370  0.58464  0.91792  Biso   1.000  O
  O59      1.0000 0.96963  0.91383  0.66502  Biso   1.000  O
  O60      1.0000 0.96928  0.83409  0.91753  Biso   1.000  O
  O61      1.0000 0.77804  0.62683  0.95471  Biso   1.000  O
  O62      1.0000 0.77763  0.62583  0.70450  Biso   1.000  O
  O63      1.0000 0.72514  0.87314  0.95487  Biso   1.000  O
  O64      1.0000 0.72509  0.87446  0.70465  Biso   1.000  O
  Cu1      1.0000 0.57721  0.27610  0.05439  Biso   1.000  Cu
