data_image0
_cell_length_a       10.1988
_cell_length_b       10.3788
_cell_length_c       10.5294
_cell_angle_alpha    90.186
_cell_angle_beta     79.9781
_cell_angle_gamma    90.1131

_symmetry_space_group_name_H-M    "P 1"
_symmetry_int_tables_number       1

loop_
  _symmetry_equiv_pos_as_xyz
  'x, y, z'

loop_
  _atom_site_label
  _atom_site_occupancy
  _atom_site_fract_x
  _atom_site_fract_y
  _atom_site_fract_z
  _atom_site_thermal_displace_type
  _atom_site_B_iso_or_equiv
  _atom_site_type_symbol
  Zr1      1.0000 0.13725  0.02248  0.14556  Biso   1.000  Zr
  Zr2      1.0000 0.13707  0.23067  0.39608  Biso   1.000  Zr
  Zr3      1.0000 0.35533  0.27704  0.09543  Biso   1.000  Zr
  Zr4      1.0000 0.35739  0.48067  0.35127  Biso   1.000  Zr
  O1       1.0000 0.03486  0.17088  0.08080  Biso   1.000  O
  O2       1.0000 0.03735  0.07966  0.33067  Biso   1.000  O
  O3       1.0000 0.46146  0.42254  0.16716  Biso   1.000  O
  O4       1.0000 0.47403  0.33877  0.42282  Biso   1.000  O
  O5       1.0000 0.27912  0.13194  0.24037  Biso   1.000  O
  O6       1.0000 0.27791  0.11810  0.49008  Biso   1.000  O
  O7       1.0000 0.21951  0.38283  0.00450  Biso   1.000  O
  O8       1.0000 0.21523  0.37454  0.25509  Biso   1.000  O
  Zr5      1.0000 0.13838  0.02091  0.64606  Biso   1.000  Zr
  Zr6      1.0000 0.13617  0.22883  0.89434  Biso   1.000  Zr
  Zr7      1.0000 0.36082  0.27188  0.60797  Biso   1.000  Zr
  Zr8      1.0000 0.35911  0.48112  0.85299  Biso   1.000  Zr
  O9       1.0000 0.03777  0.17100  0.58158  Biso   1.000  O
  O10      1.0000 0.03441  0.08008  0.83036  Biso   1.000  O
  O11      1.0000 0.46438  0.41960  0.66988  Biso   1.000  O
  O12      1.0000 0.46380  0.33266  0.91737  Biso   1.000  O
  O13      1.0000 0.27568  0.12942  0.74057  Biso   1.000  O
  O14      1.0000 0.27383  0.12253  0.98965  Biso   1.000  O
  O15      1.0000 0.22708  0.37786  0.50870  Biso   1.000  O
  O16      1.0000 0.22311  0.37097  0.75813  Biso   1.000  O
  Zr9      1.0000 0.13689  0.52353  0.14441  Biso   1.000  Zr
  Zr10     1.0000 0.13682  0.72690  0.39651  Biso   1.000  Zr
  Zr11     1.0000 0.36008  0.77184  0.10380  Biso   1.000  Zr
  Zr12     1.0000 0.35900  0.96709  0.35793  Biso   1.000  Zr
  O17      1.0000 0.03364  0.67195  0.08080  Biso   1.000  O
  O18      1.0000 0.03402  0.58092  0.33026  Biso   1.000  O
  O19      1.0000 0.46394  0.91901  0.17233  Biso   1.000  O
  O20      1.0000 0.46366  0.82653  0.42145  Biso   1.000  O
  O21      1.0000 0.27499  0.62989  0.24057  Biso   1.000  O
  O22      1.0000 0.27497  0.62065  0.49092  Biso   1.000  O
  O23      1.0000 0.22295  0.88049  0.01027  Biso   1.000  O
  O24      1.0000 0.22225  0.87055  0.26034  Biso   1.000  O
  Zr13     1.0000 0.13858  0.52181  0.64514  Biso   1.000  Zr
  Zr14     1.0000 0.13694  0.72976  0.89609  Biso   1.000  Zr
  Zr15     1.0000 0.36078  0.76992  0.60654  Biso   1.000  Zr
  Zr16     1.0000 0.36005  0.97879  0.85500  Biso   1.000  Zr
  O25      1.0000 0.03375  0.66876  0.58087  Biso   1.000  O
  O26      1.0000 0.03544  0.58064  0.83088  Biso   1.000  O
  O27      1.0000 0.46381  0.91940  0.67033  Biso   1.000  O
  O28      1.0000 0.46398  0.83214  0.92050  Biso   1.000  O
  O29      1.0000 0.27548  0.62878  0.74075  Biso   1.000  O
  O30      1.0000 0.27477  0.62326  0.99014  Biso   1.000  O
  O31      1.0000 0.22248  0.87621  0.51122  Biso   1.000  O
  O32      1.0000 0.22295  0.87122  0.76021  Biso   1.000  O
  Zr17     1.0000 0.63911  0.02124  0.14577  Biso   1.000  Zr
  Zr18     1.0000 0.65157  0.22921  0.40142  Biso   1.000  Zr
  Zr19     1.0000 0.85965  0.27244  0.10526  Biso   1.000  Zr
  Zr20     1.0000 0.86079  0.47881  0.35444  Biso   1.000  Zr
  O33      1.0000 0.53197  0.17089  0.08391  Biso   1.000  O
  O34      1.0000 0.53997  0.07385  0.33755  Biso   1.000  O
  O35      1.0000 0.96201  0.42132  0.16865  Biso   1.000  O
  O36      1.0000 0.96359  0.33069  0.42067  Biso   1.000  O
  O37      1.0000 0.77685  0.12899  0.24219  Biso   1.000  O
  O38      1.0000 0.78066  0.11959  0.49368  Biso   1.000  O
  O39      1.0000 0.72232  0.37954  0.01103  Biso   1.000  O
  O40      1.0000 0.72251  0.37087  0.26100  Biso   1.000  O
  Zr21     1.0000 0.63830  0.02143  0.64746  Biso   1.000  Zr
  Zr22     1.0000 0.63833  0.22937  0.89731  Biso   1.000  Zr
  Zr23     1.0000 0.86278  0.27187  0.60830  Biso   1.000  Zr
  Zr24     1.0000 0.86014  0.47949  0.85621  Biso   1.000  Zr
  O41      1.0000 0.53701  0.17018  0.58105  Biso   1.000  O
  O42      1.0000 0.53423  0.08167  0.83173  Biso   1.000  O
  O43      1.0000 0.96469  0.42019  0.67069  Biso   1.000  O
  O44      1.0000 0.96192  0.32975  0.91913  Biso   1.000  O
  O45      1.0000 0.77547  0.12971  0.74289  Biso   1.000  O
  O46      1.0000 0.77401  0.12124  0.99230  Biso   1.000  O
  O47      1.0000 0.72586  0.37814  0.51253  Biso   1.000  O
  O48      1.0000 0.72364  0.37157  0.76159  Biso   1.000  O
  Zr25     1.0000 0.63764  0.52261  0.14654  Biso   1.000  Zr
  Zr26     1.0000 0.63994  0.72684  0.39643  Biso   1.000  Zr
  Zr27     1.0000 0.85924  0.77200  0.10497  Biso   1.000  Zr
  Zr28     1.0000 0.86185  0.97704  0.35510  Biso   1.000  Zr
  O49      1.0000 0.53409  0.67000  0.08012  Biso   1.000  O
  O50      1.0000 0.53345  0.58207  0.32980  Biso   1.000  O
  O51      1.0000 0.96408  0.92089  0.16910  Biso   1.000  O
  O52      1.0000 0.96344  0.82994  0.41996  Biso   1.000  O
  O53      1.0000 0.77568  0.62959  0.24154  Biso   1.000  O
  O54      1.0000 0.77570  0.62035  0.49143  Biso   1.000  O
  O55      1.0000 0.72225  0.87979  0.01070  Biso   1.000  O
  O56      1.0000 0.72351  0.87126  0.26035  Biso   1.000  O
  Zr29     1.0000 0.63917  0.52209  0.64694  Biso   1.000  Zr
  Zr30     1.0000 0.63781  0.72880  0.89633  Biso   1.000  Zr
  Zr31     1.0000 0.85978  0.77175  0.60548  Biso   1.000  Zr
  Zr32     1.0000 0.85952  0.97866  0.85521  Biso   1.000  Zr
  O57      1.0000 0.53534  0.66859  0.58139  Biso   1.000  O
  O58      1.0000 0.53418  0.58185  0.83032  Biso   1.000  O
  O59      1.0000 0.96343  0.92000  0.66964  Biso   1.000  O
  O60      1.0000 0.96264  0.83112  0.91977  Biso   1.000  O
  O61      1.0000 0.77586  0.62932  0.74170  Biso   1.000  O
  O62      1.0000 0.77483  0.62206  0.99149  Biso   1.000  O
  O63      1.0000 0.72299  0.87898  0.51037  Biso   1.000  O
  O64      1.0000 0.72269  0.87151  0.76049  Biso   1.000  O
  Cu1      1.0000 0.42032  0.21437  0.31413  Biso   1.000  Cu
