data_image0
_cell_length_a       5.03033
_cell_length_b       10.1857
_cell_length_c       10.0564
_cell_angle_alpha    90.5621
_cell_angle_beta     88.8098
_cell_angle_gamma    89.4648

_symmetry_space_group_name_H-M    "P 1"
_symmetry_int_tables_number       1

loop_
  _symmetry_equiv_pos_as_xyz
  'x, y, z'

loop_
  _atom_site_label
  _atom_site_occupancy
  _atom_site_fract_x
  _atom_site_fract_y
  _atom_site_fract_z
  _atom_site_thermal_displace_type
  _atom_site_B_iso_or_equiv
  _atom_site_type_symbol
  Cu1      1.0000 0.26269  0.96938  0.12084  Biso   1.000  Cu
  Zr1      1.0000 0.25984  0.00140  0.62409  Biso   1.000  Zr
  Zr2      1.0000 0.25042  0.50420  0.12473  Biso   1.000  Zr
  Zr3      1.0000 0.25036  0.49593  0.62361  Biso   1.000  Zr
  Zr4      1.0000 0.27195  0.24467  0.36750  Biso   1.000  Zr
  Zr5      1.0000 0.24129  0.25095  0.87726  Biso   1.000  Zr
  Zr6      1.0000 0.25236  0.75114  0.38358  Biso   1.000  Zr
  Zr7      1.0000 0.23806  0.75102  0.87217  Biso   1.000  Zr
  Zr8      1.0000 0.75118  0.25518  0.12114  Biso   1.000  Zr
  Zr9      1.0000 0.75388  0.24727  0.62256  Biso   1.000  Zr
  Zr10     1.0000 0.74517  0.75291  0.13016  Biso   1.000  Zr
  Zr11     1.0000 0.74971  0.75038  0.62713  Biso   1.000  Zr
  Zr12     1.0000 0.77974  0.00169  0.36906  Biso   1.000  Zr
  Zr13     1.0000 0.73776  0.00626  0.87813  Biso   1.000  Zr
  Zr14     1.0000 0.75346  0.49534  0.37740  Biso   1.000  Zr
  Zr15     1.0000 0.74640  0.50017  0.87234  Biso   1.000  Zr
  O1       1.0000 0.93987  0.15883  0.97284  Biso   1.000  O
  O2       1.0000 0.00688  0.14382  0.48523  Biso   1.000  O
  O3       1.0000 0.99465  0.65205  0.99995  Biso   1.000  O
  O4       1.0000 0.99725  0.64156  0.49947  Biso   1.000  O
  O5       1.0000 0.07391  0.08671  0.23125  Biso   1.000  O
  O6       1.0000 0.98980  0.10323  0.73678  Biso   1.000  O
  O7       1.0000 0.98385  0.60025  0.24669  Biso   1.000  O
  O8       1.0000 0.00153  0.60595  0.74942  Biso   1.000  O
  O9       1.0000 0.00992  0.34702  0.24982  Biso   1.000  O
  O10      1.0000 0.00053  0.35483  0.74999  Biso   1.000  O
  O11      1.0000 0.98338  0.84491  0.26406  Biso   1.000  O
  O12      1.0000 0.97193  0.85424  0.76285  Biso   1.000  O
  O13      1.0000 0.99899  0.40293  0.00158  Biso   1.000  O
  O14      1.0000 0.99966  0.39250  0.50165  Biso   1.000  O
  O15      1.0000 0.97749  0.90732  0.01258  Biso   1.000  O
  O16      1.0000 0.01265  0.89257  0.50962  Biso   1.000  O
  O17      1.0000 0.58904  0.15727  0.27362  Biso   1.000  O
  O18      1.0000 0.50010  0.14576  0.75761  Biso   1.000  O
  O19      1.0000 0.48619  0.65006  0.24964  Biso   1.000  O
  O20      1.0000 0.49879  0.64439  0.75137  Biso   1.000  O
  O21      1.0000 0.45740  0.10437  0.01331  Biso   1.000  O
  O22      1.0000 0.51394  0.10323  0.50902  Biso   1.000  O
  O23      1.0000 0.49860  0.60907  0.99975  Biso   1.000  O
  O24      1.0000 0.49841  0.60429  0.50099  Biso   1.000  O
  O25      1.0000 0.49918  0.35628  0.99535  Biso   1.000  O
  O26      1.0000 0.50297  0.35299  0.49620  Biso   1.000  O
  O27      1.0000 0.47103  0.85907  0.00888  Biso   1.000  O
  O28      1.0000 0.51884  0.85406  0.49537  Biso   1.000  O
  O29      1.0000 0.50302  0.40019  0.24533  Biso   1.000  O
  O30      1.0000 0.50394  0.39500  0.74548  Biso   1.000  O
  O31      1.0000 0.49650  0.90640  0.24998  Biso   1.000  O
  O32      1.0000 0.48045  0.89347  0.75312  Biso   1.000  O
