data_image0
_cell_length_a       10.0884
_cell_length_b       5.23653
_cell_length_c       10.1227
_cell_angle_alpha    89.5987
_cell_angle_beta     89.9567
_cell_angle_gamma    89.9991

_symmetry_space_group_name_H-M    "P 1"
_symmetry_int_tables_number       1

loop_
  _symmetry_equiv_pos_as_xyz
  'x, y, z'

loop_
  _atom_site_label
  _atom_site_occupancy
  _atom_site_fract_x
  _atom_site_fract_y
  _atom_site_fract_z
  _atom_site_thermal_displace_type
  _atom_site_B_iso_or_equiv
  _atom_site_type_symbol
  Zr1      1.0000 0.13630  0.07277  0.11895  Biso   1.000  Zr
  Zr2      1.0000 0.13642  0.46777  0.38585  Biso   1.000  Zr
  Zr3      1.0000 0.36690  0.53269  0.12439  Biso   1.000  Zr
  Zr4      1.0000 0.36577  0.96945  0.37518  Biso   1.000  Zr
  O1       1.0000 0.01107  0.34413  0.22167  Biso   1.000  O
  O2       1.0000 0.03656  0.13223  0.45239  Biso   1.000  O
  O3       1.0000 0.46166  0.86844  0.19485  Biso   1.000  O
  O4       1.0000 0.46600  0.63494  0.44535  Biso   1.000  O
  O5       1.0000 0.26902  0.24595  0.25177  Biso   1.000  O
  O6       1.0000 0.27211  0.26338  0.50054  Biso   1.000  O
  O7       1.0000 0.23363  0.76498  0.50124  Biso   1.000  O
  O8       1.0000 0.22926  0.74056  0.25271  Biso   1.000  O
  Zr5      1.0000 0.13501  0.02495  0.62764  Biso   1.000  Zr
  Zr6      1.0000 0.13782  0.45926  0.86790  Biso   1.000  Zr
  Zr7      1.0000 0.37088  0.52961  0.62515  Biso   1.000  Zr
  Zr8      1.0000 0.37085  0.96321  0.87317  Biso   1.000  Zr
  O9       1.0000 0.03673  0.36147  0.69206  Biso   1.000  O
  O10      1.0000 0.03742  0.13009  0.94169  Biso   1.000  O
  O11      1.0000 0.47050  0.86217  0.69392  Biso   1.000  O
  O12      1.0000 0.46861  0.63181  0.94514  Biso   1.000  O
  O13      1.0000 0.27145  0.22774  0.74612  Biso   1.000  O
  O14      1.0000 0.28509  0.25630  0.99062  Biso   1.000  O
  O15      1.0000 0.23089  0.76947  0.00001  Biso   1.000  O
  O16      1.0000 0.23707  0.72952  0.74860  Biso   1.000  O
  Zr9      1.0000 0.62906  0.02924  0.12398  Biso   1.000  Zr
  Zr10     1.0000 0.63226  0.46535  0.37686  Biso   1.000  Zr
  Zr11     1.0000 0.84717  0.52632  0.12644  Biso   1.000  Zr
  Zr12     1.0000 0.87275  0.97337  0.37041  Biso   1.000  Zr
  O17      1.0000 0.53356  0.36502  0.19507  Biso   1.000  O
  O18      1.0000 0.53456  0.13269  0.44585  Biso   1.000  O
  O19      1.0000 0.96360  0.86046  0.18948  Biso   1.000  O
  O20      1.0000 0.96928  0.64187  0.44901  Biso   1.000  O
  O21      1.0000 0.76019  0.22748  0.24906  Biso   1.000  O
  O22      1.0000 0.77126  0.26959  0.49682  Biso   1.000  O
  O23      1.0000 0.73522  0.76999  0.49674  Biso   1.000  O
  O24      1.0000 0.72614  0.73390  0.24967  Biso   1.000  O
  Zr13     1.0000 0.63846  0.02795  0.62337  Biso   1.000  Zr
  Zr14     1.0000 0.63439  0.46314  0.87216  Biso   1.000  Zr
  Zr15     1.0000 0.86785  0.53079  0.62433  Biso   1.000  Zr
  Zr16     1.0000 0.86780  0.96023  0.87625  Biso   1.000  Zr
  O25      1.0000 0.53848  0.36284  0.69332  Biso   1.000  O
  O26      1.0000 0.53968  0.12881  0.94159  Biso   1.000  O
  O27      1.0000 0.96974  0.85723  0.70122  Biso   1.000  O
  O28      1.0000 0.96343  0.62500  0.94675  Biso   1.000  O
  O29      1.0000 0.77267  0.22850  0.74757  Biso   1.000  O
  O30      1.0000 0.76928  0.25941  0.99821  Biso   1.000  O
  O31      1.0000 0.72754  0.75975  0.99887  Biso   1.000  O
  O32      1.0000 0.73374  0.73006  0.74789  Biso   1.000  O
  Cu1      1.0000 0.09882  0.58630  0.10992  Biso   1.000  Cu
