data_image0
_cell_length_a       5.08379
_cell_length_b       10.3041
_cell_length_c       10.1034
_cell_angle_alpha    89.5322
_cell_angle_beta     90.0061
_cell_angle_gamma    90.0013

_symmetry_space_group_name_H-M    "P 1"
_symmetry_int_tables_number       1

loop_
  _symmetry_equiv_pos_as_xyz
  'x, y, z'

loop_
  _atom_site_label
  _atom_site_occupancy
  _atom_site_fract_x
  _atom_site_fract_y
  _atom_site_fract_z
  _atom_site_thermal_displace_type
  _atom_site_B_iso_or_equiv
  _atom_site_type_symbol
  Zr1      1.0000 0.24599  0.98598  0.11763  Biso   1.000  Zr
  Zr2      1.0000 0.23355  0.23998  0.40140  Biso   1.000  Zr
  Zr3      1.0000 0.80212  0.25010  0.12549  Biso   1.000  Zr
  Zr4      1.0000 0.74406  0.00689  0.37231  Biso   1.000  Zr
  O1       1.0000 0.08074  0.14670  0.00784  Biso   1.000  O
  O2       1.0000 0.02885  0.10160  0.25793  Biso   1.000  O
  O3       1.0000 0.08125  0.35331  0.24293  Biso   1.000  O
  O4       1.0000 0.02893  0.39851  0.99293  Biso   1.000  O
  O5       1.0000 0.54737  0.17565  0.27331  Biso   1.000  O
  O6       1.0000 0.58928  0.07613  0.03884  Biso   1.000  O
  O7       1.0000 0.54733  0.32451  0.97760  Biso   1.000  O
  O8       1.0000 0.58969  0.42404  0.21207  Biso   1.000  O
  Zr5      1.0000 0.22758  0.99649  0.63108  Biso   1.000  Zr
  Zr6      1.0000 0.23345  0.26015  0.84949  Biso   1.000  Zr
  Zr7      1.0000 0.71624  0.25002  0.62545  Biso   1.000  Zr
  Zr8      1.0000 0.73512  0.99317  0.87408  Biso   1.000  Zr
  O9       1.0000 0.95842  0.13757  0.50626  Biso   1.000  O
  O10      1.0000 0.99991  0.10560  0.76078  Biso   1.000  O
  O11      1.0000 0.95838  0.36257  0.74459  Biso   1.000  O
  O12      1.0000 0.00006  0.39456  0.49002  Biso   1.000  O
  O13      1.0000 0.50920  0.13867  0.76592  Biso   1.000  O
  O14      1.0000 0.47284  0.10185  0.50749  Biso   1.000  O
  O15      1.0000 0.50932  0.36148  0.48498  Biso   1.000  O
  O16      1.0000 0.47281  0.39826  0.74342  Biso   1.000  O
  Zr9      1.0000 0.24624  0.51408  0.13330  Biso   1.000  Zr
  Zr10     1.0000 0.23757  0.75842  0.37924  Biso   1.000  Zr
  Zr11     1.0000 0.74983  0.74995  0.12539  Biso   1.000  Zr
  Zr12     1.0000 0.73502  0.50708  0.37693  Biso   1.000  Zr
  O17      1.0000 0.98091  0.64187  0.00364  Biso   1.000  O
  O18      1.0000 0.99761  0.61185  0.25594  Biso   1.000  O
  O19      1.0000 0.98046  0.85820  0.24730  Biso   1.000  O
  O20      1.0000 0.99736  0.88818  0.99501  Biso   1.000  O
  O21      1.0000 0.48371  0.65817  0.24616  Biso   1.000  O
  O22      1.0000 0.47664  0.59537  0.98858  Biso   1.000  O
  O23      1.0000 0.48353  0.84196  0.00490  Biso   1.000  O
  O24      1.0000 0.47607  0.90484  0.26253  Biso   1.000  O
  Zr13     1.0000 0.22753  0.50361  0.61982  Biso   1.000  Zr
  Zr14     1.0000 0.23772  0.74172  0.87167  Biso   1.000  Zr
  Zr15     1.0000 0.73377  0.75010  0.62548  Biso   1.000  Zr
  Zr16     1.0000 0.74410  0.49325  0.87853  Biso   1.000  Zr
  O25      1.0000 0.97720  0.64681  0.50302  Biso   1.000  O
  O26      1.0000 0.99623  0.60402  0.75436  Biso   1.000  O
  O27      1.0000 0.97739  0.85334  0.74792  Biso   1.000  O
  O28      1.0000 0.99603  0.89612  0.49657  Biso   1.000  O
  O29      1.0000 0.48967  0.64399  0.74287  Biso   1.000  O
  O30      1.0000 0.47090  0.60857  0.49100  Biso   1.000  O
  O31      1.0000 0.48939  0.85612  0.50820  Biso   1.000  O
  O32      1.0000 0.47107  0.89160  0.76001  Biso   1.000  O
  Cu1      1.0000 0.32064  0.24996  0.12531  Biso   1.000  Cu
