data_image0
_cell_length_a       10.1728
_cell_length_b       10.2934
_cell_length_c       5.24574
_cell_angle_alpha    90.4536
_cell_angle_beta     80.6418
_cell_angle_gamma    89.5627

_symmetry_space_group_name_H-M    "P 1"
_symmetry_int_tables_number       1

loop_
  _symmetry_equiv_pos_as_xyz
  'x, y, z'

loop_
  _atom_site_label
  _atom_site_occupancy
  _atom_site_fract_x
  _atom_site_fract_y
  _atom_site_fract_z
  _atom_site_thermal_displace_type
  _atom_site_B_iso_or_equiv
  _atom_site_type_symbol
  Cu1      1.0000 0.12246  0.00800  0.33408  Biso   1.000  Cu
  Zr1      1.0000 0.14063  0.52200  0.29229  Biso   1.000  Zr
  Zr2      1.0000 0.63764  0.02318  0.29131  Biso   1.000  Zr
  Zr3      1.0000 0.63710  0.52008  0.29137  Biso   1.000  Zr
  Zr4      1.0000 0.14201  0.22525  0.77857  Biso   1.000  Zr
  Zr5      1.0000 0.13685  0.73016  0.79813  Biso   1.000  Zr
  Zr6      1.0000 0.64020  0.23092  0.79133  Biso   1.000  Zr
  Zr7      1.0000 0.63564  0.72871  0.79455  Biso   1.000  Zr
  Zr8      1.0000 0.35792  0.26859  0.19790  Biso   1.000  Zr
  Zr9      1.0000 0.35735  0.77674  0.21544  Biso   1.000  Zr
  Zr10     1.0000 0.86805  0.26645  0.21075  Biso   1.000  Zr
  Zr11     1.0000 0.86005  0.76947  0.21088  Biso   1.000  Zr
  Zr12     1.0000 0.36147  0.47966  0.70784  Biso   1.000  Zr
  Zr13     1.0000 0.35953  0.98255  0.70910  Biso   1.000  Zr
  Zr14     1.0000 0.86279  0.47740  0.71246  Biso   1.000  Zr
  Zr15     1.0000 0.85722  0.97707  0.71350  Biso   1.000  Zr
  O1       1.0000 0.04144  0.15395  0.13682  Biso   1.000  O
  O2       1.0000 0.03384  0.66751  0.16410  Biso   1.000  O
  O3       1.0000 0.53388  0.16770  0.15612  Biso   1.000  O
  O4       1.0000 0.53334  0.66817  0.15778  Biso   1.000  O
  O5       1.0000 0.03330  0.07992  0.64196  Biso   1.000  O
  O6       1.0000 0.03628  0.58166  0.66384  Biso   1.000  O
  O7       1.0000 0.53755  0.08328  0.65620  Biso   1.000  O
  O8       1.0000 0.53394  0.58402  0.65648  Biso   1.000  O
  O9       1.0000 0.46541  0.41582  0.34336  Biso   1.000  O
  O10      1.0000 0.46673  0.91703  0.34759  Biso   1.000  O
  O11      1.0000 0.97001  0.41330  0.34812  Biso   1.000  O
  O12      1.0000 0.96551  0.91836  0.34535  Biso   1.000  O
  O13      1.0000 0.47130  0.34055  0.84754  Biso   1.000  O
  O14      1.0000 0.45961  0.83346  0.84615  Biso   1.000  O
  O15      1.0000 0.96775  0.33013  0.84730  Biso   1.000  O
  O16      1.0000 0.96245  0.83172  0.84717  Biso   1.000  O
  O17      1.0000 0.26062  0.11515  0.44078  Biso   1.000  O
  O18      1.0000 0.27544  0.62962  0.48360  Biso   1.000  O
  O19      1.0000 0.77739  0.12802  0.48053  Biso   1.000  O
  O20      1.0000 0.77563  0.62778  0.48397  Biso   1.000  O
  O21      1.0000 0.29661  0.14283  0.92030  Biso   1.000  O
  O22      1.0000 0.27535  0.62635  0.98444  Biso   1.000  O
  O23      1.0000 0.77625  0.12093  0.98129  Biso   1.000  O
  O24      1.0000 0.77538  0.62156  0.98346  Biso   1.000  O
  O25      1.0000 0.22353  0.38315  0.01298  Biso   1.000  O
  O26      1.0000 0.22107  0.89702  0.04158  Biso   1.000  O
  O27      1.0000 0.72880  0.37752  0.02275  Biso   1.000  O
  O28      1.0000 0.72160  0.87826  0.02176  Biso   1.000  O
  O29      1.0000 0.22779  0.36778  0.51375  Biso   1.000  O
  O30      1.0000 0.22155  0.86916  0.53248  Biso   1.000  O
  O31      1.0000 0.72756  0.37090  0.52050  Biso   1.000  O
  O32      1.0000 0.72622  0.87113  0.52046  Biso   1.000  O
