data_image0
_cell_length_a       10.1068
_cell_length_b       5.11216
_cell_length_c       10.4873
_cell_angle_alpha    89.9759
_cell_angle_beta     90.3274
_cell_angle_gamma    89.0159

_symmetry_space_group_name_H-M    "P 1"
_symmetry_int_tables_number       1

loop_
  _symmetry_equiv_pos_as_xyz
  'x, y, z'

loop_
  _atom_site_label
  _atom_site_occupancy
  _atom_site_fract_x
  _atom_site_fract_y
  _atom_site_fract_z
  _atom_site_thermal_displace_type
  _atom_site_B_iso_or_equiv
  _atom_site_type_symbol
  Cu1      1.0000 0.12224  0.01422  0.18390  Biso   1.000  Cu
  Zr1      1.0000 0.13838  0.03822  0.67005  Biso   1.000  Zr
  Zr2      1.0000 0.13943  0.45973  0.41732  Biso   1.000  Zr
  Zr3      1.0000 0.14215  0.45293  0.92268  Biso   1.000  Zr
  Zr4      1.0000 0.35469  0.55453  0.16884  Biso   1.000  Zr
  Zr5      1.0000 0.36219  0.54546  0.67203  Biso   1.000  Zr
  Zr6      1.0000 0.35917  0.96944  0.41926  Biso   1.000  Zr
  Zr7      1.0000 0.36121  0.96768  0.92395  Biso   1.000  Zr
  Zr8      1.0000 0.63836  0.04144  0.07839  Biso   1.000  Zr
  Zr9      1.0000 0.63708  0.04030  0.58045  Biso   1.000  Zr
  Zr10     1.0000 0.63446  0.45724  0.32811  Biso   1.000  Zr
  Zr11     1.0000 0.64007  0.45936  0.83042  Biso   1.000  Zr
  Zr12     1.0000 0.86680  0.52472  0.08264  Biso   1.000  Zr
  Zr13     1.0000 0.85999  0.53576  0.57954  Biso   1.000  Zr
  Zr14     1.0000 0.85712  0.95265  0.33028  Biso   1.000  Zr
  Zr15     1.0000 0.86462  0.95067  0.83145  Biso   1.000  Zr
  O1       1.0000 0.04481  0.29792  0.08493  Biso   1.000  O
  O2       1.0000 0.02635  0.29835  0.56667  Biso   1.000  O
  O3       1.0000 0.03524  0.16561  0.32154  Biso   1.000  O
  O4       1.0000 0.03101  0.17957  0.82693  Biso   1.000  O
  O5       1.0000 0.46746  0.83640  0.08369  Biso   1.000  O
  O6       1.0000 0.46451  0.83983  0.58535  Biso   1.000  O
  O7       1.0000 0.46178  0.67124  0.33555  Biso   1.000  O
  O8       1.0000 0.46907  0.67336  0.83334  Biso   1.000  O
  O9       1.0000 0.27624  0.26378  0.29383  Biso   1.000  O
  O10      1.0000 0.27410  0.24357  0.78861  Biso   1.000  O
  O11      1.0000 0.29978  0.30954  0.02628  Biso   1.000  O
  O12      1.0000 0.27356  0.25566  0.54396  Biso   1.000  O
  O13      1.0000 0.21608  0.76786  0.29150  Biso   1.000  O
  O14      1.0000 0.22601  0.74716  0.79905  Biso   1.000  O
  O15      1.0000 0.21424  0.80281  0.05301  Biso   1.000  O
  O16      1.0000 0.22389  0.75021  0.54229  Biso   1.000  O
  O17      1.0000 0.53338  0.33855  0.16500  Biso   1.000  O
  O18      1.0000 0.53468  0.33803  0.66476  Biso   1.000  O
  O19      1.0000 0.53209  0.16754  0.41528  Biso   1.000  O
  O20      1.0000 0.53777  0.16324  0.91252  Biso   1.000  O
  O21      1.0000 0.96230  0.81563  0.17238  Biso   1.000  O
  O22      1.0000 0.97299  0.80388  0.67444  Biso   1.000  O
  O23      1.0000 0.96724  0.67417  0.42143  Biso   1.000  O
  O24      1.0000 0.97095  0.66638  0.92669  Biso   1.000  O
  O25      1.0000 0.77861  0.24250  0.95665  Biso   1.000  O
  O26      1.0000 0.77361  0.24549  0.45477  Biso   1.000  O
  O27      1.0000 0.77484  0.24662  0.20586  Biso   1.000  O
  O28      1.0000 0.77678  0.24629  0.70565  Biso   1.000  O
  O29      1.0000 0.72819  0.74134  0.95777  Biso   1.000  O
  O30      1.0000 0.72257  0.74425  0.45676  Biso   1.000  O
  O31      1.0000 0.72529  0.74795  0.20731  Biso   1.000  O
  O32      1.0000 0.72665  0.75093  0.70689  Biso   1.000  O
