data_image0
_cell_length_a       10.172
_cell_length_b       10.3285
_cell_length_c       10.4966
_cell_angle_alpha    90.2388
_cell_angle_beta     80.5123
_cell_angle_gamma    89.7856

_symmetry_space_group_name_H-M    "P 1"
_symmetry_int_tables_number       1

loop_
  _symmetry_equiv_pos_as_xyz
  'x, y, z'

loop_
  _atom_site_label
  _atom_site_occupancy
  _atom_site_fract_x
  _atom_site_fract_y
  _atom_site_fract_z
  _atom_site_thermal_displace_type
  _atom_site_B_iso_or_equiv
  _atom_site_type_symbol
  Cu1      1.0000 0.12397  0.00886  0.16920  Biso   1.000  Cu
  Zr1      1.0000 0.13755  0.02059  0.64282  Biso   1.000  Zr
  Zr2      1.0000 0.13919  0.52252  0.14499  Biso   1.000  Zr
  Zr3      1.0000 0.14035  0.52064  0.64627  Biso   1.000  Zr
  Zr4      1.0000 0.63819  0.02312  0.14463  Biso   1.000  Zr
  Zr5      1.0000 0.63800  0.02173  0.64601  Biso   1.000  Zr
  Zr6      1.0000 0.63733  0.52025  0.14465  Biso   1.000  Zr
  Zr7      1.0000 0.63872  0.52122  0.64633  Biso   1.000  Zr
  Zr8      1.0000 0.14014  0.22860  0.38945  Biso   1.000  Zr
  Zr9      1.0000 0.14133  0.22480  0.89601  Biso   1.000  Zr
  Zr10     1.0000 0.13771  0.72620  0.39773  Biso   1.000  Zr
  Zr11     1.0000 0.13860  0.73213  0.89652  Biso   1.000  Zr
  Zr12     1.0000 0.63896  0.22891  0.39466  Biso   1.000  Zr
  Zr13     1.0000 0.64026  0.23100  0.89594  Biso   1.000  Zr
  Zr14     1.0000 0.63841  0.72754  0.39551  Biso   1.000  Zr
  Zr15     1.0000 0.63610  0.72995  0.89692  Biso   1.000  Zr
  Zr16     1.0000 0.35804  0.26790  0.10029  Biso   1.000  Zr
  Zr17     1.0000 0.36078  0.27154  0.60340  Biso   1.000  Zr
  Zr18     1.0000 0.35731  0.77548  0.10630  Biso   1.000  Zr
  Zr19     1.0000 0.36171  0.77213  0.60678  Biso   1.000  Zr
  Zr20     1.0000 0.86776  0.26705  0.10574  Biso   1.000  Zr
  Zr21     1.0000 0.86130  0.27106  0.60391  Biso   1.000  Zr
  Zr22     1.0000 0.86159  0.77067  0.10348  Biso   1.000  Zr
  Zr23     1.0000 0.85976  0.76997  0.60639  Biso   1.000  Zr
  Zr24     1.0000 0.36197  0.47800  0.35331  Biso   1.000  Zr
  Zr25     1.0000 0.36093  0.48012  0.85510  Biso   1.000  Zr
  Zr26     1.0000 0.36018  0.97698  0.35290  Biso   1.000  Zr
  Zr27     1.0000 0.36030  0.98494  0.85691  Biso   1.000  Zr
  Zr28     1.0000 0.86082  0.47823  0.35405  Biso   1.000  Zr
  Zr29     1.0000 0.86327  0.47781  0.85660  Biso   1.000  Zr
  Zr30     1.0000 0.85757  0.97615  0.35661  Biso   1.000  Zr
  Zr31     1.0000 0.86093  0.97959  0.85457  Biso   1.000  Zr
  O1       1.0000 0.04263  0.16395  0.08062  Biso   1.000  O
  O2       1.0000 0.03254  0.16166  0.56944  Biso   1.000  O
  O3       1.0000 0.03581  0.67096  0.08123  Biso   1.000  O
  O4       1.0000 0.03407  0.66640  0.58155  Biso   1.000  O
  O5       1.0000 0.53519  0.16921  0.07932  Biso   1.000  O
  O6       1.0000 0.53544  0.16915  0.57919  Biso   1.000  O
  O7       1.0000 0.53409  0.66963  0.08005  Biso   1.000  O
  O8       1.0000 0.53578  0.66891  0.57960  Biso   1.000  O
  O9       1.0000 0.03610  0.07696  0.32478  Biso   1.000  O
  O10      1.0000 0.03361  0.08364  0.82497  Biso   1.000  O
  O11      1.0000 0.03577  0.57911  0.33109  Biso   1.000  O
  O12      1.0000 0.03660  0.58275  0.83151  Biso   1.000  O
  O13      1.0000 0.53289  0.08300  0.32847  Biso   1.000  O
  O14      1.0000 0.53878  0.08166  0.82977  Biso   1.000  O
  O15      1.0000 0.53596  0.57980  0.33046  Biso   1.000  O
  O16      1.0000 0.53427  0.58405  0.82878  Biso   1.000  O
  O17      1.0000 0.46469  0.41781  0.16988  Biso   1.000  O
  O18      1.0000 0.46479  0.41885  0.67024  Biso   1.000  O
  O19      1.0000 0.46661  0.91701  0.17190  Biso   1.000  O
  O20      1.0000 0.46433  0.92011  0.67057  Biso   1.000  O
  O21      1.0000 0.96591  0.41953  0.17019  Biso   1.000  O
  O22      1.0000 0.96764  0.41461  0.67241  Biso   1.000  O
  O23      1.0000 0.96555  0.92161  0.17151  Biso   1.000  O
  O24      1.0000 0.96434  0.91615  0.67143  Biso   1.000  O
  O25      1.0000 0.46500  0.33155  0.42022  Biso   1.000  O
  O26      1.0000 0.46982  0.33807  0.92148  Biso   1.000  O
  O27      1.0000 0.46465  0.83107  0.42036  Biso   1.000  O
  O28      1.0000 0.45849  0.83216  0.92155  Biso   1.000  O
  O29      1.0000 0.96430  0.32888  0.41785  Biso   1.000  O
  O30      1.0000 0.96767  0.33131  0.92421  Biso   1.000  O
  O31      1.0000 0.96384  0.83065  0.42205  Biso   1.000  O
  O32      1.0000 0.96368  0.83211  0.92143  Biso   1.000  O
  O33      1.0000 0.26441  0.11705  0.22912  Biso   1.000  O
  O34      1.0000 0.27403  0.12711  0.73301  Biso   1.000  O
  O35      1.0000 0.27589  0.62812  0.24126  Biso   1.000  O
  O36      1.0000 0.27584  0.62992  0.74112  Biso   1.000  O
  O37      1.0000 0.77542  0.12726  0.24128  Biso   1.000  O
  O38      1.0000 0.77732  0.12984  0.73948  Biso   1.000  O
  O39      1.0000 0.77591  0.62871  0.24030  Biso   1.000  O
  O40      1.0000 0.77589  0.62848  0.74222  Biso   1.000  O
  O41      1.0000 0.27609  0.12250  0.48350  Biso   1.000  O
  O42      1.0000 0.29367  0.13875  0.97135  Biso   1.000  O
  O43      1.0000 0.27643  0.62004  0.49182  Biso   1.000  O
  O44      1.0000 0.27518  0.62666  0.99101  Biso   1.000  O
  O45      1.0000 0.77584  0.12004  0.48992  Biso   1.000  O
  O46      1.0000 0.77679  0.12193  0.99079  Biso   1.000  O
  O47      1.0000 0.77572  0.62022  0.49105  Biso   1.000  O
  O48      1.0000 0.77605  0.62257  0.99100  Biso   1.000  O
  O49      1.0000 0.22475  0.38389  0.00843  Biso   1.000  O
  O50      1.0000 0.22248  0.37760  0.50745  Biso   1.000  O
  O51      1.0000 0.22041  0.89701  0.02088  Biso   1.000  O
  O52      1.0000 0.22445  0.87784  0.51100  Biso   1.000  O
  O53      1.0000 0.72761  0.37885  0.01022  Biso   1.000  O
  O54      1.0000 0.72468  0.37806  0.50995  Biso   1.000  O
  O55      1.0000 0.72321  0.87976  0.00990  Biso   1.000  O
  O56      1.0000 0.72248  0.87753  0.51022  Biso   1.000  O
  O57      1.0000 0.22622  0.36787  0.25737  Biso   1.000  O
  O58      1.0000 0.22571  0.37052  0.75918  Biso   1.000  O
  O59      1.0000 0.22218  0.86655  0.26313  Biso   1.000  O
  O60      1.0000 0.22377  0.87245  0.76298  Biso   1.000  O
  O61      1.0000 0.72564  0.36983  0.25950  Biso   1.000  O
  O62      1.0000 0.72570  0.37244  0.75996  Biso   1.000  O
  O63      1.0000 0.72741  0.87120  0.25901  Biso   1.000  O
  O64      1.0000 0.72293  0.87140  0.76049  Biso   1.000  O
