data_image0
_cell_length_a       10.1333
_cell_length_b       10.3432
_cell_length_c       5.09752
_cell_angle_alpha    91.1007
_cell_angle_beta     89.4647
_cell_angle_gamma    90.5256

_symmetry_space_group_name_H-M    "P 1"
_symmetry_int_tables_number       1

loop_
  _symmetry_equiv_pos_as_xyz
  'x, y, z'

loop_
  _atom_site_label
  _atom_site_occupancy
  _atom_site_fract_x
  _atom_site_fract_y
  _atom_site_fract_z
  _atom_site_thermal_displace_type
  _atom_site_B_iso_or_equiv
  _atom_site_type_symbol
  Zr1      1.0000 0.14594  0.96984  0.30538  Biso   1.000  Zr
  Zr2      1.0000 0.11213  0.26076  0.64506  Biso   1.000  Zr
  Zr3      1.0000 0.38143  0.24112  0.23789  Biso   1.000  Zr
  Zr4      1.0000 0.39789  0.00783  0.75252  Biso   1.000  Zr
  O1       1.0000 0.99713  0.15530  0.91963  Biso   1.000  O
  O2       1.0000 0.99398  0.10134  0.44581  Biso   1.000  O
  O3       1.0000 0.96931  0.37231  0.47157  Biso   1.000  O
  O4       1.0000 0.00065  0.40211  0.96683  Biso   1.000  O
  O5       1.0000 0.25681  0.12735  0.54610  Biso   1.000  O
  O6       1.0000 0.27920  0.06661  0.06490  Biso   1.000  O
  O7       1.0000 0.26162  0.31811  0.92785  Biso   1.000  O
  O8       1.0000 0.24224  0.39534  0.45208  Biso   1.000  O
  Zr5      1.0000 0.10383  0.50850  0.25484  Biso   1.000  Zr
  Zr6      1.0000 0.13069  0.73707  0.78009  Biso   1.000  Zr
  Zr7      1.0000 0.38855  0.75145  0.30831  Biso   1.000  Zr
  Zr8      1.0000 0.36281  0.48634  0.74207  Biso   1.000  Zr
  O9       1.0000 0.98884  0.65113  0.03078  Biso   1.000  O
  O10      1.0000 0.00235  0.60981  0.53364  Biso   1.000  O
  O11      1.0000 0.01017  0.85066  0.52874  Biso   1.000  O
  O12      1.0000 0.00723  0.90238  0.02447  Biso   1.000  O
  O13      1.0000 0.25123  0.63682  0.49774  Biso   1.000  O
  O14      1.0000 0.22521  0.57421  0.96686  Biso   1.000  O
  O15      1.0000 0.23734  0.81614  0.09034  Biso   1.000  O
  O16      1.0000 0.26215  0.87964  0.58210  Biso   1.000  O
  Zr9      1.0000 0.64052  0.01555  0.23090  Biso   1.000  Zr
  Zr10     1.0000 0.62964  0.26281  0.73039  Biso   1.000  Zr
  Zr11     1.0000 0.88055  0.25016  0.19330  Biso   1.000  Zr
  Zr12     1.0000 0.89429  0.99519  0.75448  Biso   1.000  Zr
  O17      1.0000 0.51255  0.14774  0.98207  Biso   1.000  O
  O18      1.0000 0.50497  0.10923  0.48145  Biso   1.000  O
  O19      1.0000 0.48811  0.35447  0.50122  Biso   1.000  O
  O20      1.0000 0.49341  0.39361  0.00456  Biso   1.000  O
  O21      1.0000 0.73994  0.17844  0.44273  Biso   1.000  O
  O22      1.0000 0.75576  0.11192  0.95358  Biso   1.000  O
  O23      1.0000 0.74528  0.36564  0.01609  Biso   1.000  O
  O24      1.0000 0.72118  0.42844  0.54757  Biso   1.000  O
  Zr13     1.0000 0.61041  0.49879  0.25290  Biso   1.000  Zr
  Zr14     1.0000 0.61419  0.74533  0.79869  Biso   1.000  Zr
  Zr15     1.0000 0.86777  0.76648  0.26681  Biso   1.000  Zr
  Zr16     1.0000 0.86469  0.51560  0.76550  Biso   1.000  Zr
  O25      1.0000 0.48546  0.63952  0.02989  Biso   1.000  O
  O26      1.0000 0.50177  0.60782  0.53234  Biso   1.000  O
  O27      1.0000 0.51600  0.86134  0.53446  Biso   1.000  O
  O28      1.0000 0.50063  0.89286  0.03345  Biso   1.000  O
  O29      1.0000 0.75992  0.67633  0.55151  Biso   1.000  O
  O30      1.0000 0.73853  0.61585  0.04252  Biso   1.000  O
  O31      1.0000 0.75530  0.86352  0.98205  Biso   1.000  O
  O32      1.0000 0.77272  0.92745  0.46008  Biso   1.000  O
  Cu1      1.0000 0.14309  0.20527  0.12721  Biso   1.000  Cu
