data_image0
_cell_length_a       10
_cell_length_b       10.3952
_cell_length_c       5.03473
_cell_angle_alpha    90.2642
_cell_angle_beta     88.7651
_cell_angle_gamma    89.8919

_symmetry_space_group_name_H-M    "P 1"
_symmetry_int_tables_number       1

loop_
  _symmetry_equiv_pos_as_xyz
  'x, y, z'

loop_
  _atom_site_label
  _atom_site_occupancy
  _atom_site_fract_x
  _atom_site_fract_y
  _atom_site_fract_z
  _atom_site_thermal_displace_type
  _atom_site_B_iso_or_equiv
  _atom_site_type_symbol
  Cu1      1.0000 0.11578  0.02585  0.20066  Biso   1.000  Cu
  Zr1      1.0000 0.13536  0.51593  0.25497  Biso   1.000  Zr
  Zr2      1.0000 0.63112  0.01514  0.24400  Biso   1.000  Zr
  Zr3      1.0000 0.63390  0.51710  0.25416  Biso   1.000  Zr
  Zr4      1.0000 0.13862  0.23310  0.74956  Biso   1.000  Zr
  Zr5      1.0000 0.13371  0.73446  0.76021  Biso   1.000  Zr
  Zr6      1.0000 0.63228  0.23327  0.74832  Biso   1.000  Zr
  Zr7      1.0000 0.63216  0.73657  0.75067  Biso   1.000  Zr
  Zr8      1.0000 0.36654  0.26546  0.26085  Biso   1.000  Zr
  Zr9      1.0000 0.36361  0.76871  0.26802  Biso   1.000  Zr
  Zr10     1.0000 0.86391  0.26393  0.24181  Biso   1.000  Zr
  Zr11     1.0000 0.87129  0.76483  0.23550  Biso   1.000  Zr
  Zr12     1.0000 0.36649  0.48583  0.75560  Biso   1.000  Zr
  Zr13     1.0000 0.35699  0.98437  0.76662  Biso   1.000  Zr
  Zr14     1.0000 0.86602  0.48377  0.74774  Biso   1.000  Zr
  Zr15     1.0000 0.86593  0.98527  0.73356  Biso   1.000  Zr
  O1       1.0000 0.04074  0.17140  0.37137  Biso   1.000  O
  O2       1.0000 0.03488  0.68311  0.39283  Biso   1.000  O
  O3       1.0000 0.54192  0.18797  0.38045  Biso   1.000  O
  O4       1.0000 0.53367  0.68378  0.39954  Biso   1.000  O
  O5       1.0000 0.03723  0.06496  0.84417  Biso   1.000  O
  O6       1.0000 0.03294  0.56454  0.89698  Biso   1.000  O
  O7       1.0000 0.53044  0.06877  0.89470  Biso   1.000  O
  O8       1.0000 0.53568  0.56721  0.89329  Biso   1.000  O
  O9       1.0000 0.46392  0.43375  0.39286  Biso   1.000  O
  O10      1.0000 0.46884  0.93331  0.40766  Biso   1.000  O
  O11      1.0000 0.96693  0.42517  0.38796  Biso   1.000  O
  O12      1.0000 0.97340  0.93823  0.35366  Biso   1.000  O
  O13      1.0000 0.46229  0.31557  0.88861  Biso   1.000  O
  O14      1.0000 0.46173  0.81922  0.90726  Biso   1.000  O
  O15      1.0000 0.96363  0.31442  0.88093  Biso   1.000  O
  O16      1.0000 0.95917  0.81540  0.86802  Biso   1.000  O
  O17      1.0000 0.28995  0.13258  0.53545  Biso   1.000  O
  O18      1.0000 0.26798  0.61486  0.50429  Biso   1.000  O
  O19      1.0000 0.76967  0.11633  0.48634  Biso   1.000  O
  O20      1.0000 0.77029  0.61599  0.49468  Biso   1.000  O
  O21      1.0000 0.25369  0.12584  0.03337  Biso   1.000  O
  O22      1.0000 0.26938  0.63504  0.00568  Biso   1.000  O
  O23      1.0000 0.77105  0.13175  0.98509  Biso   1.000  O
  O24      1.0000 0.76762  0.63400  0.99504  Biso   1.000  O
  O25      1.0000 0.23074  0.38097  0.00053  Biso   1.000  O
  O26      1.0000 0.21596  0.88767  0.03744  Biso   1.000  O
  O27      1.0000 0.73021  0.38184  0.99846  Biso   1.000  O
  O28      1.0000 0.72821  0.88379  0.98552  Biso   1.000  O
  O29      1.0000 0.22721  0.37062  0.49946  Biso   1.000  O
  O30      1.0000 0.24094  0.86035  0.53775  Biso   1.000  O
  O31      1.0000 0.73028  0.36742  0.49696  Biso   1.000  O
  O32      1.0000 0.73825  0.86610  0.48470  Biso   1.000  O
