data_image0
_cell_length_a       10.1284
_cell_length_b       10.3465
_cell_length_c       5.28555
_cell_angle_alpha    89.812
_cell_angle_beta     90.8127
_cell_angle_gamma    90.0574

_symmetry_space_group_name_H-M    "P 1"
_symmetry_int_tables_number       1

loop_
  _symmetry_equiv_pos_as_xyz
  'x, y, z'

loop_
  _atom_site_label
  _atom_site_occupancy
  _atom_site_fract_x
  _atom_site_fract_y
  _atom_site_fract_z
  _atom_site_thermal_displace_type
  _atom_site_B_iso_or_equiv
  _atom_site_type_symbol
  Zr1      1.0000 0.13997  0.02010  0.34669  Biso   1.000  Zr
  Zr2      1.0000 0.13741  0.22692  0.85069  Biso   1.000  Zr
  Zr3      1.0000 0.35240  0.26984  0.36415  Biso   1.000  Zr
  Zr4      1.0000 0.36093  0.48044  0.84661  Biso   1.000  Zr
  Zr5      1.0000 0.64275  0.02146  0.14831  Biso   1.000  Zr
  Zr6      1.0000 0.64277  0.22438  0.66079  Biso   1.000  Zr
  Zr7      1.0000 0.86110  0.26856  0.15593  Biso   1.000  Zr
  Zr8      1.0000 0.86439  0.47905  0.65630  Biso   1.000  Zr
  O1       1.0000 0.03374  0.16383  0.16930  Biso   1.000  O
  O2       1.0000 0.03485  0.08399  0.66626  Biso   1.000  O
  O3       1.0000 0.46597  0.42109  0.18152  Biso   1.000  O
  O4       1.0000 0.46856  0.33451  0.67462  Biso   1.000  O
  O5       1.0000 0.27417  0.12452  0.60012  Biso   1.000  O
  O6       1.0000 0.27662  0.12452  0.09815  Biso   1.000  O
  O7       1.0000 0.22287  0.37454  0.60057  Biso   1.000  O
  O8       1.0000 0.22528  0.37537  0.09854  Biso   1.000  O
  O9       1.0000 0.52284  0.15351  0.35595  Biso   1.000  O
  O10      1.0000 0.53395  0.07619  0.82938  Biso   1.000  O
  O11      1.0000 0.96757  0.41350  0.33719  Biso   1.000  O
  O12      1.0000 0.96901  0.33512  0.83681  Biso   1.000  O
  O13      1.0000 0.78848  0.11862  0.89769  Biso   1.000  O
  O14      1.0000 0.77683  0.12429  0.40692  Biso   1.000  O
  O15      1.0000 0.72944  0.38010  0.90700  Biso   1.000  O
  O16      1.0000 0.72338  0.37634  0.40787  Biso   1.000  O
  Zr9      1.0000 0.13809  0.52084  0.34340  Biso   1.000  Zr
  Zr10     1.0000 0.14011  0.72849  0.84442  Biso   1.000  Zr
  Zr11     1.0000 0.36218  0.77188  0.34694  Biso   1.000  Zr
  Zr12     1.0000 0.36227  0.97628  0.85097  Biso   1.000  Zr
  Zr13     1.0000 0.64288  0.53119  0.15816  Biso   1.000  Zr
  Zr14     1.0000 0.64051  0.73108  0.65697  Biso   1.000  Zr
  Zr15     1.0000 0.86446  0.77259  0.15740  Biso   1.000  Zr
  Zr16     1.0000 0.86369  0.97717  0.65530  Biso   1.000  Zr
  O17      1.0000 0.03375  0.66342  0.16531  Biso   1.000  O
  O18      1.0000 0.03409  0.58520  0.66576  Biso   1.000  O
  O19      1.0000 0.46958  0.91165  0.16713  Biso   1.000  O
  O20      1.0000 0.46853  0.83348  0.66816  Biso   1.000  O
  O21      1.0000 0.27624  0.62313  0.59201  Biso   1.000  O
  O22      1.0000 0.27633  0.62454  0.09215  Biso   1.000  O
  O23      1.0000 0.22614  0.87339  0.59514  Biso   1.000  O
  O24      1.0000 0.22458  0.87409  0.09606  Biso   1.000  O
  O25      1.0000 0.53388  0.66623  0.33682  Biso   1.000  O
  O26      1.0000 0.53295  0.58642  0.83730  Biso   1.000  O
  O27      1.0000 0.97076  0.91388  0.33336  Biso   1.000  O
  O28      1.0000 0.97014  0.83423  0.83555  Biso   1.000  O
  O29      1.0000 0.77738  0.62667  0.90844  Biso   1.000  O
  O30      1.0000 0.77829  0.62726  0.40938  Biso   1.000  O
  O31      1.0000 0.72696  0.87357  0.91006  Biso   1.000  O
  O32      1.0000 0.72757  0.87432  0.40916  Biso   1.000  O
  Cu1      1.0000 0.58206  0.27841  0.11782  Biso   1.000  Cu
