data_image0
_cell_length_a       10.2452
_cell_length_b       10.3846
_cell_length_c       5.28673
_cell_angle_alpha    90.2941
_cell_angle_beta     79.5395
_cell_angle_gamma    90.1554

_symmetry_space_group_name_H-M    "P 1"
_symmetry_int_tables_number       1

loop_
  _symmetry_equiv_pos_as_xyz
  'x, y, z'

loop_
  _atom_site_label
  _atom_site_occupancy
  _atom_site_fract_x
  _atom_site_fract_y
  _atom_site_fract_z
  _atom_site_thermal_displace_type
  _atom_site_B_iso_or_equiv
  _atom_site_type_symbol
  Zr1      1.0000 0.13632  0.02239  0.28909  Biso   1.000  Zr
  Zr2      1.0000 0.13663  0.23111  0.78828  Biso   1.000  Zr
  Zr3      1.0000 0.35701  0.27648  0.20914  Biso   1.000  Zr
  Zr4      1.0000 0.35678  0.47915  0.69934  Biso   1.000  Zr
  O1       1.0000 0.03565  0.17009  0.15776  Biso   1.000  O
  O2       1.0000 0.03373  0.08193  0.65686  Biso   1.000  O
  O3       1.0000 0.46313  0.42497  0.33852  Biso   1.000  O
  O4       1.0000 0.47611  0.34424  0.85699  Biso   1.000  O
  O5       1.0000 0.27334  0.12609  0.47896  Biso   1.000  O
  O6       1.0000 0.27689  0.12071  0.97630  Biso   1.000  O
  O7       1.0000 0.22412  0.37987  0.01046  Biso   1.000  O
  O8       1.0000 0.21055  0.37624  0.50666  Biso   1.000  O
  Zr5      1.0000 0.13721  0.52287  0.28645  Biso   1.000  Zr
  Zr6      1.0000 0.13534  0.72696  0.79283  Biso   1.000  Zr
  Zr7      1.0000 0.35976  0.76963  0.21069  Biso   1.000  Zr
  Zr8      1.0000 0.35747  0.96787  0.71375  Biso   1.000  Zr
  O9       1.0000 0.03063  0.66868  0.15744  Biso   1.000  O
  O10      1.0000 0.03210  0.58388  0.65632  Biso   1.000  O
  O11      1.0000 0.46452  0.91666  0.34733  Biso   1.000  O
  O12      1.0000 0.46414  0.83039  0.84637  Biso   1.000  O
  O13      1.0000 0.27352  0.62870  0.48040  Biso   1.000  O
  O14      1.0000 0.27330  0.62250  0.98019  Biso   1.000  O
  O15      1.0000 0.22253  0.87721  0.02247  Biso   1.000  O
  O16      1.0000 0.22203  0.86951  0.52094  Biso   1.000  O
  Zr9      1.0000 0.63864  0.02082  0.29516  Biso   1.000  Zr
  Zr10     1.0000 0.64937  0.23019  0.80785  Biso   1.000  Zr
  Zr11     1.0000 0.86198  0.27297  0.21664  Biso   1.000  Zr
  Zr12     1.0000 0.86062  0.47955  0.71181  Biso   1.000  Zr
  O17      1.0000 0.53372  0.16843  0.16526  Biso   1.000  O
  O18      1.0000 0.53665  0.07741  0.67275  Biso   1.000  O
  O19      1.0000 0.96247  0.42051  0.34152  Biso   1.000  O
  O20      1.0000 0.96291  0.33308  0.84340  Biso   1.000  O
  O21      1.0000 0.77533  0.12946  0.48782  Biso   1.000  O
  O22      1.0000 0.77810  0.12034  0.98975  Biso   1.000  O
  O23      1.0000 0.72553  0.37853  0.02929  Biso   1.000  O
  O24      1.0000 0.72309  0.37190  0.52736  Biso   1.000  O
  Zr13     1.0000 0.63778  0.52387  0.29726  Biso   1.000  Zr
  Zr14     1.0000 0.63819  0.72734  0.79419  Biso   1.000  Zr
  Zr15     1.0000 0.85885  0.77224  0.21080  Biso   1.000  Zr
  Zr16     1.0000 0.86122  0.97760  0.71068  Biso   1.000  Zr
  O25      1.0000 0.53381  0.66891  0.16015  Biso   1.000  O
  O26      1.0000 0.53210  0.58549  0.65820  Biso   1.000  O
  O27      1.0000 0.96383  0.91853  0.34214  Biso   1.000  O
  O28      1.0000 0.96345  0.83277  0.84318  Biso   1.000  O
  O29      1.0000 0.77516  0.63034  0.48452  Biso   1.000  O
  O30      1.0000 0.77390  0.62166  0.98386  Biso   1.000  O
  O31      1.0000 0.72263  0.87964  0.02331  Biso   1.000  O
  O32      1.0000 0.72275  0.87232  0.52317  Biso   1.000  O
  Cu1      1.0000 0.41643  0.21810  0.64639  Biso   1.000  Cu
