data_image0
_cell_length_a       10.0945
_cell_length_b       10.4651
_cell_length_c       5.06747
_cell_angle_alpha    89.9147
_cell_angle_beta     89.5356
_cell_angle_gamma    89.9389

_symmetry_space_group_name_H-M    "P 1"
_symmetry_int_tables_number       1

loop_
  _symmetry_equiv_pos_as_xyz
  'x, y, z'

loop_
  _atom_site_label
  _atom_site_occupancy
  _atom_site_fract_x
  _atom_site_fract_y
  _atom_site_fract_z
  _atom_site_thermal_displace_type
  _atom_site_B_iso_or_equiv
  _atom_site_type_symbol
  Zr1      1.0000 0.13656  0.01661  0.25738  Biso   1.000  Zr
  Zr2      1.0000 0.13648  0.22638  0.78104  Biso   1.000  Zr
  Zr3      1.0000 0.36887  0.26555  0.24879  Biso   1.000  Zr
  Zr4      1.0000 0.37026  0.48604  0.74593  Biso   1.000  Zr
  O1       1.0000 0.00814  0.16063  0.46410  Biso   1.000  O
  O2       1.0000 0.03378  0.06298  0.92310  Biso   1.000  O
  O3       1.0000 0.46731  0.43268  0.38978  Biso   1.000  O
  O4       1.0000 0.46526  0.31674  0.88574  Biso   1.000  O
  O5       1.0000 0.26633  0.11798  0.50542  Biso   1.000  O
  O6       1.0000 0.28400  0.12420  0.99762  Biso   1.000  O
  O7       1.0000 0.23701  0.38852  0.99827  Biso   1.000  O
  O8       1.0000 0.23190  0.36747  0.50333  Biso   1.000  O
  Zr5      1.0000 0.13709  0.52971  0.24429  Biso   1.000  Zr
  Zr6      1.0000 0.13451  0.73822  0.74844  Biso   1.000  Zr
  Zr7      1.0000 0.36972  0.76653  0.24756  Biso   1.000  Zr
  Zr8      1.0000 0.36816  0.98208  0.75010  Biso   1.000  Zr
  O9       1.0000 0.03491  0.68392  0.39116  Biso   1.000  O
  O10      1.0000 0.03603  0.56969  0.88763  Biso   1.000  O
  O11      1.0000 0.46608  0.93262  0.38622  Biso   1.000  O
  O12      1.0000 0.47029  0.81756  0.89177  Biso   1.000  O
  O13      1.0000 0.27263  0.61994  0.49419  Biso   1.000  O
  O14      1.0000 0.27062  0.63686  0.99215  Biso   1.000  O
  O15      1.0000 0.23191  0.88177  0.99879  Biso   1.000  O
  O16      1.0000 0.23476  0.86678  0.49786  Biso   1.000  O
  Zr9      1.0000 0.63250  0.01152  0.23778  Biso   1.000  Zr
  Zr10     1.0000 0.63029  0.23199  0.74177  Biso   1.000  Zr
  Zr11     1.0000 0.85184  0.26145  0.24205  Biso   1.000  Zr
  Zr12     1.0000 0.86899  0.48169  0.74833  Biso   1.000  Zr
  O17      1.0000 0.53409  0.18167  0.38276  Biso   1.000  O
  O18      1.0000 0.53768  0.06488  0.88098  Biso   1.000  O
  O19      1.0000 0.96859  0.42889  0.38036  Biso   1.000  O
  O20      1.0000 0.96156  0.31873  0.88785  Biso   1.000  O
  O21      1.0000 0.76057  0.11179  0.48556  Biso   1.000  O
  O22      1.0000 0.76796  0.13378  0.98392  Biso   1.000  O
  O23      1.0000 0.72729  0.38195  0.99326  Biso   1.000  O
  O24      1.0000 0.73003  0.36661  0.49383  Biso   1.000  O
  Zr13     1.0000 0.63490  0.51680  0.24793  Biso   1.000  Zr
  Zr14     1.0000 0.63798  0.73430  0.74544  Biso   1.000  Zr
  Zr15     1.0000 0.86667  0.76574  0.24238  Biso   1.000  Zr
  Zr16     1.0000 0.87318  0.98770  0.73414  Biso   1.000  Zr
  O25      1.0000 0.53681  0.68289  0.39104  Biso   1.000  O
  O26      1.0000 0.53545  0.56812  0.89128  Biso   1.000  O
  O27      1.0000 0.97045  0.92422  0.39517  Biso   1.000  O
  O28      1.0000 0.96655  0.81780  0.88797  Biso   1.000  O
  O29      1.0000 0.77175  0.61464  0.49161  Biso   1.000  O
  O30      1.0000 0.77005  0.63210  0.99171  Biso   1.000  O
  O31      1.0000 0.73570  0.88437  0.98642  Biso   1.000  O
  O32      1.0000 0.73244  0.86469  0.48741  Biso   1.000  O
  Cu1      1.0000 0.09801  0.28932  0.27393  Biso   1.000  Cu
