data_image0
_cell_length_a       10.1174
_cell_length_b       5.17754
_cell_length_c       10.5658
_cell_angle_alpha    89.7642
_cell_angle_beta     90.6748
_cell_angle_gamma    90.1027

_symmetry_space_group_name_H-M    "P 1"
_symmetry_int_tables_number       1

loop_
  _symmetry_equiv_pos_as_xyz
  'x, y, z'

loop_
  _atom_site_label
  _atom_site_occupancy
  _atom_site_fract_x
  _atom_site_fract_y
  _atom_site_fract_z
  _atom_site_thermal_displace_type
  _atom_site_B_iso_or_equiv
  _atom_site_type_symbol
  Zr1      1.0000 0.13681  0.04223  0.17231  Biso   1.000  Zr
  Zr2      1.0000 0.13737  0.45444  0.42459  Biso   1.000  Zr
  Zr3      1.0000 0.35173  0.54327  0.17985  Biso   1.000  Zr
  Zr4      1.0000 0.36182  0.95608  0.42526  Biso   1.000  Zr
  Zr5      1.0000 0.64605  0.06818  0.07406  Biso   1.000  Zr
  Zr6      1.0000 0.63923  0.45833  0.33423  Biso   1.000  Zr
  Zr7      1.0000 0.86210  0.54102  0.07918  Biso   1.000  Zr
  Zr8      1.0000 0.86096  0.95646  0.32915  Biso   1.000  Zr
  O1       1.0000 0.03387  0.32889  0.08396  Biso   1.000  O
  O2       1.0000 0.03162  0.16913  0.33385  Biso   1.000  O
  O3       1.0000 0.46428  0.84283  0.08950  Biso   1.000  O
  O4       1.0000 0.46669  0.67027  0.33614  Biso   1.000  O
  O5       1.0000 0.27247  0.24892  0.29849  Biso   1.000  O
  O6       1.0000 0.27672  0.25068  0.04673  Biso   1.000  O
  O7       1.0000 0.22189  0.74944  0.29957  Biso   1.000  O
  O8       1.0000 0.22308  0.75078  0.04870  Biso   1.000  O
  O9       1.0000 0.52329  0.31703  0.17812  Biso   1.000  O
  O10      1.0000 0.53198  0.17120  0.42036  Biso   1.000  O
  O11      1.0000 0.96605  0.83076  0.16837  Biso   1.000  O
  O12      1.0000 0.96763  0.66854  0.41848  Biso   1.000  O
  O13      1.0000 0.77578  0.24687  0.45542  Biso   1.000  O
  O14      1.0000 0.77697  0.25796  0.20833  Biso   1.000  O
  O15      1.0000 0.72518  0.74727  0.45640  Biso   1.000  O
  O16      1.0000 0.72283  0.75600  0.20638  Biso   1.000  O
  Zr9      1.0000 0.14171  0.03915  0.67267  Biso   1.000  Zr
  Zr10     1.0000 0.14005  0.45584  0.92260  Biso   1.000  Zr
  Zr11     1.0000 0.36383  0.53937  0.67445  Biso   1.000  Zr
  Zr12     1.0000 0.36101  0.95712  0.92271  Biso   1.000  Zr
  Zr13     1.0000 0.64080  0.03900  0.57933  Biso   1.000  Zr
  Zr14     1.0000 0.64393  0.44939  0.82359  Biso   1.000  Zr
  Zr15     1.0000 0.86374  0.54015  0.57964  Biso   1.000  Zr
  Zr16     1.0000 0.86651  0.95419  0.82811  Biso   1.000  Zr
  O17      1.0000 0.03368  0.32551  0.58401  Biso   1.000  O
  O18      1.0000 0.03747  0.16749  0.83284  Biso   1.000  O
  O19      1.0000 0.46983  0.82605  0.58486  Biso   1.000  O
  O20      1.0000 0.47051  0.66441  0.83549  Biso   1.000  O
  O21      1.0000 0.27840  0.24641  0.79661  Biso   1.000  O
  O22      1.0000 0.27636  0.24791  0.54731  Biso   1.000  O
  O23      1.0000 0.22713  0.74582  0.79754  Biso   1.000  O
  O24      1.0000 0.22646  0.74760  0.54808  Biso   1.000  O
  O25      1.0000 0.53372  0.32498  0.66652  Biso   1.000  O
  O26      1.0000 0.53575  0.15348  0.91183  Biso   1.000  O
  O27      1.0000 0.97168  0.82491  0.66722  Biso   1.000  O
  O28      1.0000 0.97069  0.66994  0.91872  Biso   1.000  O
  O29      1.0000 0.79056  0.24341  0.94740  Biso   1.000  O
  O30      1.0000 0.77955  0.24484  0.70136  Biso   1.000  O
  O31      1.0000 0.72663  0.75513  0.95636  Biso   1.000  O
  O32      1.0000 0.72817  0.74696  0.70477  Biso   1.000  O
  Cu1      1.0000 0.58416  0.56474  0.05383  Biso   1.000  Cu
