data_image0
_cell_length_a       10.0711
_cell_length_b       5.06698
_cell_length_c       10.0711
_cell_angle_alpha    89.2915
_cell_angle_beta     91.1644
_cell_angle_gamma    89.2915

_symmetry_space_group_name_H-M    "P 1"
_symmetry_int_tables_number       1

loop_
  _symmetry_equiv_pos_as_xyz
  'x, y, z'

loop_
  _atom_site_label
  _atom_site_occupancy
  _atom_site_fract_x
  _atom_site_fract_y
  _atom_site_fract_z
  _atom_site_thermal_displace_type
  _atom_site_B_iso_or_equiv
  _atom_site_type_symbol
  Cu1      1.0000 0.11746  0.06376  0.11739  Biso   1.000  Cu
  Zr1      1.0000 0.12476  0.00878  0.62412  Biso   1.000  Zr
  Zr2      1.0000 0.62417  0.00879  0.12470  Biso   1.000  Zr
  Zr3      1.0000 0.62289  0.99699  0.62282  Biso   1.000  Zr
  Zr4      1.0000 0.12104  0.50539  0.37869  Biso   1.000  Zr
  Zr5      1.0000 0.13264  0.49332  0.87525  Biso   1.000  Zr
  Zr6      1.0000 0.62089  0.50338  0.37529  Biso   1.000  Zr
  Zr7      1.0000 0.62864  0.49511  0.87396  Biso   1.000  Zr
  Zr8      1.0000 0.37875  0.50541  0.12098  Biso   1.000  Zr
  Zr9      1.0000 0.37535  0.50337  0.62082  Biso   1.000  Zr
  Zr10     1.0000 0.87532  0.49331  0.13257  Biso   1.000  Zr
  Zr11     1.0000 0.87402  0.49512  0.62858  Biso   1.000  Zr
  Zr12     1.0000 0.36624  0.01607  0.36618  Biso   1.000  Zr
  Zr13     1.0000 0.37828  0.99059  0.87130  Biso   1.000  Zr
  Zr14     1.0000 0.87137  0.99059  0.37822  Biso   1.000  Zr
  Zr15     1.0000 0.87877  0.98617  0.87871  Biso   1.000  Zr
  O1       1.0000 0.00558  0.27890  0.00552  Biso   1.000  O
  O2       1.0000 0.98957  0.28127  0.49415  Biso   1.000  O
  O3       1.0000 0.49421  0.28127  0.98952  Biso   1.000  O
  O4       1.0000 0.48864  0.28603  0.48858  Biso   1.000  O
  O5       1.0000 0.00714  0.18295  0.24945  Biso   1.000  O
  O6       1.0000 0.00757  0.20956  0.75159  Biso   1.000  O
  O7       1.0000 0.50631  0.22719  0.24242  Biso   1.000  O
  O8       1.0000 0.50717  0.21763  0.74248  Biso   1.000  O
  O9       1.0000 0.97197  0.68241  0.27697  Biso   1.000  O
  O10      1.0000 0.99192  0.70453  0.76685  Biso   1.000  O
  O11      1.0000 0.48127  0.72885  0.25691  Biso   1.000  O
  O12      1.0000 0.49527  0.71337  0.75416  Biso   1.000  O
  O13      1.0000 0.01592  0.78522  0.01585  Biso   1.000  O
  O14      1.0000 0.00266  0.77808  0.51614  Biso   1.000  O
  O15      1.0000 0.51621  0.77808  0.00259  Biso   1.000  O
  O16      1.0000 0.50231  0.78436  0.50224  Biso   1.000  O
  O17      1.0000 0.26442  0.34257  0.26436  Biso   1.000  O
  O18      1.0000 0.26060  0.28056  0.75644  Biso   1.000  O
  O19      1.0000 0.75650  0.28056  0.26053  Biso   1.000  O
  O20      1.0000 0.76049  0.27934  0.76042  Biso   1.000  O
  O21      1.0000 0.24951  0.18295  0.00707  Biso   1.000  O
  O22      1.0000 0.24247  0.22717  0.50625  Biso   1.000  O
  O23      1.0000 0.75164  0.20955  0.00750  Biso   1.000  O
  O24      1.0000 0.74253  0.21763  0.50710  Biso   1.000  O
  O25      1.0000 0.27704  0.68241  0.97191  Biso   1.000  O
  O26      1.0000 0.25698  0.72883  0.48121  Biso   1.000  O
  O27      1.0000 0.76692  0.70452  0.99186  Biso   1.000  O
  O28      1.0000 0.75423  0.71337  0.49522  Biso   1.000  O
  O29      1.0000 0.22550  0.84723  0.22542  Biso   1.000  O
  O30      1.0000 0.24697  0.77692  0.73548  Biso   1.000  O
  O31      1.0000 0.73554  0.77692  0.24691  Biso   1.000  O
  O32      1.0000 0.74696  0.78001  0.74690  Biso   1.000  O
