data_image0
_cell_length_a       10.1299
_cell_length_b       5.18489
_cell_length_c       10.3902
_cell_angle_alpha    90.6494
_cell_angle_beta     79.5554
_cell_angle_gamma    90.249

_symmetry_space_group_name_H-M    "P 1"
_symmetry_int_tables_number       1

loop_
  _symmetry_equiv_pos_as_xyz
  'x, y, z'

loop_
  _atom_site_label
  _atom_site_occupancy
  _atom_site_fract_x
  _atom_site_fract_y
  _atom_site_fract_z
  _atom_site_thermal_displace_type
  _atom_site_B_iso_or_equiv
  _atom_site_type_symbol
  Hf1      1.0000 0.13296  0.05148  0.14254  Biso   1.000  Hf
  Hf2      1.0000 0.14305  0.46172  0.39075  Biso   1.000  Hf
  Hf3      1.0000 0.35059  0.55430  0.10300  Biso   1.000  Hf
  Hf4      1.0000 0.35872  0.91841  0.34635  Biso   1.000  Hf
  O1       1.0000 0.03218  0.35320  0.08005  Biso   1.000  O
  O2       1.0000 0.03315  0.16723  0.32974  Biso   1.000  O
  O3       1.0000 0.45722  0.86890  0.15605  Biso   1.000  O
  O4       1.0000 0.47300  0.65362  0.42150  Biso   1.000  O
  O5       1.0000 0.27406  0.24971  0.23521  Biso   1.000  O
  O6       1.0000 0.29328  0.25684  0.47433  Biso   1.000  O
  O7       1.0000 0.21774  0.77090  0.00292  Biso   1.000  O
  O8       1.0000 0.20409  0.75167  0.25039  Biso   1.000  O
  Hf5      1.0000 0.13702  0.04295  0.64525  Biso   1.000  Hf
  Hf6      1.0000 0.13480  0.46329  0.89422  Biso   1.000  Hf
  Hf7      1.0000 0.36263  0.54439  0.60715  Biso   1.000  Hf
  Hf8      1.0000 0.35965  0.96134  0.85509  Biso   1.000  Hf
  O9       1.0000 0.04258  0.34262  0.58040  Biso   1.000  O
  O10      1.0000 0.03505  0.15646  0.83291  Biso   1.000  O
  O11      1.0000 0.46432  0.84572  0.66988  Biso   1.000  O
  O12      1.0000 0.46104  0.65602  0.91780  Biso   1.000  O
  O13      1.0000 0.27534  0.25721  0.73713  Biso   1.000  O
  O14      1.0000 0.27275  0.25230  0.98729  Biso   1.000  O
  O15      1.0000 0.22387  0.76150  0.51018  Biso   1.000  O
  O16      1.0000 0.22308  0.74239  0.75719  Biso   1.000  O
  Hf9      1.0000 0.63528  0.04362  0.15259  Biso   1.000  Hf
  Hf10     1.0000 0.64704  0.45074  0.40183  Biso   1.000  Hf
  Hf11     1.0000 0.85656  0.54570  0.10626  Biso   1.000  Hf
  Hf12     1.0000 0.86230  0.95554  0.35565  Biso   1.000  Hf
  O17      1.0000 0.52891  0.37254  0.11649  Biso   1.000  O
  O18      1.0000 0.54444  0.11933  0.34810  Biso   1.000  O
  O19      1.0000 0.95794  0.85118  0.16479  Biso   1.000  O
  O20      1.0000 0.96443  0.66352  0.42055  Biso   1.000  O
  O21      1.0000 0.77762  0.26083  0.24380  Biso   1.000  O
  O22      1.0000 0.78104  0.23696  0.49674  Biso   1.000  O
  O23      1.0000 0.72024  0.76377  0.01272  Biso   1.000  O
  O24      1.0000 0.72274  0.74072  0.26233  Biso   1.000  O
  Hf13     1.0000 0.63982  0.04494  0.65008  Biso   1.000  Hf
  Hf14     1.0000 0.63662  0.46792  0.90099  Biso   1.000  Hf
  Hf15     1.0000 0.86422  0.54254  0.60579  Biso   1.000  Hf
  Hf16     1.0000 0.85793  0.96133  0.85794  Biso   1.000  Hf
  O25      1.0000 0.53856  0.34517  0.58961  Biso   1.000  O
  O26      1.0000 0.53658  0.15768  0.84153  Biso   1.000  O
  O27      1.0000 0.96285  0.84510  0.67059  Biso   1.000  O
  O28      1.0000 0.95787  0.65679  0.91593  Biso   1.000  O
  O29      1.0000 0.77642  0.26228  0.74555  Biso   1.000  O
  O30      1.0000 0.76648  0.24574  0.99615  Biso   1.000  O
  O31      1.0000 0.72555  0.75572  0.51448  Biso   1.000  O
  O32      1.0000 0.72249  0.74076  0.76335  Biso   1.000  O
  Fe1      1.0000 0.41522  0.38534  0.31380  Biso   1.000  Fe
