data_image0
_cell_length_a       9.9707
_cell_length_b       10.4027
_cell_length_c       10.0197
_cell_angle_alpha    89.8428
_cell_angle_beta     90.1979
_cell_angle_gamma    90.0566

_symmetry_space_group_name_H-M    "P 1"
_symmetry_int_tables_number       1

loop_
  _symmetry_equiv_pos_as_xyz
  'x, y, z'

loop_
  _atom_site_label
  _atom_site_occupancy
  _atom_site_fract_x
  _atom_site_fract_y
  _atom_site_fract_z
  _atom_site_thermal_displace_type
  _atom_site_B_iso_or_equiv
  _atom_site_type_symbol
  Hf1      1.0000 0.13470  0.02388  0.12122  Biso   1.000  Hf
  Hf2      1.0000 0.13422  0.23076  0.38237  Biso   1.000  Hf
  Hf3      1.0000 0.36286  0.26301  0.12139  Biso   1.000  Hf
  Hf4      1.0000 0.36745  0.48330  0.37406  Biso   1.000  Hf
  O1       1.0000 0.01807  0.17677  0.21280  Biso   1.000  O
  O2       1.0000 0.03565  0.06489  0.44988  Biso   1.000  O
  O3       1.0000 0.46026  0.43309  0.19364  Biso   1.000  O
  O4       1.0000 0.46342  0.31595  0.44462  Biso   1.000  O
  O5       1.0000 0.26799  0.11753  0.25181  Biso   1.000  O
  O6       1.0000 0.27180  0.13145  0.50093  Biso   1.000  O
  O7       1.0000 0.23094  0.38285  0.49872  Biso   1.000  O
  O8       1.0000 0.22155  0.36381  0.24610  Biso   1.000  O
  Hf5      1.0000 0.13464  0.01482  0.62737  Biso   1.000  Hf
  Hf6      1.0000 0.14282  0.22625  0.87444  Biso   1.000  Hf
  Hf7      1.0000 0.36774  0.26631  0.62584  Biso   1.000  Hf
  Hf8      1.0000 0.36715  0.48374  0.87468  Biso   1.000  Hf
  O9       1.0000 0.03655  0.18147  0.69495  Biso   1.000  O
  O10      1.0000 0.03904  0.06252  0.94049  Biso   1.000  O
  O11      1.0000 0.46644  0.43350  0.69523  Biso   1.000  O
  O12      1.0000 0.46447  0.31500  0.94186  Biso   1.000  O
  O13      1.0000 0.27398  0.11465  0.74705  Biso   1.000  O
  O14      1.0000 0.28861  0.12114  0.99220  Biso   1.000  O
  O15      1.0000 0.22957  0.38653  0.99965  Biso   1.000  O
  O16      1.0000 0.23252  0.36621  0.74900  Biso   1.000  O
  Hf9      1.0000 0.13331  0.53414  0.12322  Biso   1.000  Hf
  Hf10     1.0000 0.13505  0.73591  0.37827  Biso   1.000  Hf
  Hf11     1.0000 0.36508  0.76902  0.12698  Biso   1.000  Hf
  Hf12     1.0000 0.36491  0.98330  0.37572  Biso   1.000  Hf
  O17      1.0000 0.03277  0.68871  0.20041  Biso   1.000  O
  O18      1.0000 0.03535  0.56734  0.44628  Biso   1.000  O
  O19      1.0000 0.46335  0.93408  0.19483  Biso   1.000  O
  O20      1.0000 0.46387  0.81451  0.44242  Biso   1.000  O
  O21      1.0000 0.27295  0.62192  0.25113  Biso   1.000  O
  O22      1.0000 0.27088  0.63157  0.49966  Biso   1.000  O
  O23      1.0000 0.23063  0.88227  0.50030  Biso   1.000  O
  O24      1.0000 0.22880  0.86943  0.25000  Biso   1.000  O
  Hf13     1.0000 0.13444  0.51518  0.62593  Biso   1.000  Hf
  Hf14     1.0000 0.13413  0.73664  0.87320  Biso   1.000  Hf
  Hf15     1.0000 0.36874  0.76420  0.62398  Biso   1.000  Hf
  Hf16     1.0000 0.37029  0.97817  0.87366  Biso   1.000  Hf
  O25      1.0000 0.03752  0.68333  0.69241  Biso   1.000  O
  O26      1.0000 0.03510  0.57036  0.94424  Biso   1.000  O
  O27      1.0000 0.46736  0.93125  0.69128  Biso   1.000  O
  O28      1.0000 0.46737  0.81461  0.94651  Biso   1.000  O
  O29      1.0000 0.27106  0.61602  0.74893  Biso   1.000  O
  O30      1.0000 0.27216  0.63676  0.99716  Biso   1.000  O
  O31      1.0000 0.22929  0.88156  0.99940  Biso   1.000  O
  O32      1.0000 0.23339  0.86533  0.74812  Biso   1.000  O
  Hf17     1.0000 0.63158  0.01485  0.12406  Biso   1.000  Hf
  Hf18     1.0000 0.63104  0.23132  0.37659  Biso   1.000  Hf
  Hf19     1.0000 0.85116  0.26462  0.12888  Biso   1.000  Hf
  Hf20     1.0000 0.86678  0.48359  0.37647  Biso   1.000  Hf
  O33      1.0000 0.53356  0.18147  0.19440  Biso   1.000  O
  O34      1.0000 0.53531  0.06490  0.44539  Biso   1.000  O
  O35      1.0000 0.96239  0.43533  0.19487  Biso   1.000  O
  O36      1.0000 0.96630  0.31843  0.44887  Biso   1.000  O
  O37      1.0000 0.76338  0.11505  0.25055  Biso   1.000  O
  O38      1.0000 0.77141  0.13283  0.49866  Biso   1.000  O
  O39      1.0000 0.73047  0.38211  0.50084  Biso   1.000  O
  O40      1.0000 0.72411  0.36899  0.25238  Biso   1.000  O
  Hf21     1.0000 0.63621  0.01534  0.62474  Biso   1.000  Hf
  Hf22     1.0000 0.63295  0.23163  0.87372  Biso   1.000  Hf
  Hf23     1.0000 0.86754  0.26537  0.62634  Biso   1.000  Hf
  Hf24     1.0000 0.86678  0.48242  0.87826  Biso   1.000  Hf
  O41      1.0000 0.53851  0.18375  0.69200  Biso   1.000  O
  O42      1.0000 0.54230  0.06228  0.93904  Biso   1.000  O
  O43      1.0000 0.96716  0.43143  0.70146  Biso   1.000  O
  O44      1.0000 0.97324  0.31401  0.95844  Biso   1.000  O
  O45      1.0000 0.77236  0.11607  0.74886  Biso   1.000  O
  O46      1.0000 0.77138  0.13126  0.99886  Biso   1.000  O
  O47      1.0000 0.72824  0.38147  0.99986  Biso   1.000  O
  O48      1.0000 0.73298  0.36596  0.75133  Biso   1.000  O
  Hf25     1.0000 0.63126  0.51692  0.12664  Biso   1.000  Hf
  Hf26     1.0000 0.63430  0.73321  0.37528  Biso   1.000  Hf
  Hf27     1.0000 0.86452  0.76822  0.12606  Biso   1.000  Hf
  Hf28     1.0000 0.86757  0.98412  0.37372  Biso   1.000  Hf
  O49      1.0000 0.53577  0.68334  0.19428  Biso   1.000  O
  O50      1.0000 0.53478  0.56508  0.44506  Biso   1.000  O
  O51      1.0000 0.96380  0.93548  0.19245  Biso   1.000  O
  O52      1.0000 0.96447  0.81725  0.44535  Biso   1.000  O
  O53      1.0000 0.76953  0.61711  0.25026  Biso   1.000  O
  O54      1.0000 0.76965  0.63238  0.50024  Biso   1.000  O
  O55      1.0000 0.73093  0.88283  0.49846  Biso   1.000  O
  O56      1.0000 0.72894  0.86687  0.24921  Biso   1.000  O
  Hf29     1.0000 0.63617  0.51499  0.62630  Biso   1.000  Hf
  Hf30     1.0000 0.63584  0.73226  0.87573  Biso   1.000  Hf
  Hf31     1.0000 0.86725  0.76585  0.62516  Biso   1.000  Hf
  Hf32     1.0000 0.86659  0.98193  0.87557  Biso   1.000  Hf
  O57      1.0000 0.53820  0.68243  0.69452  Biso   1.000  O
  O58      1.0000 0.53663  0.56519  0.94397  Biso   1.000  O
  O59      1.0000 0.96636  0.93088  0.69704  Biso   1.000  O
  O60      1.0000 0.96369  0.81472  0.94481  Biso   1.000  O
  O61      1.0000 0.77297  0.61530  0.75099  Biso   1.000  O
  O62      1.0000 0.77065  0.63102  0.00065  Biso   1.000  O
  O63      1.0000 0.73016  0.88133  0.99931  Biso   1.000  O
  O64      1.0000 0.73148  0.86574  0.74917  Biso   1.000  O
  Fe1      1.0000 0.09767  0.30826  0.10813  Biso   1.000  Fe
