data_image0
_cell_length_a       5.07128
_cell_length_b       10.3607
_cell_length_c       10.3877
_cell_angle_alpha    90.726
_cell_angle_beta     79.6264
_cell_angle_gamma    90.1853

_symmetry_space_group_name_H-M    "P 1"
_symmetry_int_tables_number       1

loop_
  _symmetry_equiv_pos_as_xyz
  'x, y, z'

loop_
  _atom_site_label
  _atom_site_occupancy
  _atom_site_fract_x
  _atom_site_fract_y
  _atom_site_fract_z
  _atom_site_thermal_displace_type
  _atom_site_B_iso_or_equiv
  _atom_site_type_symbol
  Hf1      1.0000 0.26965  0.02139  0.15162  Biso   1.000  Hf
  Hf2      1.0000 0.30431  0.23202  0.39557  Biso   1.000  Hf
  Hf3      1.0000 0.70051  0.27912  0.10517  Biso   1.000  Hf
  Hf4      1.0000 0.71715  0.47206  0.34687  Biso   1.000  Hf
  O1       1.0000 0.05156  0.18359  0.11665  Biso   1.000  O
  O2       1.0000 0.09633  0.06181  0.34848  Biso   1.000  O
  O3       1.0000 0.90602  0.43768  0.15483  Biso   1.000  O
  O4       1.0000 0.95165  0.33508  0.41908  Biso   1.000  O
  O5       1.0000 0.55774  0.12468  0.23677  Biso   1.000  O
  O6       1.0000 0.60408  0.12989  0.47720  Biso   1.000  O
  O7       1.0000 0.43236  0.38510  0.00419  Biso   1.000  O
  O8       1.0000 0.41304  0.37913  0.25218  Biso   1.000  O
  Hf5      1.0000 0.26866  0.02059  0.65008  Biso   1.000  Hf
  Hf6      1.0000 0.27341  0.23491  0.89599  Biso   1.000  Hf
  Hf7      1.0000 0.73399  0.27270  0.60599  Biso   1.000  Hf
  Hf8      1.0000 0.72094  0.48072  0.85538  Biso   1.000  Hf
  O9       1.0000 0.09413  0.17481  0.58513  Biso   1.000  O
  O10      1.0000 0.06812  0.07869  0.84052  Biso   1.000  O
  O11      1.0000 0.92972  0.42314  0.66929  Biso   1.000  O
  O12      1.0000 0.91763  0.32600  0.91747  Biso   1.000  O
  O13      1.0000 0.55039  0.12998  0.73937  Biso   1.000  O
  O14      1.0000 0.52756  0.12507  0.99232  Biso   1.000  O
  O15      1.0000 0.45897  0.37894  0.51123  Biso   1.000  O
  O16      1.0000 0.44838  0.36950  0.75859  Biso   1.000  O
  Hf9      1.0000 0.26556  0.52606  0.14434  Biso   1.000  Hf
  Hf10     1.0000 0.27496  0.72363  0.39708  Biso   1.000  Hf
  Hf11     1.0000 0.71217  0.77034  0.10395  Biso   1.000  Hf
  Hf12     1.0000 0.72329  0.96558  0.35486  Biso   1.000  Hf
  O17      1.0000 0.07027  0.68046  0.08302  Biso   1.000  O
  O18      1.0000 0.06243  0.58012  0.33168  Biso   1.000  O
  O19      1.0000 0.92302  0.92083  0.16797  Biso   1.000  O
  O20      1.0000 0.92249  0.82105  0.42162  Biso   1.000  O
  O21      1.0000 0.54703  0.62983  0.24140  Biso   1.000  O
  O22      1.0000 0.54808  0.61929  0.49146  Biso   1.000  O
  O23      1.0000 0.44237  0.88291  0.01076  Biso   1.000  O
  O24      1.0000 0.43902  0.86608  0.25948  Biso   1.000  O
  Hf13     1.0000 0.28124  0.52233  0.64615  Biso   1.000  Hf
  Hf14     1.0000 0.26990  0.73149  0.89735  Biso   1.000  Hf
  Hf15     1.0000 0.71985  0.76961  0.60600  Biso   1.000  Hf
  Hf16     1.0000 0.71300  0.98054  0.85762  Biso   1.000  Hf
  O25      1.0000 0.07111  0.67117  0.58700  Biso   1.000  O
  O26      1.0000 0.07373  0.57768  0.83557  Biso   1.000  O
  O27      1.0000 0.92214  0.92312  0.67077  Biso   1.000  O
  O28      1.0000 0.91834  0.82961  0.91622  Biso   1.000  O
  O29      1.0000 0.55225  0.62878  0.74238  Biso   1.000  O
  O30      1.0000 0.54796  0.62414  0.99071  Biso   1.000  O
  O31      1.0000 0.44348  0.88207  0.51268  Biso   1.000  O
  O32      1.0000 0.44290  0.87156  0.76103  Biso   1.000  O
  Fe1      1.0000 0.83971  0.19504  0.31391  Biso   1.000  Fe
