data_image0
_cell_length_a       10.0726
_cell_length_b       10.1787
_cell_length_c       5.22091
_cell_angle_alpha    90.0968
_cell_angle_beta     80.8977
_cell_angle_gamma    89.2282

_symmetry_space_group_name_H-M    "P 1"
_symmetry_int_tables_number       1

loop_
  _symmetry_equiv_pos_as_xyz
  'x, y, z'

loop_
  _atom_site_label
  _atom_site_occupancy
  _atom_site_fract_x
  _atom_site_fract_y
  _atom_site_fract_z
  _atom_site_thermal_displace_type
  _atom_site_B_iso_or_equiv
  _atom_site_type_symbol
  Fe1      1.0000 0.11800  0.01121  0.33573  Biso   1.000  Fe
  Hf1      1.0000 0.14437  0.22415  0.77788  Biso   1.000  Hf
  Hf2      1.0000 0.35780  0.26825  0.19992  Biso   1.000  Hf
  Hf3      1.0000 0.36138  0.48033  0.70833  Biso   1.000  Hf
  O1       1.0000 0.04874  0.14346  0.15362  Biso   1.000  O
  O2       1.0000 0.03194  0.08165  0.63955  Biso   1.000  O
  O3       1.0000 0.46397  0.41687  0.34350  Biso   1.000  O
  O4       1.0000 0.47186  0.34124  0.84835  Biso   1.000  O
  O5       1.0000 0.26216  0.11838  0.44176  Biso   1.000  O
  O6       1.0000 0.29947  0.14280  0.92185  Biso   1.000  O
  O7       1.0000 0.22228  0.38291  0.01543  Biso   1.000  O
  O8       1.0000 0.22719  0.36850  0.51792  Biso   1.000  O
  Hf4      1.0000 0.14148  0.52284  0.29409  Biso   1.000  Hf
  Hf5      1.0000 0.13807  0.73358  0.79554  Biso   1.000  Hf
  Hf6      1.0000 0.35453  0.78024  0.20667  Biso   1.000  Hf
  Hf7      1.0000 0.35777  0.98437  0.70197  Biso   1.000  Hf
  O9       1.0000 0.03384  0.66585  0.15892  Biso   1.000  O
  O10      1.0000 0.03659  0.58298  0.66274  Biso   1.000  O
  O11      1.0000 0.46388  0.91907  0.34269  Biso   1.000  O
  O12      1.0000 0.45847  0.83354  0.83966  Biso   1.000  O
  O13      1.0000 0.27567  0.63470  0.48259  Biso   1.000  O
  O14      1.0000 0.27621  0.62621  0.98274  Biso   1.000  O
  O15      1.0000 0.21679  0.89723  0.02715  Biso   1.000  O
  O16      1.0000 0.21130  0.87735  0.51604  Biso   1.000  O
  Hf8      1.0000 0.63753  0.02193  0.29276  Biso   1.000  Hf
  Hf9      1.0000 0.64018  0.23016  0.79379  Biso   1.000  Hf
  Hf10     1.0000 0.86912  0.26563  0.21516  Biso   1.000  Hf
  Hf11     1.0000 0.86438  0.47654  0.71441  Biso   1.000  Hf
  O17      1.0000 0.53645  0.16899  0.15664  Biso   1.000  O
  O18      1.0000 0.53831  0.08247  0.65622  Biso   1.000  O
  O19      1.0000 0.97269  0.40956  0.35425  Biso   1.000  O
  O20      1.0000 0.96935  0.32776  0.85706  Biso   1.000  O
  O21      1.0000 0.77900  0.12641  0.48068  Biso   1.000  O
  O22      1.0000 0.77977  0.11976  0.98381  Biso   1.000  O
  O23      1.0000 0.72963  0.37649  0.02612  Biso   1.000  O
  O24      1.0000 0.72872  0.36938  0.52198  Biso   1.000  O
  Hf12     1.0000 0.63625  0.52021  0.29221  Biso   1.000  Hf
  Hf13     1.0000 0.63471  0.72839  0.79474  Biso   1.000  Hf
  Hf14     1.0000 0.85895  0.76831  0.21180  Biso   1.000  Hf
  Hf15     1.0000 0.85643  0.97655  0.71302  Biso   1.000  Hf
  O25      1.0000 0.53231  0.66954  0.15702  Biso   1.000  O
  O26      1.0000 0.53475  0.58329  0.65530  Biso   1.000  O
  O27      1.0000 0.96868  0.91390  0.34866  Biso   1.000  O
  O28      1.0000 0.96166  0.83271  0.85010  Biso   1.000  O
  O29      1.0000 0.77693  0.62612  0.48412  Biso   1.000  O
  O30      1.0000 0.77586  0.62043  0.98390  Biso   1.000  O
  O31      1.0000 0.71990  0.87819  0.02136  Biso   1.000  O
  O32      1.0000 0.72468  0.86957  0.52026  Biso   1.000  O
