data_image0
_cell_length_a       10.0754
_cell_length_b       5.0852
_cell_length_c       10.4632
_cell_angle_alpha    90.1144
_cell_angle_beta     80.8358
_cell_angle_gamma    89.1937

_symmetry_space_group_name_H-M    "P 1"
_symmetry_int_tables_number       1

loop_
  _symmetry_equiv_pos_as_xyz
  'x, y, z'

loop_
  _atom_site_label
  _atom_site_occupancy
  _atom_site_fract_x
  _atom_site_fract_y
  _atom_site_fract_z
  _atom_site_thermal_displace_type
  _atom_site_B_iso_or_equiv
  _atom_site_type_symbol
  Fe1      1.0000 0.12008  0.02447  0.16797  Biso   1.000  Fe
  Hf1      1.0000 0.13800  0.45586  0.39044  Biso   1.000  Hf
  Hf2      1.0000 0.35206  0.55172  0.10105  Biso   1.000  Hf
  Hf3      1.0000 0.35807  0.95984  0.34897  Biso   1.000  Hf
  O1       1.0000 0.04760  0.29395  0.08483  Biso   1.000  O
  O2       1.0000 0.03321  0.15656  0.32369  Biso   1.000  O
  O3       1.0000 0.46505  0.82853  0.17371  Biso   1.000  O
  O4       1.0000 0.46404  0.66974  0.42082  Biso   1.000  O
  O5       1.0000 0.26413  0.24802  0.22936  Biso   1.000  O
  O6       1.0000 0.27678  0.24595  0.48378  Biso   1.000  O
  O7       1.0000 0.21880  0.80507  0.01746  Biso   1.000  O
  O8       1.0000 0.21427  0.74943  0.25738  Biso   1.000  O
  Hf4      1.0000 0.13845  0.04050  0.64333  Biso   1.000  Hf
  Hf5      1.0000 0.14374  0.45750  0.89369  Biso   1.000  Hf
  Hf6      1.0000 0.36122  0.54671  0.60310  Biso   1.000  Hf
  Hf7      1.0000 0.36012  0.97229  0.85682  Biso   1.000  Hf
  O9       1.0000 0.03212  0.32027  0.57064  Biso   1.000  O
  O10      1.0000 0.03573  0.17035  0.82724  Biso   1.000  O
  O11      1.0000 0.46517  0.83550  0.67284  Biso   1.000  O
  O12      1.0000 0.46888  0.69010  0.92642  Biso   1.000  O
  O13      1.0000 0.27428  0.25667  0.73149  Biso   1.000  O
  O14      1.0000 0.29585  0.29309  0.96874  Biso   1.000  O
  O15      1.0000 0.22126  0.75685  0.50667  Biso   1.000  O
  O16      1.0000 0.22544  0.74288  0.76140  Biso   1.000  O
  Hf8      1.0000 0.63541  0.04165  0.14457  Biso   1.000  Hf
  Hf9      1.0000 0.63704  0.45545  0.39522  Biso   1.000  Hf
  Hf10     1.0000 0.86758  0.52860  0.10666  Biso   1.000  Hf
  Hf11     1.0000 0.85699  0.95211  0.35696  Biso   1.000  Hf
  O17      1.0000 0.53306  0.33598  0.07759  Biso   1.000  O
  O18      1.0000 0.53306  0.16647  0.32668  Biso   1.000  O
  O19      1.0000 0.97667  0.81891  0.17558  Biso   1.000  O
  O20      1.0000 0.96294  0.66212  0.42356  Biso   1.000  O
  O21      1.0000 0.77687  0.24710  0.24013  Biso   1.000  O
  O22      1.0000 0.77628  0.23884  0.49092  Biso   1.000  O
  O23      1.0000 0.72804  0.75545  0.01296  Biso   1.000  O
  O24      1.0000 0.72975  0.73399  0.25889  Biso   1.000  O
  Hf12     1.0000 0.63774  0.04314  0.64811  Biso   1.000  Hf
  Hf13     1.0000 0.63765  0.46302  0.89880  Biso   1.000  Hf
  Hf14     1.0000 0.85999  0.53887  0.60650  Biso   1.000  Hf
  Hf15     1.0000 0.86443  0.95462  0.85716  Biso   1.000  Hf
  O25      1.0000 0.53481  0.33452  0.57593  Biso   1.000  O
  O26      1.0000 0.53625  0.17671  0.82576  Biso   1.000  O
  O27      1.0000 0.96825  0.82017  0.67688  Biso   1.000  O
  O28      1.0000 0.96832  0.66246  0.93150  Biso   1.000  O
  O29      1.0000 0.77866  0.25629  0.74170  Biso   1.000  O
  O30      1.0000 0.77927  0.24274  0.99232  Biso   1.000  O
  O31      1.0000 0.72156  0.75440  0.51123  Biso   1.000  O
  O32      1.0000 0.72499  0.74458  0.76253  Biso   1.000  O
