data_image0
_cell_length_a       10.1057
_cell_length_b       10.229
_cell_length_c       5.28198
_cell_angle_alpha    90.3485
_cell_angle_beta     90.8401
_cell_angle_gamma    89.1755

_symmetry_space_group_name_H-M    "P 1"
_symmetry_int_tables_number       1

loop_
  _symmetry_equiv_pos_as_xyz
  'x, y, z'

loop_
  _atom_site_label
  _atom_site_occupancy
  _atom_site_fract_x
  _atom_site_fract_y
  _atom_site_fract_z
  _atom_site_thermal_displace_type
  _atom_site_B_iso_or_equiv
  _atom_site_type_symbol
  Hf1      1.0000 0.13628  0.02157  0.34362  Biso   1.000  Hf
  Hf2      1.0000 0.14043  0.22859  0.84293  Biso   1.000  Hf
  Hf3      1.0000 0.35777  0.26573  0.35215  Biso   1.000  Hf
  Hf4      1.0000 0.36187  0.47860  0.84559  Biso   1.000  Hf
  Hf5      1.0000 0.63574  0.01806  0.16120  Biso   1.000  Hf
  Hf6      1.0000 0.62968  0.22057  0.71330  Biso   1.000  Hf
  Hf7      1.0000 0.86695  0.27597  0.13662  Biso   1.000  Hf
  Hf8      1.0000 0.86764  0.48139  0.63958  Biso   1.000  Hf
  O1       1.0000 0.03336  0.16147  0.15293  Biso   1.000  O
  O2       1.0000 0.02789  0.09247  0.65305  Biso   1.000  O
  O3       1.0000 0.48325  0.40118  0.17258  Biso   1.000  O
  O4       1.0000 0.46199  0.33097  0.67993  Biso   1.000  O
  O5       1.0000 0.27070  0.12225  0.59437  Biso   1.000  O
  O6       1.0000 0.27383  0.12310  0.09234  Biso   1.000  O
  O7       1.0000 0.22468  0.37446  0.59345  Biso   1.000  O
  O8       1.0000 0.23114  0.37583  0.09156  Biso   1.000  O
  O9       1.0000 0.50931  0.13399  0.36722  Biso   1.000  O
  O10      1.0000 0.52522  0.07618  0.85134  Biso   1.000  O
  O11      1.0000 0.98014  0.40949  0.33897  Biso   1.000  O
  O12      1.0000 0.97489  0.34442  0.83698  Biso   1.000  O
  O13      1.0000 0.78522  0.11464  0.91572  Biso   1.000  O
  O14      1.0000 0.75439  0.14711  0.41121  Biso   1.000  O
  O15      1.0000 0.73047  0.37882  0.87440  Biso   1.000  O
  O16      1.0000 0.74181  0.39442  0.36805  Biso   1.000  O
  Hf9      1.0000 0.14136  0.52154  0.34253  Biso   1.000  Hf
  Hf10     1.0000 0.13898  0.72830  0.84392  Biso   1.000  Hf
  Hf11     1.0000 0.36166  0.76950  0.34593  Biso   1.000  Hf
  Hf12     1.0000 0.35723  0.97235  0.85040  Biso   1.000  Hf
  Hf13     1.0000 0.64451  0.52979  0.14046  Biso   1.000  Hf
  Hf14     1.0000 0.63975  0.72987  0.65157  Biso   1.000  Hf
  Hf15     1.0000 0.86273  0.77417  0.15359  Biso   1.000  Hf
  Hf16     1.0000 0.86276  0.97921  0.65814  Biso   1.000  Hf
  O17      1.0000 0.03292  0.66280  0.15503  Biso   1.000  O
  O18      1.0000 0.03371  0.59210  0.65300  Biso   1.000  O
  O19      1.0000 0.46728  0.90102  0.15584  Biso   1.000  O
  O20      1.0000 0.46803  0.83677  0.65719  Biso   1.000  O
  O21      1.0000 0.27811  0.62145  0.59458  Biso   1.000  O
  O22      1.0000 0.27745  0.62409  0.09322  Biso   1.000  O
  O23      1.0000 0.22199  0.87148  0.59333  Biso   1.000  O
  O24      1.0000 0.22158  0.87435  0.09487  Biso   1.000  O
  O25      1.0000 0.53249  0.65947  0.33829  Biso   1.000  O
  O26      1.0000 0.53063  0.58747  0.83131  Biso   1.000  O
  O27      1.0000 0.96630  0.91623  0.33436  Biso   1.000  O
  O28      1.0000 0.96911  0.84083  0.83654  Biso   1.000  O
  O29      1.0000 0.77879  0.62609  0.89816  Biso   1.000  O
  O30      1.0000 0.77951  0.63551  0.40139  Biso   1.000  O
  O31      1.0000 0.72377  0.87199  0.91044  Biso   1.000  O
  O32      1.0000 0.72584  0.88048  0.41496  Biso   1.000  O
  Fe1      1.0000 0.61768  0.27218  0.27238  Biso   1.000  Fe
