data_image0
_cell_length_a       10.0557
_cell_length_b       5.24905
_cell_length_c       10.108
_cell_angle_alpha    89.7774
_cell_angle_beta     90.2809
_cell_angle_gamma    90.0788

_symmetry_space_group_name_H-M    "P 1"
_symmetry_int_tables_number       1

loop_
  _symmetry_equiv_pos_as_xyz
  'x, y, z'

loop_
  _atom_site_label
  _atom_site_occupancy
  _atom_site_fract_x
  _atom_site_fract_y
  _atom_site_fract_z
  _atom_site_thermal_displace_type
  _atom_site_B_iso_or_equiv
  _atom_site_type_symbol
  Zr1      1.0000 0.13427  0.08340  0.11847  Biso   1.000  Zr
  Zr2      1.0000 0.13577  0.46610  0.38428  Biso   1.000  Zr
  Zr3      1.0000 0.36228  0.52932  0.12210  Biso   1.000  Zr
  Zr4      1.0000 0.36682  0.96687  0.37357  Biso   1.000  Zr
  O1       1.0000 0.01855  0.36557  0.21520  Biso   1.000  O
  O2       1.0000 0.03416  0.13343  0.45077  Biso   1.000  O
  O3       1.0000 0.46058  0.86386  0.19451  Biso   1.000  O
  O4       1.0000 0.46478  0.62963  0.44346  Biso   1.000  O
  O5       1.0000 0.27061  0.24126  0.25326  Biso   1.000  O
  O6       1.0000 0.27108  0.26197  0.50064  Biso   1.000  O
  O7       1.0000 0.23318  0.76585  0.49824  Biso   1.000  O
  O8       1.0000 0.22068  0.73007  0.24508  Biso   1.000  O
  Zr5      1.0000 0.13467  0.02538  0.62696  Biso   1.000  Zr
  Zr6      1.0000 0.14201  0.45981  0.87169  Biso   1.000  Zr
  Zr7      1.0000 0.37040  0.52690  0.62391  Biso   1.000  Zr
  Zr8      1.0000 0.37070  0.95929  0.87264  Biso   1.000  Zr
  O9       1.0000 0.03652  0.35939  0.69290  Biso   1.000  O
  O10      1.0000 0.03648  0.13328  0.93885  Biso   1.000  O
  O11      1.0000 0.47069  0.86019  0.69328  Biso   1.000  O
  O12      1.0000 0.46834  0.63004  0.94421  Biso   1.000  O
  O13      1.0000 0.27260  0.22564  0.74588  Biso   1.000  O
  O14      1.0000 0.28723  0.25131  0.98965  Biso   1.000  O
  O15      1.0000 0.22916  0.77000  0.99868  Biso   1.000  O
  O16      1.0000 0.23717  0.72783  0.74671  Biso   1.000  O
  Zr9      1.0000 0.62905  0.02916  0.12454  Biso   1.000  Zr
  Zr10     1.0000 0.63148  0.46259  0.37506  Biso   1.000  Zr
  Zr11     1.0000 0.85137  0.53008  0.12744  Biso   1.000  Zr
  Zr12     1.0000 0.86817  0.96817  0.37397  Biso   1.000  Zr
  O17      1.0000 0.53297  0.35913  0.19496  Biso   1.000  O
  O18      1.0000 0.53297  0.12887  0.44628  Biso   1.000  O
  O19      1.0000 0.96431  0.87164  0.19368  Biso   1.000  O
  O20      1.0000 0.96806  0.63979  0.44977  Biso   1.000  O
  O21      1.0000 0.76336  0.22764  0.24959  Biso   1.000  O
  O22      1.0000 0.76925  0.26572  0.49793  Biso   1.000  O
  O23      1.0000 0.73289  0.76551  0.49861  Biso   1.000  O
  O24      1.0000 0.72494  0.73493  0.25068  Biso   1.000  O
  Zr13     1.0000 0.63783  0.02584  0.62460  Biso   1.000  Zr
  Zr14     1.0000 0.63414  0.46241  0.87319  Biso   1.000  Zr
  Zr15     1.0000 0.86871  0.52716  0.62463  Biso   1.000  Zr
  Zr16     1.0000 0.86712  0.96314  0.87655  Biso   1.000  Zr
  O25      1.0000 0.53900  0.36224  0.69286  Biso   1.000  O
  O26      1.0000 0.54071  0.12588  0.94012  Biso   1.000  O
  O27      1.0000 0.97030  0.85369  0.70379  Biso   1.000  O
  O28      1.0000 0.97432  0.62970  0.96049  Biso   1.000  O
  O29      1.0000 0.77312  0.22580  0.74874  Biso   1.000  O
  O30      1.0000 0.77012  0.26138  0.99838  Biso   1.000  O
  O31      1.0000 0.72978  0.76197  0.99818  Biso   1.000  O
  O32      1.0000 0.73565  0.72615  0.74952  Biso   1.000  O
  Fe1      1.0000 0.09727  0.62435  0.10821  Biso   1.000  Fe
