data_image0
_cell_length_a       10.068
_cell_length_b       10.2807
_cell_length_c       10.479
_cell_angle_alpha    89.8719
_cell_angle_beta     89.925
_cell_angle_gamma    90.0438

_symmetry_space_group_name_H-M    "P 1"
_symmetry_int_tables_number       1

loop_
  _symmetry_equiv_pos_as_xyz
  'x, y, z'

loop_
  _atom_site_label
  _atom_site_occupancy
  _atom_site_fract_x
  _atom_site_fract_y
  _atom_site_fract_z
  _atom_site_thermal_displace_type
  _atom_site_B_iso_or_equiv
  _atom_site_type_symbol
  Fe1      1.0000 0.13602  0.02313  0.18024  Biso   1.000  Fe
  Zr1      1.0000 0.13888  0.02106  0.67081  Biso   1.000  Zr
  Zr2      1.0000 0.13941  0.52078  0.17114  Biso   1.000  Zr
  Zr3      1.0000 0.13913  0.52086  0.67187  Biso   1.000  Zr
  Zr4      1.0000 0.13971  0.22997  0.41907  Biso   1.000  Zr
  Zr5      1.0000 0.13689  0.22299  0.92668  Biso   1.000  Zr
  Zr6      1.0000 0.13793  0.73088  0.41955  Biso   1.000  Zr
  Zr7      1.0000 0.14038  0.73023  0.92140  Biso   1.000  Zr
  Zr8      1.0000 0.35895  0.26816  0.17210  Biso   1.000  Zr
  Zr9      1.0000 0.36082  0.27159  0.67244  Biso   1.000  Zr
  Zr10     1.0000 0.35704  0.77510  0.17018  Biso   1.000  Zr
  Zr11     1.0000 0.36168  0.77121  0.67054  Biso   1.000  Zr
  Zr12     1.0000 0.36117  0.48032  0.42140  Biso   1.000  Zr
  Zr13     1.0000 0.36109  0.47787  0.92170  Biso   1.000  Zr
  Zr14     1.0000 0.35880  0.97955  0.41878  Biso   1.000  Zr
  Zr15     1.0000 0.35884  0.97706  0.92419  Biso   1.000  Zr
  Zr16     1.0000 0.63869  0.02201  0.07777  Biso   1.000  Zr
  Zr17     1.0000 0.63778  0.02076  0.57765  Biso   1.000  Zr
  Zr18     1.0000 0.63879  0.52162  0.08001  Biso   1.000  Zr
  Zr19     1.0000 0.63905  0.52130  0.58022  Biso   1.000  Zr
  Zr20     1.0000 0.63795  0.22933  0.32883  Biso   1.000  Zr
  Zr21     1.0000 0.63897  0.22952  0.82942  Biso   1.000  Zr
  Zr22     1.0000 0.63813  0.72968  0.32770  Biso   1.000  Zr
  Zr23     1.0000 0.63905  0.72919  0.83048  Biso   1.000  Zr
  Zr24     1.0000 0.86533  0.26762  0.08176  Biso   1.000  Zr
  Zr25     1.0000 0.86117  0.27080  0.57826  Biso   1.000  Zr
  Zr26     1.0000 0.86688  0.77382  0.07862  Biso   1.000  Zr
  Zr27     1.0000 0.86036  0.77118  0.57820  Biso   1.000  Zr
  Zr28     1.0000 0.86064  0.47984  0.32874  Biso   1.000  Zr
  Zr29     1.0000 0.86200  0.47814  0.83092  Biso   1.000  Zr
  Zr30     1.0000 0.86488  0.98169  0.32590  Biso   1.000  Zr
  Zr31     1.0000 0.86047  0.97925  0.82751  Biso   1.000  Zr
  O1       1.0000 0.03333  0.15613  0.08724  Biso   1.000  O
  O2       1.0000 0.02965  0.15833  0.57419  Biso   1.000  O
  O3       1.0000 0.03335  0.66471  0.08340  Biso   1.000  O
  O4       1.0000 0.03186  0.66441  0.58156  Biso   1.000  O
  O5       1.0000 0.03866  0.08798  0.31754  Biso   1.000  O
  O6       1.0000 0.02998  0.08739  0.82797  Biso   1.000  O
  O7       1.0000 0.03249  0.58541  0.33271  Biso   1.000  O
  O8       1.0000 0.03293  0.58461  0.83402  Biso   1.000  O
  O9       1.0000 0.46670  0.41515  0.08574  Biso   1.000  O
  O10      1.0000 0.46620  0.41726  0.58515  Biso   1.000  O
  O11      1.0000 0.46953  0.91436  0.08379  Biso   1.000  O
  O12      1.0000 0.46615  0.91644  0.58389  Biso   1.000  O
  O13      1.0000 0.46386  0.33113  0.33616  Biso   1.000  O
  O14      1.0000 0.46768  0.33457  0.83446  Biso   1.000  O
  O15      1.0000 0.46409  0.83428  0.33410  Biso   1.000  O
  O16      1.0000 0.46619  0.83388  0.83545  Biso   1.000  O
  O17      1.0000 0.27042  0.12017  0.29208  Biso   1.000  O
  O18      1.0000 0.27590  0.12374  0.79937  Biso   1.000  O
  O19      1.0000 0.27511  0.62718  0.29508  Biso   1.000  O
  O20      1.0000 0.27643  0.62401  0.79499  Biso   1.000  O
  O21      1.0000 0.26402  0.11484  0.05781  Biso   1.000  O
  O22      1.0000 0.27598  0.12696  0.54486  Biso   1.000  O
  O23      1.0000 0.27603  0.62523  0.04490  Biso   1.000  O
  O24      1.0000 0.27572  0.62653  0.54466  Biso   1.000  O
  O25      1.0000 0.22458  0.37551  0.29491  Biso   1.000  O
  O26      1.0000 0.22420  0.37351  0.79575  Biso   1.000  O
  O27      1.0000 0.21846  0.88247  0.28843  Biso   1.000  O
  O28      1.0000 0.22401  0.87417  0.79359  Biso   1.000  O
  O29      1.0000 0.22540  0.37222  0.04545  Biso   1.000  O
  O30      1.0000 0.22364  0.37572  0.54451  Biso   1.000  O
  O31      1.0000 0.22246  0.87573  0.04508  Biso   1.000  O
  O32      1.0000 0.22369  0.87596  0.54289  Biso   1.000  O
  O33      1.0000 0.53181  0.16554  0.16655  Biso   1.000  O
  O34      1.0000 0.53261  0.16592  0.66642  Biso   1.000  O
  O35      1.0000 0.53270  0.66791  0.16533  Biso   1.000  O
  O36      1.0000 0.53396  0.66709  0.66585  Biso   1.000  O
  O37      1.0000 0.53202  0.08389  0.41529  Biso   1.000  O
  O38      1.0000 0.52917  0.08743  0.91911  Biso   1.000  O
  O39      1.0000 0.53373  0.58373  0.41522  Biso   1.000  O
  O40      1.0000 0.53431  0.58271  0.91559  Biso   1.000  O
  O41      1.0000 0.96809  0.41536  0.16686  Biso   1.000  O
  O42      1.0000 0.96868  0.41193  0.66845  Biso   1.000  O
  O43      1.0000 0.98394  0.92323  0.16419  Biso   1.000  O
  O44      1.0000 0.96817  0.91344  0.66637  Biso   1.000  O
  O45      1.0000 0.96730  0.33451  0.41549  Biso   1.000  O
  O46      1.0000 0.96917  0.33238  0.91984  Biso   1.000  O
  O47      1.0000 0.96758  0.83737  0.41514  Biso   1.000  O
  O48      1.0000 0.96836  0.83591  0.91637  Biso   1.000  O
  O49      1.0000 0.77497  0.12437  0.95412  Biso   1.000  O
  O50      1.0000 0.77702  0.12393  0.45261  Biso   1.000  O
  O51      1.0000 0.77789  0.62631  0.95716  Biso   1.000  O
  O52      1.0000 0.77536  0.62461  0.45527  Biso   1.000  O
  O53      1.0000 0.77411  0.12573  0.20461  Biso   1.000  O
  O54      1.0000 0.77523  0.12567  0.70376  Biso   1.000  O
  O55      1.0000 0.77627  0.62675  0.20555  Biso   1.000  O
  O56      1.0000 0.77660  0.62542  0.70649  Biso   1.000  O
  O57      1.0000 0.72576  0.37421  0.95643  Biso   1.000  O
  O58      1.0000 0.72389  0.37387  0.45621  Biso   1.000  O
  O59      1.0000 0.72486  0.87498  0.95505  Biso   1.000  O
  O60      1.0000 0.72396  0.87467  0.45376  Biso   1.000  O
  O61      1.0000 0.72487  0.37548  0.20607  Biso   1.000  O
  O62      1.0000 0.72454  0.37616  0.70591  Biso   1.000  O
  O63      1.0000 0.73369  0.87717  0.20446  Biso   1.000  O
  O64      1.0000 0.72380  0.87586  0.70467  Biso   1.000  O
