data_image0
_cell_length_a       10.2044
_cell_length_b       10.4493
_cell_length_c       5.22688
_cell_angle_alpha    90.8124
_cell_angle_beta     79.6421
_cell_angle_gamma    90.1761

_symmetry_space_group_name_H-M    "P 1"
_symmetry_int_tables_number       1

loop_
  _symmetry_equiv_pos_as_xyz
  'x, y, z'

loop_
  _atom_site_label
  _atom_site_occupancy
  _atom_site_fract_x
  _atom_site_fract_y
  _atom_site_fract_z
  _atom_site_thermal_displace_type
  _atom_site_B_iso_or_equiv
  _atom_site_type_symbol
  Zr1      1.0000 0.13261  0.02133  0.29603  Biso   1.000  Zr
  Zr2      1.0000 0.14286  0.23372  0.77780  Biso   1.000  Zr
  Zr3      1.0000 0.35467  0.28073  0.20838  Biso   1.000  Zr
  Zr4      1.0000 0.35734  0.47448  0.69397  Biso   1.000  Zr
  O1       1.0000 0.04248  0.17238  0.15724  Biso   1.000  O
  O2       1.0000 0.03511  0.07902  0.66553  Biso   1.000  O
  O3       1.0000 0.45803  0.43557  0.31686  Biso   1.000  O
  O4       1.0000 0.47286  0.33101  0.83483  Biso   1.000  O
  O5       1.0000 0.27724  0.12512  0.46539  Biso   1.000  O
  O6       1.0000 0.29419  0.13501  0.94307  Biso   1.000  O
  O7       1.0000 0.22037  0.38449  0.00308  Biso   1.000  O
  O8       1.0000 0.20726  0.37914  0.49779  Biso   1.000  O
  Zr5      1.0000 0.13610  0.52553  0.28257  Biso   1.000  Zr
  Zr6      1.0000 0.13565  0.72870  0.79102  Biso   1.000  Zr
  Zr7      1.0000 0.35870  0.76792  0.20857  Biso   1.000  Zr
  Zr8      1.0000 0.36023  0.96633  0.70855  Biso   1.000  Zr
  O9       1.0000 0.03234  0.67557  0.16487  Biso   1.000  O
  O10      1.0000 0.03236  0.58267  0.66251  Biso   1.000  O
  O11      1.0000 0.46399  0.91966  0.33844  Biso   1.000  O
  O12      1.0000 0.46074  0.82007  0.83756  Biso   1.000  O
  O13      1.0000 0.27362  0.62888  0.48059  Biso   1.000  O
  O14      1.0000 0.27271  0.62296  0.97815  Biso   1.000  O
  O15      1.0000 0.22170  0.88328  0.02119  Biso   1.000  O
  O16      1.0000 0.21978  0.86692  0.51562  Biso   1.000  O
  Zr9      1.0000 0.63721  0.02100  0.30809  Biso   1.000  Zr
  Zr10     1.0000 0.64733  0.23222  0.80208  Biso   1.000  Zr
  Zr11     1.0000 0.86393  0.27174  0.21256  Biso   1.000  Zr
  Zr12     1.0000 0.86143  0.47902  0.71214  Biso   1.000  Zr
  O17      1.0000 0.52875  0.18373  0.24680  Biso   1.000  O
  O18      1.0000 0.54445  0.06529  0.71086  Biso   1.000  O
  O19      1.0000 0.96019  0.42535  0.33132  Biso   1.000  O
  O20      1.0000 0.96156  0.32912  0.83426  Biso   1.000  O
  O21      1.0000 0.77855  0.13051  0.49123  Biso   1.000  O
  O22      1.0000 0.77176  0.12090  0.99905  Biso   1.000  O
  O23      1.0000 0.72508  0.37924  0.02758  Biso   1.000  O
  O24      1.0000 0.72491  0.36982  0.52452  Biso   1.000  O
  Zr13     1.0000 0.63726  0.52330  0.29628  Biso   1.000  Zr
  Zr14     1.0000 0.63737  0.72668  0.79678  Biso   1.000  Zr
  Zr15     1.0000 0.85711  0.77193  0.21294  Biso   1.000  Zr
  Zr16     1.0000 0.85867  0.97887  0.71863  Biso   1.000  Zr
  O25      1.0000 0.53712  0.67514  0.17325  Biso   1.000  O
  O26      1.0000 0.53518  0.57563  0.67046  Biso   1.000  O
  O27      1.0000 0.96061  0.92261  0.34060  Biso   1.000  O
  O28      1.0000 0.96106  0.83107  0.83943  Biso   1.000  O
  O29      1.0000 0.77454  0.63038  0.48653  Biso   1.000  O
  O30      1.0000 0.77432  0.62108  0.98637  Biso   1.000  O
  O31      1.0000 0.72156  0.88066  0.02704  Biso   1.000  O
  O32      1.0000 0.72225  0.87152  0.52611  Biso   1.000  O
  Fe1      1.0000 0.41616  0.19279  0.62545  Biso   1.000  Fe
