data_image0
_cell_length_a       5.06178
_cell_length_b       10.2986
_cell_length_c       10.4248
_cell_angle_alpha    89.7876
_cell_angle_beta     80.3088
_cell_angle_gamma    89.9988

_symmetry_space_group_name_H-M    "P 1"
_symmetry_int_tables_number       1

loop_
  _symmetry_equiv_pos_as_xyz
  'x, y, z'

loop_
  _atom_site_label
  _atom_site_occupancy
  _atom_site_fract_x
  _atom_site_fract_y
  _atom_site_fract_z
  _atom_site_thermal_displace_type
  _atom_site_B_iso_or_equiv
  _atom_site_type_symbol
  Fe1      1.0000 0.27512  0.02344  0.15170  Biso   1.000  Fe
  Zr1      1.0000 0.27564  0.02028  0.64509  Biso   1.000  Zr
  Zr2      1.0000 0.28102  0.52256  0.14563  Biso   1.000  Zr
  Zr3      1.0000 0.27853  0.52128  0.64660  Biso   1.000  Zr
  Zr4      1.0000 0.27820  0.22877  0.39196  Biso   1.000  Zr
  Zr5      1.0000 0.27463  0.22414  0.90075  Biso   1.000  Zr
  Zr6      1.0000 0.27976  0.73218  0.39368  Biso   1.000  Zr
  Zr7      1.0000 0.27669  0.72972  0.89829  Biso   1.000  Zr
  Zr8      1.0000 0.72806  0.26604  0.10771  Biso   1.000  Zr
  Zr9      1.0000 0.72008  0.27145  0.60511  Biso   1.000  Zr
  Zr10     1.0000 0.72599  0.77972  0.10473  Biso   1.000  Zr
  Zr11     1.0000 0.72174  0.77131  0.60427  Biso   1.000  Zr
  Zr12     1.0000 0.72413  0.48060  0.35460  Biso   1.000  Zr
  Zr13     1.0000 0.72022  0.47767  0.85714  Biso   1.000  Zr
  Zr14     1.0000 0.72514  0.98130  0.34825  Biso   1.000  Zr
  Zr15     1.0000 0.71441  0.97904  0.85718  Biso   1.000  Zr
  O1       1.0000 0.07350  0.15906  0.08428  Biso   1.000  O
  O2       1.0000 0.06789  0.16499  0.57406  Biso   1.000  O
  O3       1.0000 0.07050  0.67048  0.08253  Biso   1.000  O
  O4       1.0000 0.07325  0.67106  0.58065  Biso   1.000  O
  O5       1.0000 0.07984  0.08348  0.31151  Biso   1.000  O
  O6       1.0000 0.06543  0.08061  0.82885  Biso   1.000  O
  O7       1.0000 0.07724  0.57910  0.33266  Biso   1.000  O
  O8       1.0000 0.07306  0.57807  0.83383  Biso   1.000  O
  O9       1.0000 0.93134  0.41985  0.16866  Biso   1.000  O
  O10      1.0000 0.92899  0.41821  0.67044  Biso   1.000  O
  O11      1.0000 0.96023  0.92510  0.16362  Biso   1.000  O
  O12      1.0000 0.92625  0.91960  0.66868  Biso   1.000  O
  O13      1.0000 0.92741  0.32947  0.41809  Biso   1.000  O
  O14      1.0000 0.92332  0.32343  0.92168  Biso   1.000  O
  O15      1.0000 0.92827  0.83150  0.41551  Biso   1.000  O
  O16      1.0000 0.92134  0.82852  0.91749  Biso   1.000  O
  O17      1.0000 0.53912  0.12298  0.23698  Biso   1.000  O
  O18      1.0000 0.55094  0.12836  0.74374  Biso   1.000  O
  O19      1.0000 0.55584  0.63440  0.24154  Biso   1.000  O
  O20      1.0000 0.55393  0.62862  0.74245  Biso   1.000  O
  O21      1.0000 0.55684  0.12169  0.48768  Biso   1.000  O
  O22      1.0000 0.53354  0.11376  0.00368  Biso   1.000  O
  O23      1.0000 0.55373  0.62171  0.49124  Biso   1.000  O
  O24      1.0000 0.55540  0.62339  0.99250  Biso   1.000  O
  O25      1.0000 0.44847  0.37782  0.01135  Biso   1.000  O
  O26      1.0000 0.44670  0.37872  0.50968  Biso   1.000  O
  O27      1.0000 0.43764  0.88567  0.01336  Biso   1.000  O
  O28      1.0000 0.44756  0.87960  0.50704  Biso   1.000  O
  O29      1.0000 0.45348  0.37044  0.25962  Biso   1.000  O
  O30      1.0000 0.44595  0.36980  0.76117  Biso   1.000  O
  O31      1.0000 0.44896  0.88027  0.25327  Biso   1.000  O
  O32      1.0000 0.44468  0.87071  0.75948  Biso   1.000  O
