data_image0
_cell_length_a       10.0522
_cell_length_b       5.11702
_cell_length_c       10.4613
_cell_angle_alpha    90.1013
_cell_angle_beta     90.8099
_cell_angle_gamma    89.2923

_symmetry_space_group_name_H-M    "P 1"
_symmetry_int_tables_number       1

loop_
  _symmetry_equiv_pos_as_xyz
  'x, y, z'

loop_
  _atom_site_label
  _atom_site_occupancy
  _atom_site_fract_x
  _atom_site_fract_y
  _atom_site_fract_z
  _atom_site_thermal_displace_type
  _atom_site_B_iso_or_equiv
  _atom_site_type_symbol
  Fe1      1.0000 0.11903  0.02660  0.19207  Biso   1.000  Fe
  Zr1      1.0000 0.13823  0.04158  0.66843  Biso   1.000  Zr
  Zr2      1.0000 0.13728  0.46089  0.41489  Biso   1.000  Zr
  Zr3      1.0000 0.14631  0.45977  0.92116  Biso   1.000  Zr
  Zr4      1.0000 0.35224  0.55556  0.16626  Biso   1.000  Zr
  Zr5      1.0000 0.36141  0.54601  0.66946  Biso   1.000  Zr
  Zr6      1.0000 0.35581  0.96511  0.41588  Biso   1.000  Zr
  Zr7      1.0000 0.35978  0.96605  0.92370  Biso   1.000  Zr
  Zr8      1.0000 0.63935  0.04300  0.07820  Biso   1.000  Zr
  Zr9      1.0000 0.63565  0.03996  0.58081  Biso   1.000  Zr
  Zr10     1.0000 0.63334  0.45602  0.32764  Biso   1.000  Zr
  Zr11     1.0000 0.64008  0.46091  0.83131  Biso   1.000  Zr
  Zr12     1.0000 0.86982  0.52953  0.08434  Biso   1.000  Zr
  Zr13     1.0000 0.85880  0.53673  0.58161  Biso   1.000  Zr
  Zr14     1.0000 0.85549  0.95409  0.33327  Biso   1.000  Zr
  Zr15     1.0000 0.86542  0.95452  0.83318  Biso   1.000  Zr
  O1       1.0000 0.05072  0.29705  0.09644  Biso   1.000  O
  O2       1.0000 0.03020  0.31963  0.57646  Biso   1.000  O
  O3       1.0000 0.03319  0.15354  0.33226  Biso   1.000  O
  O4       1.0000 0.03514  0.17323  0.83422  Biso   1.000  O
  O5       1.0000 0.46820  0.83826  0.08532  Biso   1.000  O
  O6       1.0000 0.46179  0.84425  0.58464  Biso   1.000  O
  O7       1.0000 0.45672  0.65669  0.33778  Biso   1.000  O
  O8       1.0000 0.46812  0.67056  0.83356  Biso   1.000  O
  O9       1.0000 0.26328  0.24235  0.27956  Biso   1.000  O
  O10      1.0000 0.27601  0.24493  0.78561  Biso   1.000  O
  O11      1.0000 0.30195  0.30675  0.02322  Biso   1.000  O
  O12      1.0000 0.27493  0.25746  0.53745  Biso   1.000  O
  O13      1.0000 0.21166  0.76146  0.29094  Biso   1.000  O
  O14      1.0000 0.22488  0.74684  0.79627  Biso   1.000  O
  O15      1.0000 0.21607  0.79720  0.05080  Biso   1.000  O
  O16      1.0000 0.22090  0.75300  0.54144  Biso   1.000  O
  O17      1.0000 0.53467  0.34333  0.16209  Biso   1.000  O
  O18      1.0000 0.53566  0.34371  0.66138  Biso   1.000  O
  O19      1.0000 0.53175  0.15839  0.40999  Biso   1.000  O
  O20      1.0000 0.54009  0.15921  0.91066  Biso   1.000  O
  O21      1.0000 0.97804  0.82259  0.17232  Biso   1.000  O
  O22      1.0000 0.96935  0.81869  0.67131  Biso   1.000  O
  O23      1.0000 0.96200  0.66107  0.41651  Biso   1.000  O
  O24      1.0000 0.97085  0.66263  0.92684  Biso   1.000  O
  O25      1.0000 0.78252  0.24651  0.95921  Biso   1.000  O
  O26      1.0000 0.77291  0.24404  0.45645  Biso   1.000  O
  O27      1.0000 0.77795  0.24508  0.20667  Biso   1.000  O
  O28      1.0000 0.77733  0.24885  0.70766  Biso   1.000  O
  O29      1.0000 0.72946  0.74398  0.95896  Biso   1.000  O
  O30      1.0000 0.71997  0.74421  0.45730  Biso   1.000  O
  O31      1.0000 0.73048  0.74529  0.20653  Biso   1.000  O
  O32      1.0000 0.72517  0.75291  0.70791  Biso   1.000  O
