data_image0
_cell_length_a       10.181
_cell_length_b       10.2875
_cell_length_c       5.317
_cell_angle_alpha    90.2979
_cell_angle_beta     90.8075
_cell_angle_gamma    89.2283

_symmetry_space_group_name_H-M    "P 1"
_symmetry_int_tables_number       1

loop_
  _symmetry_equiv_pos_as_xyz
  'x, y, z'

loop_
  _atom_site_label
  _atom_site_occupancy
  _atom_site_fract_x
  _atom_site_fract_y
  _atom_site_fract_z
  _atom_site_thermal_displace_type
  _atom_site_B_iso_or_equiv
  _atom_site_type_symbol
  Zr1      1.0000 0.13635  0.02150  0.34297  Biso   1.000  Zr
  Zr2      1.0000 0.14020  0.22844  0.84208  Biso   1.000  Zr
  Zr3      1.0000 0.35727  0.26610  0.35100  Biso   1.000  Zr
  Zr4      1.0000 0.36210  0.47850  0.84485  Biso   1.000  Zr
  Zr5      1.0000 0.63607  0.01781  0.16023  Biso   1.000  Zr
  Zr6      1.0000 0.63005  0.22132  0.70994  Biso   1.000  Zr
  Zr7      1.0000 0.86714  0.27575  0.13873  Biso   1.000  Zr
  Zr8      1.0000 0.86758  0.48123  0.64171  Biso   1.000  Zr
  O1       1.0000 0.03218  0.15917  0.14872  Biso   1.000  O
  O2       1.0000 0.02651  0.09462  0.64879  Biso   1.000  O
  O3       1.0000 0.48503  0.39769  0.16846  Biso   1.000  O
  O4       1.0000 0.46327  0.33412  0.67412  Biso   1.000  O
  O5       1.0000 0.27001  0.12238  0.59390  Biso   1.000  O
  O6       1.0000 0.27290  0.12295  0.09209  Biso   1.000  O
  O7       1.0000 0.22523  0.37449  0.59310  Biso   1.000  O
  O8       1.0000 0.23197  0.37569  0.09136  Biso   1.000  O
  O9       1.0000 0.50972  0.13507  0.36648  Biso   1.000  O
  O10      1.0000 0.52400  0.07933  0.85429  Biso   1.000  O
  O11      1.0000 0.98064  0.40815  0.34338  Biso   1.000  O
  O12      1.0000 0.97617  0.34621  0.84114  Biso   1.000  O
  O13      1.0000 0.78385  0.11545  0.91343  Biso   1.000  O
  O14      1.0000 0.75284  0.14714  0.40810  Biso   1.000  O
  O15      1.0000 0.73125  0.37868  0.87858  Biso   1.000  O
  O16      1.0000 0.74095  0.39221  0.37324  Biso   1.000  O
  Zr9      1.0000 0.14090  0.52166  0.34240  Biso   1.000  Zr
  Zr10     1.0000 0.13904  0.72805  0.84389  Biso   1.000  Zr
  Zr11     1.0000 0.36193  0.76961  0.34569  Biso   1.000  Zr
  Zr12     1.0000 0.35750  0.97241  0.84987  Biso   1.000  Zr
  Zr13     1.0000 0.64467  0.52890  0.14257  Biso   1.000  Zr
  Zr14     1.0000 0.63966  0.72952  0.65200  Biso   1.000  Zr
  Zr15     1.0000 0.86274  0.77410  0.15447  Biso   1.000  Zr
  Zr16     1.0000 0.86300  0.97903  0.65911  Biso   1.000  Zr
  O17      1.0000 0.03146  0.66089  0.15166  Biso   1.000  O
  O18      1.0000 0.03221  0.59408  0.64997  Biso   1.000  O
  O19      1.0000 0.46832  0.89952  0.15240  Biso   1.000  O
  O20      1.0000 0.46965  0.83904  0.65353  Biso   1.000  O
  O21      1.0000 0.27688  0.62171  0.59514  Biso   1.000  O
  O22      1.0000 0.27619  0.62397  0.09361  Biso   1.000  O
  O23      1.0000 0.22331  0.87176  0.59379  Biso   1.000  O
  O24      1.0000 0.22269  0.87405  0.09491  Biso   1.000  O
  O25      1.0000 0.53111  0.65705  0.34300  Biso   1.000  O
  O26      1.0000 0.52948  0.58936  0.83670  Biso   1.000  O
  O27      1.0000 0.96795  0.91387  0.33812  Biso   1.000  O
  O28      1.0000 0.97037  0.84275  0.84018  Biso   1.000  O
  O29      1.0000 0.77759  0.62629  0.89852  Biso   1.000  O
  O30      1.0000 0.77830  0.63468  0.40168  Biso   1.000  O
  O31      1.0000 0.72500  0.87223  0.91030  Biso   1.000  O
  O32      1.0000 0.72723  0.88029  0.41477  Biso   1.000  O
  Fe1      1.0000 0.61826  0.27137  0.27156  Biso   1.000  Fe
