data_image0
_cell_length_a       10.1438
_cell_length_b       10.2466
_cell_length_c       5.24912
_cell_angle_alpha    90.1018
_cell_angle_beta     80.9733
_cell_angle_gamma    89.1941

_symmetry_space_group_name_H-M    "P 1"
_symmetry_int_tables_number       1

loop_
  _symmetry_equiv_pos_as_xyz
  'x, y, z'

loop_
  _atom_site_label
  _atom_site_occupancy
  _atom_site_fract_x
  _atom_site_fract_y
  _atom_site_fract_z
  _atom_site_thermal_displace_type
  _atom_site_B_iso_or_equiv
  _atom_site_type_symbol
  Fe1      1.0000 0.11811  0.01090  0.33535  Biso   1.000  Fe
  Zr1      1.0000 0.14138  0.52291  0.29291  Biso   1.000  Zr
  Zr2      1.0000 0.63752  0.02197  0.29198  Biso   1.000  Zr
  Zr3      1.0000 0.63623  0.52031  0.29116  Biso   1.000  Zr
  Zr4      1.0000 0.14410  0.22426  0.77552  Biso   1.000  Zr
  Zr5      1.0000 0.13761  0.73373  0.79414  Biso   1.000  Zr
  Zr6      1.0000 0.64032  0.23029  0.79278  Biso   1.000  Zr
  Zr7      1.0000 0.63450  0.72846  0.79439  Biso   1.000  Zr
  Zr8      1.0000 0.35790  0.26838  0.20072  Biso   1.000  Zr
  Zr9      1.0000 0.35394  0.78078  0.20766  Biso   1.000  Zr
  Zr10     1.0000 0.86959  0.26524  0.21692  Biso   1.000  Zr
  Zr11     1.0000 0.85924  0.76863  0.21362  Biso   1.000  Zr
  Zr12     1.0000 0.36150  0.48055  0.70939  Biso   1.000  Zr
  Zr13     1.0000 0.35755  0.98473  0.70271  Biso   1.000  Zr
  Zr14     1.0000 0.86430  0.47656  0.71593  Biso   1.000  Zr
  Zr15     1.0000 0.85668  0.97646  0.71409  Biso   1.000  Zr
  O1       1.0000 0.04966  0.14092  0.15272  Biso   1.000  O
  O2       1.0000 0.03292  0.66473  0.15777  Biso   1.000  O
  O3       1.0000 0.53580  0.16806  0.15517  Biso   1.000  O
  O4       1.0000 0.53135  0.66882  0.15616  Biso   1.000  O
  O5       1.0000 0.03225  0.08112  0.63660  Biso   1.000  O
  O6       1.0000 0.03583  0.58348  0.66181  Biso   1.000  O
  O7       1.0000 0.53781  0.08339  0.65515  Biso   1.000  O
  O8       1.0000 0.53401  0.58427  0.65434  Biso   1.000  O
  O9       1.0000 0.46501  0.41579  0.34537  Biso   1.000  O
  O10      1.0000 0.46415  0.91834  0.34414  Biso   1.000  O
  O11      1.0000 0.97376  0.40791  0.35637  Biso   1.000  O
  O12      1.0000 0.97009  0.91310  0.34870  Biso   1.000  O
  O13      1.0000 0.47280  0.34236  0.85013  Biso   1.000  O
  O14      1.0000 0.45816  0.83420  0.84083  Biso   1.000  O
  O15      1.0000 0.97006  0.32794  0.85932  Biso   1.000  O
  O16      1.0000 0.96164  0.83261  0.85088  Biso   1.000  O
  O17      1.0000 0.26092  0.11764  0.43839  Biso   1.000  O
  O18      1.0000 0.27474  0.63452  0.48239  Biso   1.000  O
  O19      1.0000 0.77850  0.12616  0.48076  Biso   1.000  O
  O20      1.0000 0.77605  0.62595  0.48457  Biso   1.000  O
  O21      1.0000 0.29950  0.14426  0.91817  Biso   1.000  O
  O22      1.0000 0.27520  0.62722  0.98249  Biso   1.000  O
  O23      1.0000 0.77924  0.11994  0.98373  Biso   1.000  O
  O24      1.0000 0.77491  0.62059  0.98417  Biso   1.000  O
  O25      1.0000 0.22329  0.38310  0.01528  Biso   1.000  O
  O26      1.0000 0.21646  0.89880  0.02921  Biso   1.000  O
  O27      1.0000 0.73075  0.37610  0.02660  Biso   1.000  O
  O28      1.0000 0.72042  0.87782  0.02217  Biso   1.000  O
  O29      1.0000 0.22813  0.36884  0.51756  Biso   1.000  O
  O30      1.0000 0.21094  0.87818  0.51629  Biso   1.000  O
  O31      1.0000 0.72982  0.36962  0.52240  Biso   1.000  O
  O32      1.0000 0.72538  0.87008  0.52108  Biso   1.000  O
