data_image0
_cell_length_a       10.0123
_cell_length_b       5.2128
_cell_length_c       10.0173
_cell_angle_alpha    92.1341
_cell_angle_beta     89.158
_cell_angle_gamma    90.1904

_symmetry_space_group_name_H-M    "P 1"
_symmetry_int_tables_number       1

loop_
  _symmetry_equiv_pos_as_xyz
  'x, y, z'

loop_
  _atom_site_label
  _atom_site_occupancy
  _atom_site_fract_x
  _atom_site_fract_y
  _atom_site_fract_z
  _atom_site_thermal_displace_type
  _atom_site_B_iso_or_equiv
  _atom_site_type_symbol
  Fe1      1.0000 0.11713  0.07097  0.10976  Biso   1.000  Fe
  Zr1      1.0000 0.13734  0.03791  0.63129  Biso   1.000  Zr
  Zr2      1.0000 0.63801  0.04476  0.12674  Biso   1.000  Zr
  Zr3      1.0000 0.62243  0.02271  0.61385  Biso   1.000  Zr
  Zr4      1.0000 0.13792  0.43855  0.37197  Biso   1.000  Zr
  Zr5      1.0000 0.13014  0.48567  0.88795  Biso   1.000  Zr
  Zr6      1.0000 0.63918  0.47371  0.37932  Biso   1.000  Zr
  Zr7      1.0000 0.63550  0.47371  0.86579  Biso   1.000  Zr
  Zr8      1.0000 0.39097  0.52347  0.10582  Biso   1.000  Zr
  Zr9      1.0000 0.36325  0.54172  0.63170  Biso   1.000  Zr
  Zr10     1.0000 0.87026  0.53978  0.11895  Biso   1.000  Zr
  Zr11     1.0000 0.87416  0.52613  0.61707  Biso   1.000  Zr
  Zr12     1.0000 0.36350  0.94008  0.37076  Biso   1.000  Zr
  Zr13     1.0000 0.35277  0.98626  0.88871  Biso   1.000  Zr
  Zr14     1.0000 0.87280  0.97341  0.37152  Biso   1.000  Zr
  Zr15     1.0000 0.86213  0.97508  0.86682  Biso   1.000  Zr
  O1       1.0000 0.03797  0.36611  0.18377  Biso   1.000  O
  O2       1.0000 0.03319  0.36941  0.70529  Biso   1.000  O
  O3       1.0000 0.54101  0.37709  0.20524  Biso   1.000  O
  O4       1.0000 0.53179  0.36918  0.69240  Biso   1.000  O
  O5       1.0000 0.02928  0.13938  0.46121  Biso   1.000  O
  O6       1.0000 0.03109  0.13389  0.94786  Biso   1.000  O
  O7       1.0000 0.53534  0.13607  0.43622  Biso   1.000  O
  O8       1.0000 0.51311  0.18902  0.96588  Biso   1.000  O
  O9       1.0000 0.46917  0.87550  0.18859  Biso   1.000  O
  O10      1.0000 0.45810  0.88343  0.70391  Biso   1.000  O
  O11      1.0000 0.98340  0.87833  0.18254  Biso   1.000  O
  O12      1.0000 0.96630  0.86667  0.69047  Biso   1.000  O
  O13      1.0000 0.47866  0.65407  0.46495  Biso   1.000  O
  O14      1.0000 0.46261  0.66525  0.93140  Biso   1.000  O
  O15      1.0000 0.96785  0.62919  0.43191  Biso   1.000  O
  O16      1.0000 0.95372  0.63720  0.93644  Biso   1.000  O
  O17      1.0000 0.21863  0.09966  0.25580  Biso   1.000  O
  O18      1.0000 0.26855  0.25276  0.76044  Biso   1.000  O
  O19      1.0000 0.77884  0.23984  0.24530  Biso   1.000  O
  O20      1.0000 0.76174  0.22317  0.74262  Biso   1.000  O
  O21      1.0000 0.27496  0.25525  0.50038  Biso   1.000  O
  O22      1.0000 0.25151  0.27313  0.01829  Biso   1.000  O
  O23      1.0000 0.76749  0.26688  0.49548  Biso   1.000  O
  O24      1.0000 0.76392  0.27590  0.99382  Biso   1.000  O
  O25      1.0000 0.22692  0.75427  0.50411  Biso   1.000  O
  O26      1.0000 0.21997  0.78720  0.01946  Biso   1.000  O
  O27      1.0000 0.74090  0.77217  0.49414  Biso   1.000  O
  O28      1.0000 0.72383  0.77903  0.99167  Biso   1.000  O
  O29      1.0000 0.28234  0.60694  0.26853  Biso   1.000  O
  O30      1.0000 0.22414  0.74802  0.76021  Biso   1.000  O
  O31      1.0000 0.73742  0.74164  0.24379  Biso   1.000  O
  O32      1.0000 0.73151  0.72552  0.73991  Biso   1.000  O
