data_image0
_cell_length_a       10.1387
_cell_length_b       5.1754
_cell_length_c       10.5792
_cell_angle_alpha    89.4312
_cell_angle_beta     90.8662
_cell_angle_gamma    90.0339

_symmetry_space_group_name_H-M    "P 1"
_symmetry_int_tables_number       1

loop_
  _symmetry_equiv_pos_as_xyz
  'x, y, z'

loop_
  _atom_site_label
  _atom_site_occupancy
  _atom_site_fract_x
  _atom_site_fract_y
  _atom_site_fract_z
  _atom_site_thermal_displace_type
  _atom_site_B_iso_or_equiv
  _atom_site_type_symbol
  Zr1      1.0000 0.13927  0.03763  0.17162  Biso   1.000  Zr
  Zr2      1.0000 0.13449  0.45813  0.42117  Biso   1.000  Zr
  Zr3      1.0000 0.35552  0.53828  0.17488  Biso   1.000  Zr
  Zr4      1.0000 0.36025  0.96011  0.42488  Biso   1.000  Zr
  Zr5      1.0000 0.64076  0.06845  0.07154  Biso   1.000  Zr
  Zr6      1.0000 0.63245  0.47296  0.33854  Biso   1.000  Zr
  Zr7      1.0000 0.87929  0.54455  0.07108  Biso   1.000  Zr
  Zr8      1.0000 0.85970  0.96128  0.33448  Biso   1.000  Zr
  O1       1.0000 0.03986  0.31616  0.07373  Biso   1.000  O
  O2       1.0000 0.02657  0.18727  0.32374  Biso   1.000  O
  O3       1.0000 0.48112  0.78891  0.07618  Biso   1.000  O
  O4       1.0000 0.46055  0.67569  0.33415  Biso   1.000  O
  O5       1.0000 0.27043  0.24707  0.29598  Biso   1.000  O
  O6       1.0000 0.28072  0.24102  0.04439  Biso   1.000  O
  O7       1.0000 0.22021  0.74656  0.29522  Biso   1.000  O
  O8       1.0000 0.22748  0.74543  0.04580  Biso   1.000  O
  O9       1.0000 0.51895  0.29956  0.17909  Biso   1.000  O
  O10      1.0000 0.52755  0.17785  0.42682  Biso   1.000  O
  O11      1.0000 0.96485  0.83253  0.16975  Biso   1.000  O
  O12      1.0000 0.96515  0.67921  0.41953  Biso   1.000  O
  O13      1.0000 0.77502  0.24710  0.45423  Biso   1.000  O
  O14      1.0000 0.76003  0.32388  0.19416  Biso   1.000  O
  O15      1.0000 0.72453  0.74755  0.46652  Biso   1.000  O
  O16      1.0000 0.71178  0.81421  0.22268  Biso   1.000  O
  Zr9      1.0000 0.13921  0.03711  0.66864  Biso   1.000  Zr
  Zr10     1.0000 0.14655  0.44600  0.91613  Biso   1.000  Zr
  Zr11     1.0000 0.36428  0.53541  0.67067  Biso   1.000  Zr
  Zr12     1.0000 0.36295  0.94409  0.91863  Biso   1.000  Zr
  Zr13     1.0000 0.63867  0.04327  0.58265  Biso   1.000  Zr
  Zr14     1.0000 0.63938  0.45191  0.83582  Biso   1.000  Zr
  Zr15     1.0000 0.86019  0.53917  0.58341  Biso   1.000  Zr
  Zr16     1.0000 0.86501  0.95505  0.82760  Biso   1.000  Zr
  O17      1.0000 0.03038  0.32163  0.57795  Biso   1.000  O
  O18      1.0000 0.03596  0.17193  0.82629  Biso   1.000  O
  O19      1.0000 0.46798  0.82595  0.58520  Biso   1.000  O
  O20      1.0000 0.46568  0.65524  0.83438  Biso   1.000  O
  O21      1.0000 0.27849  0.23725  0.79305  Biso   1.000  O
  O22      1.0000 0.27254  0.25017  0.54452  Biso   1.000  O
  O23      1.0000 0.22648  0.74037  0.79305  Biso   1.000  O
  O24      1.0000 0.22446  0.74924  0.54427  Biso   1.000  O
  O25      1.0000 0.53349  0.32709  0.66990  Biso   1.000  O
  O26      1.0000 0.53377  0.14019  0.90673  Biso   1.000  O
  O27      1.0000 0.96898  0.82503  0.66545  Biso   1.000  O
  O28      1.0000 0.97794  0.67217  0.91198  Biso   1.000  O
  O29      1.0000 0.79004  0.23361  0.94828  Biso   1.000  O
  O30      1.0000 0.77716  0.24757  0.70399  Biso   1.000  O
  O31      1.0000 0.72649  0.73765  0.96747  Biso   1.000  O
  O32      1.0000 0.72664  0.74786  0.71351  Biso   1.000  O
  Fe1      1.0000 0.62948  0.55405  0.10557  Biso   1.000  Fe
