data_image0
_cell_length_a       10.0523
_cell_length_b       10.5136
_cell_length_c       5.05467
_cell_angle_alpha    89.7366
_cell_angle_beta     90.3106
_cell_angle_gamma    90.1152

_symmetry_space_group_name_H-M    "P 1"
_symmetry_int_tables_number       1

loop_
  _symmetry_equiv_pos_as_xyz
  'x, y, z'

loop_
  _atom_site_label
  _atom_site_occupancy
  _atom_site_fract_x
  _atom_site_fract_y
  _atom_site_fract_z
  _atom_site_thermal_displace_type
  _atom_site_B_iso_or_equiv
  _atom_site_type_symbol
  Zr1      1.0000 0.13571  0.02018  0.24569  Biso   1.000  Zr
  Zr2      1.0000 0.14216  0.22352  0.75976  Biso   1.000  Zr
  Zr3      1.0000 0.36401  0.26209  0.24225  Biso   1.000  Zr
  Zr4      1.0000 0.36803  0.48341  0.74559  Biso   1.000  Zr
  O1       1.0000 0.02104  0.17619  0.42228  Biso   1.000  O
  O2       1.0000 0.03683  0.06250  0.89492  Biso   1.000  O
  O3       1.0000 0.46338  0.43192  0.39042  Biso   1.000  O
  O4       1.0000 0.46436  0.31574  0.88548  Biso   1.000  O
  O5       1.0000 0.27089  0.11324  0.49578  Biso   1.000  O
  O6       1.0000 0.28784  0.12033  0.98508  Biso   1.000  O
  O7       1.0000 0.22909  0.38592  0.99865  Biso   1.000  O
  O8       1.0000 0.22528  0.36207  0.48951  Biso   1.000  O
  Zr5      1.0000 0.13450  0.53341  0.24584  Biso   1.000  Zr
  Zr6      1.0000 0.13505  0.73970  0.75021  Biso   1.000  Zr
  Zr7      1.0000 0.36847  0.76597  0.24934  Biso   1.000  Zr
  Zr8      1.0000 0.36911  0.97869  0.74667  Biso   1.000  Zr
  O9       1.0000 0.03292  0.68765  0.39827  Biso   1.000  O
  O10      1.0000 0.03285  0.57245  0.89257  Biso   1.000  O
  O11      1.0000 0.46787  0.93008  0.38427  Biso   1.000  O
  O12      1.0000 0.46837  0.81391  0.88885  Biso   1.000  O
  O13      1.0000 0.27353  0.62054  0.49986  Biso   1.000  O
  O14      1.0000 0.27143  0.63652  0.99278  Biso   1.000  O
  O15      1.0000 0.23163  0.88140  0.99808  Biso   1.000  O
  O16      1.0000 0.23342  0.86648  0.49503  Biso   1.000  O
  Zr9      1.0000 0.63362  0.01331  0.24482  Biso   1.000  Zr
  Zr10     1.0000 0.62950  0.23004  0.74656  Biso   1.000  Zr
  Zr11     1.0000 0.85323  0.26275  0.25518  Biso   1.000  Zr
  Zr12     1.0000 0.86780  0.48291  0.75398  Biso   1.000  Zr
  O17      1.0000 0.53459  0.17983  0.38623  Biso   1.000  O
  O18      1.0000 0.54015  0.06229  0.88200  Biso   1.000  O
  O19      1.0000 0.96793  0.43037  0.40294  Biso   1.000  O
  O20      1.0000 0.97571  0.31613  0.92536  Biso   1.000  O
  O21      1.0000 0.76502  0.11299  0.49669  Biso   1.000  O
  O22      1.0000 0.77035  0.13236  0.99280  Biso   1.000  O
  O23      1.0000 0.73059  0.38230  0.99850  Biso   1.000  O
  O24      1.0000 0.72819  0.36666  0.50364  Biso   1.000  O
  Zr13     1.0000 0.63317  0.51448  0.25231  Biso   1.000  Zr
  Zr14     1.0000 0.63582  0.73221  0.74874  Biso   1.000  Zr
  Zr15     1.0000 0.86571  0.76704  0.24908  Biso   1.000  Zr
  Zr16     1.0000 0.86779  0.98299  0.74617  Biso   1.000  Zr
  O25      1.0000 0.53752  0.68091  0.38838  Biso   1.000  O
  O26      1.0000 0.53347  0.56469  0.88930  Biso   1.000  O
  O27      1.0000 0.96715  0.93222  0.39257  Biso   1.000  O
  O28      1.0000 0.96550  0.81717  0.89326  Biso   1.000  O
  O29      1.0000 0.77109  0.61365  0.50020  Biso   1.000  O
  O30      1.0000 0.76837  0.63187  0.99963  Biso   1.000  O
  O31      1.0000 0.73249  0.88237  0.99467  Biso   1.000  O
  O32      1.0000 0.73196  0.86420  0.49597  Biso   1.000  O
  Fe1      1.0000 0.09950  0.30944  0.21935  Biso   1.000  Fe
