data_image0
_cell_length_a       10.0246
_cell_length_b       10.1293
_cell_length_c       5.00797
_cell_angle_alpha    90.0002
_cell_angle_beta     90
_cell_angle_gamma    90

_symmetry_space_group_name_H-M    "P 1"
_symmetry_int_tables_number       1

loop_
  _symmetry_equiv_pos_as_xyz
  'x, y, z'

loop_
  _atom_site_label
  _atom_site_occupancy
  _atom_site_fract_x
  _atom_site_fract_y
  _atom_site_fract_z
  _atom_site_thermal_displace_type
  _atom_site_B_iso_or_equiv
  _atom_site_type_symbol
  Ga1      1.0000 0.12491  0.00005  0.24982  Biso   1.000  Ga
  Hf1      1.0000 0.12491  0.24988  0.74982  Biso   1.000  Hf
  Hf2      1.0000 0.37508  0.24834  0.25462  Biso   1.000  Hf
  Hf3      1.0000 0.37139  0.00005  0.74982  Biso   1.000  Hf
  O1       1.0000 0.97990  0.15437  0.95336  Biso   1.000  O
  O2       1.0000 0.01247  0.09755  0.46838  Biso   1.000  O
  O3       1.0000 0.99769  0.35012  0.49887  Biso   1.000  O
  O4       1.0000 0.00226  0.39990  0.99817  Biso   1.000  O
  O5       1.0000 0.26991  0.15437  0.54627  Biso   1.000  O
  O6       1.0000 0.23734  0.09755  0.03125  Biso   1.000  O
  O7       1.0000 0.25212  0.35013  0.00076  Biso   1.000  O
  O8       1.0000 0.24756  0.39990  0.50148  Biso   1.000  O
  Hf4      1.0000 0.12491  0.50005  0.24982  Biso   1.000  Hf
  Hf5      1.0000 0.12491  0.75023  0.74982  Biso   1.000  Hf
  Hf6      1.0000 0.37508  0.75177  0.24502  Biso   1.000  Hf
  Hf7      1.0000 0.37859  0.50005  0.74982  Biso   1.000  Hf
  O9       1.0000 0.99769  0.64998  0.00076  Biso   1.000  O
  O10      1.0000 0.00226  0.60021  0.50147  Biso   1.000  O
  O11      1.0000 0.97991  0.84574  0.54627  Biso   1.000  O
  O12      1.0000 0.01247  0.90255  0.03125  Biso   1.000  O
  O13      1.0000 0.25213  0.64998  0.49888  Biso   1.000  O
  O14      1.0000 0.24755  0.60021  0.99817  Biso   1.000  O
  O15      1.0000 0.26991  0.84574  0.95336  Biso   1.000  O
  O16      1.0000 0.23734  0.90255  0.46838  Biso   1.000  O
  Hf8      1.0000 0.62491  0.00005  0.24981  Biso   1.000  Hf
  Hf9      1.0000 0.62491  0.24746  0.74982  Biso   1.000  Hf
  Hf10     1.0000 0.87473  0.24834  0.24502  Biso   1.000  Hf
  Hf11     1.0000 0.87842  0.00005  0.74981  Biso   1.000  Hf
  O17      1.0000 0.48712  0.14531  0.98382  Biso   1.000  O
  O18      1.0000 0.50920  0.10554  0.49394  Biso   1.000  O
  O19      1.0000 0.49733  0.35516  0.50604  Biso   1.000  O
  O20      1.0000 0.50215  0.39451  0.00381  Biso   1.000  O
  O21      1.0000 0.76269  0.14531  0.51581  Biso   1.000  O
  O22      1.0000 0.74062  0.10554  0.00569  Biso   1.000  O
  O23      1.0000 0.75249  0.35516  0.99360  Biso   1.000  O
  O24      1.0000 0.74767  0.39451  0.49583  Biso   1.000  O
  Hf12     1.0000 0.62491  0.50005  0.24982  Biso   1.000  Hf
  Hf13     1.0000 0.62491  0.75265  0.74982  Biso   1.000  Hf
  Hf14     1.0000 0.87474  0.75177  0.25462  Biso   1.000  Hf
  Hf15     1.0000 0.87123  0.50005  0.74982  Biso   1.000  Hf
  O25      1.0000 0.49733  0.64495  0.99360  Biso   1.000  O
  O26      1.0000 0.50215  0.60560  0.49583  Biso   1.000  O
  O27      1.0000 0.48713  0.85480  0.51582  Biso   1.000  O
  O28      1.0000 0.50920  0.89457  0.00569  Biso   1.000  O
  O29      1.0000 0.75249  0.64495  0.50604  Biso   1.000  O
  O30      1.0000 0.74767  0.60560  0.00381  Biso   1.000  O
  O31      1.0000 0.76269  0.85480  0.98382  Biso   1.000  O
  O32      1.0000 0.74062  0.89457  0.49394  Biso   1.000  O
