data_image0
_cell_length_a       10.1573
_cell_length_b       10.3022
_cell_length_c       10.4949
_cell_angle_alpha    90.1223
_cell_angle_beta     79.7255
_cell_angle_gamma    89.9596

_symmetry_space_group_name_H-M    "P 1"
_symmetry_int_tables_number       1

loop_
  _symmetry_equiv_pos_as_xyz
  'x, y, z'

loop_
  _atom_site_label
  _atom_site_occupancy
  _atom_site_fract_x
  _atom_site_fract_y
  _atom_site_fract_z
  _atom_site_thermal_displace_type
  _atom_site_B_iso_or_equiv
  _atom_site_type_symbol
  Hf1      1.0000 0.13248  0.02065  0.14294  Biso   1.000  Hf
  Hf2      1.0000 0.14112  0.22894  0.39167  Biso   1.000  Hf
  Hf3      1.0000 0.35344  0.27360  0.09982  Biso   1.000  Hf
  Hf4      1.0000 0.35642  0.48025  0.34768  Biso   1.000  Hf
  O1       1.0000 0.03198  0.16904  0.07838  Biso   1.000  O
  O2       1.0000 0.03178  0.08175  0.32965  Biso   1.000  O
  O3       1.0000 0.45640  0.43645  0.15576  Biso   1.000  O
  O4       1.0000 0.48295  0.34692  0.43833  Biso   1.000  O
  O5       1.0000 0.26674  0.11677  0.23403  Biso   1.000  O
  O6       1.0000 0.28431  0.12076  0.48658  Biso   1.000  O
  O7       1.0000 0.21836  0.38195  0.00475  Biso   1.000  O
  O8       1.0000 0.20705  0.37507  0.25286  Biso   1.000  O
  Hf5      1.0000 0.13873  0.02165  0.64553  Biso   1.000  Hf
  Hf6      1.0000 0.13615  0.22937  0.89447  Biso   1.000  Hf
  Hf7      1.0000 0.36294  0.27313  0.60937  Biso   1.000  Hf
  Hf8      1.0000 0.36072  0.47923  0.85573  Biso   1.000  Hf
  O9       1.0000 0.04155  0.17022  0.57858  Biso   1.000  O
  O10      1.0000 0.03426  0.08205  0.82831  Biso   1.000  O
  O11      1.0000 0.46757  0.41615  0.67776  Biso   1.000  O
  O12      1.0000 0.46325  0.33090  0.92056  Biso   1.000  O
  O13      1.0000 0.27597  0.12860  0.73913  Biso   1.000  O
  O14      1.0000 0.27234  0.12297  0.98711  Biso   1.000  O
  O15      1.0000 0.22825  0.37737  0.50796  Biso   1.000  O
  O16      1.0000 0.22422  0.37135  0.75860  Biso   1.000  O
  Hf9      1.0000 0.13647  0.52290  0.14321  Biso   1.000  Hf
  Hf10     1.0000 0.13622  0.72616  0.39676  Biso   1.000  Hf
  Hf11     1.0000 0.35985  0.77172  0.10348  Biso   1.000  Hf
  Hf12     1.0000 0.35364  0.96704  0.35501  Biso   1.000  Hf
  O17      1.0000 0.03250  0.67077  0.07848  Biso   1.000  O
  O18      1.0000 0.03320  0.58371  0.32787  Biso   1.000  O
  O19      1.0000 0.46345  0.91722  0.17337  Biso   1.000  O
  O20      1.0000 0.46209  0.82773  0.42201  Biso   1.000  O
  O21      1.0000 0.27425  0.62880  0.24060  Biso   1.000  O
  O22      1.0000 0.27424  0.62001  0.48945  Biso   1.000  O
  O23      1.0000 0.22277  0.87972  0.00892  Biso   1.000  O
  O24      1.0000 0.21927  0.86624  0.25891  Biso   1.000  O
  Hf13     1.0000 0.14012  0.52144  0.64541  Biso   1.000  Hf
  Hf14     1.0000 0.13694  0.72916  0.89602  Biso   1.000  Hf
  Hf15     1.0000 0.36100  0.77025  0.60556  Biso   1.000  Hf
  Hf16     1.0000 0.36011  0.97880  0.85406  Biso   1.000  Hf
  O25      1.0000 0.03307  0.66625  0.58017  Biso   1.000  O
  O26      1.0000 0.03509  0.58203  0.82943  Biso   1.000  O
  O27      1.0000 0.46482  0.91690  0.67133  Biso   1.000  O
  O28      1.0000 0.46414  0.83334  0.92117  Biso   1.000  O
  O29      1.0000 0.27637  0.62803  0.74034  Biso   1.000  O
  O30      1.0000 0.27534  0.62352  0.99048  Biso   1.000  O
  O31      1.0000 0.22096  0.87684  0.51089  Biso   1.000  O
  O32      1.0000 0.22315  0.87104  0.75971  Biso   1.000  O
  Hf17     1.0000 0.63910  0.01931  0.14675  Biso   1.000  Hf
  Hf18     1.0000 0.66010  0.23181  0.40775  Biso   1.000  Hf
  Hf19     1.0000 0.85841  0.27281  0.10663  Biso   1.000  Hf
  Hf20     1.0000 0.86275  0.48028  0.35431  Biso   1.000  Hf
  O33      1.0000 0.53069  0.16456  0.08024  Biso   1.000  O
  O34      1.0000 0.53110  0.07765  0.33723  Biso   1.000  O
  O35      1.0000 0.96087  0.42253  0.16782  Biso   1.000  O
  O36      1.0000 0.96461  0.33129  0.42063  Biso   1.000  O
  O37      1.0000 0.77489  0.12853  0.24436  Biso   1.000  O
  O38      1.0000 0.78598  0.11637  0.49778  Biso   1.000  O
  O39      1.0000 0.72066  0.37838  0.01295  Biso   1.000  O
  O40      1.0000 0.72462  0.37261  0.26352  Biso   1.000  O
  Hf21     1.0000 0.63914  0.02046  0.64878  Biso   1.000  Hf
  Hf22     1.0000 0.63769  0.22844  0.89821  Biso   1.000  Hf
  Hf23     1.0000 0.86640  0.27132  0.60803  Biso   1.000  Hf
  Hf24     1.0000 0.86081  0.47869  0.85601  Biso   1.000  Hf
  O41      1.0000 0.53923  0.16769  0.58113  Biso   1.000  O
  O42      1.0000 0.53410  0.08185  0.83031  Biso   1.000  O
  O43      1.0000 0.96758  0.41763  0.67286  Biso   1.000  O
  O44      1.0000 0.96162  0.33126  0.92129  Biso   1.000  O
  O45      1.0000 0.77629  0.12962  0.74395  Biso   1.000  O
  O46      1.0000 0.77428  0.12122  0.99332  Biso   1.000  O
  O47      1.0000 0.73014  0.38038  0.51552  Biso   1.000  O
  O48      1.0000 0.72498  0.37144  0.76302  Biso   1.000  O
  Hf25     1.0000 0.63563  0.52354  0.14584  Biso   1.000  Hf
  Hf26     1.0000 0.63746  0.72638  0.39700  Biso   1.000  Hf
  Hf27     1.0000 0.85799  0.77097  0.10476  Biso   1.000  Hf
  Hf28     1.0000 0.86057  0.97584  0.35565  Biso   1.000  Hf
  O49      1.0000 0.53736  0.67526  0.08097  Biso   1.000  O
  O50      1.0000 0.53211  0.58144  0.32880  Biso   1.000  O
  O51      1.0000 0.96008  0.91657  0.17212  Biso   1.000  O
  O52      1.0000 0.96361  0.83071  0.42233  Biso   1.000  O
  O53      1.0000 0.77441  0.63030  0.24185  Biso   1.000  O
  O54      1.0000 0.77509  0.62101  0.49143  Biso   1.000  O
  O55      1.0000 0.72257  0.87998  0.01031  Biso   1.000  O
  O56      1.0000 0.71897  0.87169  0.26162  Biso   1.000  O
  Hf29     1.0000 0.63927  0.52242  0.64936  Biso   1.000  Hf
  Hf30     1.0000 0.63784  0.72976  0.89713  Biso   1.000  Hf
  Hf31     1.0000 0.86047  0.77165  0.60512  Biso   1.000  Hf
  Hf32     1.0000 0.86058  0.97918  0.85492  Biso   1.000  Hf
  O57      1.0000 0.53359  0.66572  0.58074  Biso   1.000  O
  O58      1.0000 0.53440  0.58341  0.83205  Biso   1.000  O
  O59      1.0000 0.96453  0.91867  0.67093  Biso   1.000  O
  O60      1.0000 0.96344  0.83279  0.92088  Biso   1.000  O
  O61      1.0000 0.77606  0.62923  0.74150  Biso   1.000  O
  O62      1.0000 0.77496  0.62104  0.99097  Biso   1.000  O
  O63      1.0000 0.72142  0.87713  0.51133  Biso   1.000  O
  O64      1.0000 0.72389  0.87158  0.76122  Biso   1.000  O
  Ga1      1.0000 0.44093  0.23282  0.30557  Biso   1.000  Ga
