data_image0
_cell_length_a       10.2927
_cell_length_b       5.33759
_cell_length_c       10.2679
_cell_angle_alpha    100.989
_cell_angle_beta     86.3351
_cell_angle_gamma    95.8931

_symmetry_space_group_name_H-M    "P 1"
_symmetry_int_tables_number       1

loop_
  _symmetry_equiv_pos_as_xyz
  'x, y, z'

loop_
  _atom_site_label
  _atom_site_occupancy
  _atom_site_fract_x
  _atom_site_fract_y
  _atom_site_fract_z
  _atom_site_thermal_displace_type
  _atom_site_B_iso_or_equiv
  _atom_site_type_symbol
  Hf1      1.0000 0.14845  0.90794  0.15606  Biso   1.000  Hf
  Hf2      1.0000 0.10831  0.48206  0.37251  Biso   1.000  Hf
  Hf3      1.0000 0.35431  0.44281  0.14497  Biso   1.000  Hf
  Hf4      1.0000 0.39917  0.03672  0.36395  Biso   1.000  Hf
  O1       1.0000 0.97993  0.34294  0.99192  Biso   1.000  O
  O2       1.0000 0.00468  0.13830  0.26594  Biso   1.000  O
  O3       1.0000 0.98241  0.65945  0.25459  Biso   1.000  O
  O4       1.0000 0.00793  0.82452  0.00541  Biso   1.000  O
  O5       1.0000 0.25883  0.23856  0.29639  Biso   1.000  O
  O6       1.0000 0.29663  0.07789  0.03714  Biso   1.000  O
  O7       1.0000 0.22662  0.59254  0.01668  Biso   1.000  O
  O8       1.0000 0.25676  0.74548  0.28814  Biso   1.000  O
  Hf5      1.0000 0.14761  0.93594  0.65009  Biso   1.000  Hf
  Hf6      1.0000 0.10703  0.51045  0.85531  Biso   1.000  Hf
  Hf7      1.0000 0.35460  0.46179  0.63322  Biso   1.000  Hf
  Hf8      1.0000 0.40150  0.04640  0.86554  Biso   1.000  Hf
  O9       1.0000 0.99224  0.30393  0.50626  Biso   1.000  O
  O10      1.0000 0.01139  0.16379  0.75889  Biso   1.000  O
  O11      1.0000 0.99154  0.67938  0.74945  Biso   1.000  O
  O12      1.0000 0.00459  0.79353  0.50834  Biso   1.000  O
  O13      1.0000 0.25181  0.27121  0.77593  Biso   1.000  O
  O14      1.0000 0.27889  0.10105  0.53282  Biso   1.000  O
  O15      1.0000 0.22267  0.59947  0.53684  Biso   1.000  O
  O16      1.0000 0.24984  0.77313  0.77817  Biso   1.000  O
  Hf9      1.0000 0.64409  0.02008  0.12860  Biso   1.000  Hf
  Hf10     1.0000 0.60109  0.57985  0.35080  Biso   1.000  Hf
  Hf11     1.0000 0.83787  0.54504  0.11112  Biso   1.000  Hf
  Hf12     1.0000 0.89426  0.97501  0.39905  Biso   1.000  Hf
  O17      1.0000 0.47674  0.40433  0.97096  Biso   1.000  O
  O18      1.0000 0.49779  0.24447  0.22196  Biso   1.000  O
  O19      1.0000 0.50067  0.74386  0.22035  Biso   1.000  O
  O20      1.0000 0.53327  0.90681  0.96275  Biso   1.000  O
  O21      1.0000 0.73583  0.35461  0.24130  Biso   1.000  O
  O22      1.0000 0.75611  0.20358  0.99947  Biso   1.000  O
  O23      1.0000 0.74599  0.71726  0.98858  Biso   1.000  O
  O24      1.0000 0.75103  0.84443  0.24779  Biso   1.000  O
  Hf13     1.0000 0.64586  0.01955  0.63043  Biso   1.000  Hf
  Hf14     1.0000 0.60165  0.57675  0.84621  Biso   1.000  Hf
  Hf15     1.0000 0.85276  0.52470  0.60397  Biso   1.000  Hf
  Hf16     1.0000 0.89273  0.98413  0.88782  Biso   1.000  Hf
  O25      1.0000 0.47986  0.39471  0.47124  Biso   1.000  O
  O26      1.0000 0.50019  0.24701  0.72161  Biso   1.000  O
  O27      1.0000 0.49897  0.74637  0.72045  Biso   1.000  O
  O28      1.0000 0.52730  0.89902  0.47074  Biso   1.000  O
  O29      1.0000 0.74196  0.35370  0.74171  Biso   1.000  O
  O30      1.0000 0.75479  0.19726  0.49777  Biso   1.000  O
  O31      1.0000 0.74682  0.70670  0.49086  Biso   1.000  O
  O32      1.0000 0.75482  0.84041  0.74561  Biso   1.000  O
  Ga1      1.0000 0.10427  0.34574  0.11072  Biso   1.000  Ga
