data_image0
_cell_length_a       9.95381
_cell_length_b       10.3543
_cell_length_c       9.99891
_cell_angle_alpha    90.2783
_cell_angle_beta     89.7702
_cell_angle_gamma    90.1026

_symmetry_space_group_name_H-M    "P 1"
_symmetry_int_tables_number       1

loop_
  _symmetry_equiv_pos_as_xyz
  'x, y, z'

loop_
  _atom_site_label
  _atom_site_occupancy
  _atom_site_fract_x
  _atom_site_fract_y
  _atom_site_fract_z
  _atom_site_thermal_displace_type
  _atom_site_B_iso_or_equiv
  _atom_site_type_symbol
  Ga1      1.0000 0.12335  0.02503  0.11115  Biso   1.000  Ga
  Hf1      1.0000 0.13408  0.22892  0.37220  Biso   1.000  Hf
  Hf2      1.0000 0.36428  0.26245  0.12513  Biso   1.000  Hf
  Hf3      1.0000 0.36643  0.48216  0.37584  Biso   1.000  Hf
  O1       1.0000 0.03325  0.18185  0.19246  Biso   1.000  O
  O2       1.0000 0.03602  0.06567  0.44850  Biso   1.000  O
  O3       1.0000 0.46464  0.43225  0.19428  Biso   1.000  O
  O4       1.0000 0.46497  0.31575  0.44494  Biso   1.000  O
  O5       1.0000 0.26392  0.10915  0.24408  Biso   1.000  O
  O6       1.0000 0.27130  0.13224  0.49757  Biso   1.000  O
  O7       1.0000 0.22920  0.38158  0.49900  Biso   1.000  O
  O8       1.0000 0.23018  0.36330  0.24876  Biso   1.000  O
  Hf4      1.0000 0.13472  0.01742  0.62783  Biso   1.000  Hf
  Hf5      1.0000 0.13342  0.23527  0.87560  Biso   1.000  Hf
  Hf6      1.0000 0.36539  0.26646  0.62516  Biso   1.000  Hf
  Hf7      1.0000 0.36582  0.48478  0.87603  Biso   1.000  Hf
  O9       1.0000 0.03583  0.18585  0.69435  Biso   1.000  O
  O10      1.0000 0.03438  0.06743  0.93995  Biso   1.000  O
  O11      1.0000 0.46377  0.43455  0.69451  Biso   1.000  O
  O12      1.0000 0.46326  0.31641  0.94355  Biso   1.000  O
  O13      1.0000 0.27160  0.11901  0.74890  Biso   1.000  O
  O14      1.0000 0.26823  0.13528  0.99677  Biso   1.000  O
  O15      1.0000 0.22974  0.38347  0.99910  Biso   1.000  O
  O16      1.0000 0.22920  0.36902  0.74928  Biso   1.000  O
  Hf8      1.0000 0.13457  0.51473  0.12586  Biso   1.000  Hf
  Hf9      1.0000 0.13629  0.73265  0.37769  Biso   1.000  Hf
  Hf10     1.0000 0.36520  0.76562  0.12778  Biso   1.000  Hf
  Hf11     1.0000 0.36186  0.98230  0.37271  Biso   1.000  Hf
  O17      1.0000 0.03676  0.68291  0.19573  Biso   1.000  O
  O18      1.0000 0.03601  0.56405  0.44629  Biso   1.000  O
  O19      1.0000 0.46893  0.93200  0.19614  Biso   1.000  O
  O20      1.0000 0.46778  0.81752  0.45034  Biso   1.000  O
  O21      1.0000 0.26983  0.61042  0.24958  Biso   1.000  O
  O22      1.0000 0.27252  0.63231  0.50080  Biso   1.000  O
  O23      1.0000 0.22934  0.88240  0.50497  Biso   1.000  O
  O24      1.0000 0.24340  0.85325  0.26113  Biso   1.000  O
  Hf12     1.0000 0.13505  0.51693  0.62644  Biso   1.000  Hf
  Hf13     1.0000 0.13413  0.73620  0.87961  Biso   1.000  Hf
  Hf14     1.0000 0.36621  0.76847  0.62868  Biso   1.000  Hf
  Hf15     1.0000 0.36152  0.98546  0.88145  Biso   1.000  Hf
  O25      1.0000 0.03665  0.68523  0.69574  Biso   1.000  O
  O26      1.0000 0.03505  0.56736  0.94584  Biso   1.000  O
  O27      1.0000 0.46354  0.93527  0.69823  Biso   1.000  O
  O28      1.0000 0.46069  0.81754  0.94445  Biso   1.000  O
  O29      1.0000 0.27035  0.61926  0.75136  Biso   1.000  O
  O30      1.0000 0.26960  0.63358  0.00051  Biso   1.000  O
  O31      1.0000 0.22422  0.88823  0.01145  Biso   1.000  O
  O32      1.0000 0.22874  0.86962  0.75529  Biso   1.000  O
  Hf16     1.0000 0.63440  0.01640  0.12522  Biso   1.000  Hf
  Hf17     1.0000 0.63439  0.23226  0.37582  Biso   1.000  Hf
  Hf18     1.0000 0.86544  0.26588  0.12470  Biso   1.000  Hf
  Hf19     1.0000 0.86617  0.48338  0.37601  Biso   1.000  Hf
  O33      1.0000 0.53441  0.18327  0.19583  Biso   1.000  O
  O34      1.0000 0.53532  0.06527  0.44353  Biso   1.000  O
  O35      1.0000 0.96476  0.43290  0.19529  Biso   1.000  O
  O36      1.0000 0.96375  0.31431  0.44213  Biso   1.000  O
  O37      1.0000 0.77032  0.11657  0.24815  Biso   1.000  O
  O38      1.0000 0.77103  0.13240  0.49774  Biso   1.000  O
  O39      1.0000 0.72968  0.38260  0.49942  Biso   1.000  O
  O40      1.0000 0.72930  0.36682  0.24928  Biso   1.000  O
  Hf20     1.0000 0.63224  0.01529  0.62351  Biso   1.000  Hf
  Hf21     1.0000 0.63328  0.23409  0.87446  Biso   1.000  Hf
  Hf22     1.0000 0.86591  0.26609  0.62422  Biso   1.000  Hf
  Hf23     1.0000 0.86523  0.48513  0.87560  Biso   1.000  Hf
  O41      1.0000 0.53635  0.18506  0.69275  Biso   1.000  O
  O42      1.0000 0.53441  0.06764  0.94597  Biso   1.000  O
  O43      1.0000 0.96388  0.43470  0.69401  Biso   1.000  O
  O44      1.0000 0.96355  0.31820  0.94458  Biso   1.000  O
  O45      1.0000 0.76939  0.11730  0.74752  Biso   1.000  O
  O46      1.0000 0.76977  0.13362  0.99775  Biso   1.000  O
  O47      1.0000 0.72853  0.38347  0.99882  Biso   1.000  O
  O48      1.0000 0.72945  0.36807  0.74892  Biso   1.000  O
  Hf24     1.0000 0.63434  0.51667  0.12696  Biso   1.000  Hf
  Hf25     1.0000 0.63551  0.73497  0.37576  Biso   1.000  Hf
  Hf26     1.0000 0.87049  0.76792  0.12424  Biso   1.000  Hf
  Hf27     1.0000 0.87056  0.98409  0.37265  Biso   1.000  Hf
  O49      1.0000 0.53616  0.68368  0.19703  Biso   1.000  O
  O50      1.0000 0.53679  0.56611  0.44430  Biso   1.000  O
  O51      1.0000 0.97572  0.93444  0.19247  Biso   1.000  O
  O52      1.0000 0.96517  0.81561  0.44411  Biso   1.000  O
  O53      1.0000 0.77214  0.61688  0.24947  Biso   1.000  O
  O54      1.0000 0.77032  0.63307  0.49970  Biso   1.000  O
  O55      1.0000 0.73254  0.88372  0.49764  Biso   1.000  O
  O56      1.0000 0.73522  0.86707  0.24778  Biso   1.000  O
  Hf28     1.0000 0.63408  0.51696  0.62575  Biso   1.000  Hf
  Hf29     1.0000 0.63304  0.73508  0.87653  Biso   1.000  Hf
  Hf30     1.0000 0.86694  0.76679  0.62534  Biso   1.000  Hf
  Hf31     1.0000 0.86481  0.98478  0.87399  Biso   1.000  Hf
  O57      1.0000 0.53541  0.68374  0.69610  Biso   1.000  O
  O58      1.0000 0.53519  0.56745  0.94619  Biso   1.000  O
  O59      1.0000 0.96385  0.93470  0.69369  Biso   1.000  O
  O60      1.0000 0.96127  0.81635  0.94152  Biso   1.000  O
  O61      1.0000 0.77008  0.61828  0.74980  Biso   1.000  O
  O62      1.0000 0.76994  0.63388  0.99990  Biso   1.000  O
  O63      1.0000 0.72851  0.88335  0.99847  Biso   1.000  O
  O64      1.0000 0.72842  0.86721  0.74792  Biso   1.000  O
