data_image0
_cell_length_a       10.1187
_cell_length_b       10.2077
_cell_length_c       5.22645
_cell_angle_alpha    90.1691
_cell_angle_beta     80.5948
_cell_angle_gamma    89.6152

_symmetry_space_group_name_H-M    "P 1"
_symmetry_int_tables_number       1

loop_
  _symmetry_equiv_pos_as_xyz
  'x, y, z'

loop_
  _atom_site_label
  _atom_site_occupancy
  _atom_site_fract_x
  _atom_site_fract_y
  _atom_site_fract_z
  _atom_site_thermal_displace_type
  _atom_site_B_iso_or_equiv
  _atom_site_type_symbol
  Ga1      1.0000 0.12501  0.01086  0.31209  Biso   1.000  Ga
  Hf1      1.0000 0.14039  0.22361  0.78002  Biso   1.000  Hf
  Hf2      1.0000 0.35659  0.26746  0.20239  Biso   1.000  Hf
  Hf3      1.0000 0.35982  0.47939  0.70800  Biso   1.000  Hf
  O1       1.0000 0.04407  0.15702  0.15067  Biso   1.000  O
  O2       1.0000 0.03104  0.08088  0.65631  Biso   1.000  O
  O3       1.0000 0.46556  0.41445  0.34422  Biso   1.000  O
  O4       1.0000 0.47065  0.33973  0.84651  Biso   1.000  O
  O5       1.0000 0.26759  0.11940  0.44846  Biso   1.000  O
  O6       1.0000 0.29452  0.13959  0.93088  Biso   1.000  O
  O7       1.0000 0.22360  0.38323  0.01605  Biso   1.000  O
  O8       1.0000 0.22563  0.36876  0.51714  Biso   1.000  O
  Hf4      1.0000 0.14091  0.52223  0.29247  Biso   1.000  Hf
  Hf5      1.0000 0.13914  0.73218  0.79468  Biso   1.000  Hf
  Hf6      1.0000 0.35699  0.77659  0.21038  Biso   1.000  Hf
  Hf7      1.0000 0.35811  0.98267  0.70327  Biso   1.000  Hf
  O9       1.0000 0.03401  0.66684  0.16118  Biso   1.000  O
  O10      1.0000 0.03561  0.58395  0.66147  Biso   1.000  O
  O11      1.0000 0.46704  0.91677  0.34328  Biso   1.000  O
  O12      1.0000 0.46177  0.83442  0.84329  Biso   1.000  O
  O13      1.0000 0.27649  0.62900  0.48074  Biso   1.000  O
  O14      1.0000 0.27623  0.62607  0.98134  Biso   1.000  O
  O15      1.0000 0.22119  0.89387  0.02941  Biso   1.000  O
  O16      1.0000 0.22146  0.86946  0.52330  Biso   1.000  O
  Hf8      1.0000 0.63908  0.02219  0.29285  Biso   1.000  Hf
  Hf9      1.0000 0.64058  0.22998  0.79352  Biso   1.000  Hf
  Hf10     1.0000 0.86850  0.26682  0.21082  Biso   1.000  Hf
  Hf11     1.0000 0.86233  0.47818  0.71268  Biso   1.000  Hf
  O17      1.0000 0.53468  0.16712  0.15555  Biso   1.000  O
  O18      1.0000 0.53640  0.08459  0.65452  Biso   1.000  O
  O19      1.0000 0.96947  0.41390  0.34917  Biso   1.000  O
  O20      1.0000 0.96788  0.33258  0.84995  Biso   1.000  O
  O21      1.0000 0.77776  0.12816  0.48219  Biso   1.000  O
  O22      1.0000 0.77742  0.12087  0.98400  Biso   1.000  O
  O23      1.0000 0.72765  0.37700  0.02406  Biso   1.000  O
  O24      1.0000 0.72707  0.37069  0.52149  Biso   1.000  O
  Hf12     1.0000 0.63796  0.51951  0.29261  Biso   1.000  Hf
  Hf13     1.0000 0.63630  0.72906  0.79458  Biso   1.000  Hf
  Hf14     1.0000 0.85917  0.77026  0.21260  Biso   1.000  Hf
  Hf15     1.0000 0.85890  0.97762  0.71175  Biso   1.000  Hf
  O25      1.0000 0.53234  0.66691  0.15827  Biso   1.000  O
  O26      1.0000 0.53342  0.58379  0.65636  Biso   1.000  O
  O27      1.0000 0.96287  0.91445  0.34751  Biso   1.000  O
  O28      1.0000 0.96291  0.83165  0.84750  Biso   1.000  O
  O29      1.0000 0.77567  0.62745  0.48359  Biso   1.000  O
  O30      1.0000 0.77461  0.62025  0.98298  Biso   1.000  O
  O31      1.0000 0.72149  0.87814  0.02173  Biso   1.000  O
  O32      1.0000 0.72208  0.87042  0.52216  Biso   1.000  O
