data_image0
_cell_length_a       10.0815
_cell_length_b       5.15363
_cell_length_c       10.5144
_cell_angle_alpha    89.7333
_cell_angle_beta     91.6325
_cell_angle_gamma    89.8605

_symmetry_space_group_name_H-M    "P 1"
_symmetry_int_tables_number       1

loop_
  _symmetry_equiv_pos_as_xyz
  'x, y, z'

loop_
  _atom_site_label
  _atom_site_occupancy
  _atom_site_fract_x
  _atom_site_fract_y
  _atom_site_fract_z
  _atom_site_thermal_displace_type
  _atom_site_B_iso_or_equiv
  _atom_site_type_symbol
  Hf1      1.0000 0.13305  0.03815  0.17425  Biso   1.000  Hf
  Hf2      1.0000 0.13462  0.45465  0.42680  Biso   1.000  Hf
  Hf3      1.0000 0.34372  0.53364  0.18737  Biso   1.000  Hf
  Hf4      1.0000 0.36140  0.95616  0.42841  Biso   1.000  Hf
  Hf5      1.0000 0.65137  0.06119  0.06952  Biso   1.000  Hf
  Hf6      1.0000 0.63745  0.46019  0.33326  Biso   1.000  Hf
  Hf7      1.0000 0.86038  0.54386  0.07633  Biso   1.000  Hf
  Hf8      1.0000 0.85886  0.95890  0.32853  Biso   1.000  Hf
  O1       1.0000 0.03500  0.33916  0.08804  Biso   1.000  O
  O2       1.0000 0.02920  0.16775  0.33652  Biso   1.000  O
  O3       1.0000 0.47441  0.85186  0.09109  Biso   1.000  O
  O4       1.0000 0.46429  0.67302  0.33755  Biso   1.000  O
  O5       1.0000 0.26806  0.24634  0.30187  Biso   1.000  O
  O6       1.0000 0.27121  0.23405  0.05055  Biso   1.000  O
  O7       1.0000 0.21652  0.75059  0.30404  Biso   1.000  O
  O8       1.0000 0.22309  0.74924  0.05327  Biso   1.000  O
  O9       1.0000 0.51949  0.31175  0.18537  Biso   1.000  O
  O10      1.0000 0.53010  0.17439  0.42294  Biso   1.000  O
  O11      1.0000 0.96100  0.83735  0.16649  Biso   1.000  O
  O12      1.0000 0.96450  0.66697  0.41684  Biso   1.000  O
  O13      1.0000 0.77532  0.24881  0.45367  Biso   1.000  O
  O14      1.0000 0.77521  0.26063  0.20454  Biso   1.000  O
  O15      1.0000 0.72389  0.75135  0.45572  Biso   1.000  O
  O16      1.0000 0.72036  0.75417  0.20434  Biso   1.000  O
  Hf9      1.0000 0.14379  0.03965  0.67418  Biso   1.000  Hf
  Hf10     1.0000 0.14298  0.45809  0.92603  Biso   1.000  Hf
  Hf11     1.0000 0.36571  0.53817  0.67572  Biso   1.000  Hf
  Hf12     1.0000 0.36235  0.96092  0.92403  Biso   1.000  Hf
  Hf13     1.0000 0.64088  0.04134  0.57910  Biso   1.000  Hf
  Hf14     1.0000 0.65172  0.45230  0.82170  Biso   1.000  Hf
  Hf15     1.0000 0.86441  0.54248  0.57845  Biso   1.000  Hf
  Hf16     1.0000 0.87264  0.95878  0.82602  Biso   1.000  Hf
  O17      1.0000 0.03518  0.32949  0.58641  Biso   1.000  O
  O18      1.0000 0.04420  0.16427  0.83552  Biso   1.000  O
  O19      1.0000 0.47037  0.82873  0.58786  Biso   1.000  O
  O20      1.0000 0.47362  0.66101  0.83682  Biso   1.000  O
  O21      1.0000 0.28271  0.24908  0.79857  Biso   1.000  O
  O22      1.0000 0.27693  0.24829  0.54958  Biso   1.000  O
  O23      1.0000 0.23043  0.74685  0.80009  Biso   1.000  O
  O24      1.0000 0.22679  0.74793  0.55043  Biso   1.000  O
  O25      1.0000 0.53782  0.33241  0.66530  Biso   1.000  O
  O26      1.0000 0.54111  0.13177  0.89988  Biso   1.000  O
  O27      1.0000 0.97394  0.82845  0.66478  Biso   1.000  O
  O28      1.0000 0.97404  0.66579  0.91645  Biso   1.000  O
  O29      1.0000 0.79494  0.25059  0.94528  Biso   1.000  O
  O30      1.0000 0.78372  0.24587  0.69935  Biso   1.000  O
  O31      1.0000 0.74122  0.77779  0.95045  Biso   1.000  O
  O32      1.0000 0.73173  0.74610  0.70364  Biso   1.000  O
  Ga1      1.0000 0.54312  0.53033  0.03237  Biso   1.000  Ga
