data_image0
_cell_length_a       5.05844
_cell_length_b       10.2071
_cell_length_c       10.4535
_cell_angle_alpha    90.1169
_cell_angle_beta     80.6012
_cell_angle_gamma    89.6018

_symmetry_space_group_name_H-M    "P 1"
_symmetry_int_tables_number       1

loop_
  _symmetry_equiv_pos_as_xyz
  'x, y, z'

loop_
  _atom_site_label
  _atom_site_occupancy
  _atom_site_fract_x
  _atom_site_fract_y
  _atom_site_fract_z
  _atom_site_thermal_displace_type
  _atom_site_B_iso_or_equiv
  _atom_site_type_symbol
  Ga1      1.0000 0.25132  0.01138  0.15794  Biso   1.000  Ga
  Hf1      1.0000 0.27586  0.22632  0.39055  Biso   1.000  Hf
  Hf2      1.0000 0.72896  0.26253  0.10439  Biso   1.000  Hf
  Hf3      1.0000 0.71976  0.47842  0.35351  Biso   1.000  Hf
  O1       1.0000 0.08966  0.15769  0.07830  Biso   1.000  O
  O2       1.0000 0.05925  0.08224  0.32853  Biso   1.000  O
  O3       1.0000 0.93614  0.41346  0.17234  Biso   1.000  O
  O4       1.0000 0.93078  0.33375  0.42140  Biso   1.000  O
  O5       1.0000 0.53968  0.12052  0.23260  Biso   1.000  O
  O6       1.0000 0.55085  0.12253  0.48627  Biso   1.000  O
  O7       1.0000 0.45649  0.38081  0.01083  Biso   1.000  O
  O8       1.0000 0.45294  0.36789  0.25890  Biso   1.000  O
  Hf4      1.0000 0.27627  0.02157  0.64390  Biso   1.000  Hf
  Hf5      1.0000 0.28720  0.22662  0.89694  Biso   1.000  Hf
  Hf6      1.0000 0.72090  0.27210  0.60315  Biso   1.000  Hf
  Hf7      1.0000 0.72500  0.47916  0.85691  Biso   1.000  Hf
  O9       1.0000 0.06778  0.16661  0.57553  Biso   1.000  O
  O10      1.0000 0.07471  0.08400  0.82609  Biso   1.000  O
  O11      1.0000 0.93359  0.41580  0.67390  Biso   1.000  O
  O12      1.0000 0.94534  0.33753  0.92639  Biso   1.000  O
  O13      1.0000 0.55313  0.12825  0.73434  Biso   1.000  O
  O14      1.0000 0.59105  0.13567  0.97408  Biso   1.000  O
  O15      1.0000 0.44537  0.37915  0.50926  Biso   1.000  O
  O16      1.0000 0.45244  0.37179  0.76078  Biso   1.000  O
  Hf8      1.0000 0.27812  0.52069  0.14517  Biso   1.000  Hf
  Hf9      1.0000 0.27553  0.72829  0.39589  Biso   1.000  Hf
  Hf10     1.0000 0.71262  0.77576  0.10537  Biso   1.000  Hf
  Hf11     1.0000 0.71288  0.97814  0.35227  Biso   1.000  Hf
  O17      1.0000 0.06545  0.66760  0.07962  Biso   1.000  O
  O18      1.0000 0.06909  0.58144  0.32901  Biso   1.000  O
  O19      1.0000 0.92959  0.91356  0.17415  Biso   1.000  O
  O20      1.0000 0.92589  0.83179  0.42202  Biso   1.000  O
  O21      1.0000 0.55203  0.62758  0.24013  Biso   1.000  O
  O22      1.0000 0.55226  0.62093  0.49126  Biso   1.000  O
  O23      1.0000 0.44096  0.89284  0.01453  Biso   1.000  O
  O24      1.0000 0.43895  0.86869  0.26060  Biso   1.000  O
  Hf12     1.0000 0.27980  0.52113  0.64722  Biso   1.000  Hf
  Hf13     1.0000 0.27596  0.73327  0.89815  Biso   1.000  Hf
  Hf14     1.0000 0.71979  0.77110  0.60567  Biso   1.000  Hf
  Hf15     1.0000 0.72143  0.98261  0.85502  Biso   1.000  Hf
  O25      1.0000 0.06815  0.66652  0.57983  Biso   1.000  O
  O26      1.0000 0.06978  0.58605  0.83004  Biso   1.000  O
  O27      1.0000 0.93004  0.91715  0.67106  Biso   1.000  O
  O28      1.0000 0.92382  0.83423  0.92290  Biso   1.000  O
  O29      1.0000 0.55253  0.62935  0.74179  Biso   1.000  O
  O30      1.0000 0.55030  0.62512  0.99058  Biso   1.000  O
  O31      1.0000 0.44394  0.87824  0.51003  Biso   1.000  O
  O32      1.0000 0.44661  0.87214  0.76084  Biso   1.000  O
