data_image0
_cell_length_a       5.02458
_cell_length_b       10.4137
_cell_length_c       10.099
_cell_angle_alpha    89.3451
_cell_angle_beta     89.4723
_cell_angle_gamma    91.6897

_symmetry_space_group_name_H-M    "P 1"
_symmetry_int_tables_number       1

loop_
  _symmetry_equiv_pos_as_xyz
  'x, y, z'

loop_
  _atom_site_label
  _atom_site_occupancy
  _atom_site_fract_x
  _atom_site_fract_y
  _atom_site_fract_z
  _atom_site_thermal_displace_type
  _atom_site_B_iso_or_equiv
  _atom_site_type_symbol
  Hf1      1.0000 0.29543  0.99553  0.10476  Biso   1.000  Hf
  Hf2      1.0000 0.25574  0.23007  0.40654  Biso   1.000  Hf
  Hf3      1.0000 0.67981  0.26182  0.11735  Biso   1.000  Hf
  Hf4      1.0000 0.74509  0.48757  0.37556  Biso   1.000  Hf
  O1       1.0000 0.93117  0.18323  0.27178  Biso   1.000  O
  O2       1.0000 0.07469  0.06248  0.46794  Biso   1.000  O
  O3       1.0000 0.89358  0.43594  0.19073  Biso   1.000  O
  O4       1.0000 0.95196  0.33547  0.46802  Biso   1.000  O
  O5       1.0000 0.45735  0.10925  0.25668  Biso   1.000  O
  O6       1.0000 0.55936  0.13970  0.50573  Biso   1.000  O
  O7       1.0000 0.47539  0.38716  0.49901  Biso   1.000  O
  O8       1.0000 0.38993  0.35942  0.24708  Biso   1.000  O
  Hf5      1.0000 0.29701  0.01437  0.63097  Biso   1.000  Hf
  Hf6      1.0000 0.25446  0.23434  0.87095  Biso   1.000  Hf
  Hf7      1.0000 0.74303  0.27250  0.63621  Biso   1.000  Hf
  Hf8      1.0000 0.72893  0.48670  0.87216  Biso   1.000  Hf
  O9       1.0000 0.08637  0.18647  0.69024  Biso   1.000  O
  O10      1.0000 0.12057  0.05175  0.92322  Biso   1.000  O
  O11      1.0000 0.93046  0.44330  0.69789  Biso   1.000  O
  O12      1.0000 0.89417  0.31126  0.91721  Biso   1.000  O
  O13      1.0000 0.55377  0.11973  0.75610  Biso   1.000  O
  O14      1.0000 0.61003  0.10720  0.00456  Biso   1.000  O
  O15      1.0000 0.44916  0.38727  0.99686  Biso   1.000  O
  O16      1.0000 0.45283  0.37106  0.74749  Biso   1.000  O
  Hf9      1.0000 0.25712  0.52425  0.12571  Biso   1.000  Hf
  Hf10     1.0000 0.28107  0.74157  0.37538  Biso   1.000  Hf
  Hf11     1.0000 0.74449  0.76210  0.12327  Biso   1.000  Hf
  Hf12     1.0000 0.75642  0.00091  0.36201  Biso   1.000  Hf
  O17      1.0000 0.07621  0.68570  0.19671  Biso   1.000  O
  O18      1.0000 0.07155  0.57491  0.44346  Biso   1.000  O
  O19      1.0000 0.94233  0.94000  0.18600  Biso   1.000  O
  O20      1.0000 0.94006  0.82324  0.43500  Biso   1.000  O
  O21      1.0000 0.53766  0.61534  0.24918  Biso   1.000  O
  O22      1.0000 0.54406  0.63747  0.49533  Biso   1.000  O
  O23      1.0000 0.47868  0.89106  0.49378  Biso   1.000  O
  O24      1.0000 0.48199  0.86368  0.24118  Biso   1.000  O
  Hf13     1.0000 0.27118  0.51697  0.62069  Biso   1.000  Hf
  Hf14     1.0000 0.27723  0.72965  0.86834  Biso   1.000  Hf
  Hf15     1.0000 0.75095  0.76984  0.61500  Biso   1.000  Hf
  Hf16     1.0000 0.75877  0.97761  0.86876  Biso   1.000  Hf
  O25      1.0000 0.07965  0.68574  0.68964  Biso   1.000  O
  O26      1.0000 0.06720  0.56702  0.94765  Biso   1.000  O
  O27      1.0000 0.95181  0.92976  0.69346  Biso   1.000  O
  O28      1.0000 0.95508  0.81451  0.94812  Biso   1.000  O
  O29      1.0000 0.54162  0.61723  0.74523  Biso   1.000  O
  O30      1.0000 0.53955  0.63139  0.99849  Biso   1.000  O
  O31      1.0000 0.48534  0.86873  0.99019  Biso   1.000  O
  O32      1.0000 0.48353  0.86490  0.74407  Biso   1.000  O
  Ga1      1.0000 0.16671  0.24398  0.13502  Biso   1.000  Ga
