data_image0
_cell_length_a       10.2212
_cell_length_b       10.3348
_cell_length_c       5.26846
_cell_angle_alpha    90.1792
_cell_angle_beta     79.0197
_cell_angle_gamma    89.8645

_symmetry_space_group_name_H-M    "P 1"
_symmetry_int_tables_number       1

loop_
  _symmetry_equiv_pos_as_xyz
  'x, y, z'

loop_
  _atom_site_label
  _atom_site_occupancy
  _atom_site_fract_x
  _atom_site_fract_y
  _atom_site_fract_z
  _atom_site_thermal_displace_type
  _atom_site_B_iso_or_equiv
  _atom_site_type_symbol
  Hf1      1.0000 0.13155  0.02061  0.28497  Biso   1.000  Hf
  Hf2      1.0000 0.13919  0.22957  0.77925  Biso   1.000  Hf
  Hf3      1.0000 0.35407  0.27433  0.21059  Biso   1.000  Hf
  Hf4      1.0000 0.35560  0.48218  0.69884  Biso   1.000  Hf
  O1       1.0000 0.03796  0.17007  0.15272  Biso   1.000  O
  O2       1.0000 0.02988  0.08309  0.65639  Biso   1.000  O
  O3       1.0000 0.46040  0.43327  0.33068  Biso   1.000  O
  O4       1.0000 0.48038  0.34604  0.87497  Biso   1.000  O
  O5       1.0000 0.26444  0.11657  0.46298  Biso   1.000  O
  O6       1.0000 0.28054  0.12313  0.96467  Biso   1.000  O
  O7       1.0000 0.22230  0.38101  0.00488  Biso   1.000  O
  O8       1.0000 0.20844  0.37541  0.50236  Biso   1.000  O
  Hf5      1.0000 0.13734  0.52302  0.28526  Biso   1.000  Hf
  Hf6      1.0000 0.13394  0.72714  0.79354  Biso   1.000  Hf
  Hf7      1.0000 0.35952  0.77061  0.20938  Biso   1.000  Hf
  Hf8      1.0000 0.35300  0.96724  0.70853  Biso   1.000  Hf
  O9       1.0000 0.02939  0.66749  0.15658  Biso   1.000  O
  O10      1.0000 0.03230  0.58534  0.65396  Biso   1.000  O
  O11      1.0000 0.46374  0.91556  0.34707  Biso   1.000  O
  O12      1.0000 0.46150  0.82955  0.84514  Biso   1.000  O
  O13      1.0000 0.27354  0.62763  0.48052  Biso   1.000  O
  O14      1.0000 0.27271  0.62349  0.97919  Biso   1.000  O
  O15      1.0000 0.22012  0.87755  0.01981  Biso   1.000  O
  O16      1.0000 0.21936  0.86640  0.51791  Biso   1.000  O
  Hf9      1.0000 0.63937  0.01811  0.29943  Biso   1.000  Hf
  Hf10     1.0000 0.65851  0.23186  0.82101  Biso   1.000  Hf
  Hf11     1.0000 0.86414  0.27263  0.22131  Biso   1.000  Hf
  Hf12     1.0000 0.86276  0.48030  0.71312  Biso   1.000  Hf
  O17      1.0000 0.53476  0.16407  0.16339  Biso   1.000  O
  O18      1.0000 0.53046  0.07527  0.67611  Biso   1.000  O
  O19      1.0000 0.96422  0.42103  0.34150  Biso   1.000  O
  O20      1.0000 0.96275  0.33201  0.84367  Biso   1.000  O
  O21      1.0000 0.77513  0.12905  0.49598  Biso   1.000  O
  O22      1.0000 0.78369  0.11754  0.00160  Biso   1.000  O
  O23      1.0000 0.72762  0.37934  0.03871  Biso   1.000  O
  O24      1.0000 0.72717  0.37332  0.53459  Biso   1.000  O
  Hf13     1.0000 0.63636  0.52477  0.30010  Biso   1.000  Hf
  Hf14     1.0000 0.63637  0.72769  0.79713  Biso   1.000  Hf
  Hf15     1.0000 0.85725  0.77130  0.21197  Biso   1.000  Hf
  Hf16     1.0000 0.85973  0.97687  0.71327  Biso   1.000  Hf
  O25      1.0000 0.53471  0.67179  0.16417  Biso   1.000  O
  O26      1.0000 0.53099  0.58385  0.66384  Biso   1.000  O
  O27      1.0000 0.96041  0.91546  0.34772  Biso   1.000  O
  O28      1.0000 0.96284  0.83317  0.84740  Biso   1.000  O
  O29      1.0000 0.77363  0.63059  0.48654  Biso   1.000  O
  O30      1.0000 0.77335  0.62125  0.98475  Biso   1.000  O
  O31      1.0000 0.72066  0.87790  0.02457  Biso   1.000  O
  O32      1.0000 0.71958  0.87235  0.52665  Biso   1.000  O
  Ga1      1.0000 0.44363  0.23218  0.61120  Biso   1.000  Ga
