data_image0
_cell_length_a       10.0477
_cell_length_b       10.2718
_cell_length_c       10.4831
_cell_angle_alpha    89.8491
_cell_angle_beta     90.7822
_cell_angle_gamma    89.9421

_symmetry_space_group_name_H-M    "P 1"
_symmetry_int_tables_number       1

loop_
  _symmetry_equiv_pos_as_xyz
  'x, y, z'

loop_
  _atom_site_label
  _atom_site_occupancy
  _atom_site_fract_x
  _atom_site_fract_y
  _atom_site_fract_z
  _atom_site_thermal_displace_type
  _atom_site_B_iso_or_equiv
  _atom_site_type_symbol
  Hf1      1.0000 0.13576  0.01932  0.17268  Biso   1.000  Hf
  Hf2      1.0000 0.13553  0.22753  0.42658  Biso   1.000  Hf
  Hf3      1.0000 0.34202  0.26779  0.18507  Biso   1.000  Hf
  Hf4      1.0000 0.36124  0.47964  0.42400  Biso   1.000  Hf
  Hf5      1.0000 0.64346  0.01893  0.07177  Biso   1.000  Hf
  Hf6      1.0000 0.63673  0.22818  0.33333  Biso   1.000  Hf
  Hf7      1.0000 0.85830  0.27065  0.07531  Biso   1.000  Hf
  Hf8      1.0000 0.86121  0.47823  0.32823  Biso   1.000  Hf
  O1       1.0000 0.03365  0.16871  0.08695  Biso   1.000  O
  O2       1.0000 0.03041  0.08412  0.33552  Biso   1.000  O
  O3       1.0000 0.47100  0.42391  0.09366  Biso   1.000  O
  O4       1.0000 0.46254  0.33382  0.33648  Biso   1.000  O
  O5       1.0000 0.26910  0.12289  0.30099  Biso   1.000  O
  O6       1.0000 0.27197  0.12010  0.04868  Biso   1.000  O
  O7       1.0000 0.21512  0.37622  0.30212  Biso   1.000  O
  O8       1.0000 0.22206  0.37782  0.04977  Biso   1.000  O
  O9       1.0000 0.51678  0.15278  0.18392  Biso   1.000  O
  O10      1.0000 0.53092  0.08561  0.42231  Biso   1.000  O
  O11      1.0000 0.96284  0.41692  0.16604  Biso   1.000  O
  O12      1.0000 0.96529  0.33396  0.41752  Biso   1.000  O
  O13      1.0000 0.77537  0.12424  0.45463  Biso   1.000  O
  O14      1.0000 0.77162  0.12770  0.20474  Biso   1.000  O
  O15      1.0000 0.72306  0.37419  0.45469  Biso   1.000  O
  O16      1.0000 0.71845  0.37698  0.20457  Biso   1.000  O
  Hf9      1.0000 0.14154  0.02057  0.67340  Biso   1.000  Hf
  Hf10     1.0000 0.14000  0.22806  0.92375  Biso   1.000  Hf
  Hf11     1.0000 0.36409  0.27112  0.67427  Biso   1.000  Hf
  Hf12     1.0000 0.36112  0.48078  0.92352  Biso   1.000  Hf
  Hf13     1.0000 0.63980  0.02014  0.57999  Biso   1.000  Hf
  Hf14     1.0000 0.64885  0.22627  0.82261  Biso   1.000  Hf
  Hf15     1.0000 0.86230  0.27139  0.57877  Biso   1.000  Hf
  Hf16     1.0000 0.86726  0.48170  0.82646  Biso   1.000  Hf
  O17      1.0000 0.03372  0.16543  0.58641  Biso   1.000  O
  O18      1.0000 0.03914  0.08149  0.83476  Biso   1.000  O
  O19      1.0000 0.46874  0.41588  0.58443  Biso   1.000  O
  O20      1.0000 0.47431  0.33878  0.83329  Biso   1.000  O
  O21      1.0000 0.28040  0.12463  0.79722  Biso   1.000  O
  O22      1.0000 0.27704  0.12513  0.54827  Biso   1.000  O
  O23      1.0000 0.22773  0.37345  0.79836  Biso   1.000  O
  O24      1.0000 0.22542  0.37507  0.54874  Biso   1.000  O
  O25      1.0000 0.53630  0.16689  0.66552  Biso   1.000  O
  O26      1.0000 0.54013  0.06505  0.89976  Biso   1.000  O
  O27      1.0000 0.97013  0.41569  0.66552  Biso   1.000  O
  O28      1.0000 0.96993  0.33247  0.91435  Biso   1.000  O
  O29      1.0000 0.79116  0.11894  0.94805  Biso   1.000  O
  O30      1.0000 0.78225  0.12316  0.70090  Biso   1.000  O
  O31      1.0000 0.73690  0.38940  0.94996  Biso   1.000  O
  O32      1.0000 0.72814  0.37477  0.70294  Biso   1.000  O
  Hf17     1.0000 0.13661  0.52178  0.17269  Biso   1.000  Hf
  Hf18     1.0000 0.13811  0.72879  0.42170  Biso   1.000  Hf
  Hf19     1.0000 0.36210  0.77262  0.17326  Biso   1.000  Hf
  Hf20     1.0000 0.36123  0.97765  0.42545  Biso   1.000  Hf
  Hf21     1.0000 0.64668  0.53169  0.07827  Biso   1.000  Hf
  Hf22     1.0000 0.63929  0.73067  0.32927  Biso   1.000  Hf
  Hf23     1.0000 0.86399  0.77259  0.07876  Biso   1.000  Hf
  Hf24     1.0000 0.85942  0.98012  0.32877  Biso   1.000  Hf
  O33      1.0000 0.03516  0.66714  0.08471  Biso   1.000  O
  O34      1.0000 0.03204  0.58420  0.33474  Biso   1.000  O
  O35      1.0000 0.46934  0.91590  0.08380  Biso   1.000  O
  O36      1.0000 0.46774  0.83587  0.33559  Biso   1.000  O
  O37      1.0000 0.27551  0.62457  0.29567  Biso   1.000  O
  O38      1.0000 0.27823  0.62488  0.04642  Biso   1.000  O
  O39      1.0000 0.22389  0.87396  0.29694  Biso   1.000  O
  O40      1.0000 0.22439  0.87380  0.04779  Biso   1.000  O
  O41      1.0000 0.53532  0.66967  0.16679  Biso   1.000  O
  O42      1.0000 0.53274  0.58551  0.41628  Biso   1.000  O
  O43      1.0000 0.96460  0.91857  0.16593  Biso   1.000  O
  O44      1.0000 0.96581  0.83339  0.41497  Biso   1.000  O
  O45      1.0000 0.77663  0.62375  0.45431  Biso   1.000  O
  O46      1.0000 0.77941  0.62901  0.20528  Biso   1.000  O
  O47      1.0000 0.72412  0.87505  0.45565  Biso   1.000  O
  O48      1.0000 0.72439  0.87637  0.20454  Biso   1.000  O
  Hf25     1.0000 0.14128  0.52022  0.67211  Biso   1.000  Hf
  Hf26     1.0000 0.14203  0.72931  0.92290  Biso   1.000  Hf
  Hf27     1.0000 0.36250  0.76935  0.67286  Biso   1.000  Hf
  Hf28     1.0000 0.36319  0.97698  0.92183  Biso   1.000  Hf
  Hf29     1.0000 0.63991  0.52123  0.57782  Biso   1.000  Hf
  Hf30     1.0000 0.63982  0.72897  0.82732  Biso   1.000  Hf
  Hf31     1.0000 0.86332  0.77067  0.57817  Biso   1.000  Hf
  Hf32     1.0000 0.86642  0.97654  0.82728  Biso   1.000  Hf
  O49      1.0000 0.03488  0.66528  0.58416  Biso   1.000  O
  O50      1.0000 0.03866  0.58416  0.83491  Biso   1.000  O
  O51      1.0000 0.46830  0.91412  0.58661  Biso   1.000  O
  O52      1.0000 0.46528  0.82732  0.83616  Biso   1.000  O
  O53      1.0000 0.27928  0.62270  0.79602  Biso   1.000  O
  O54      1.0000 0.27642  0.62518  0.54596  Biso   1.000  O
  O55      1.0000 0.22543  0.87292  0.79623  Biso   1.000  O
  O56      1.0000 0.22468  0.87515  0.54633  Biso   1.000  O
  O57      1.0000 0.53429  0.66452  0.66604  Biso   1.000  O
  O58      1.0000 0.53469  0.58499  0.91820  Biso   1.000  O
  O59      1.0000 0.97037  0.91453  0.66468  Biso   1.000  O
  O60      1.0000 0.97050  0.83360  0.91727  Biso   1.000  O
  O61      1.0000 0.77970  0.63052  0.95311  Biso   1.000  O
  O62      1.0000 0.77796  0.62563  0.70353  Biso   1.000  O
  O63      1.0000 0.72725  0.87424  0.95510  Biso   1.000  O
  O64      1.0000 0.72648  0.87412  0.70519  Biso   1.000  O
  Ga1      1.0000 0.54864  0.26402  0.03707  Biso   1.000  Ga
