data_image0
_cell_length_a       4.97655
_cell_length_b       10.3392
_cell_length_c       10.0081
_cell_angle_alpha    90.6095
_cell_angle_beta     89.5154
_cell_angle_gamma    90.292

_symmetry_space_group_name_H-M    "P 1"
_symmetry_int_tables_number       1

loop_
  _symmetry_equiv_pos_as_xyz
  'x, y, z'

loop_
  _atom_site_label
  _atom_site_occupancy
  _atom_site_fract_x
  _atom_site_fract_y
  _atom_site_fract_z
  _atom_site_thermal_displace_type
  _atom_site_B_iso_or_equiv
  _atom_site_type_symbol
  Ga1      1.0000 0.24941  0.02539  0.11017  Biso   1.000  Ga
  Hf1      1.0000 0.26804  0.22716  0.37247  Biso   1.000  Hf
  Hf2      1.0000 0.72479  0.26175  0.12237  Biso   1.000  Hf
  Hf3      1.0000 0.73342  0.48143  0.37621  Biso   1.000  Hf
  O1       1.0000 0.05388  0.18007  0.19720  Biso   1.000  O
  O2       1.0000 0.06908  0.06515  0.44864  Biso   1.000  O
  O3       1.0000 0.93225  0.43010  0.19578  Biso   1.000  O
  O4       1.0000 0.93139  0.31478  0.44363  Biso   1.000  O
  O5       1.0000 0.51935  0.10467  0.24029  Biso   1.000  O
  O6       1.0000 0.54450  0.13250  0.49407  Biso   1.000  O
  O7       1.0000 0.45907  0.38171  0.49846  Biso   1.000  O
  O8       1.0000 0.45953  0.36079  0.24764  Biso   1.000  O
  Hf4      1.0000 0.26602  0.01604  0.62512  Biso   1.000  Hf
  Hf5      1.0000 0.26342  0.23626  0.87310  Biso   1.000  Hf
  Hf6      1.0000 0.73066  0.26618  0.62345  Biso   1.000  Hf
  Hf7      1.0000 0.73055  0.48673  0.87516  Biso   1.000  Hf
  O9       1.0000 0.07083  0.18626  0.69302  Biso   1.000  O
  O10      1.0000 0.06249  0.07066  0.94383  Biso   1.000  O
  O11      1.0000 0.92873  0.43482  0.69466  Biso   1.000  O
  O12      1.0000 0.92608  0.31975  0.94442  Biso   1.000  O
  O13      1.0000 0.54000  0.11870  0.74587  Biso   1.000  O
  O14      1.0000 0.53211  0.13730  0.99343  Biso   1.000  O
  O15      1.0000 0.45714  0.38527  0.99751  Biso   1.000  O
  O16      1.0000 0.45881  0.36972  0.74801  Biso   1.000  O
  Hf8      1.0000 0.26962  0.51489  0.12621  Biso   1.000  Hf
  Hf9      1.0000 0.27690  0.73376  0.37788  Biso   1.000  Hf
  Hf10     1.0000 0.74143  0.76618  0.12437  Biso   1.000  Hf
  Hf11     1.0000 0.73356  0.98320  0.36886  Biso   1.000  Hf
  O17      1.0000 0.07294  0.68258  0.19929  Biso   1.000  O
  O18      1.0000 0.07283  0.56474  0.44640  Biso   1.000  O
  O19      1.0000 0.96630  0.93249  0.19482  Biso   1.000  O
  O20      1.0000 0.94080  0.81807  0.45067  Biso   1.000  O
  O21      1.0000 0.54273  0.60791  0.24881  Biso   1.000  O
  O22      1.0000 0.54532  0.63299  0.50052  Biso   1.000  O
  O23      1.0000 0.46684  0.88396  0.50273  Biso   1.000  O
  O24      1.0000 0.50324  0.85023  0.26006  Biso   1.000  O
  Hf12     1.0000 0.27034  0.51761  0.62619  Biso   1.000  Hf
  Hf13     1.0000 0.26646  0.73834  0.88001  Biso   1.000  Hf
  Hf14     1.0000 0.73519  0.76905  0.62819  Biso   1.000  Hf
  Hf15     1.0000 0.72095  0.98714  0.87914  Biso   1.000  Hf
  O25      1.0000 0.07163  0.68471  0.69774  Biso   1.000  O
  O26      1.0000 0.06614  0.57037  0.94887  Biso   1.000  O
  O27      1.0000 0.92824  0.93579  0.69832  Biso   1.000  O
  O28      1.0000 0.91800  0.81923  0.94153  Biso   1.000  O
  O29      1.0000 0.53966  0.62016  0.75124  Biso   1.000  O
  O30      1.0000 0.53702  0.63547  0.00041  Biso   1.000  O
  O31      1.0000 0.44894  0.88963  0.01061  Biso   1.000  O
  O32      1.0000 0.45601  0.86939  0.75337  Biso   1.000  O
