data_image0
_cell_length_a       10.0427
_cell_length_b       10.3922
_cell_length_c       5.03589
_cell_angle_alpha    90.5793
_cell_angle_beta     89.7221
_cell_angle_gamma    90.2351

_symmetry_space_group_name_H-M    "P 1"
_symmetry_int_tables_number       1

loop_
  _symmetry_equiv_pos_as_xyz
  'x, y, z'

loop_
  _atom_site_label
  _atom_site_occupancy
  _atom_site_fract_x
  _atom_site_fract_y
  _atom_site_fract_z
  _atom_site_thermal_displace_type
  _atom_site_B_iso_or_equiv
  _atom_site_type_symbol
  Ga1      1.0000 0.12393  0.02071  0.23117  Biso   1.000  Ga
  Zr1      1.0000 0.13530  0.51389  0.24984  Biso   1.000  Zr
  Zr2      1.0000 0.63209  0.01400  0.24329  Biso   1.000  Zr
  Zr3      1.0000 0.63331  0.51665  0.25057  Biso   1.000  Zr
  Zr4      1.0000 0.13167  0.23198  0.73967  Biso   1.000  Zr
  Zr5      1.0000 0.13466  0.73650  0.76087  Biso   1.000  Zr
  Zr6      1.0000 0.63324  0.23393  0.74660  Biso   1.000  Zr
  Zr7      1.0000 0.63452  0.73849  0.75008  Biso   1.000  Zr
  Zr8      1.0000 0.36389  0.26106  0.24121  Biso   1.000  Zr
  Zr9      1.0000 0.36564  0.76693  0.25762  Biso   1.000  Zr
  Zr10     1.0000 0.86466  0.26485  0.24511  Biso   1.000  Zr
  Zr11     1.0000 0.87100  0.76716  0.24626  Biso   1.000  Zr
  Zr12     1.0000 0.36668  0.48460  0.74837  Biso   1.000  Zr
  Zr13     1.0000 0.35826  0.98600  0.75018  Biso   1.000  Zr
  Zr14     1.0000 0.86550  0.48613  0.75034  Biso   1.000  Zr
  Zr15     1.0000 0.87168  0.98811  0.74144  Biso   1.000  Zr
  O1       1.0000 0.02393  0.17837  0.40234  Biso   1.000  O
  O2       1.0000 0.03448  0.68198  0.39837  Biso   1.000  O
  O3       1.0000 0.52948  0.18142  0.39520  Biso   1.000  O
  O4       1.0000 0.53353  0.68226  0.39959  Biso   1.000  O
  O5       1.0000 0.03353  0.06966  0.90885  Biso   1.000  O
  O6       1.0000 0.03202  0.56837  0.90072  Biso   1.000  O
  O7       1.0000 0.53190  0.06967  0.89481  Biso   1.000  O
  O8       1.0000 0.53329  0.57109  0.89441  Biso   1.000  O
  O9       1.0000 0.46613  0.43132  0.39045  Biso   1.000  O
  O10      1.0000 0.47165  0.93097  0.40531  Biso   1.000  O
  O11      1.0000 0.96800  0.43108  0.39702  Biso   1.000  O
  O12      1.0000 0.98020  0.93164  0.39340  Biso   1.000  O
  O13      1.0000 0.46852  0.32068  0.89297  Biso   1.000  O
  O14      1.0000 0.46747  0.82273  0.90479  Biso   1.000  O
  O15      1.0000 0.96621  0.31932  0.89373  Biso   1.000  O
  O16      1.0000 0.96450  0.81902  0.88818  Biso   1.000  O
  O17      1.0000 0.25629  0.10388  0.46509  Biso   1.000  O
  O18      1.0000 0.26773  0.61055  0.49807  Biso   1.000  O
  O19      1.0000 0.76563  0.11481  0.48957  Biso   1.000  O
  O20      1.0000 0.76976  0.61639  0.49595  Biso   1.000  O
  O21      1.0000 0.27458  0.14157  0.96337  Biso   1.000  O
  O22      1.0000 0.26965  0.63576  0.99922  Biso   1.000  O
  O23      1.0000 0.76869  0.13535  0.98868  Biso   1.000  O
  O24      1.0000 0.76775  0.63643  0.99649  Biso   1.000  O
  O25      1.0000 0.23088  0.38525  0.99166  Biso   1.000  O
  O26      1.0000 0.22625  0.89200  0.03001  Biso   1.000  O
  O27      1.0000 0.73046  0.38567  0.99371  Biso   1.000  O
  O28      1.0000 0.73419  0.88707  0.98953  Biso   1.000  O
  O29      1.0000 0.23223  0.36133  0.49114  Biso   1.000  O
  O30      1.0000 0.24486  0.85284  0.53061  Biso   1.000  O
  O31      1.0000 0.73051  0.36628  0.49339  Biso   1.000  O
  O32      1.0000 0.73696  0.86609  0.48990  Biso   1.000  O
