data_image0
_cell_length_a       10.1032
_cell_length_b       10.2711
_cell_length_c       10.503
_cell_angle_alpha    89.9649
_cell_angle_beta     90.379
_cell_angle_gamma    89.7804

_symmetry_space_group_name_H-M    "P 1"
_symmetry_int_tables_number       1

loop_
  _symmetry_equiv_pos_as_xyz
  'x, y, z'

loop_
  _atom_site_label
  _atom_site_occupancy
  _atom_site_fract_x
  _atom_site_fract_y
  _atom_site_fract_z
  _atom_site_thermal_displace_type
  _atom_site_B_iso_or_equiv
  _atom_site_type_symbol
  Ga1      1.0000 0.12254  0.01129  0.18607  Biso   1.000  Ga
  Zr1      1.0000 0.13831  0.02104  0.66878  Biso   1.000  Zr
  Zr2      1.0000 0.13974  0.52242  0.17131  Biso   1.000  Zr
  Zr3      1.0000 0.13944  0.52106  0.67237  Biso   1.000  Zr
  Zr4      1.0000 0.13800  0.22830  0.41696  Biso   1.000  Zr
  Zr5      1.0000 0.14428  0.22474  0.92305  Biso   1.000  Zr
  Zr6      1.0000 0.13805  0.72982  0.42076  Biso   1.000  Zr
  Zr7      1.0000 0.14017  0.73284  0.92241  Biso   1.000  Zr
  Zr8      1.0000 0.35714  0.26786  0.16969  Biso   1.000  Zr
  Zr9      1.0000 0.36035  0.27135  0.67066  Biso   1.000  Zr
  Zr10     1.0000 0.35697  0.77623  0.17011  Biso   1.000  Zr
  Zr11     1.0000 0.36107  0.77183  0.67121  Biso   1.000  Zr
  Zr12     1.0000 0.36006  0.47896  0.42126  Biso   1.000  Zr
  Zr13     1.0000 0.36085  0.47899  0.92226  Biso   1.000  Zr
  Zr14     1.0000 0.35741  0.98131  0.41762  Biso   1.000  Zr
  Zr15     1.0000 0.35979  0.98129  0.92258  Biso   1.000  Zr
  Zr16     1.0000 0.64003  0.02140  0.07778  Biso   1.000  Zr
  Zr17     1.0000 0.63690  0.02092  0.57849  Biso   1.000  Zr
  Zr18     1.0000 0.63922  0.51957  0.07879  Biso   1.000  Zr
  Zr19     1.0000 0.63920  0.52081  0.57922  Biso   1.000  Zr
  Zr20     1.0000 0.63836  0.22974  0.32776  Biso   1.000  Zr
  Zr21     1.0000 0.64039  0.22961  0.82956  Biso   1.000  Zr
  Zr22     1.0000 0.63644  0.72875  0.32758  Biso   1.000  Zr
  Zr23     1.0000 0.63946  0.72905  0.82918  Biso   1.000  Zr
  Zr24     1.0000 0.86974  0.26547  0.08181  Biso   1.000  Zr
  Zr25     1.0000 0.86079  0.27086  0.57926  Biso   1.000  Zr
  Zr26     1.0000 0.86137  0.77155  0.07965  Biso   1.000  Zr
  Zr27     1.0000 0.85986  0.77003  0.57959  Biso   1.000  Zr
  Zr28     1.0000 0.86062  0.47926  0.32898  Biso   1.000  Zr
  Zr29     1.0000 0.86360  0.47749  0.83170  Biso   1.000  Zr
  Zr30     1.0000 0.85812  0.97839  0.33038  Biso   1.000  Zr
  Zr31     1.0000 0.86178  0.97945  0.82885  Biso   1.000  Zr
  O1       1.0000 0.04524  0.15500  0.08754  Biso   1.000  O
  O2       1.0000 0.03191  0.16468  0.58174  Biso   1.000  O
  O3       1.0000 0.03253  0.66492  0.08325  Biso   1.000  O
  O4       1.0000 0.03166  0.66375  0.58356  Biso   1.000  O
  O5       1.0000 0.02936  0.08289  0.33704  Biso   1.000  O
  O6       1.0000 0.03276  0.08590  0.83129  Biso   1.000  O
  O7       1.0000 0.03140  0.58593  0.33333  Biso   1.000  O
  O8       1.0000 0.03346  0.58581  0.83496  Biso   1.000  O
  O9       1.0000 0.46831  0.41360  0.08313  Biso   1.000  O
  O10      1.0000 0.46793  0.41497  0.58315  Biso   1.000  O
  O11      1.0000 0.46998  0.91353  0.08150  Biso   1.000  O
  O12      1.0000 0.46620  0.91539  0.58211  Biso   1.000  O
  O13      1.0000 0.46748  0.33538  0.33364  Biso   1.000  O
  O14      1.0000 0.46947  0.33677  0.83221  Biso   1.000  O
  O15      1.0000 0.46464  0.83650  0.33231  Biso   1.000  O
  O16      1.0000 0.46852  0.83592  0.83241  Biso   1.000  O
  O17      1.0000 0.27028  0.12118  0.28748  Biso   1.000  O
  O18      1.0000 0.27508  0.12265  0.78884  Biso   1.000  O
  O19      1.0000 0.27484  0.62587  0.29496  Biso   1.000  O
  O20      1.0000 0.27568  0.62479  0.79533  Biso   1.000  O
  O21      1.0000 0.29583  0.14028  0.02990  Biso   1.000  O
  O22      1.0000 0.27493  0.12704  0.54072  Biso   1.000  O
  O23      1.0000 0.27630  0.62989  0.04478  Biso   1.000  O
  O24      1.0000 0.27497  0.62617  0.54530  Biso   1.000  O
  O25      1.0000 0.22394  0.37460  0.29570  Biso   1.000  O
  O26      1.0000 0.22619  0.37360  0.79592  Biso   1.000  O
  O27      1.0000 0.21809  0.87613  0.29268  Biso   1.000  O
  O28      1.0000 0.22453  0.87432  0.79464  Biso   1.000  O
  O29      1.0000 0.22263  0.38070  0.04574  Biso   1.000  O
  O30      1.0000 0.22380  0.37621  0.54499  Biso   1.000  O
  O31      1.0000 0.22202  0.88490  0.04644  Biso   1.000  O
  O32      1.0000 0.22375  0.87644  0.54368  Biso   1.000  O
  O33      1.0000 0.53347  0.16477  0.16611  Biso   1.000  O
  O34      1.0000 0.53228  0.16579  0.66593  Biso   1.000  O
  O35      1.0000 0.53005  0.66422  0.16656  Biso   1.000  O
  O36      1.0000 0.53238  0.66468  0.66671  Biso   1.000  O
  O37      1.0000 0.53057  0.08549  0.41518  Biso   1.000  O
  O38      1.0000 0.53638  0.08338  0.91377  Biso   1.000  O
  O39      1.0000 0.53087  0.58612  0.41722  Biso   1.000  O
  O40      1.0000 0.53248  0.58521  0.91681  Biso   1.000  O
  O41      1.0000 0.96990  0.41313  0.16876  Biso   1.000  O
  O42      1.0000 0.96896  0.41285  0.66966  Biso   1.000  O
  O43      1.0000 0.96524  0.91309  0.16882  Biso   1.000  O
  O44      1.0000 0.96743  0.91388  0.66675  Biso   1.000  O
  O45      1.0000 0.96671  0.33576  0.41758  Biso   1.000  O
  O46      1.0000 0.97149  0.33299  0.92164  Biso   1.000  O
  O47      1.0000 0.96546  0.83417  0.41812  Biso   1.000  O
  O48      1.0000 0.96720  0.83526  0.91704  Biso   1.000  O
  O49      1.0000 0.77886  0.12347  0.95580  Biso   1.000  O
  O50      1.0000 0.77362  0.12437  0.45554  Biso   1.000  O
  O51      1.0000 0.77594  0.62298  0.95548  Biso   1.000  O
  O52      1.0000 0.77434  0.62404  0.45501  Biso   1.000  O
  O53      1.0000 0.77649  0.12486  0.20521  Biso   1.000  O
  O54      1.0000 0.77538  0.12594  0.70487  Biso   1.000  O
  O55      1.0000 0.77438  0.62552  0.20503  Biso   1.000  O
  O56      1.0000 0.77616  0.62491  0.70590  Biso   1.000  O
  O57      1.0000 0.72822  0.37230  0.95688  Biso   1.000  O
  O58      1.0000 0.72415  0.37478  0.45552  Biso   1.000  O
  O59      1.0000 0.72520  0.87385  0.95488  Biso   1.000  O
  O60      1.0000 0.72213  0.87361  0.45546  Biso   1.000  O
  O61      1.0000 0.72732  0.37410  0.20518  Biso   1.000  O
  O62      1.0000 0.72575  0.37603  0.70605  Biso   1.000  O
  O63      1.0000 0.72303  0.87536  0.20541  Biso   1.000  O
  O64      1.0000 0.72438  0.87573  0.70516  Biso   1.000  O
