data_image0
_cell_length_a       10.0306
_cell_length_b       10.4155
_cell_length_c       10.0638
_cell_angle_alpha    90.2959
_cell_angle_beta     89.7508
_cell_angle_gamma    90.1301

_symmetry_space_group_name_H-M    "P 1"
_symmetry_int_tables_number       1

loop_
  _symmetry_equiv_pos_as_xyz
  'x, y, z'

loop_
  _atom_site_label
  _atom_site_occupancy
  _atom_site_fract_x
  _atom_site_fract_y
  _atom_site_fract_z
  _atom_site_thermal_displace_type
  _atom_site_B_iso_or_equiv
  _atom_site_type_symbol
  Ga1      1.0000 0.12369  0.02547  0.11117  Biso   1.000  Ga
  Zr1      1.0000 0.13465  0.01675  0.62717  Biso   1.000  Zr
  Zr2      1.0000 0.13432  0.51378  0.12519  Biso   1.000  Zr
  Zr3      1.0000 0.13493  0.51646  0.62592  Biso   1.000  Zr
  Zr4      1.0000 0.63390  0.01571  0.12464  Biso   1.000  Zr
  Zr5      1.0000 0.63175  0.01431  0.62273  Biso   1.000  Zr
  Zr6      1.0000 0.63417  0.51617  0.12658  Biso   1.000  Zr
  Zr7      1.0000 0.63377  0.51645  0.62511  Biso   1.000  Zr
  Zr8      1.0000 0.13354  0.22980  0.37155  Biso   1.000  Zr
  Zr9      1.0000 0.13302  0.23634  0.87503  Biso   1.000  Zr
  Zr10     1.0000 0.13616  0.73351  0.37711  Biso   1.000  Zr
  Zr11     1.0000 0.13378  0.73729  0.87948  Biso   1.000  Zr
  Zr12     1.0000 0.63407  0.23307  0.37560  Biso   1.000  Zr
  Zr13     1.0000 0.63285  0.23502  0.87367  Biso   1.000  Zr
  Zr14     1.0000 0.63538  0.73616  0.37519  Biso   1.000  Zr
  Zr15     1.0000 0.63277  0.73618  0.87599  Biso   1.000  Zr
  Zr16     1.0000 0.36482  0.26171  0.12397  Biso   1.000  Zr
  Zr17     1.0000 0.36549  0.26589  0.62449  Biso   1.000  Zr
  Zr18     1.0000 0.36561  0.76450  0.12731  Biso   1.000  Zr
  Zr19     1.0000 0.36637  0.76802  0.62835  Biso   1.000  Zr
  Zr20     1.0000 0.86503  0.26527  0.12405  Biso   1.000  Zr
  Zr21     1.0000 0.86589  0.26537  0.62368  Biso   1.000  Zr
  Zr22     1.0000 0.87090  0.76735  0.12345  Biso   1.000  Zr
  Zr23     1.0000 0.86719  0.76630  0.62479  Biso   1.000  Zr
  Zr24     1.0000 0.36666  0.48301  0.37519  Biso   1.000  Zr
  Zr25     1.0000 0.36597  0.48600  0.87538  Biso   1.000  Zr
  Zr26     1.0000 0.36189  0.98331  0.37177  Biso   1.000  Zr
  Zr27     1.0000 0.36111  0.98633  0.88143  Biso   1.000  Zr
  Zr28     1.0000 0.86619  0.48439  0.37557  Biso   1.000  Zr
  Zr29     1.0000 0.86518  0.48616  0.87495  Biso   1.000  Zr
  Zr30     1.0000 0.87098  0.98520  0.37168  Biso   1.000  Zr
  Zr31     1.0000 0.86517  0.98608  0.87347  Biso   1.000  Zr
  O1       1.0000 0.03120  0.18090  0.19300  Biso   1.000  O
  O2       1.0000 0.03435  0.18485  0.69553  Biso   1.000  O
  O3       1.0000 0.03573  0.68214  0.19601  Biso   1.000  O
  O4       1.0000 0.03561  0.68473  0.69612  Biso   1.000  O
  O5       1.0000 0.53237  0.18209  0.19718  Biso   1.000  O
  O6       1.0000 0.53525  0.18448  0.69297  Biso   1.000  O
  O7       1.0000 0.53545  0.68292  0.19766  Biso   1.000  O
  O8       1.0000 0.53424  0.68307  0.69675  Biso   1.000  O
  O9       1.0000 0.03474  0.06674  0.44929  Biso   1.000  O
  O10      1.0000 0.03334  0.06800  0.94276  Biso   1.000  O
  O11      1.0000 0.03492  0.56501  0.44676  Biso   1.000  O
  O12      1.0000 0.03379  0.56834  0.94643  Biso   1.000  O
  O13      1.0000 0.53412  0.06631  0.44418  Biso   1.000  O
  O14      1.0000 0.53265  0.06907  0.94691  Biso   1.000  O
  O15      1.0000 0.53589  0.56715  0.44462  Biso   1.000  O
  O16      1.0000 0.53396  0.56875  0.94675  Biso   1.000  O
  O17      1.0000 0.46552  0.43161  0.19440  Biso   1.000  O
  O18      1.0000 0.46458  0.43398  0.69485  Biso   1.000  O
  O19      1.0000 0.47032  0.93087  0.19698  Biso   1.000  O
  O20      1.0000 0.46446  0.93464  0.69928  Biso   1.000  O
  O21      1.0000 0.96579  0.43204  0.19596  Biso   1.000  O
  O22      1.0000 0.96480  0.43404  0.69437  Biso   1.000  O
  O23      1.0000 0.97859  0.93370  0.19261  Biso   1.000  O
  O24      1.0000 0.96492  0.93424  0.69426  Biso   1.000  O
  O25      1.0000 0.46591  0.31695  0.44549  Biso   1.000  O
  O26      1.0000 0.46417  0.31762  0.94381  Biso   1.000  O
  O27      1.0000 0.46911  0.81874  0.45129  Biso   1.000  O
  O28      1.0000 0.46106  0.81862  0.94497  Biso   1.000  O
  O29      1.0000 0.96451  0.31508  0.44256  Biso   1.000  O
  O30      1.0000 0.96437  0.31922  0.94506  Biso   1.000  O
  O31      1.0000 0.96620  0.81672  0.44442  Biso   1.000  O
  O32      1.0000 0.96150  0.81694  0.94123  Biso   1.000  O
  O33      1.0000 0.26020  0.10607  0.24171  Biso   1.000  O
  O34      1.0000 0.27029  0.11843  0.74772  Biso   1.000  O
  O35      1.0000 0.26845  0.60926  0.24865  Biso   1.000  O
  O36      1.0000 0.26910  0.61890  0.75053  Biso   1.000  O
  O37      1.0000 0.76873  0.11604  0.24710  Biso   1.000  O
  O38      1.0000 0.76796  0.11659  0.74649  Biso   1.000  O
  O39      1.0000 0.77125  0.61641  0.24852  Biso   1.000  O
  O40      1.0000 0.76878  0.61775  0.74884  Biso   1.000  O
  O41      1.0000 0.27023  0.13327  0.49583  Biso   1.000  O
  O42      1.0000 0.26698  0.13673  0.99533  Biso   1.000  O
  O43      1.0000 0.27151  0.63317  0.49995  Biso   1.000  O
  O44      1.0000 0.26827  0.63449  0.99961  Biso   1.000  O
  O45      1.0000 0.76989  0.13323  0.49668  Biso   1.000  O
  O46      1.0000 0.76817  0.13465  0.99665  Biso   1.000  O
  O47      1.0000 0.76912  0.63411  0.49879  Biso   1.000  O
  O48      1.0000 0.76866  0.63493  0.99891  Biso   1.000  O
  O49      1.0000 0.23008  0.38246  0.49790  Biso   1.000  O
  O50      1.0000 0.23075  0.38450  0.99790  Biso   1.000  O
  O51      1.0000 0.23068  0.88339  0.50413  Biso   1.000  O
  O52      1.0000 0.22425  0.88974  0.01185  Biso   1.000  O
  O53      1.0000 0.73076  0.38346  0.49856  Biso   1.000  O
  O54      1.0000 0.72942  0.38451  0.99774  Biso   1.000  O
  O55      1.0000 0.73388  0.88476  0.49641  Biso   1.000  O
  O56      1.0000 0.72947  0.88456  0.99727  Biso   1.000  O
  O57      1.0000 0.23163  0.36170  0.24757  Biso   1.000  O
  O58      1.0000 0.23019  0.36848  0.74821  Biso   1.000  O
  O59      1.0000 0.24547  0.85164  0.26091  Biso   1.000  O
  O60      1.0000 0.22965  0.86912  0.75473  Biso   1.000  O
  O61      1.0000 0.73011  0.36630  0.24836  Biso   1.000  O
  O62      1.0000 0.73044  0.36750  0.74786  Biso   1.000  O
  O63      1.0000 0.73700  0.86668  0.24659  Biso   1.000  O
  O64      1.0000 0.72948  0.86660  0.74679  Biso   1.000  O
