data_image0
_cell_length_a       10.0686
_cell_length_b       10.4527
_cell_length_c       10.1212
_cell_angle_alpha    89.915
_cell_angle_beta     89.6296
_cell_angle_gamma    90.2906

_symmetry_space_group_name_H-M    "P 1"
_symmetry_int_tables_number       1

loop_
  _symmetry_equiv_pos_as_xyz
  'x, y, z'

loop_
  _atom_site_label
  _atom_site_occupancy
  _atom_site_fract_x
  _atom_site_fract_y
  _atom_site_fract_z
  _atom_site_thermal_displace_type
  _atom_site_B_iso_or_equiv
  _atom_site_type_symbol
  Zr1      1.0000 0.13924  0.01380  0.12010  Biso   1.000  Zr
  Zr2      1.0000 0.13399  0.22667  0.40032  Biso   1.000  Zr
  Zr3      1.0000 0.36939  0.26312  0.11948  Biso   1.000  Zr
  Zr4      1.0000 0.36890  0.48417  0.37596  Biso   1.000  Zr
  O1       1.0000 0.99865  0.16919  0.24825  Biso   1.000  O
  O2       1.0000 0.03652  0.06228  0.46503  Biso   1.000  O
  O3       1.0000 0.45842  0.43350  0.19502  Biso   1.000  O
  O4       1.0000 0.46488  0.31702  0.44612  Biso   1.000  O
  O5       1.0000 0.26168  0.11686  0.25589  Biso   1.000  O
  O6       1.0000 0.27564  0.12874  0.50711  Biso   1.000  O
  O7       1.0000 0.23448  0.38230  0.50121  Biso   1.000  O
  O8       1.0000 0.21409  0.36438  0.24859  Biso   1.000  O
  Zr5      1.0000 0.13822  0.01240  0.63491  Biso   1.000  Zr
  Zr6      1.0000 0.13567  0.23165  0.87652  Biso   1.000  Zr
  Zr7      1.0000 0.36933  0.26677  0.62991  Biso   1.000  Zr
  Zr8      1.0000 0.36908  0.48752  0.87190  Biso   1.000  Zr
  O9       1.0000 0.03781  0.18252  0.69604  Biso   1.000  O
  O10      1.0000 0.03957  0.06098  0.94228  Biso   1.000  O
  O11      1.0000 0.46668  0.43406  0.69402  Biso   1.000  O
  O12      1.0000 0.46489  0.31516  0.93919  Biso   1.000  O
  O13      1.0000 0.27169  0.11726  0.75231  Biso   1.000  O
  O14      1.0000 0.28831  0.12261  0.99384  Biso   1.000  O
  O15      1.0000 0.23676  0.39237  0.99714  Biso   1.000  O
  O16      1.0000 0.23084  0.36700  0.74955  Biso   1.000  O
  Zr9      1.0000 0.13527  0.53212  0.12302  Biso   1.000  Zr
  Zr10     1.0000 0.13513  0.73600  0.37872  Biso   1.000  Zr
  Zr11     1.0000 0.36783  0.76634  0.12633  Biso   1.000  Zr
  Zr12     1.0000 0.36585  0.98417  0.37683  Biso   1.000  Zr
  O17      1.0000 0.03375  0.68498  0.19780  Biso   1.000  O
  O18      1.0000 0.03566  0.56828  0.44354  Biso   1.000  O
  O19      1.0000 0.46273  0.93402  0.19586  Biso   1.000  O
  O20      1.0000 0.46726  0.81681  0.44463  Biso   1.000  O
  O21      1.0000 0.27154  0.61903  0.24953  Biso   1.000  O
  O22      1.0000 0.27033  0.63230  0.49859  Biso   1.000  O
  O23      1.0000 0.23223  0.88204  0.50122  Biso   1.000  O
  O24      1.0000 0.23159  0.86628  0.24987  Biso   1.000  O
  Zr13     1.0000 0.13332  0.51448  0.62484  Biso   1.000  Zr
  Zr14     1.0000 0.13210  0.73539  0.87214  Biso   1.000  Zr
  Zr15     1.0000 0.36972  0.76367  0.62380  Biso   1.000  Zr
  Zr16     1.0000 0.37146  0.98055  0.87420  Biso   1.000  Zr
  O25      1.0000 0.03701  0.68448  0.69124  Biso   1.000  O
  O26      1.0000 0.03430  0.56823  0.94539  Biso   1.000  O
  O27      1.0000 0.46888  0.93185  0.69227  Biso   1.000  O
  O28      1.0000 0.46979  0.81691  0.94857  Biso   1.000  O
  O29      1.0000 0.26822  0.61577  0.74777  Biso   1.000  O
  O30      1.0000 0.26869  0.63829  0.99724  Biso   1.000  O
  O31      1.0000 0.23204  0.88060  0.99915  Biso   1.000  O
  O32      1.0000 0.23663  0.86429  0.74994  Biso   1.000  O
  Zr17     1.0000 0.63039  0.01253  0.12222  Biso   1.000  Zr
  Zr18     1.0000 0.63179  0.23290  0.37717  Biso   1.000  Zr
  Zr19     1.0000 0.84270  0.26407  0.12085  Biso   1.000  Zr
  Zr20     1.0000 0.86836  0.48300  0.37462  Biso   1.000  Zr
  O33      1.0000 0.53101  0.18188  0.19457  Biso   1.000  O
  O34      1.0000 0.53547  0.06607  0.44488  Biso   1.000  O
  O35      1.0000 0.96181  0.43039  0.18937  Biso   1.000  O
  O36      1.0000 0.97138  0.32415  0.45804  Biso   1.000  O
  O37      1.0000 0.75642  0.11427  0.24663  Biso   1.000  O
  O38      1.0000 0.77243  0.13763  0.49578  Biso   1.000  O
  O39      1.0000 0.73197  0.38388  0.49799  Biso   1.000  O
  O40      1.0000 0.72409  0.37047  0.25025  Biso   1.000  O
  Zr21     1.0000 0.63781  0.01481  0.62194  Biso   1.000  Zr
  Zr22     1.0000 0.63344  0.23233  0.87119  Biso   1.000  Zr
  Zr23     1.0000 0.86831  0.26723  0.62933  Biso   1.000  Zr
  Zr24     1.0000 0.86506  0.48316  0.87515  Biso   1.000  Zr
  O41      1.0000 0.53828  0.18295  0.69208  Biso   1.000  O
  O42      1.0000 0.54076  0.06428  0.94068  Biso   1.000  O
  O43      1.0000 0.96369  0.43735  0.69558  Biso   1.000  O
  O44      1.0000 0.94988  0.31250  0.92601  Biso   1.000  O
  O45      1.0000 0.77143  0.11512  0.74643  Biso   1.000  O
  O46      1.0000 0.76925  0.12879  0.99525  Biso   1.000  O
  O47      1.0000 0.72186  0.38186  0.99933  Biso   1.000  O
  O48      1.0000 0.72827  0.36861  0.74737  Biso   1.000  O
  Zr25     1.0000 0.63100  0.51813  0.12799  Biso   1.000  Zr
  Zr26     1.0000 0.63740  0.73690  0.37533  Biso   1.000  Zr
  Zr27     1.0000 0.86456  0.76576  0.12503  Biso   1.000  Zr
  Zr28     1.0000 0.87523  0.99356  0.36692  Biso   1.000  Zr
  O49      1.0000 0.53584  0.68443  0.19725  Biso   1.000  O
  O50      1.0000 0.53433  0.56748  0.44515  Biso   1.000  O
  O51      1.0000 0.96716  0.93266  0.18979  Biso   1.000  O
  O52      1.0000 0.96630  0.82002  0.44169  Biso   1.000  O
  O53      1.0000 0.76983  0.61754  0.24961  Biso   1.000  O
  O54      1.0000 0.76957  0.63431  0.49792  Biso   1.000  O
  O55      1.0000 0.73636  0.88754  0.49530  Biso   1.000  O
  O56      1.0000 0.73214  0.86734  0.24700  Biso   1.000  O
  Zr29     1.0000 0.63692  0.51598  0.62416  Biso   1.000  Zr
  Zr30     1.0000 0.63657  0.73317  0.87499  Biso   1.000  Zr
  Zr31     1.0000 0.86844  0.76730  0.62186  Biso   1.000  Zr
  Zr32     1.0000 0.86739  0.98221  0.87427  Biso   1.000  Zr
  O57      1.0000 0.53510  0.68139  0.69745  Biso   1.000  O
  O58      1.0000 0.53396  0.56811  0.94859  Biso   1.000  O
  O59      1.0000 0.96934  0.92861  0.70089  Biso   1.000  O
  O60      1.0000 0.96454  0.81441  0.94535  Biso   1.000  O
  O61      1.0000 0.77024  0.61754  0.74793  Biso   1.000  O
  O62      1.0000 0.76801  0.63139  0.99998  Biso   1.000  O
  O63      1.0000 0.73210  0.88051  0.99791  Biso   1.000  O
  O64      1.0000 0.73253  0.86600  0.74668  Biso   1.000  O
  Ga1      1.0000 0.09705  0.27289  0.12942  Biso   1.000  Ga
