data_image0
_cell_length_a       10.2415
_cell_length_b       10.3736
_cell_length_c       10.5574
_cell_angle_alpha    90.1303
_cell_angle_beta     79.5832
_cell_angle_gamma    90.0158

_symmetry_space_group_name_H-M    "P 1"
_symmetry_int_tables_number       1

loop_
  _symmetry_equiv_pos_as_xyz
  'x, y, z'

loop_
  _atom_site_label
  _atom_site_occupancy
  _atom_site_fract_x
  _atom_site_fract_y
  _atom_site_fract_z
  _atom_site_thermal_displace_type
  _atom_site_B_iso_or_equiv
  _atom_site_type_symbol
  Zr1      1.0000 0.13303  0.02063  0.14202  Biso   1.000  Zr
  Zr2      1.0000 0.13766  0.22975  0.39118  Biso   1.000  Zr
  Zr3      1.0000 0.35334  0.27395  0.10029  Biso   1.000  Zr
  Zr4      1.0000 0.35685  0.48016  0.34677  Biso   1.000  Zr
  O1       1.0000 0.03135  0.16843  0.07772  Biso   1.000  O
  O2       1.0000 0.03121  0.08251  0.32853  Biso   1.000  O
  O3       1.0000 0.45825  0.43364  0.15853  Biso   1.000  O
  O4       1.0000 0.48416  0.34272  0.43496  Biso   1.000  O
  O5       1.0000 0.26761  0.11527  0.23393  Biso   1.000  O
  O6       1.0000 0.28826  0.12385  0.48185  Biso   1.000  O
  O7       1.0000 0.21901  0.38199  0.00421  Biso   1.000  O
  O8       1.0000 0.20578  0.37583  0.25219  Biso   1.000  O
  Zr5      1.0000 0.13887  0.02197  0.64457  Biso   1.000  Zr
  Zr6      1.0000 0.13633  0.22942  0.89376  Biso   1.000  Zr
  Zr7      1.0000 0.36354  0.27321  0.61047  Biso   1.000  Zr
  Zr8      1.0000 0.36051  0.47969  0.85552  Biso   1.000  Zr
  O9       1.0000 0.04218  0.17051  0.57782  Biso   1.000  O
  O10      1.0000 0.03413  0.08266  0.82746  Biso   1.000  O
  O11      1.0000 0.46836  0.41611  0.67672  Biso   1.000  O
  O12      1.0000 0.46383  0.33209  0.92090  Biso   1.000  O
  O13      1.0000 0.27606  0.12818  0.73819  Biso   1.000  O
  O14      1.0000 0.27202  0.12346  0.98670  Biso   1.000  O
  O15      1.0000 0.23032  0.37759  0.50705  Biso   1.000  O
  O16      1.0000 0.22519  0.37173  0.75842  Biso   1.000  O
  Zr9      1.0000 0.13544  0.52285  0.14226  Biso   1.000  Zr
  Zr10     1.0000 0.13601  0.72494  0.39619  Biso   1.000  Zr
  Zr11     1.0000 0.35981  0.77105  0.10306  Biso   1.000  Zr
  Zr12     1.0000 0.35337  0.96420  0.35377  Biso   1.000  Zr
  O17      1.0000 0.03149  0.67049  0.07789  Biso   1.000  O
  O18      1.0000 0.03146  0.58373  0.32751  Biso   1.000  O
  O19      1.0000 0.46467  0.91600  0.17385  Biso   1.000  O
  O20      1.0000 0.46480  0.83063  0.42311  Biso   1.000  O
  O21      1.0000 0.27314  0.62739  0.23974  Biso   1.000  O
  O22      1.0000 0.27432  0.62099  0.48898  Biso   1.000  O
  O23      1.0000 0.22351  0.87940  0.00838  Biso   1.000  O
  O24      1.0000 0.21931  0.86555  0.25803  Biso   1.000  O
  Zr13     1.0000 0.14075  0.52144  0.64457  Biso   1.000  Zr
  Zr14     1.0000 0.13683  0.72941  0.89524  Biso   1.000  Zr
  Zr15     1.0000 0.36132  0.77061  0.60602  Biso   1.000  Zr
  Zr16     1.0000 0.36032  0.97863  0.85453  Biso   1.000  Zr
  O25      1.0000 0.03292  0.66556  0.57983  Biso   1.000  O
  O26      1.0000 0.03480  0.58267  0.82884  Biso   1.000  O
  O27      1.0000 0.46610  0.91634  0.67246  Biso   1.000  O
  O28      1.0000 0.46491  0.83361  0.92155  Biso   1.000  O
  O29      1.0000 0.27605  0.62801  0.74002  Biso   1.000  O
  O30      1.0000 0.27430  0.62375  0.99006  Biso   1.000  O
  O31      1.0000 0.22218  0.87703  0.51070  Biso   1.000  O
  O32      1.0000 0.22410  0.87142  0.75935  Biso   1.000  O
  Zr17     1.0000 0.63951  0.02022  0.14560  Biso   1.000  Zr
  Zr18     1.0000 0.66058  0.22977  0.40805  Biso   1.000  Zr
  Zr19     1.0000 0.85850  0.27234  0.10663  Biso   1.000  Zr
  Zr20     1.0000 0.86121  0.48008  0.35428  Biso   1.000  Zr
  O33      1.0000 0.53111  0.16865  0.08469  Biso   1.000  O
  O34      1.0000 0.53007  0.08607  0.33315  Biso   1.000  O
  O35      1.0000 0.95993  0.42202  0.16814  Biso   1.000  O
  O36      1.0000 0.96358  0.33189  0.42093  Biso   1.000  O
  O37      1.0000 0.77395  0.12743  0.24439  Biso   1.000  O
  O38      1.0000 0.78613  0.11702  0.49793  Biso   1.000  O
  O39      1.0000 0.72207  0.37860  0.01271  Biso   1.000  O
  O40      1.0000 0.72268  0.37071  0.26324  Biso   1.000  O
  Zr21     1.0000 0.63980  0.02020  0.64927  Biso   1.000  Zr
  Zr22     1.0000 0.63737  0.22927  0.89859  Biso   1.000  Zr
  Zr23     1.0000 0.86581  0.27182  0.60906  Biso   1.000  Zr
  Zr24     1.0000 0.86123  0.47890  0.85649  Biso   1.000  Zr
  O41      1.0000 0.53945  0.16662  0.58150  Biso   1.000  O
  O42      1.0000 0.53385  0.08223  0.83183  Biso   1.000  O
  O43      1.0000 0.96871  0.41707  0.67300  Biso   1.000  O
  O44      1.0000 0.96259  0.33174  0.92133  Biso   1.000  O
  O45      1.0000 0.77595  0.12954  0.74448  Biso   1.000  O
  O46      1.0000 0.77342  0.12175  0.99314  Biso   1.000  O
  O47      1.0000 0.72931  0.37932  0.51512  Biso   1.000  O
  O48      1.0000 0.72575  0.37178  0.76326  Biso   1.000  O
  Zr25     1.0000 0.63595  0.52322  0.14582  Biso   1.000  Zr
  Zr26     1.0000 0.63796  0.72658  0.39708  Biso   1.000  Zr
  Zr27     1.0000 0.85766  0.77142  0.10503  Biso   1.000  Zr
  Zr28     1.0000 0.86109  0.97480  0.35577  Biso   1.000  Zr
  O49      1.0000 0.53602  0.67333  0.08023  Biso   1.000  O
  O50      1.0000 0.53139  0.58224  0.32911  Biso   1.000  O
  O51      1.0000 0.96114  0.91590  0.17242  Biso   1.000  O
  O52      1.0000 0.96489  0.83097  0.42274  Biso   1.000  O
  O53      1.0000 0.77331  0.62983  0.24177  Biso   1.000  O
  O54      1.0000 0.77483  0.62110  0.49151  Biso   1.000  O
  O55      1.0000 0.72304  0.87966  0.00990  Biso   1.000  O
  O56      1.0000 0.71892  0.87259  0.26160  Biso   1.000  O
  Zr29     1.0000 0.63974  0.52281  0.64886  Biso   1.000  Zr
  Zr30     1.0000 0.63813  0.72943  0.89679  Biso   1.000  Zr
  Zr31     1.0000 0.86108  0.77152  0.60572  Biso   1.000  Zr
  Zr32     1.0000 0.86071  0.97931  0.85524  Biso   1.000  Zr
  O57      1.0000 0.53337  0.66570  0.58052  Biso   1.000  O
  O58      1.0000 0.53386  0.58396  0.83111  Biso   1.000  O
  O59      1.0000 0.96576  0.91851  0.67109  Biso   1.000  O
  O60      1.0000 0.96414  0.83376  0.92109  Biso   1.000  O
  O61      1.0000 0.77587  0.62892  0.74168  Biso   1.000  O
  O62      1.0000 0.77441  0.62151  0.99113  Biso   1.000  O
  O63      1.0000 0.72335  0.87694  0.51191  Biso   1.000  O
  O64      1.0000 0.72525  0.87170  0.76138  Biso   1.000  O
  Ga1      1.0000 0.42348  0.22795  0.31651  Biso   1.000  Ga
