data_image0
_cell_length_a       5.15523
_cell_length_b       10.3845
_cell_length_c       10.5988
_cell_angle_alpha    90.2092
_cell_angle_beta     78.8572
_cell_angle_gamma    90.08

_symmetry_space_group_name_H-M    "P 1"
_symmetry_int_tables_number       1

loop_
  _symmetry_equiv_pos_as_xyz
  'x, y, z'

loop_
  _atom_site_label
  _atom_site_occupancy
  _atom_site_fract_x
  _atom_site_fract_y
  _atom_site_fract_z
  _atom_site_thermal_displace_type
  _atom_site_B_iso_or_equiv
  _atom_site_type_symbol
  Zr1      1.0000 0.26884  0.01809  0.14394  Biso   1.000  Zr
  Zr2      1.0000 0.32741  0.23241  0.40444  Biso   1.000  Zr
  Zr3      1.0000 0.69823  0.27398  0.10143  Biso   1.000  Zr
  Zr4      1.0000 0.71072  0.48263  0.34745  Biso   1.000  Zr
  O1       1.0000 0.05375  0.16762  0.08392  Biso   1.000  O
  O2       1.0000 0.05418  0.08361  0.33383  Biso   1.000  O
  O3       1.0000 0.91244  0.43330  0.15863  Biso   1.000  O
  O4       1.0000 0.97364  0.34386  0.43561  Biso   1.000  O
  O5       1.0000 0.53124  0.11488  0.23840  Biso   1.000  O
  O6       1.0000 0.58279  0.11641  0.49522  Biso   1.000  O
  O7       1.0000 0.43399  0.38150  0.00654  Biso   1.000  O
  O8       1.0000 0.41468  0.37722  0.25389  Biso   1.000  O
  Zr5      1.0000 0.27922  0.02043  0.64868  Biso   1.000  Zr
  Zr6      1.0000 0.26893  0.22978  0.89680  Biso   1.000  Zr
  Zr7      1.0000 0.73750  0.27161  0.61262  Biso   1.000  Zr
  Zr8      1.0000 0.71941  0.47957  0.85637  Biso   1.000  Zr
  O9       1.0000 0.08952  0.16811  0.58118  Biso   1.000  O
  O10      1.0000 0.06346  0.08385  0.83020  Biso   1.000  O
  O11      1.0000 0.94258  0.41396  0.67927  Biso   1.000  O
  O12      1.0000 0.92193  0.33230  0.92243  Biso   1.000  O
  O13      1.0000 0.54997  0.12873  0.74335  Biso   1.000  O
  O14      1.0000 0.53719  0.12360  0.99016  Biso   1.000  O
  O15      1.0000 0.47455  0.37885  0.51267  Biso   1.000  O
  O16      1.0000 0.45269  0.37145  0.76093  Biso   1.000  O
  Zr9      1.0000 0.26670  0.52417  0.14374  Biso   1.000  Zr
  Zr10     1.0000 0.26706  0.72437  0.39776  Biso   1.000  Zr
  Zr11     1.0000 0.71443  0.77157  0.10428  Biso   1.000  Zr
  Zr12     1.0000 0.70478  0.96559  0.35655  Biso   1.000  Zr
  O17      1.0000 0.06351  0.67360  0.07834  Biso   1.000  O
  O18      1.0000 0.05383  0.58536  0.32691  Biso   1.000  O
  O19      1.0000 0.92244  0.91372  0.17632  Biso   1.000  O
  O20      1.0000 0.92694  0.83175  0.42562  Biso   1.000  O
  O21      1.0000 0.54113  0.62890  0.24173  Biso   1.000  O
  O22      1.0000 0.54236  0.62157  0.49043  Biso   1.000  O
  O23      1.0000 0.44600  0.87939  0.00923  Biso   1.000  O
  O24      1.0000 0.43155  0.86759  0.26037  Biso   1.000  O
  Zr13     1.0000 0.28060  0.52260  0.64785  Biso   1.000  Zr
  Zr14     1.0000 0.27136  0.72964  0.89709  Biso   1.000  Zr
  Zr15     1.0000 0.72081  0.77113  0.60679  Biso   1.000  Zr
  Zr16     1.0000 0.71937  0.97893  0.85521  Biso   1.000  Zr
  O25      1.0000 0.05891  0.66226  0.58011  Biso   1.000  O
  O26      1.0000 0.06476  0.58546  0.82959  Biso   1.000  O
  O27      1.0000 0.93239  0.91572  0.67389  Biso   1.000  O
  O28      1.0000 0.92919  0.83623  0.92312  Biso   1.000  O
  O29      1.0000 0.54906  0.62762  0.74129  Biso   1.000  O
  O30      1.0000 0.54535  0.62366  0.99096  Biso   1.000  O
  O31      1.0000 0.44066  0.87439  0.51282  Biso   1.000  O
  O32      1.0000 0.44903  0.87187  0.76141  Biso   1.000  O
  Ga1      1.0000 0.88154  0.23524  0.30560  Biso   1.000  Ga
