data_image0
_cell_length_a       10.2979
_cell_length_b       5.20378
_cell_length_c       10.59
_cell_angle_alpha    90.0673
_cell_angle_beta     78.8876
_cell_angle_gamma    89.9816

_symmetry_space_group_name_H-M    "P 1"
_symmetry_int_tables_number       1

loop_
  _symmetry_equiv_pos_as_xyz
  'x, y, z'

loop_
  _atom_site_label
  _atom_site_occupancy
  _atom_site_fract_x
  _atom_site_fract_y
  _atom_site_fract_z
  _atom_site_thermal_displace_type
  _atom_site_B_iso_or_equiv
  _atom_site_type_symbol
  Zr1      1.0000 0.13102  0.04343  0.13940  Biso   1.000  Zr
  Zr2      1.0000 0.13356  0.45284  0.39270  Biso   1.000  Zr
  Zr3      1.0000 0.35350  0.54567  0.09950  Biso   1.000  Zr
  Zr4      1.0000 0.34770  0.92290  0.34471  Biso   1.000  Zr
  O1       1.0000 0.02938  0.34231  0.07741  Biso   1.000  O
  O2       1.0000 0.02832  0.16864  0.32686  Biso   1.000  O
  O3       1.0000 0.46031  0.85785  0.16192  Biso   1.000  O
  O4       1.0000 0.48085  0.67978  0.43429  Biso   1.000  O
  O5       1.0000 0.26646  0.22699  0.23431  Biso   1.000  O
  O6       1.0000 0.28637  0.24656  0.48022  Biso   1.000  O
  O7       1.0000 0.22006  0.76456  0.00433  Biso   1.000  O
  O8       1.0000 0.20246  0.74214  0.25088  Biso   1.000  O
  Zr5      1.0000 0.14101  0.04402  0.64381  Biso   1.000  Zr
  Zr6      1.0000 0.13526  0.46057  0.89411  Biso   1.000  Zr
  Zr7      1.0000 0.36389  0.54809  0.61301  Biso   1.000  Zr
  Zr8      1.0000 0.36008  0.96048  0.85566  Biso   1.000  Zr
  O9       1.0000 0.03889  0.33565  0.57836  Biso   1.000  O
  O10      1.0000 0.03468  0.16672  0.82761  Biso   1.000  O
  O11      1.0000 0.46893  0.83437  0.67682  Biso   1.000  O
  O12      1.0000 0.46407  0.66637  0.92114  Biso   1.000  O
  O13      1.0000 0.27560  0.25677  0.73801  Biso   1.000  O
  O14      1.0000 0.27173  0.25043  0.98738  Biso   1.000  O
  O15      1.0000 0.22657  0.74940  0.50958  Biso   1.000  O
  O16      1.0000 0.22459  0.74671  0.75889  Biso   1.000  O
  Zr9      1.0000 0.63804  0.04328  0.14533  Biso   1.000  Zr
  Zr10     1.0000 0.65766  0.46089  0.40871  Biso   1.000  Zr
  Zr11     1.0000 0.85630  0.54411  0.10699  Biso   1.000  Zr
  Zr12     1.0000 0.86138  0.95466  0.35517  Biso   1.000  Zr
  O17      1.0000 0.53260  0.34700  0.08616  Biso   1.000  O
  O18      1.0000 0.52788  0.16925  0.33268  Biso   1.000  O
  O19      1.0000 0.95710  0.84107  0.16979  Biso   1.000  O
  O20      1.0000 0.96354  0.66445  0.42337  Biso   1.000  O
  O21      1.0000 0.77084  0.25752  0.24615  Biso   1.000  O
  O22      1.0000 0.78301  0.23812  0.49797  Biso   1.000  O
  O23      1.0000 0.72244  0.75867  0.01279  Biso   1.000  O
  O24      1.0000 0.71835  0.74552  0.26459  Biso   1.000  O
  Zr13     1.0000 0.64085  0.04540  0.65294  Biso   1.000  Zr
  Zr14     1.0000 0.63717  0.46084  0.90009  Biso   1.000  Zr
  Zr15     1.0000 0.86527  0.54571  0.61039  Biso   1.000  Zr
  Zr16     1.0000 0.86139  0.95966  0.85704  Biso   1.000  Zr
  O25      1.0000 0.53797  0.33309  0.58314  Biso   1.000  O
  O26      1.0000 0.53363  0.16815  0.83409  Biso   1.000  O
  O27      1.0000 0.96889  0.83623  0.67320  Biso   1.000  O
  O28      1.0000 0.96240  0.66664  0.92165  Biso   1.000  O
  O29      1.0000 0.77619  0.26125  0.74537  Biso   1.000  O
  O30      1.0000 0.77329  0.24431  0.99416  Biso   1.000  O
  O31      1.0000 0.72756  0.75614  0.51659  Biso   1.000  O
  O32      1.0000 0.72643  0.74609  0.76443  Biso   1.000  O
  Ga1      1.0000 0.41586  0.43889  0.32129  Biso   1.000  Ga
