data_image0
_cell_length_a       10.1198
_cell_length_b       10.3429
_cell_length_c       10.5489
_cell_angle_alpha    89.8782
_cell_angle_beta     90.8065
_cell_angle_gamma    90.0312

_symmetry_space_group_name_H-M    "P 1"
_symmetry_int_tables_number       1

loop_
  _symmetry_equiv_pos_as_xyz
  'x, y, z'

loop_
  _atom_site_label
  _atom_site_occupancy
  _atom_site_fract_x
  _atom_site_fract_y
  _atom_site_fract_z
  _atom_site_thermal_displace_type
  _atom_site_B_iso_or_equiv
  _atom_site_type_symbol
  Zr1      1.0000 0.13710  0.01943  0.17248  Biso   1.000  Zr
  Zr2      1.0000 0.13494  0.22723  0.42718  Biso   1.000  Zr
  Zr3      1.0000 0.34050  0.27054  0.18588  Biso   1.000  Zr
  Zr4      1.0000 0.36038  0.47999  0.42530  Biso   1.000  Zr
  Zr5      1.0000 0.64287  0.01889  0.07033  Biso   1.000  Zr
  Zr6      1.0000 0.63603  0.22743  0.33623  Biso   1.000  Zr
  Zr7      1.0000 0.86308  0.26909  0.07415  Biso   1.000  Zr
  Zr8      1.0000 0.86002  0.47740  0.32711  Biso   1.000  Zr
  O1       1.0000 0.03655  0.16873  0.08666  Biso   1.000  O
  O2       1.0000 0.03001  0.08393  0.33461  Biso   1.000  O
  O3       1.0000 0.47042  0.41110  0.08720  Biso   1.000  O
  O4       1.0000 0.46220  0.33489  0.33682  Biso   1.000  O
  O5       1.0000 0.26949  0.12424  0.30074  Biso   1.000  O
  O6       1.0000 0.27656  0.12503  0.04827  Biso   1.000  O
  O7       1.0000 0.21517  0.37565  0.30263  Biso   1.000  O
  O8       1.0000 0.22389  0.37789  0.04956  Biso   1.000  O
  O9       1.0000 0.51472  0.15782  0.18053  Biso   1.000  O
  O10      1.0000 0.53028  0.08527  0.42129  Biso   1.000  O
  O11      1.0000 0.96161  0.41711  0.16580  Biso   1.000  O
  O12      1.0000 0.96510  0.33378  0.41763  Biso   1.000  O
  O13      1.0000 0.77494  0.12397  0.45480  Biso   1.000  O
  O14      1.0000 0.76900  0.12655  0.20409  Biso   1.000  O
  O15      1.0000 0.72224  0.37438  0.45286  Biso   1.000  O
  O16      1.0000 0.71227  0.37289  0.19674  Biso   1.000  O
  Zr9      1.0000 0.14171  0.02021  0.67292  Biso   1.000  Zr
  Zr10     1.0000 0.14095  0.22800  0.92196  Biso   1.000  Zr
  Zr11     1.0000 0.36431  0.27014  0.67473  Biso   1.000  Zr
  Zr12     1.0000 0.35990  0.48050  0.92160  Biso   1.000  Zr
  Zr13     1.0000 0.64001  0.01963  0.57999  Biso   1.000  Zr
  Zr14     1.0000 0.64751  0.22579  0.82447  Biso   1.000  Zr
  Zr15     1.0000 0.86166  0.27112  0.57892  Biso   1.000  Zr
  Zr16     1.0000 0.86654  0.48160  0.82560  Biso   1.000  Zr
  O17      1.0000 0.03302  0.16537  0.58670  Biso   1.000  O
  O18      1.0000 0.03933  0.08145  0.83463  Biso   1.000  O
  O19      1.0000 0.46858  0.41603  0.58682  Biso   1.000  O
  O20      1.0000 0.47190  0.33239  0.84091  Biso   1.000  O
  O21      1.0000 0.27958  0.12435  0.79748  Biso   1.000  O
  O22      1.0000 0.27674  0.12477  0.54906  Biso   1.000  O
  O23      1.0000 0.22816  0.37400  0.79796  Biso   1.000  O
  O24      1.0000 0.22574  0.37465  0.54961  Biso   1.000  O
  O25      1.0000 0.53566  0.16615  0.66595  Biso   1.000  O
  O26      1.0000 0.53830  0.06884  0.90371  Biso   1.000  O
  O27      1.0000 0.96989  0.41553  0.66558  Biso   1.000  O
  O28      1.0000 0.97108  0.33258  0.91456  Biso   1.000  O
  O29      1.0000 0.79286  0.11799  0.94672  Biso   1.000  O
  O30      1.0000 0.78061  0.12278  0.70066  Biso   1.000  O
  O31      1.0000 0.73601  0.38992  0.94871  Biso   1.000  O
  O32      1.0000 0.72719  0.37427  0.70207  Biso   1.000  O
  Zr17     1.0000 0.13585  0.52302  0.17251  Biso   1.000  Zr
  Zr18     1.0000 0.13723  0.72851  0.42160  Biso   1.000  Zr
  Zr19     1.0000 0.36105  0.77254  0.17398  Biso   1.000  Zr
  Zr20     1.0000 0.36037  0.97724  0.42546  Biso   1.000  Zr
  Zr21     1.0000 0.64706  0.53720  0.07579  Biso   1.000  Zr
  Zr22     1.0000 0.63895  0.73021  0.32958  Biso   1.000  Zr
  Zr23     1.0000 0.86366  0.77387  0.07838  Biso   1.000  Zr
  Zr24     1.0000 0.85927  0.98010  0.32827  Biso   1.000  Zr
  O33      1.0000 0.03414  0.66712  0.08449  Biso   1.000  O
  O34      1.0000 0.03073  0.58273  0.33514  Biso   1.000  O
  O35      1.0000 0.47000  0.91464  0.08385  Biso   1.000  O
  O36      1.0000 0.46765  0.83555  0.33555  Biso   1.000  O
  O37      1.0000 0.27314  0.62482  0.29712  Biso   1.000  O
  O38      1.0000 0.27774  0.62436  0.04657  Biso   1.000  O
  O39      1.0000 0.22388  0.87466  0.29738  Biso   1.000  O
  O40      1.0000 0.22475  0.87519  0.04776  Biso   1.000  O
  O41      1.0000 0.53130  0.66539  0.16914  Biso   1.000  O
  O42      1.0000 0.53162  0.58560  0.41747  Biso   1.000  O
  O43      1.0000 0.96563  0.91946  0.16519  Biso   1.000  O
  O44      1.0000 0.96525  0.83279  0.41373  Biso   1.000  O
  O45      1.0000 0.77541  0.62378  0.45347  Biso   1.000  O
  O46      1.0000 0.77916  0.62882  0.20489  Biso   1.000  O
  O47      1.0000 0.72421  0.87520  0.45475  Biso   1.000  O
  O48      1.0000 0.72477  0.87525  0.20384  Biso   1.000  O
  Zr25     1.0000 0.14085  0.52032  0.67131  Biso   1.000  Zr
  Zr26     1.0000 0.14167  0.72913  0.92234  Biso   1.000  Zr
  Zr27     1.0000 0.36207  0.76975  0.67266  Biso   1.000  Zr
  Zr28     1.0000 0.36314  0.97715  0.92226  Biso   1.000  Zr
  Zr29     1.0000 0.63986  0.52134  0.57811  Biso   1.000  Zr
  Zr30     1.0000 0.63978  0.72984  0.82630  Biso   1.000  Zr
  Zr31     1.0000 0.86285  0.77044  0.57738  Biso   1.000  Zr
  Zr32     1.0000 0.86679  0.97639  0.82636  Biso   1.000  Zr
  O49      1.0000 0.03384  0.66511  0.58368  Biso   1.000  O
  O50      1.0000 0.03806  0.58409  0.83455  Biso   1.000  O
  O51      1.0000 0.46835  0.91410  0.58589  Biso   1.000  O
  O52      1.0000 0.46654  0.82955  0.83510  Biso   1.000  O
  O53      1.0000 0.27839  0.62328  0.79581  Biso   1.000  O
  O54      1.0000 0.27524  0.62508  0.54662  Biso   1.000  O
  O55      1.0000 0.22598  0.87311  0.79668  Biso   1.000  O
  O56      1.0000 0.22472  0.87452  0.54663  Biso   1.000  O
  O57      1.0000 0.53349  0.66449  0.66642  Biso   1.000  O
  O58      1.0000 0.53300  0.58584  0.91851  Biso   1.000  O
  O59      1.0000 0.97065  0.91432  0.66377  Biso   1.000  O
  O60      1.0000 0.97089  0.83372  0.91672  Biso   1.000  O
  O61      1.0000 0.78001  0.63123  0.95092  Biso   1.000  O
  O62      1.0000 0.77727  0.62531  0.70266  Biso   1.000  O
  O63      1.0000 0.72767  0.87533  0.95348  Biso   1.000  O
  O64      1.0000 0.72696  0.87367  0.70399  Biso   1.000  O
  Ga1      1.0000 0.58110  0.27293  0.05514  Biso   1.000  Ga
