data_image0
_cell_length_a       10.159
_cell_length_b       5.19196
_cell_length_c       10.5753
_cell_angle_alpha    89.9718
_cell_angle_beta     91.3831
_cell_angle_gamma    90.0981

_symmetry_space_group_name_H-M    "P 1"
_symmetry_int_tables_number       1

loop_
  _symmetry_equiv_pos_as_xyz
  'x, y, z'

loop_
  _atom_site_label
  _atom_site_occupancy
  _atom_site_fract_x
  _atom_site_fract_y
  _atom_site_fract_z
  _atom_site_thermal_displace_type
  _atom_site_B_iso_or_equiv
  _atom_site_type_symbol
  Zr1      1.0000 0.13395  0.04094  0.17417  Biso   1.000  Zr
  Zr2      1.0000 0.13338  0.45142  0.42722  Biso   1.000  Zr
  Zr3      1.0000 0.34225  0.54067  0.18721  Biso   1.000  Zr
  Zr4      1.0000 0.36001  0.95399  0.42891  Biso   1.000  Zr
  Zr5      1.0000 0.65364  0.07739  0.06773  Biso   1.000  Zr
  Zr6      1.0000 0.63695  0.45442  0.33696  Biso   1.000  Zr
  Zr7      1.0000 0.86597  0.54232  0.07430  Biso   1.000  Zr
  Zr8      1.0000 0.85721  0.95296  0.32654  Biso   1.000  Zr
  O1       1.0000 0.03603  0.33134  0.08464  Biso   1.000  O
  O2       1.0000 0.02898  0.16202  0.33585  Biso   1.000  O
  O3       1.0000 0.46909  0.82544  0.08804  Biso   1.000  O
  O4       1.0000 0.46309  0.66832  0.33814  Biso   1.000  O
  O5       1.0000 0.26847  0.24760  0.30089  Biso   1.000  O
  O6       1.0000 0.27754  0.24977  0.04927  Biso   1.000  O
  O7       1.0000 0.21604  0.74799  0.30344  Biso   1.000  O
  O8       1.0000 0.22373  0.75314  0.05210  Biso   1.000  O
  O9       1.0000 0.51768  0.31954  0.17893  Biso   1.000  O
  O10      1.0000 0.52974  0.16961  0.42088  Biso   1.000  O
  O11      1.0000 0.96079  0.83690  0.16649  Biso   1.000  O
  O12      1.0000 0.96497  0.66470  0.41794  Biso   1.000  O
  O13      1.0000 0.77473  0.24519  0.45419  Biso   1.000  O
  O14      1.0000 0.77768  0.25856  0.20789  Biso   1.000  O
  O15      1.0000 0.72213  0.74776  0.45363  Biso   1.000  O
  O16      1.0000 0.71129  0.74747  0.19507  Biso   1.000  O
  Zr9      1.0000 0.14337  0.03827  0.67263  Biso   1.000  Zr
  Zr10     1.0000 0.14292  0.45634  0.92301  Biso   1.000  Zr
  Zr11     1.0000 0.36456  0.53854  0.67597  Biso   1.000  Zr
  Zr12     1.0000 0.36092  0.95956  0.92278  Biso   1.000  Zr
  Zr13     1.0000 0.64091  0.03942  0.57917  Biso   1.000  Zr
  Zr14     1.0000 0.64619  0.45658  0.82326  Biso   1.000  Zr
  Zr15     1.0000 0.86325  0.53949  0.57807  Biso   1.000  Zr
  Zr16     1.0000 0.87166  0.95840  0.82371  Biso   1.000  Zr
  O17      1.0000 0.03342  0.32633  0.58622  Biso   1.000  O
  O18      1.0000 0.04244  0.16557  0.83370  Biso   1.000  O
  O19      1.0000 0.46957  0.82795  0.58787  Biso   1.000  O
  O20      1.0000 0.47094  0.66244  0.83999  Biso   1.000  O
  O21      1.0000 0.28096  0.24741  0.79790  Biso   1.000  O
  O22      1.0000 0.27597  0.24728  0.54963  Biso   1.000  O
  O23      1.0000 0.22853  0.74596  0.79988  Biso   1.000  O
  O24      1.0000 0.22623  0.74553  0.55090  Biso   1.000  O
  O25      1.0000 0.53499  0.32842  0.66716  Biso   1.000  O
  O26      1.0000 0.53597  0.14758  0.90960  Biso   1.000  O
  O27      1.0000 0.97328  0.82596  0.66455  Biso   1.000  O
  O28      1.0000 0.97570  0.66829  0.91629  Biso   1.000  O
  O29      1.0000 0.79460  0.25091  0.94337  Biso   1.000  O
  O30      1.0000 0.78010  0.24541  0.70013  Biso   1.000  O
  O31      1.0000 0.74151  0.78140  0.94934  Biso   1.000  O
  O32      1.0000 0.72967  0.74567  0.70245  Biso   1.000  O
  Ga1      1.0000 0.58572  0.56220  0.05728  Biso   1.000  Ga
