data_image0
_cell_length_a       10.1951
_cell_length_b       10.3081
_cell_length_c       10.5103
_cell_angle_alpha    90.0799
_cell_angle_beta     80.4559
_cell_angle_gamma    89.7913

_symmetry_space_group_name_H-M    "P 1"
_symmetry_int_tables_number       1

loop_
  _symmetry_equiv_pos_as_xyz
  'x, y, z'

loop_
  _atom_site_label
  _atom_site_occupancy
  _atom_site_fract_x
  _atom_site_fract_y
  _atom_site_fract_z
  _atom_site_thermal_displace_type
  _atom_site_B_iso_or_equiv
  _atom_site_type_symbol
  Ga1      1.0000 0.12562  0.01158  0.15745  Biso   1.000  Ga
  Zr1      1.0000 0.13788  0.02121  0.64289  Biso   1.000  Zr
  Zr2      1.0000 0.13988  0.52221  0.14498  Biso   1.000  Zr
  Zr3      1.0000 0.14005  0.52128  0.64583  Biso   1.000  Zr
  Zr4      1.0000 0.63900  0.02183  0.14562  Biso   1.000  Zr
  Zr5      1.0000 0.63884  0.02167  0.64597  Biso   1.000  Zr
  Zr6      1.0000 0.63807  0.51960  0.14493  Biso   1.000  Zr
  Zr7      1.0000 0.63889  0.52124  0.64626  Biso   1.000  Zr
  Zr8      1.0000 0.13760  0.22630  0.39007  Biso   1.000  Zr
  Zr9      1.0000 0.14242  0.22515  0.89510  Biso   1.000  Zr
  Zr10     1.0000 0.13888  0.72838  0.39535  Biso   1.000  Zr
  Zr11     1.0000 0.13922  0.73275  0.89637  Biso   1.000  Zr
  Zr12     1.0000 0.63919  0.22858  0.39500  Biso   1.000  Zr
  Zr13     1.0000 0.64038  0.23029  0.89673  Biso   1.000  Zr
  Zr14     1.0000 0.63771  0.72868  0.39537  Biso   1.000  Zr
  Zr15     1.0000 0.63757  0.72931  0.89699  Biso   1.000  Zr
  Zr16     1.0000 0.35737  0.26692  0.10322  Biso   1.000  Zr
  Zr17     1.0000 0.36002  0.27170  0.60314  Biso   1.000  Zr
  Zr18     1.0000 0.35707  0.77567  0.10505  Biso   1.000  Zr
  Zr19     1.0000 0.36082  0.77251  0.60506  Biso   1.000  Zr
  Zr20     1.0000 0.86875  0.26613  0.10565  Biso   1.000  Zr
  Zr21     1.0000 0.86131  0.27158  0.60497  Biso   1.000  Zr
  Zr22     1.0000 0.86063  0.77190  0.10575  Biso   1.000  Zr
  Zr23     1.0000 0.85999  0.76999  0.60592  Biso   1.000  Zr
  Zr24     1.0000 0.36054  0.47825  0.35370  Biso   1.000  Zr
  Zr25     1.0000 0.36061  0.47985  0.85517  Biso   1.000  Zr
  Zr26     1.0000 0.35788  0.97930  0.35113  Biso   1.000  Zr
  Zr27     1.0000 0.36052  0.98292  0.85594  Biso   1.000  Zr
  Zr28     1.0000 0.86039  0.47871  0.35459  Biso   1.000  Zr
  Zr29     1.0000 0.86313  0.47805  0.85696  Biso   1.000  Zr
  Zr30     1.0000 0.85977  0.97749  0.35611  Biso   1.000  Zr
  Zr31     1.0000 0.86089  0.97918  0.85479  Biso   1.000  Zr
  O1       1.0000 0.04399  0.15748  0.07890  Biso   1.000  O
  O2       1.0000 0.03397  0.16655  0.57611  Biso   1.000  O
  O3       1.0000 0.03421  0.66737  0.07918  Biso   1.000  O
  O4       1.0000 0.03398  0.66622  0.57988  Biso   1.000  O
  O5       1.0000 0.53524  0.16730  0.07854  Biso   1.000  O
  O6       1.0000 0.53369  0.16697  0.57803  Biso   1.000  O
  O7       1.0000 0.53258  0.66696  0.07911  Biso   1.000  O
  O8       1.0000 0.53389  0.66719  0.57878  Biso   1.000  O
  O9       1.0000 0.03232  0.07950  0.32985  Biso   1.000  O
  O10      1.0000 0.03373  0.08366  0.82612  Biso   1.000  O
  O11      1.0000 0.03427  0.58216  0.32902  Biso   1.000  O
  O12      1.0000 0.03550  0.58436  0.83044  Biso   1.000  O
  O13      1.0000 0.53209  0.08477  0.32747  Biso   1.000  O
  O14      1.0000 0.53763  0.08337  0.82859  Biso   1.000  O
  O15      1.0000 0.53436  0.58187  0.32896  Biso   1.000  O
  O16      1.0000 0.53321  0.58511  0.82803  Biso   1.000  O
  O17      1.0000 0.46583  0.41508  0.17147  Biso   1.000  O
  O18      1.0000 0.46589  0.41670  0.67173  Biso   1.000  O
  O19      1.0000 0.46691  0.91587  0.17176  Biso   1.000  O
  O20      1.0000 0.46584  0.91788  0.67122  Biso   1.000  O
  O21      1.0000 0.96823  0.41522  0.17213  Biso   1.000  O
  O22      1.0000 0.96718  0.41589  0.67342  Biso   1.000  O
  O23      1.0000 0.96474  0.91483  0.17332  Biso   1.000  O
  O24      1.0000 0.96495  0.91628  0.67130  Biso   1.000  O
  O25      1.0000 0.46645  0.33398  0.42150  Biso   1.000  O
  O26      1.0000 0.47017  0.33859  0.92265  Biso   1.000  O
  O27      1.0000 0.46447  0.83346  0.42073  Biso   1.000  O
  O28      1.0000 0.46285  0.83393  0.92212  Biso   1.000  O
  O29      1.0000 0.96472  0.33249  0.42105  Biso   1.000  O
  O30      1.0000 0.96901  0.33213  0.92493  Biso   1.000  O
  O31      1.0000 0.96422  0.83085  0.42271  Biso   1.000  O
  O32      1.0000 0.96445  0.83315  0.92199  Biso   1.000  O
  O33      1.0000 0.26874  0.12114  0.23114  Biso   1.000  O
  O34      1.0000 0.27444  0.12726  0.73403  Biso   1.000  O
  O35      1.0000 0.27575  0.62805  0.24011  Biso   1.000  O
  O36      1.0000 0.27560  0.62974  0.74054  Biso   1.000  O
  O37      1.0000 0.77557  0.12704  0.24124  Biso   1.000  O
  O38      1.0000 0.77703  0.12950  0.74039  Biso   1.000  O
  O39      1.0000 0.77516  0.62792  0.24054  Biso   1.000  O
  O40      1.0000 0.77549  0.62814  0.74178  Biso   1.000  O
  O41      1.0000 0.27527  0.12273  0.48502  Biso   1.000  O
  O42      1.0000 0.29299  0.13662  0.97288  Biso   1.000  O
  O43      1.0000 0.27592  0.62154  0.49061  Biso   1.000  O
  O44      1.0000 0.27538  0.62614  0.99021  Biso   1.000  O
  O45      1.0000 0.77515  0.12138  0.49118  Biso   1.000  O
  O46      1.0000 0.77740  0.12106  0.99126  Biso   1.000  O
  O47      1.0000 0.77500  0.62090  0.49114  Biso   1.000  O
  O48      1.0000 0.77471  0.62086  0.99077  Biso   1.000  O
  O49      1.0000 0.22497  0.38245  0.00890  Biso   1.000  O
  O50      1.0000 0.22369  0.37894  0.50839  Biso   1.000  O
  O51      1.0000 0.22145  0.89336  0.01519  Biso   1.000  O
  O52      1.0000 0.22376  0.87877  0.50925  Biso   1.000  O
  O53      1.0000 0.72862  0.37694  0.01122  Biso   1.000  O
  O54      1.0000 0.72401  0.37853  0.51038  Biso   1.000  O
  O55      1.0000 0.72341  0.87885  0.01006  Biso   1.000  O
  O56      1.0000 0.72313  0.87781  0.51068  Biso   1.000  O
  O57      1.0000 0.22493  0.36928  0.25871  Biso   1.000  O
  O58      1.0000 0.22583  0.37112  0.75937  Biso   1.000  O
  O59      1.0000 0.22112  0.86942  0.26023  Biso   1.000  O
  O60      1.0000 0.22418  0.87248  0.76031  Biso   1.000  O
  O61      1.0000 0.72669  0.36977  0.25960  Biso   1.000  O
  O62      1.0000 0.72570  0.37252  0.76078  Biso   1.000  O
  O63      1.0000 0.72351  0.87093  0.26039  Biso   1.000  O
  O64      1.0000 0.72394  0.87143  0.76056  Biso   1.000  O
