data_image0
_cell_length_a       10.0911
_cell_length_b       10.4762
_cell_length_c       5.10623
_cell_angle_alpha    89.9457
_cell_angle_beta     88.8248
_cell_angle_gamma    90.4607

_symmetry_space_group_name_H-M    "P 1"
_symmetry_int_tables_number       1

loop_
  _symmetry_equiv_pos_as_xyz
  'x, y, z'

loop_
  _atom_site_label
  _atom_site_occupancy
  _atom_site_fract_x
  _atom_site_fract_y
  _atom_site_fract_z
  _atom_site_thermal_displace_type
  _atom_site_B_iso_or_equiv
  _atom_site_type_symbol
  Zr1      1.0000 0.14447  0.01270  0.26458  Biso   1.000  Zr
  Zr2      1.0000 0.13757  0.22335  0.81107  Biso   1.000  Zr
  Zr3      1.0000 0.36846  0.26471  0.24726  Biso   1.000  Zr
  Zr4      1.0000 0.37200  0.48744  0.74496  Biso   1.000  Zr
  O1       1.0000 0.00683  0.15447  0.50575  Biso   1.000  O
  O2       1.0000 0.03249  0.06355  0.94918  Biso   1.000  O
  O3       1.0000 0.46233  0.43274  0.38878  Biso   1.000  O
  O4       1.0000 0.46360  0.31612  0.88052  Biso   1.000  O
  O5       1.0000 0.26814  0.11771  0.52012  Biso   1.000  O
  O6       1.0000 0.29049  0.11809  0.00516  Biso   1.000  O
  O7       1.0000 0.23873  0.39203  0.99894  Biso   1.000  O
  O8       1.0000 0.21758  0.36613  0.50615  Biso   1.000  O
  Zr5      1.0000 0.13726  0.53394  0.24112  Biso   1.000  Zr
  Zr6      1.0000 0.13416  0.73803  0.74871  Biso   1.000  Zr
  Zr7      1.0000 0.37306  0.76522  0.24532  Biso   1.000  Zr
  Zr8      1.0000 0.37087  0.98007  0.74953  Biso   1.000  Zr
  O9       1.0000 0.03331  0.68245  0.39265  Biso   1.000  O
  O10      1.0000 0.03428  0.57256  0.89158  Biso   1.000  O
  O11      1.0000 0.46818  0.93142  0.38398  Biso   1.000  O
  O12      1.0000 0.47361  0.81766  0.89343  Biso   1.000  O
  O13      1.0000 0.27206  0.61843  0.49256  Biso   1.000  O
  O14      1.0000 0.27048  0.63826  0.99007  Biso   1.000  O
  O15      1.0000 0.23333  0.87981  0.99995  Biso   1.000  O
  O16      1.0000 0.23814  0.86411  0.49870  Biso   1.000  O
  Zr9      1.0000 0.63376  0.01217  0.22875  Biso   1.000  Zr
  Zr10     1.0000 0.62833  0.23171  0.73141  Biso   1.000  Zr
  Zr11     1.0000 0.84293  0.26461  0.22383  Biso   1.000  Zr
  Zr12     1.0000 0.86916  0.48256  0.74183  Biso   1.000  Zr
  O17      1.0000 0.53285  0.18121  0.37851  Biso   1.000  O
  O18      1.0000 0.53872  0.06488  0.87663  Biso   1.000  O
  O19      1.0000 0.96821  0.42717  0.37934  Biso   1.000  O
  O20      1.0000 0.95933  0.32248  0.87520  Biso   1.000  O
  O21      1.0000 0.76032  0.11279  0.47094  Biso   1.000  O
  O22      1.0000 0.76791  0.13493  0.96530  Biso   1.000  O
  O23      1.0000 0.72346  0.38321  0.98516  Biso   1.000  O
  O24      1.0000 0.72624  0.37135  0.48662  Biso   1.000  O
  Zr13     1.0000 0.63419  0.51864  0.24742  Biso   1.000  Zr
  Zr14     1.0000 0.64178  0.73608  0.74382  Biso   1.000  Zr
  Zr15     1.0000 0.86706  0.76808  0.23716  Biso   1.000  Zr
  Zr16     1.0000 0.87891  0.99331  0.72312  Biso   1.000  Zr
  O25      1.0000 0.53618  0.68181  0.39655  Biso   1.000  O
  O26      1.0000 0.53326  0.56959  0.89578  Biso   1.000  O
  O27      1.0000 0.97484  0.92190  0.39369  Biso   1.000  O
  O28      1.0000 0.96825  0.82140  0.88391  Biso   1.000  O
  O29      1.0000 0.77144  0.61725  0.48827  Biso   1.000  O
  O30      1.0000 0.76904  0.63303  0.99005  Biso   1.000  O
  O31      1.0000 0.73828  0.88538  0.98310  Biso   1.000  O
  O32      1.0000 0.73441  0.86671  0.48411  Biso   1.000  O
  Ga1      1.0000 0.09366  0.27584  0.29500  Biso   1.000  Ga
