data_image0
_cell_length_a       5.03844
_cell_length_b       10.1946
_cell_length_c       10.4763
_cell_angle_alpha    90.2492
_cell_angle_beta     80.9142
_cell_angle_gamma    89.3114

_symmetry_space_group_name_H-M    "P 1"
_symmetry_int_tables_number       1

loop_
  _symmetry_equiv_pos_as_xyz
  'x, y, z'

loop_
  _atom_site_label
  _atom_site_occupancy
  _atom_site_fract_x
  _atom_site_fract_y
  _atom_site_fract_z
  _atom_site_thermal_displace_type
  _atom_site_B_iso_or_equiv
  _atom_site_type_symbol
  Ge1      1.0000 0.24241  0.01345  0.16035  Biso   1.000  Ge
  Hf1      1.0000 0.27529  0.22708  0.38977  Biso   1.000  Hf
  Hf2      1.0000 0.73229  0.26355  0.10259  Biso   1.000  Hf
  Hf3      1.0000 0.72187  0.47752  0.35324  Biso   1.000  Hf
  O1       1.0000 0.09808  0.15193  0.07770  Biso   1.000  O
  O2       1.0000 0.06077  0.08061  0.32194  Biso   1.000  O
  O3       1.0000 0.93845  0.41211  0.17413  Biso   1.000  O
  O4       1.0000 0.93112  0.33305  0.42258  Biso   1.000  O
  O5       1.0000 0.52734  0.11530  0.22496  Biso   1.000  O
  O6       1.0000 0.55406  0.12209  0.48179  Biso   1.000  O
  O7       1.0000 0.45981  0.38294  0.01141  Biso   1.000  O
  O8       1.0000 0.45743  0.36510  0.25844  Biso   1.000  O
  Hf4      1.0000 0.27374  0.02124  0.64380  Biso   1.000  Hf
  Hf5      1.0000 0.28978  0.22717  0.89489  Biso   1.000  Hf
  Hf6      1.0000 0.72343  0.27203  0.60304  Biso   1.000  Hf
  Hf7      1.0000 0.72770  0.47897  0.85769  Biso   1.000  Hf
  O9       1.0000 0.06801  0.16353  0.57100  Biso   1.000  O
  O10      1.0000 0.07653  0.08534  0.82380  Biso   1.000  O
  O11      1.0000 0.93590  0.41348  0.67624  Biso   1.000  O
  O12      1.0000 0.95124  0.33978  0.93017  Biso   1.000  O
  O13      1.0000 0.55332  0.12797  0.73094  Biso   1.000  O
  O14      1.0000 0.59853  0.14081  0.96939  Biso   1.000  O
  O15      1.0000 0.44453  0.37771  0.50900  Biso   1.000  O
  O16      1.0000 0.45468  0.37180  0.76132  Biso   1.000  O
  Hf8      1.0000 0.27532  0.52140  0.14530  Biso   1.000  Hf
  Hf9      1.0000 0.27290  0.72643  0.39737  Biso   1.000  Hf
  Hf10     1.0000 0.71277  0.77557  0.10598  Biso   1.000  Hf
  Hf11     1.0000 0.71062  0.97523  0.35470  Biso   1.000  Hf
  O17      1.0000 0.06456  0.66833  0.07922  Biso   1.000  O
  O18      1.0000 0.07079  0.58016  0.32911  Biso   1.000  O
  O19      1.0000 0.93507  0.91421  0.17570  Biso   1.000  O
  O20      1.0000 0.92388  0.83174  0.42397  Biso   1.000  O
  O21      1.0000 0.55207  0.62840  0.24033  Biso   1.000  O
  O22      1.0000 0.55306  0.61968  0.49152  Biso   1.000  O
  O23      1.0000 0.43359  0.90450  0.02323  Biso   1.000  O
  O24      1.0000 0.43489  0.87043  0.26144  Biso   1.000  O
  Hf12     1.0000 0.28028  0.52043  0.64696  Biso   1.000  Hf
  Hf13     1.0000 0.26904  0.73225  0.89748  Biso   1.000  Hf
  Hf14     1.0000 0.71946  0.77047  0.60787  Biso   1.000  Hf
  Hf15     1.0000 0.72391  0.98559  0.85482  Biso   1.000  Hf
  O25      1.0000 0.06789  0.66506  0.57876  Biso   1.000  O
  O26      1.0000 0.06922  0.58782  0.82823  Biso   1.000  O
  O27      1.0000 0.92969  0.91582  0.67322  Biso   1.000  O
  O28      1.0000 0.91534  0.83525  0.92600  Biso   1.000  O
  O29      1.0000 0.55208  0.62862  0.74184  Biso   1.000  O
  O30      1.0000 0.54916  0.62892  0.99050  Biso   1.000  O
  O31      1.0000 0.44258  0.87716  0.51149  Biso   1.000  O
  O32      1.0000 0.44553  0.87199  0.76476  Biso   1.000  O
