data_image0
_cell_length_a       10.2884
_cell_length_b       10.3304
_cell_length_c       5.2501
_cell_angle_alpha    89.8297
_cell_angle_beta     78.9554
_cell_angle_gamma    89.5876

_symmetry_space_group_name_H-M    "P 1"
_symmetry_int_tables_number       1

loop_
  _symmetry_equiv_pos_as_xyz
  'x, y, z'

loop_
  _atom_site_label
  _atom_site_occupancy
  _atom_site_fract_x
  _atom_site_fract_y
  _atom_site_fract_z
  _atom_site_thermal_displace_type
  _atom_site_B_iso_or_equiv
  _atom_site_type_symbol
  Hf1      1.0000 0.12924  0.01792  0.28914  Biso   1.000  Hf
  Hf2      1.0000 0.13301  0.22707  0.78124  Biso   1.000  Hf
  Hf3      1.0000 0.34232  0.26617  0.19592  Biso   1.000  Hf
  Hf4      1.0000 0.35459  0.48364  0.70582  Biso   1.000  Hf
  O1       1.0000 0.03362  0.16851  0.15910  Biso   1.000  O
  O2       1.0000 0.02665  0.08103  0.66327  Biso   1.000  O
  O3       1.0000 0.46247  0.43274  0.33351  Biso   1.000  O
  O4       1.0000 0.46874  0.34421  0.86718  Biso   1.000  O
  O5       1.0000 0.25812  0.11905  0.46673  Biso   1.000  O
  O6       1.0000 0.27028  0.12218  0.96526  Biso   1.000  O
  O7       1.0000 0.21710  0.38165  0.00357  Biso   1.000  O
  O8       1.0000 0.21535  0.37209  0.50802  Biso   1.000  O
  Hf5      1.0000 0.13723  0.52257  0.29105  Biso   1.000  Hf
  Hf6      1.0000 0.13572  0.72942  0.79561  Biso   1.000  Hf
  Hf7      1.0000 0.35983  0.77200  0.20994  Biso   1.000  Hf
  Hf8      1.0000 0.35617  0.97429  0.70537  Biso   1.000  Hf
  O9       1.0000 0.03090  0.66722  0.16038  Biso   1.000  O
  O10      1.0000 0.03507  0.58564  0.65808  Biso   1.000  O
  O11      1.0000 0.46326  0.91696  0.34206  Biso   1.000  O
  O12      1.0000 0.45959  0.82784  0.84225  Biso   1.000  O
  O13      1.0000 0.27391  0.62819  0.48273  Biso   1.000  O
  O14      1.0000 0.27314  0.62316  0.98324  Biso   1.000  O
  O15      1.0000 0.22110  0.87840  0.01949  Biso   1.000  O
  O16      1.0000 0.22067  0.86804  0.51822  Biso   1.000  O
  Hf9      1.0000 0.63974  0.01636  0.30438  Biso   1.000  Hf
  Hf10     1.0000 0.65202  0.23382  0.81429  Biso   1.000  Hf
  Hf11     1.0000 0.86134  0.27293  0.22895  Biso   1.000  Hf
  Hf12     1.0000 0.86510  0.48208  0.72106  Biso   1.000  Hf
  O17      1.0000 0.52561  0.15578  0.14302  Biso   1.000  O
  O18      1.0000 0.53187  0.06726  0.67668  Biso   1.000  O
  O19      1.0000 0.96769  0.41897  0.34693  Biso   1.000  O
  O20      1.0000 0.96072  0.33149  0.85110  Biso   1.000  O
  O21      1.0000 0.77899  0.12790  0.50218  Biso   1.000  O
  O22      1.0000 0.77724  0.11834  0.00662  Biso   1.000  O
  O23      1.0000 0.72406  0.37782  0.04494  Biso   1.000  O
  O24      1.0000 0.73622  0.38095  0.54347  Biso   1.000  O
  Hf13     1.0000 0.63817  0.52570  0.30483  Biso   1.000  Hf
  Hf14     1.0000 0.63451  0.72800  0.80027  Biso   1.000  Hf
  Hf15     1.0000 0.85862  0.77058  0.21460  Biso   1.000  Hf
  Hf16     1.0000 0.85710  0.97743  0.71915  Biso   1.000  Hf
  O25      1.0000 0.53475  0.67216  0.16795  Biso   1.000  O
  O26      1.0000 0.53108  0.58304  0.66814  Biso   1.000  O
  O27      1.0000 0.95927  0.91436  0.35213  Biso   1.000  O
  O28      1.0000 0.96344  0.83278  0.84984  Biso   1.000  O
  O29      1.0000 0.77367  0.63196  0.49199  Biso   1.000  O
  O30      1.0000 0.77325  0.62159  0.99072  Biso   1.000  O
  O31      1.0000 0.72119  0.87684  0.02697  Biso   1.000  O
  O32      1.0000 0.72043  0.87181  0.52748  Biso   1.000  O
  Ge1      1.0000 0.49717  0.25001  0.50511  Biso   1.000  Ge
