data_image0
_cell_length_a       10.1244
_cell_length_b       10.2354
_cell_length_c       10.1574
_cell_angle_alpha    89.0092
_cell_angle_beta     85.838
_cell_angle_gamma    90.819

_symmetry_space_group_name_H-M    "P 1"
_symmetry_int_tables_number       1

loop_
  _symmetry_equiv_pos_as_xyz
  'x, y, z'

loop_
  _atom_site_label
  _atom_site_occupancy
  _atom_site_fract_x
  _atom_site_fract_y
  _atom_site_fract_z
  _atom_site_thermal_displace_type
  _atom_site_B_iso_or_equiv
  _atom_site_type_symbol
  Hf1      1.0000 0.12667  0.99161  0.13072  Biso   1.000  Hf
  Hf2      1.0000 0.13221  0.26129  0.37704  Biso   1.000  Hf
  Hf3      1.0000 0.41163  0.22252  0.12551  Biso   1.000  Hf
  Hf4      1.0000 0.38549  0.00253  0.37845  Biso   1.000  Hf
  O1       1.0000 0.05099  0.16869  0.03743  Biso   1.000  O
  O2       1.0000 0.04370  0.09212  0.29036  Biso   1.000  O
  O3       1.0000 0.98324  0.34812  0.25964  Biso   1.000  O
  O4       1.0000 0.98324  0.40518  0.99701  Biso   1.000  O
  O5       1.0000 0.31191  0.17364  0.31608  Biso   1.000  O
  O6       1.0000 0.30346  0.06608  0.04995  Biso   1.000  O
  O7       1.0000 0.29735  0.30091  0.97011  Biso   1.000  O
  O8       1.0000 0.21847  0.43829  0.28240  Biso   1.000  O
  Hf5      1.0000 0.12518  0.99670  0.63057  Biso   1.000  Hf
  Hf6      1.0000 0.12400  0.25757  0.85525  Biso   1.000  Hf
  Hf7      1.0000 0.39222  0.23506  0.61734  Biso   1.000  Hf
  Hf8      1.0000 0.38026  0.99793  0.87267  Biso   1.000  Hf
  O9       1.0000 0.04125  0.15869  0.53936  Biso   1.000  O
  O10      1.0000 0.02834  0.09412  0.78719  Biso   1.000  O
  O11      1.0000 0.99185  0.35038  0.74788  Biso   1.000  O
  O12      1.0000 0.00185  0.39951  0.50135  Biso   1.000  O
  O13      1.0000 0.27560  0.15297  0.77763  Biso   1.000  O
  O14      1.0000 0.29172  0.08028  0.54447  Biso   1.000  O
  O15      1.0000 0.25398  0.34714  0.52062  Biso   1.000  O
  O16      1.0000 0.23257  0.41394  0.76354  Biso   1.000  O
  Hf9      1.0000 0.09567  0.52789  0.12646  Biso   1.000  Hf
  Hf10     1.0000 0.12569  0.76077  0.38523  Biso   1.000  Hf
  Hf11     1.0000 0.37144  0.76037  0.13426  Biso   1.000  Hf
  Hf12     1.0000 0.36812  0.48884  0.39014  Biso   1.000  Hf
  O17      1.0000 0.97226  0.65342  0.98351  Biso   1.000  O
  O18      1.0000 0.93768  0.60392  0.22919  Biso   1.000  O
  O19      1.0000 0.99756  0.85335  0.25281  Biso   1.000  O
  O20      1.0000 0.00096  0.90509  0.00406  Biso   1.000  O
  O21      1.0000 0.20083  0.67654  0.21675  Biso   1.000  O
  O22      1.0000 0.21941  0.58564  0.97061  Biso   1.000  O
  O23      1.0000 0.24537  0.84197  0.00312  Biso   1.000  O
  O24      1.0000 0.25330  0.90907  0.26325  Biso   1.000  O
  Hf13     1.0000 0.12047  0.50022  0.62992  Biso   1.000  Hf
  Hf14     1.0000 0.12444  0.75443  0.87965  Biso   1.000  Hf
  Hf15     1.0000 0.36972  0.75582  0.63062  Biso   1.000  Hf
  Hf16     1.0000 0.37428  0.48372  0.88785  Biso   1.000  Hf
  O25      1.0000 0.96972  0.65149  0.47473  Biso   1.000  O
  O26      1.0000 0.96472  0.59815  0.72473  Biso   1.000  O
  O27      1.0000 0.99520  0.85046  0.75342  Biso   1.000  O
  O28      1.0000 0.00379  0.90099  0.50545  Biso   1.000  O
  O29      1.0000 0.21257  0.66172  0.72217  Biso   1.000  O
  O30      1.0000 0.22526  0.60420  0.47935  Biso   1.000  O
  O31      1.0000 0.25024  0.85165  0.50534  Biso   1.000  O
  O32      1.0000 0.24907  0.90167  0.76147  Biso   1.000  O
  Hf17     1.0000 0.62955  0.98074  0.11024  Biso   1.000  Hf
  Hf18     1.0000 0.62573  0.26294  0.35919  Biso   1.000  Hf
  Hf19     1.0000 0.86481  0.25922  0.11815  Biso   1.000  Hf
  Hf20     1.0000 0.87662  0.99659  0.37096  Biso   1.000  Hf
  O33      1.0000 0.54385  0.12915  0.99401  Biso   1.000  O
  O34      1.0000 0.53581  0.10660  0.24394  Biso   1.000  O
  O35      1.0000 0.49176  0.36354  0.24839  Biso   1.000  O
  O36      1.0000 0.51089  0.38735  0.99805  Biso   1.000  O
  O37      1.0000 0.78532  0.15838  0.28555  Biso   1.000  O
  O38      1.0000 0.79824  0.08446  0.03778  Biso   1.000  O
  O39      1.0000 0.75350  0.33398  0.98092  Biso   1.000  O
  O40      1.0000 0.74008  0.40338  0.23035  Biso   1.000  O
  Hf21     1.0000 0.62740  0.98607  0.61527  Biso   1.000  Hf
  Hf22     1.0000 0.62358  0.26051  0.85578  Biso   1.000  Hf
  Hf23     1.0000 0.87492  0.25060  0.61821  Biso   1.000  Hf
  Hf24     1.0000 0.86955  0.99037  0.87028  Biso   1.000  Hf
  O41      1.0000 0.53403  0.13692  0.49788  Biso   1.000  O
  O42      1.0000 0.51948  0.10536  0.74575  Biso   1.000  O
  O43      1.0000 0.49134  0.35815  0.74586  Biso   1.000  O
  O44      1.0000 0.50367  0.38497  0.49571  Biso   1.000  O
  O45      1.0000 0.77766  0.15189  0.77952  Biso   1.000  O
  O46      1.0000 0.79126  0.08351  0.53568  Biso   1.000  O
  O47      1.0000 0.75607  0.33766  0.48855  Biso   1.000  O
  O48      1.0000 0.74204  0.40177  0.73186  Biso   1.000  O
  Hf25     1.0000 0.60223  0.51312  0.12689  Biso   1.000  Hf
  Hf26     1.0000 0.61957  0.74694  0.37351  Biso   1.000  Hf
  Hf27     1.0000 0.87270  0.76408  0.12790  Biso   1.000  Hf
  Hf28     1.0000 0.87440  0.48486  0.38021  Biso   1.000  Hf
  O49      1.0000 0.47225  0.63770  0.00105  Biso   1.000  O
  O50      1.0000 0.46039  0.60999  0.24927  Biso   1.000  O
  O51      1.0000 0.49913  0.85958  0.24734  Biso   1.000  O
  O52      1.0000 0.50183  0.88327  0.99408  Biso   1.000  O
  O53      1.0000 0.69934  0.67166  0.19917  Biso   1.000  O
  O54      1.0000 0.71118  0.58530  0.95513  Biso   1.000  O
  O55      1.0000 0.74691  0.84307  0.98827  Biso   1.000  O
  O56      1.0000 0.75282  0.90309  0.24809  Biso   1.000  O
  Hf29     1.0000 0.60886  0.50715  0.62134  Biso   1.000  Hf
  Hf30     1.0000 0.61468  0.74119  0.86932  Biso   1.000  Hf
  Hf31     1.0000 0.87815  0.75665  0.62477  Biso   1.000  Hf
  Hf32     1.0000 0.86591  0.48909  0.87118  Biso   1.000  Hf
  O57      1.0000 0.47836  0.63952  0.50186  Biso   1.000  O
  O58      1.0000 0.47362  0.60462  0.75006  Biso   1.000  O
  O59      1.0000 0.49457  0.85480  0.74708  Biso   1.000  O
  O60      1.0000 0.50564  0.88801  0.49713  Biso   1.000  O
  O61      1.0000 0.71283  0.65967  0.70280  Biso   1.000  O
  O62      1.0000 0.71141  0.58307  0.45065  Biso   1.000  O
  O63      1.0000 0.75063  0.84194  0.48975  Biso   1.000  O
  O64      1.0000 0.74738  0.89639  0.74741  Biso   1.000  O
  Ge1      1.0000 0.16838  0.29519  0.11647  Biso   1.000  Ge
