data_image0
_cell_length_a       10.0889
_cell_length_b       5.0961
_cell_length_c       10.4939
_cell_angle_alpha    90.2601
_cell_angle_beta     80.7087
_cell_angle_gamma    89.2745

_symmetry_space_group_name_H-M    "P 1"
_symmetry_int_tables_number       1

loop_
  _symmetry_equiv_pos_as_xyz
  'x, y, z'

loop_
  _atom_site_label
  _atom_site_occupancy
  _atom_site_fract_x
  _atom_site_fract_y
  _atom_site_fract_z
  _atom_site_thermal_displace_type
  _atom_site_B_iso_or_equiv
  _atom_site_type_symbol
  Ge1      1.0000 0.12241  0.03105  0.15954  Biso   1.000  Ge
  Hf1      1.0000 0.13697  0.45026  0.39179  Biso   1.000  Hf
  Hf2      1.0000 0.35522  0.54848  0.10230  Biso   1.000  Hf
  Hf3      1.0000 0.36002  0.95241  0.35061  Biso   1.000  Hf
  O1       1.0000 0.04676  0.30537  0.07770  Biso   1.000  O
  O2       1.0000 0.03347  0.15504  0.32336  Biso   1.000  O
  O3       1.0000 0.46846  0.82266  0.17566  Biso   1.000  O
  O4       1.0000 0.46634  0.67295  0.42457  Biso   1.000  O
  O5       1.0000 0.26330  0.23331  0.22320  Biso   1.000  O
  O6       1.0000 0.27683  0.24336  0.48169  Biso   1.000  O
  O7       1.0000 0.22141  0.82485  0.02435  Biso   1.000  O
  O8       1.0000 0.22165  0.73149  0.26162  Biso   1.000  O
  Hf4      1.0000 0.13806  0.03798  0.64283  Biso   1.000  Hf
  Hf5      1.0000 0.13911  0.45387  0.89130  Biso   1.000  Hf
  Hf6      1.0000 0.36143  0.54618  0.60470  Biso   1.000  Hf
  Hf7      1.0000 0.36133  0.97641  0.85703  Biso   1.000  Hf
  O9       1.0000 0.03197  0.31929  0.57239  Biso   1.000  O
  O10      1.0000 0.03386  0.17055  0.82460  Biso   1.000  O
  O11      1.0000 0.46589  0.83225  0.67538  Biso   1.000  O
  O12      1.0000 0.46831  0.69402  0.92858  Biso   1.000  O
  O13      1.0000 0.27334  0.25500  0.73030  Biso   1.000  O
  O14      1.0000 0.29438  0.30395  0.96619  Biso   1.000  O
  O15      1.0000 0.22220  0.75314  0.50962  Biso   1.000  O
  O16      1.0000 0.22572  0.74463  0.76453  Biso   1.000  O
  Hf8      1.0000 0.63668  0.04219  0.14512  Biso   1.000  Hf
  Hf9      1.0000 0.63782  0.45413  0.39545  Biso   1.000  Hf
  Hf10     1.0000 0.86745  0.53172  0.10659  Biso   1.000  Hf
  Hf11     1.0000 0.85746  0.95044  0.35724  Biso   1.000  Hf
  O17      1.0000 0.53195  0.33088  0.07606  Biso   1.000  O
  O18      1.0000 0.53143  0.17173  0.32483  Biso   1.000  O
  O19      1.0000 0.97219  0.82249  0.17650  Biso   1.000  O
  O20      1.0000 0.96376  0.66220  0.42517  Biso   1.000  O
  O21      1.0000 0.77656  0.24940  0.24034  Biso   1.000  O
  O22      1.0000 0.77602  0.23842  0.49081  Biso   1.000  O
  O23      1.0000 0.72768  0.75494  0.01322  Biso   1.000  O
  O24      1.0000 0.72863  0.73534  0.26006  Biso   1.000  O
  Hf12     1.0000 0.63789  0.04303  0.64746  Biso   1.000  Hf
  Hf13     1.0000 0.63738  0.46422  0.89876  Biso   1.000  Hf
  Hf14     1.0000 0.86016  0.53835  0.60658  Biso   1.000  Hf
  Hf15     1.0000 0.86253  0.95525  0.85686  Biso   1.000  Hf
  O25      1.0000 0.53366  0.32928  0.57479  Biso   1.000  O
  O26      1.0000 0.53520  0.18154  0.82414  Biso   1.000  O
  O27      1.0000 0.96775  0.81858  0.67746  Biso   1.000  O
  O28      1.0000 0.96818  0.66910  0.93088  Biso   1.000  O
  O29      1.0000 0.77752  0.25663  0.74131  Biso   1.000  O
  O30      1.0000 0.77766  0.24341  0.99145  Biso   1.000  O
  O31      1.0000 0.72187  0.75311  0.51208  Biso   1.000  O
  O32      1.0000 0.72414  0.74511  0.76299  Biso   1.000  O
