data_image0
_cell_length_a       9.98715
_cell_length_b       10.4771
_cell_length_c       5.08101
_cell_angle_alpha    89.9004
_cell_angle_beta     88.3494
_cell_angle_gamma    91.5701

_symmetry_space_group_name_H-M    "P 1"
_symmetry_int_tables_number       1

loop_
  _symmetry_equiv_pos_as_xyz
  'x, y, z'

loop_
  _atom_site_label
  _atom_site_occupancy
  _atom_site_fract_x
  _atom_site_fract_y
  _atom_site_fract_z
  _atom_site_thermal_displace_type
  _atom_site_B_iso_or_equiv
  _atom_site_type_symbol
  Hf1      1.0000 0.15619  0.00685  0.27211  Biso   1.000  Hf
  Hf2      1.0000 0.14719  0.21908  0.82733  Biso   1.000  Hf
  Hf3      1.0000 0.36403  0.26371  0.25507  Biso   1.000  Hf
  Hf4      1.0000 0.37074  0.48810  0.75012  Biso   1.000  Hf
  O1       1.0000 0.04119  0.12117  0.54692  Biso   1.000  O
  O2       1.0000 0.02947  0.06515  0.98936  Biso   1.000  O
  O3       1.0000 0.45503  0.43285  0.38730  Biso   1.000  O
  O4       1.0000 0.45931  0.31431  0.87219  Biso   1.000  O
  O5       1.0000 0.28831  0.12012  0.52466  Biso   1.000  O
  O6       1.0000 0.29716  0.11212  0.00865  Biso   1.000  O
  O7       1.0000 0.23715  0.38880  0.00545  Biso   1.000  O
  O8       1.0000 0.19809  0.35615  0.50256  Biso   1.000  O
  Hf5      1.0000 0.12909  0.52739  0.24260  Biso   1.000  Hf
  Hf6      1.0000 0.13440  0.73412  0.74921  Biso   1.000  Hf
  Hf7      1.0000 0.37274  0.76211  0.24334  Biso   1.000  Hf
  Hf8      1.0000 0.37671  0.97567  0.74871  Biso   1.000  Hf
  O9       1.0000 0.03862  0.68648  0.38617  Biso   1.000  O
  O10      1.0000 0.03306  0.57142  0.88744  Biso   1.000  O
  O11      1.0000 0.47104  0.93193  0.37490  Biso   1.000  O
  O12      1.0000 0.47398  0.81549  0.89191  Biso   1.000  O
  O13      1.0000 0.26872  0.61129  0.49498  Biso   1.000  O
  O14      1.0000 0.26926  0.63514  0.99204  Biso   1.000  O
  O15      1.0000 0.23476  0.87522  0.00007  Biso   1.000  O
  O16      1.0000 0.24300  0.86071  0.50227  Biso   1.000  O
  Hf9      1.0000 0.64088  0.01749  0.23178  Biso   1.000  Hf
  Hf10     1.0000 0.62628  0.23259  0.72659  Biso   1.000  Hf
  Hf11     1.0000 0.83102  0.28108  0.21112  Biso   1.000  Hf
  Hf12     1.0000 0.86792  0.48709  0.73216  Biso   1.000  Hf
  O17      1.0000 0.54152  0.18646  0.35978  Biso   1.000  O
  O18      1.0000 0.54544  0.06160  0.86496  Biso   1.000  O
  O19      1.0000 0.94626  0.45273  0.35984  Biso   1.000  O
  O20      1.0000 0.96070  0.32430  0.85531  Biso   1.000  O
  O21      1.0000 0.77501  0.12358  0.46772  Biso   1.000  O
  O22      1.0000 0.76645  0.14189  0.96394  Biso   1.000  O
  O23      1.0000 0.71805  0.39256  0.97319  Biso   1.000  O
  O24      1.0000 0.71492  0.37863  0.48421  Biso   1.000  O
  Hf13     1.0000 0.63077  0.52493  0.24860  Biso   1.000  Hf
  Hf14     1.0000 0.64450  0.73992  0.74728  Biso   1.000  Hf
  Hf15     1.0000 0.86981  0.77119  0.24187  Biso   1.000  Hf
  Hf16     1.0000 0.88545  0.99406  0.72730  Biso   1.000  Hf
  O25      1.0000 0.53430  0.68290  0.40112  Biso   1.000  O
  O26      1.0000 0.53048  0.57181  0.89919  Biso   1.000  O
  O27      1.0000 0.97785  0.91755  0.39837  Biso   1.000  O
  O28      1.0000 0.96977  0.82189  0.88208  Biso   1.000  O
  O29      1.0000 0.76855  0.62529  0.49336  Biso   1.000  O
  O30      1.0000 0.76791  0.63728  0.99295  Biso   1.000  O
  O31      1.0000 0.74095  0.88893  0.99037  Biso   1.000  O
  O32      1.0000 0.73488  0.87422  0.49061  Biso   1.000  O
  Ge1      1.0000 0.07246  0.24967  0.30858  Biso   1.000  Ge
