data_image0
_cell_length_a       10.1642
_cell_length_b       10.311
_cell_length_c       10.5144
_cell_angle_alpha    90.1341
_cell_angle_beta     80.6654
_cell_angle_gamma    89.6462

_symmetry_space_group_name_H-M    "P 1"
_symmetry_int_tables_number       1

loop_
  _symmetry_equiv_pos_as_xyz
  'x, y, z'

loop_
  _atom_site_label
  _atom_site_occupancy
  _atom_site_fract_x
  _atom_site_fract_y
  _atom_site_fract_z
  _atom_site_thermal_displace_type
  _atom_site_B_iso_or_equiv
  _atom_site_type_symbol
  Ge1      1.0000 0.12255  0.01203  0.16167  Biso   1.000  Ge
  Zr1      1.0000 0.13678  0.02081  0.64236  Biso   1.000  Zr
  Zr2      1.0000 0.13961  0.52288  0.14518  Biso   1.000  Zr
  Zr3      1.0000 0.14018  0.52056  0.64507  Biso   1.000  Zr
  Zr4      1.0000 0.63844  0.02254  0.14531  Biso   1.000  Zr
  Zr5      1.0000 0.63832  0.02171  0.64618  Biso   1.000  Zr
  Zr6      1.0000 0.63726  0.51997  0.14472  Biso   1.000  Zr
  Zr7      1.0000 0.63858  0.52134  0.64654  Biso   1.000  Zr
  Zr8      1.0000 0.13731  0.22712  0.38945  Biso   1.000  Zr
  Zr9      1.0000 0.14350  0.22499  0.89297  Biso   1.000  Zr
  Zr10     1.0000 0.13747  0.72773  0.39660  Biso   1.000  Zr
  Zr11     1.0000 0.13700  0.73076  0.89506  Biso   1.000  Zr
  Zr12     1.0000 0.63923  0.22864  0.39499  Biso   1.000  Zr
  Zr13     1.0000 0.64048  0.23059  0.89675  Biso   1.000  Zr
  Zr14     1.0000 0.63768  0.72753  0.39549  Biso   1.000  Zr
  Zr15     1.0000 0.63608  0.72984  0.89715  Biso   1.000  Zr
  Zr16     1.0000 0.35860  0.26865  0.10072  Biso   1.000  Zr
  Zr17     1.0000 0.36088  0.27201  0.60251  Biso   1.000  Zr
  Zr18     1.0000 0.35719  0.77648  0.10580  Biso   1.000  Zr
  Zr19     1.0000 0.36111  0.77233  0.60635  Biso   1.000  Zr
  Zr20     1.0000 0.86919  0.26588  0.10676  Biso   1.000  Zr
  Zr21     1.0000 0.86158  0.27128  0.60542  Biso   1.000  Zr
  Zr22     1.0000 0.86057  0.77110  0.10524  Biso   1.000  Zr
  Zr23     1.0000 0.85943  0.76950  0.60697  Biso   1.000  Zr
  Zr24     1.0000 0.36139  0.47812  0.35351  Biso   1.000  Zr
  Zr25     1.0000 0.36133  0.48052  0.85502  Biso   1.000  Zr
  Zr26     1.0000 0.35965  0.97785  0.35209  Biso   1.000  Zr
  Zr27     1.0000 0.36128  0.98528  0.85559  Biso   1.000  Zr
  Zr28     1.0000 0.86073  0.47817  0.35463  Biso   1.000  Zr
  Zr29     1.0000 0.86345  0.47700  0.85766  Biso   1.000  Zr
  Zr30     1.0000 0.85743  0.97608  0.35810  Biso   1.000  Zr
  Zr31     1.0000 0.86126  0.97952  0.85487  Biso   1.000  Zr
  O1       1.0000 0.04932  0.15158  0.08034  Biso   1.000  O
  O2       1.0000 0.03405  0.16499  0.57324  Biso   1.000  O
  O3       1.0000 0.03430  0.66783  0.07920  Biso   1.000  O
  O4       1.0000 0.03412  0.66602  0.58011  Biso   1.000  O
  O5       1.0000 0.53561  0.16805  0.07849  Biso   1.000  O
  O6       1.0000 0.53489  0.16794  0.57791  Biso   1.000  O
  O7       1.0000 0.53297  0.66930  0.08000  Biso   1.000  O
  O8       1.0000 0.53480  0.66807  0.57873  Biso   1.000  O
  O9       1.0000 0.03465  0.07579  0.32541  Biso   1.000  O
  O10      1.0000 0.03426  0.08354  0.82532  Biso   1.000  O
  O11      1.0000 0.03512  0.58052  0.32976  Biso   1.000  O
  O12      1.0000 0.03586  0.58352  0.83024  Biso   1.000  O
  O13      1.0000 0.53230  0.08426  0.32747  Biso   1.000  O
  O14      1.0000 0.53908  0.08249  0.82879  Biso   1.000  O
  O15      1.0000 0.53568  0.58038  0.32945  Biso   1.000  O
  O16      1.0000 0.53340  0.58577  0.82780  Biso   1.000  O
  O17      1.0000 0.46494  0.41719  0.17083  Biso   1.000  O
  O18      1.0000 0.46528  0.41764  0.67153  Biso   1.000  O
  O19      1.0000 0.46577  0.91662  0.17270  Biso   1.000  O
  O20      1.0000 0.46472  0.91933  0.67095  Biso   1.000  O
  O21      1.0000 0.96925  0.41395  0.17284  Biso   1.000  O
  O22      1.0000 0.96744  0.41471  0.67443  Biso   1.000  O
  O23      1.0000 0.96821  0.91598  0.17367  Biso   1.000  O
  O24      1.0000 0.96429  0.91571  0.67207  Biso   1.000  O
  O25      1.0000 0.46609  0.33314  0.42107  Biso   1.000  O
  O26      1.0000 0.47175  0.34047  0.92298  Biso   1.000  O
  O27      1.0000 0.46374  0.83208  0.42052  Biso   1.000  O
  O28      1.0000 0.45798  0.83309  0.92284  Biso   1.000  O
  O29      1.0000 0.96402  0.33034  0.42063  Biso   1.000  O
  O30      1.0000 0.96951  0.33074  0.92752  Biso   1.000  O
  O31      1.0000 0.96278  0.83015  0.42354  Biso   1.000  O
  O32      1.0000 0.96367  0.83307  0.92313  Biso   1.000  O
  O33      1.0000 0.26277  0.11692  0.22349  Biso   1.000  O
  O34      1.0000 0.27411  0.12706  0.73105  Biso   1.000  O
  O35      1.0000 0.27552  0.62998  0.24062  Biso   1.000  O
  O36      1.0000 0.27523  0.62931  0.74000  Biso   1.000  O
  O37      1.0000 0.77637  0.12633  0.24131  Biso   1.000  O
  O38      1.0000 0.77750  0.12975  0.74018  Biso   1.000  O
  O39      1.0000 0.77589  0.62764  0.24024  Biso   1.000  O
  O40      1.0000 0.77574  0.62797  0.74244  Biso   1.000  O
  O41      1.0000 0.27591  0.12292  0.48124  Biso   1.000  O
  O42      1.0000 0.29713  0.14189  0.96737  Biso   1.000  O
  O43      1.0000 0.27620  0.62084  0.49071  Biso   1.000  O
  O44      1.0000 0.27480  0.62879  0.99019  Biso   1.000  O
  O45      1.0000 0.77607  0.12029  0.49092  Biso   1.000  O
  O46      1.0000 0.77827  0.12123  0.99173  Biso   1.000  O
  O47      1.0000 0.77543  0.62017  0.49123  Biso   1.000  O
  O48      1.0000 0.77487  0.62131  0.99088  Biso   1.000  O
  O49      1.0000 0.22501  0.38458  0.00833  Biso   1.000  O
  O50      1.0000 0.22284  0.37831  0.50755  Biso   1.000  O
  O51      1.0000 0.21840  0.90590  0.02297  Biso   1.000  O
  O52      1.0000 0.22382  0.87832  0.50983  Biso   1.000  O
  O53      1.0000 0.72969  0.37685  0.01218  Biso   1.000  O
  O54      1.0000 0.72417  0.37818  0.51059  Biso   1.000  O
  O55      1.0000 0.72270  0.87940  0.01061  Biso   1.000  O
  O56      1.0000 0.72182  0.87737  0.51121  Biso   1.000  O
  O57      1.0000 0.22625  0.36750  0.25834  Biso   1.000  O
  O58      1.0000 0.22613  0.37066  0.75902  Biso   1.000  O
  O59      1.0000 0.21609  0.87228  0.26028  Biso   1.000  O
  O60      1.0000 0.22384  0.87198  0.76306  Biso   1.000  O
  O61      1.0000 0.72723  0.36885  0.25919  Biso   1.000  O
  O62      1.0000 0.72585  0.37257  0.76151  Biso   1.000  O
  O63      1.0000 0.72592  0.87050  0.26015  Biso   1.000  O
  O64      1.0000 0.72308  0.87128  0.76129  Biso   1.000  O
