data_image0
_cell_length_a       5.17725
_cell_length_b       10.4116
_cell_length_c       10.5613
_cell_angle_alpha    89.8231
_cell_angle_beta     78.6918
_cell_angle_gamma    89.7037

_symmetry_space_group_name_H-M    "P 1"
_symmetry_int_tables_number       1

loop_
  _symmetry_equiv_pos_as_xyz
  'x, y, z'

loop_
  _atom_site_label
  _atom_site_occupancy
  _atom_site_fract_x
  _atom_site_fract_y
  _atom_site_fract_z
  _atom_site_thermal_displace_type
  _atom_site_B_iso_or_equiv
  _atom_site_type_symbol
  Zr1      1.0000 0.26798  0.01324  0.14902  Biso   1.000  Zr
  Zr2      1.0000 0.31611  0.23352  0.40161  Biso   1.000  Zr
  Zr3      1.0000 0.67257  0.26647  0.10348  Biso   1.000  Zr
  Zr4      1.0000 0.72069  0.48677  0.35608  Biso   1.000  Zr
  O1       1.0000 0.03165  0.15454  0.07329  Biso   1.000  O
  O2       1.0000 0.05442  0.07013  0.33923  Biso   1.000  O
  O3       1.0000 0.93428  0.42986  0.16588  Biso   1.000  O
  O4       1.0000 0.95702  0.34547  0.43181  Biso   1.000  O
  O5       1.0000 0.53294  0.11234  0.24204  Biso   1.000  O
  O6       1.0000 0.56745  0.11855  0.49553  Biso   1.000  O
  O7       1.0000 0.42123  0.38145  0.00957  Biso   1.000  O
  O8       1.0000 0.45574  0.38766  0.26305  Biso   1.000  O
  Zr5      1.0000 0.27424  0.02200  0.64748  Biso   1.000  Zr
  Zr6      1.0000 0.25708  0.22862  0.89560  Biso   1.000  Zr
  Zr7      1.0000 0.73160  0.27139  0.60950  Biso   1.000  Zr
  Zr8      1.0000 0.71443  0.47801  0.85763  Biso   1.000  Zr
  O9       1.0000 0.07960  0.16867  0.57850  Biso   1.000  O
  O10      1.0000 0.05299  0.08631  0.82618  Biso   1.000  O
  O11      1.0000 0.93569  0.41370  0.67892  Biso   1.000  O
  O12      1.0000 0.90908  0.33133  0.92660  Biso   1.000  O
  O13      1.0000 0.54091  0.12870  0.74333  Biso   1.000  O
  O14      1.0000 0.52068  0.12185  0.99187  Biso   1.000  O
  O15      1.0000 0.46800  0.37815  0.51323  Biso   1.000  O
  O16      1.0000 0.44777  0.37131  0.76177  Biso   1.000  O
  Zr9      1.0000 0.27884  0.52736  0.14727  Biso   1.000  Zr
  Zr10     1.0000 0.26990  0.72819  0.39968  Biso   1.000  Zr
  Zr11     1.0000 0.71878  0.77181  0.10543  Biso   1.000  Zr
  Zr12     1.0000 0.70985  0.97265  0.35784  Biso   1.000  Zr
  O17      1.0000 0.06763  0.67217  0.07924  Biso   1.000  O
  O18      1.0000 0.06461  0.58857  0.32883  Biso   1.000  O
  O19      1.0000 0.92408  0.91143  0.17628  Biso   1.000  O
  O20      1.0000 0.92104  0.82783  0.42586  Biso   1.000  O
  O21      1.0000 0.55139  0.63240  0.24450  Biso   1.000  O
  O22      1.0000 0.54048  0.62243  0.49462  Biso   1.000  O
  O23      1.0000 0.44819  0.87757  0.01049  Biso   1.000  O
  O24      1.0000 0.43729  0.86760  0.26060  Biso   1.000  O
  Zr13     1.0000 0.27373  0.52168  0.65035  Biso   1.000  Zr
  Zr14     1.0000 0.26985  0.72835  0.89757  Biso   1.000  Zr
  Zr15     1.0000 0.71882  0.77165  0.60753  Biso   1.000  Zr
  Zr16     1.0000 0.71495  0.97832  0.85475  Biso   1.000  Zr
  O25      1.0000 0.05788  0.66361  0.58312  Biso   1.000  O
  O26      1.0000 0.06052  0.58335  0.83206  Biso   1.000  O
  O27      1.0000 0.92815  0.91665  0.67304  Biso   1.000  O
  O28      1.0000 0.93079  0.83639  0.92199  Biso   1.000  O
  O29      1.0000 0.54253  0.62753  0.74299  Biso   1.000  O
  O30      1.0000 0.54942  0.62306  0.99224  Biso   1.000  O
  O31      1.0000 0.43926  0.87695  0.51286  Biso   1.000  O
  O32      1.0000 0.44615  0.87247  0.76212  Biso   1.000  O
  Ge1      1.0000 0.99433  0.25001  0.25255  Biso   1.000  Ge
