data_image0
_cell_length_a       10.1937
_cell_length_b       5.19491
_cell_length_c       10.5487
_cell_angle_alpha    89.9458
_cell_angle_beta     91.8755
_cell_angle_gamma    89.7201

_symmetry_space_group_name_H-M    "P 1"
_symmetry_int_tables_number       1

loop_
  _symmetry_equiv_pos_as_xyz
  'x, y, z'

loop_
  _atom_site_label
  _atom_site_occupancy
  _atom_site_fract_x
  _atom_site_fract_y
  _atom_site_fract_z
  _atom_site_thermal_displace_type
  _atom_site_B_iso_or_equiv
  _atom_site_type_symbol
  Zr1      1.0000 0.13196  0.03757  0.17669  Biso   1.000  Zr
  Zr2      1.0000 0.13835  0.45613  0.42679  Biso   1.000  Zr
  Zr3      1.0000 0.34804  0.53391  0.18523  Biso   1.000  Zr
  Zr4      1.0000 0.36374  0.95612  0.42729  Biso   1.000  Zr
  Zr5      1.0000 0.64967  0.04062  0.07425  Biso   1.000  Zr
  Zr6      1.0000 0.63862  0.46042  0.33010  Biso   1.000  Zr
  Zr7      1.0000 0.86240  0.54091  0.07726  Biso   1.000  Zr
  Zr8      1.0000 0.86083  0.95934  0.32955  Biso   1.000  Zr
  O1       1.0000 0.03256  0.33817  0.08919  Biso   1.000  O
  O2       1.0000 0.03015  0.16836  0.33896  Biso   1.000  O
  O3       1.0000 0.47316  0.85797  0.09542  Biso   1.000  O
  O4       1.0000 0.46649  0.67016  0.33739  Biso   1.000  O
  O5       1.0000 0.26990  0.24898  0.30218  Biso   1.000  O
  O6       1.0000 0.26283  0.22408  0.05403  Biso   1.000  O
  O7       1.0000 0.21989  0.75205  0.30558  Biso   1.000  O
  O8       1.0000 0.21873  0.74656  0.05705  Biso   1.000  O
  O9       1.0000 0.52597  0.31781  0.17797  Biso   1.000  O
  O10      1.0000 0.53200  0.17412  0.42040  Biso   1.000  O
  O11      1.0000 0.96111  0.83762  0.16676  Biso   1.000  O
  O12      1.0000 0.96809  0.66762  0.41691  Biso   1.000  O
  O13      1.0000 0.77612  0.25195  0.45268  Biso   1.000  O
  O14      1.0000 0.77393  0.25410  0.20257  Biso   1.000  O
  O15      1.0000 0.72803  0.75340  0.45443  Biso   1.000  O
  O16      1.0000 0.72377  0.74842  0.20445  Biso   1.000  O
  Zr9      1.0000 0.14580  0.04108  0.67501  Biso   1.000  Zr
  Zr10     1.0000 0.14424  0.45952  0.92729  Biso   1.000  Zr
  Zr11     1.0000 0.36801  0.54002  0.67445  Biso   1.000  Zr
  Zr12     1.0000 0.35697  0.95978  0.93031  Biso   1.000  Zr
  Zr13     1.0000 0.64288  0.04430  0.57726  Biso   1.000  Zr
  Zr14     1.0000 0.65858  0.46652  0.81932  Biso   1.000  Zr
  Zr15     1.0000 0.86827  0.54429  0.57777  Biso   1.000  Zr
  Zr16     1.0000 0.87467  0.96286  0.82786  Biso   1.000  Zr
  O17      1.0000 0.03853  0.33280  0.58765  Biso   1.000  O
  O18      1.0000 0.04552  0.16282  0.83780  Biso   1.000  O
  O19      1.0000 0.47463  0.82630  0.58414  Biso   1.000  O
  O20      1.0000 0.48066  0.68267  0.82656  Biso   1.000  O
  O21      1.0000 0.28286  0.25198  0.80010  Biso   1.000  O
  O22      1.0000 0.27859  0.24702  0.55012  Biso   1.000  O
  O23      1.0000 0.23270  0.74630  0.80198  Biso   1.000  O
  O24      1.0000 0.23050  0.74848  0.55187  Biso   1.000  O
  O25      1.0000 0.54014  0.33025  0.66717  Biso   1.000  O
  O26      1.0000 0.53347  0.14246  0.90915  Biso   1.000  O
  O27      1.0000 0.97647  0.83206  0.66561  Biso   1.000  O
  O28      1.0000 0.97408  0.66226  0.91537  Biso   1.000  O
  O29      1.0000 0.78790  0.25388  0.94751  Biso   1.000  O
  O30      1.0000 0.78673  0.24838  0.69898  Biso   1.000  O
  O31      1.0000 0.74381  0.77635  0.95053  Biso   1.000  O
  O32      1.0000 0.73672  0.75146  0.70238  Biso   1.000  O
  Ge1      1.0000 0.50332  0.50024  0.00229  Biso   1.000  Ge
