data_image0
_cell_length_a       10.1393
_cell_length_b       10.4181
_cell_length_c       5.30098
_cell_angle_alpha    89.6271
_cell_angle_beta     90.5984
_cell_angle_gamma    89.9245

_symmetry_space_group_name_H-M    "P 1"
_symmetry_int_tables_number       1

loop_
  _symmetry_equiv_pos_as_xyz
  'x, y, z'

loop_
  _atom_site_label
  _atom_site_occupancy
  _atom_site_fract_x
  _atom_site_fract_y
  _atom_site_fract_z
  _atom_site_thermal_displace_type
  _atom_site_B_iso_or_equiv
  _atom_site_type_symbol
  Zr1      1.0000 0.13800  0.01923  0.34750  Biso   1.000  Zr
  Zr2      1.0000 0.13256  0.22551  0.85518  Biso   1.000  Zr
  Zr3      1.0000 0.34106  0.26833  0.36645  Biso   1.000  Zr
  Zr4      1.0000 0.36204  0.48234  0.84309  Biso   1.000  Zr
  Zr5      1.0000 0.64726  0.01329  0.14598  Biso   1.000  Zr
  Zr6      1.0000 0.63609  0.22740  0.62436  Biso   1.000  Zr
  Zr7      1.0000 0.85508  0.27036  0.16205  Biso   1.000  Zr
  Zr8      1.0000 0.86734  0.48116  0.66663  Biso   1.000  Zr
  O1       1.0000 0.03119  0.16275  0.17369  Biso   1.000  O
  O2       1.0000 0.03322  0.08384  0.66870  Biso   1.000  O
  O3       1.0000 0.48116  0.40760  0.16646  Biso   1.000  O
  O4       1.0000 0.46551  0.34436  0.64534  Biso   1.000  O
  O5       1.0000 0.27003  0.12492  0.60136  Biso   1.000  O
  O6       1.0000 0.27192  0.12223  0.09509  Biso   1.000  O
  O7       1.0000 0.21813  0.37492  0.60582  Biso   1.000  O
  O8       1.0000 0.22944  0.37707  0.10031  Biso   1.000  O
  O9       1.0000 0.50547  0.15054  0.34496  Biso   1.000  O
  O10      1.0000 0.53655  0.06688  0.81522  Biso   1.000  O
  O11      1.0000 0.96907  0.41466  0.34340  Biso   1.000  O
  O12      1.0000 0.96762  0.33541  0.84588  Biso   1.000  O
  O13      1.0000 0.78383  0.12140  0.89468  Biso   1.000  O
  O14      1.0000 0.77864  0.11763  0.40641  Biso   1.000  O
  O15      1.0000 0.73052  0.38972  0.91506  Biso   1.000  O
  O16      1.0000 0.72965  0.38921  0.42802  Biso   1.000  O
  Zr9      1.0000 0.13685  0.52120  0.34644  Biso   1.000  Zr
  Zr10     1.0000 0.14208  0.72975  0.84642  Biso   1.000  Zr
  Zr11     1.0000 0.36290  0.77100  0.34793  Biso   1.000  Zr
  Zr12     1.0000 0.36399  0.97611  0.84945  Biso   1.000  Zr
  Zr13     1.0000 0.65070  0.53499  0.16427  Biso   1.000  Zr
  Zr14     1.0000 0.64013  0.73011  0.65934  Biso   1.000  Zr
  Zr15     1.0000 0.86819  0.77324  0.16185  Biso   1.000  Zr
  Zr16     1.0000 0.86230  0.97903  0.66051  Biso   1.000  Zr
  O17      1.0000 0.03555  0.66393  0.16562  Biso   1.000  O
  O18      1.0000 0.03655  0.58877  0.66687  Biso   1.000  O
  O19      1.0000 0.47278  0.90933  0.16566  Biso   1.000  O
  O20      1.0000 0.46751  0.83058  0.66846  Biso   1.000  O
  O21      1.0000 0.27819  0.62260  0.59231  Biso   1.000  O
  O22      1.0000 0.27833  0.62361  0.09355  Biso   1.000  O
  O23      1.0000 0.22759  0.87365  0.59555  Biso   1.000  O
  O24      1.0000 0.22690  0.87295  0.09853  Biso   1.000  O
  O25      1.0000 0.53365  0.66221  0.34481  Biso   1.000  O
  O26      1.0000 0.53333  0.58889  0.84801  Biso   1.000  O
  O27      1.0000 0.97088  0.91332  0.33943  Biso   1.000  O
  O28      1.0000 0.97267  0.83621  0.84050  Biso   1.000  O
  O29      1.0000 0.77855  0.63148  0.91238  Biso   1.000  O
  O30      1.0000 0.78200  0.63186  0.41429  Biso   1.000  O
  O31      1.0000 0.72931  0.87340  0.91357  Biso   1.000  O
  O32      1.0000 0.72733  0.87345  0.41162  Biso   1.000  O
  Ge1      1.0000 0.58249  0.26369  0.08387  Biso   1.000  Ge
