data_image0
_cell_length_a       5.11515
_cell_length_b       10.5514
_cell_length_c       10.242
_cell_angle_alpha    88.8587
_cell_angle_beta     89.3281
_cell_angle_gamma    94.3251

_symmetry_space_group_name_H-M    "P 1"
_symmetry_int_tables_number       1

loop_
  _symmetry_equiv_pos_as_xyz
  'x, y, z'

loop_
  _atom_site_label
  _atom_site_occupancy
  _atom_site_fract_x
  _atom_site_fract_y
  _atom_site_fract_z
  _atom_site_thermal_displace_type
  _atom_site_B_iso_or_equiv
  _atom_site_type_symbol
  Zr1      1.0000 0.28925  0.00694  0.11635  Biso   1.000  Zr
  Zr2      1.0000 0.27501  0.26729  0.34958  Biso   1.000  Zr
  Zr3      1.0000 0.80152  0.24076  0.11717  Biso   1.000  Zr
  Zr4      1.0000 0.78561  0.01037  0.35555  Biso   1.000  Zr
  O1       1.0000 0.12121  0.18386  0.99398  Biso   1.000  O
  O2       1.0000 0.05356  0.11612  0.23161  Biso   1.000  O
  O3       1.0000 0.96592  0.36061  0.26399  Biso   1.000  O
  O4       1.0000 0.86547  0.43867  0.04715  Biso   1.000  O
  O5       1.0000 0.57077  0.15518  0.27441  Biso   1.000  O
  O6       1.0000 0.62499  0.07522  0.02375  Biso   1.000  O
  O7       1.0000 0.59225  0.29476  0.93709  Biso   1.000  O
  O8       1.0000 0.44210  0.44387  0.28581  Biso   1.000  O
  Zr5      1.0000 0.26613  0.97815  0.61315  Biso   1.000  Zr
  Zr6      1.0000 0.27509  0.23908  0.81447  Biso   1.000  Zr
  Zr7      1.0000 0.80324  0.22099  0.59891  Biso   1.000  Zr
  Zr8      1.0000 0.75746  0.98368  0.86004  Biso   1.000  Zr
  O9       1.0000 0.06439  0.13757  0.48176  Biso   1.000  O
  O10      1.0000 0.02774  0.08958  0.73250  Biso   1.000  O
  O11      1.0000 0.98050  0.33914  0.74289  Biso   1.000  O
  O12      1.0000 0.03955  0.38741  0.50486  Biso   1.000  O
  O13      1.0000 0.53855  0.12698  0.74226  Biso   1.000  O
  O14      1.0000 0.57304  0.06206  0.51305  Biso   1.000  O
  O15      1.0000 0.55003  0.31322  0.49036  Biso   1.000  O
  O16      1.0000 0.46879  0.40432  0.74057  Biso   1.000  O
  Zr9      1.0000 0.16549  0.53383  0.15046  Biso   1.000  Zr
  Zr10     1.0000 0.17699  0.76168  0.37553  Biso   1.000  Zr
  Zr11     1.0000 0.69658  0.75382  0.14075  Biso   1.000  Zr
  Zr12     1.0000 0.74610  0.48313  0.40954  Biso   1.000  Zr
  O17      1.0000 0.98664  0.68085  0.03056  Biso   1.000  O
  O18      1.0000 0.90275  0.62242  0.27663  Biso   1.000  O
  O19      1.0000 0.98501  0.87078  0.23789  Biso   1.000  O
  O20      1.0000 0.06947  0.92954  0.97172  Biso   1.000  O
  O21      1.0000 0.39829  0.67487  0.24888  Biso   1.000  O
  O22      1.0000 0.45511  0.60209  0.01310  Biso   1.000  O
  O23      1.0000 0.52631  0.84554  0.99256  Biso   1.000  O
  O24      1.0000 0.49284  0.90753  0.25340  Biso   1.000  O
  Zr13     1.0000 0.19746  0.50632  0.64948  Biso   1.000  Zr
  Zr14     1.0000 0.22366  0.75344  0.88178  Biso   1.000  Zr
  Zr15     1.0000 0.70666  0.73756  0.62614  Biso   1.000  Zr
  Zr16     1.0000 0.67446  0.49944  0.88865  Biso   1.000  Zr
  O25      1.0000 0.99630  0.63944  0.52226  Biso   1.000  O
  O26      1.0000 0.96553  0.59407  0.78140  Biso   1.000  O
  O27      1.0000 0.97811  0.83927  0.74749  Biso   1.000  O
  O28      1.0000 0.96804  0.89017  0.49369  Biso   1.000  O
  O29      1.0000 0.46101  0.64520  0.76515  Biso   1.000  O
  O30      1.0000 0.51165  0.57558  0.53028  Biso   1.000  O
  O31      1.0000 0.44130  0.82111  0.51275  Biso   1.000  O
  O32      1.0000 0.48746  0.88476  0.74812  Biso   1.000  O
  Ge1      1.0000 0.34775  0.32121  0.06890  Biso   1.000  Ge
