data_image0
_cell_length_a       10.1543
_cell_length_b       10.2606
_cell_length_c       5.26659
_cell_angle_alpha    90.2597
_cell_angle_beta     80.8894
_cell_angle_gamma    89.3421

_symmetry_space_group_name_H-M    "P 1"
_symmetry_int_tables_number       1

loop_
  _symmetry_equiv_pos_as_xyz
  'x, y, z'

loop_
  _atom_site_label
  _atom_site_occupancy
  _atom_site_fract_x
  _atom_site_fract_y
  _atom_site_fract_z
  _atom_site_thermal_displace_type
  _atom_site_B_iso_or_equiv
  _atom_site_type_symbol
  Ge1      1.0000 0.12045  0.01251  0.31675  Biso   1.000  Ge
  Zr1      1.0000 0.14066  0.52210  0.29065  Biso   1.000  Zr
  Zr2      1.0000 0.63845  0.02272  0.29192  Biso   1.000  Zr
  Zr3      1.0000 0.63675  0.51966  0.29181  Biso   1.000  Zr
  Zr4      1.0000 0.14047  0.22408  0.77329  Biso   1.000  Zr
  Zr5      1.0000 0.13575  0.72992  0.79318  Biso   1.000  Zr
  Zr6      1.0000 0.64058  0.23032  0.79291  Biso   1.000  Zr
  Zr7      1.0000 0.63448  0.72862  0.79469  Biso   1.000  Zr
  Zr8      1.0000 0.35827  0.26910  0.19716  Biso   1.000  Zr
  Zr9      1.0000 0.35686  0.77755  0.21560  Biso   1.000  Zr
  Zr10     1.0000 0.86996  0.26574  0.21538  Biso   1.000  Zr
  Zr11     1.0000 0.85899  0.76909  0.21447  Biso   1.000  Zr
  Zr12     1.0000 0.36134  0.47952  0.70825  Biso   1.000  Zr
  Zr13     1.0000 0.35993  0.98406  0.70499  Biso   1.000  Zr
  Zr14     1.0000 0.86270  0.47673  0.71564  Biso   1.000  Zr
  Zr15     1.0000 0.85744  0.97678  0.71617  Biso   1.000  Zr
  O1       1.0000 0.04800  0.14782  0.14530  Biso   1.000  O
  O2       1.0000 0.03195  0.66346  0.15684  Biso   1.000  O
  O3       1.0000 0.53370  0.16473  0.15037  Biso   1.000  O
  O4       1.0000 0.53132  0.66674  0.15567  Biso   1.000  O
  O5       1.0000 0.03281  0.07933  0.63949  Biso   1.000  O
  O6       1.0000 0.03461  0.58444  0.65839  Biso   1.000  O
  O7       1.0000 0.53704  0.08564  0.65100  Biso   1.000  O
  O8       1.0000 0.53250  0.58625  0.65248  Biso   1.000  O
  O9       1.0000 0.46644  0.41309  0.34847  Biso   1.000  O
  O10      1.0000 0.46705  0.91540  0.35024  Biso   1.000  O
  O11      1.0000 0.97255  0.40867  0.35748  Biso   1.000  O
  O12      1.0000 0.96867  0.91248  0.35074  Biso   1.000  O
  O13      1.0000 0.47384  0.34380  0.85252  Biso   1.000  O
  O14      1.0000 0.45758  0.83547  0.84981  Biso   1.000  O
  O15      1.0000 0.96957  0.33189  0.85902  Biso   1.000  O
  O16      1.0000 0.96255  0.83335  0.85428  Biso   1.000  O
  O17      1.0000 0.26048  0.11492  0.42746  Biso   1.000  O
  O18      1.0000 0.27477  0.62963  0.48047  Biso   1.000  O
  O19      1.0000 0.77827  0.12692  0.48099  Biso   1.000  O
  O20      1.0000 0.77514  0.62637  0.48398  Biso   1.000  O
  O21      1.0000 0.29811  0.14610  0.91018  Biso   1.000  O
  O22      1.0000 0.27468  0.62927  0.98130  Biso   1.000  O
  O23      1.0000 0.77830  0.12060  0.98351  Biso   1.000  O
  O24      1.0000 0.77382  0.62066  0.98296  Biso   1.000  O
  O25      1.0000 0.22432  0.38459  0.01368  Biso   1.000  O
  O26      1.0000 0.21786  0.90596  0.04792  Biso   1.000  O
  O27      1.0000 0.73006  0.37594  0.02727  Biso   1.000  O
  O28      1.0000 0.72076  0.87766  0.02414  Biso   1.000  O
  O29      1.0000 0.22810  0.36730  0.51531  Biso   1.000  O
  O30      1.0000 0.21763  0.87241  0.52921  Biso   1.000  O
  O31      1.0000 0.72898  0.37023  0.52313  Biso   1.000  O
  O32      1.0000 0.72546  0.87038  0.52352  Biso   1.000  O
