data_image0
_cell_length_a       10.0752
_cell_length_b       10.2266
_cell_length_c       5.24942
_cell_angle_alpha    90.1845
_cell_angle_beta     91.0347
_cell_angle_gamma    89.4304

_symmetry_space_group_name_H-M    "P 1"
_symmetry_int_tables_number       1

loop_
  _symmetry_equiv_pos_as_xyz
  'x, y, z'

loop_
  _atom_site_label
  _atom_site_occupancy
  _atom_site_fract_x
  _atom_site_fract_y
  _atom_site_fract_z
  _atom_site_thermal_displace_type
  _atom_site_B_iso_or_equiv
  _atom_site_type_symbol
  Ge1      1.0000 0.12051  0.01035  0.36880  Biso   1.000  Ge
  Zr1      1.0000 0.13985  0.52274  0.34439  Biso   1.000  Zr
  Zr2      1.0000 0.14241  0.22566  0.82874  Biso   1.000  Zr
  Zr3      1.0000 0.13511  0.73176  0.84547  Biso   1.000  Zr
  Zr4      1.0000 0.35836  0.27063  0.33113  Biso   1.000  Zr
  Zr5      1.0000 0.35742  0.77825  0.34446  Biso   1.000  Zr
  Zr6      1.0000 0.36069  0.47941  0.84237  Biso   1.000  Zr
  Zr7      1.0000 0.35791  0.98382  0.84065  Biso   1.000  Zr
  Zr8      1.0000 0.63734  0.02130  0.15564  Biso   1.000  Zr
  Zr9      1.0000 0.63912  0.51962  0.16089  Biso   1.000  Zr
  Zr10     1.0000 0.63866  0.22970  0.65809  Biso   1.000  Zr
  Zr11     1.0000 0.63624  0.72724  0.65849  Biso   1.000  Zr
  Zr12     1.0000 0.87009  0.26432  0.16961  Biso   1.000  Zr
  Zr13     1.0000 0.85933  0.76947  0.16351  Biso   1.000  Zr
  Zr14     1.0000 0.86311  0.47602  0.66769  Biso   1.000  Zr
  Zr15     1.0000 0.85657  0.97792  0.66555  Biso   1.000  Zr
  O1       1.0000 0.05170  0.14782  0.16859  Biso   1.000  O
  O2       1.0000 0.03160  0.66421  0.17015  Biso   1.000  O
  O3       1.0000 0.03247  0.08076  0.65740  Biso   1.000  O
  O4       1.0000 0.03311  0.58544  0.67374  Biso   1.000  O
  O5       1.0000 0.46739  0.41622  0.16530  Biso   1.000  O
  O6       1.0000 0.46600  0.91493  0.15852  Biso   1.000  O
  O7       1.0000 0.46848  0.33605  0.66232  Biso   1.000  O
  O8       1.0000 0.46401  0.83638  0.66425  Biso   1.000  O
  O9       1.0000 0.26333  0.11232  0.53133  Biso   1.000  O
  O10      1.0000 0.27449  0.62635  0.58932  Biso   1.000  O
  O11      1.0000 0.30353  0.15230  0.02289  Biso   1.000  O
  O12      1.0000 0.27608  0.63616  0.08791  Biso   1.000  O
  O13      1.0000 0.22602  0.37199  0.58967  Biso   1.000  O
  O14      1.0000 0.21402  0.87638  0.59426  Biso   1.000  O
  O15      1.0000 0.22041  0.38458  0.08792  Biso   1.000  O
  O16      1.0000 0.21379  0.90096  0.11149  Biso   1.000  O
  O17      1.0000 0.53403  0.16700  0.32754  Biso   1.000  O
  O18      1.0000 0.53067  0.66642  0.33239  Biso   1.000  O
  O19      1.0000 0.53710  0.08000  0.81957  Biso   1.000  O
  O20      1.0000 0.53271  0.58436  0.83345  Biso   1.000  O
  O21      1.0000 0.97250  0.40839  0.34998  Biso   1.000  O
  O22      1.0000 0.96844  0.91331  0.34162  Biso   1.000  O
  O23      1.0000 0.97043  0.33100  0.85144  Biso   1.000  O
  O24      1.0000 0.96304  0.83454  0.84200  Biso   1.000  O
  O25      1.0000 0.77867  0.12214  0.91572  Biso   1.000  O
  O26      1.0000 0.77607  0.62202  0.91554  Biso   1.000  O
  O27      1.0000 0.77734  0.12434  0.41197  Biso   1.000  O
  O28      1.0000 0.77581  0.62375  0.41630  Biso   1.000  O
  O29      1.0000 0.72870  0.37126  0.91917  Biso   1.000  O
  O30      1.0000 0.72140  0.87174  0.91385  Biso   1.000  O
  O31      1.0000 0.72900  0.37342  0.41506  Biso   1.000  O
  O32      1.0000 0.72496  0.87526  0.41381  Biso   1.000  O
