data_image0
_cell_length_a       10.3679
_cell_length_b       5.19754
_cell_length_c       10.5689
_cell_angle_alpha    89.9383
_cell_angle_beta     78.8337
_cell_angle_gamma    89.6557

_symmetry_space_group_name_H-M    "P 1"
_symmetry_int_tables_number       1

loop_
  _symmetry_equiv_pos_as_xyz
  'x, y, z'

loop_
  _atom_site_label
  _atom_site_occupancy
  _atom_site_fract_x
  _atom_site_fract_y
  _atom_site_fract_z
  _atom_site_thermal_displace_type
  _atom_site_B_iso_or_equiv
  _atom_site_type_symbol
  Zr1      1.0000 0.13011  0.04019  0.14309  Biso   1.000  Zr
  Zr2      1.0000 0.13736  0.45594  0.39377  Biso   1.000  Zr
  Zr3      1.0000 0.34258  0.53462  0.09748  Biso   1.000  Zr
  Zr4      1.0000 0.35138  0.95972  0.35172  Biso   1.000  Zr
  O1       1.0000 0.02851  0.33493  0.07735  Biso   1.000  O
  O2       1.0000 0.03017  0.17148  0.32988  Biso   1.000  O
  O3       1.0000 0.46496  0.85933  0.16475  Biso   1.000  O
  O4       1.0000 0.47049  0.68075  0.43221  Biso   1.000  O
  O5       1.0000 0.26079  0.23643  0.23567  Biso   1.000  O
  O6       1.0000 0.27377  0.24519  0.48757  Biso   1.000  O
  O7       1.0000 0.21566  0.76236  0.00358  Biso   1.000  O
  O8       1.0000 0.21366  0.73962  0.25472  Biso   1.000  O
  Zr5      1.0000 0.13667  0.04221  0.64559  Biso   1.000  Zr
  Zr6      1.0000 0.13134  0.45728  0.89328  Biso   1.000  Zr
  Zr7      1.0000 0.36075  0.54312  0.60586  Biso   1.000  Zr
  Zr8      1.0000 0.35803  0.95559  0.85315  Biso   1.000  Zr
  O9       1.0000 0.03377  0.33128  0.58022  Biso   1.000  O
  O10      1.0000 0.02899  0.16791  0.82861  Biso   1.000  O
  O11      1.0000 0.46600  0.82874  0.67540  Biso   1.000  O
  O12      1.0000 0.46089  0.66836  0.92298  Biso   1.000  O
  O13      1.0000 0.27047  0.25374  0.73792  Biso   1.000  O
  O14      1.0000 0.26719  0.24617  0.98592  Biso   1.000  O
  O15      1.0000 0.22465  0.75575  0.50693  Biso   1.000  O
  O16      1.0000 0.22330  0.74185  0.75713  Biso   1.000  O
  Zr9      1.0000 0.64298  0.04032  0.15339  Biso   1.000  Zr
  Zr10     1.0000 0.65174  0.46536  0.40762  Biso   1.000  Zr
  Zr11     1.0000 0.85698  0.54407  0.11133  Biso   1.000  Zr
  Zr12     1.0000 0.86422  0.95981  0.36201  Biso   1.000  Zr
  O17      1.0000 0.52386  0.31924  0.07289  Biso   1.000  O
  O18      1.0000 0.52940  0.14066  0.34038  Biso   1.000  O
  O19      1.0000 0.96417  0.82852  0.17522  Biso   1.000  O
  O20      1.0000 0.96582  0.66507  0.42776  Biso   1.000  O
  O21      1.0000 0.78068  0.26037  0.25038  Biso   1.000  O
  O22      1.0000 0.77868  0.23764  0.50152  Biso   1.000  O
  O23      1.0000 0.72058  0.75487  0.01753  Biso   1.000  O
  O24      1.0000 0.73355  0.76356  0.26944  Biso   1.000  O
  Zr13     1.0000 0.63631  0.04441  0.65195  Biso   1.000  Zr
  Zr14     1.0000 0.63358  0.45688  0.89924  Biso   1.000  Zr
  Zr15     1.0000 0.86299  0.54273  0.61182  Biso   1.000  Zr
  Zr16     1.0000 0.85767  0.95780  0.85951  Biso   1.000  Zr
  O25      1.0000 0.53345  0.33166  0.58213  Biso   1.000  O
  O26      1.0000 0.52833  0.17127  0.82970  Biso   1.000  O
  O27      1.0000 0.96534  0.83210  0.67649  Biso   1.000  O
  O28      1.0000 0.96057  0.66873  0.92488  Biso   1.000  O
  O29      1.0000 0.77104  0.25815  0.74797  Biso   1.000  O
  O30      1.0000 0.76969  0.24430  0.99817  Biso   1.000  O
  O31      1.0000 0.72714  0.75383  0.51918  Biso   1.000  O
  O32      1.0000 0.72387  0.74627  0.76718  Biso   1.000  O
  Ge1      1.0000 0.49717  0.50001  0.25253  Biso   1.000  Ge
