data_image0
_cell_length_a       10.0385
_cell_length_b       10.1569
_cell_length_c       4.97532
_cell_angle_alpha    90.2677
_cell_angle_beta     90.2208
_cell_angle_gamma    90.123

_symmetry_space_group_name_H-M    "P 1"
_symmetry_int_tables_number       1

loop_
  _symmetry_equiv_pos_as_xyz
  'x, y, z'

loop_
  _atom_site_label
  _atom_site_occupancy
  _atom_site_fract_x
  _atom_site_fract_y
  _atom_site_fract_z
  _atom_site_thermal_displace_type
  _atom_site_B_iso_or_equiv
  _atom_site_type_symbol
  H1       1.0000 0.06278  0.95409  0.15179  Biso   1.000  H
  Hf1      1.0000 0.12467  0.24644  0.74395  Biso   1.000  Hf
  Hf2      1.0000 0.37284  0.25011  0.24548  Biso   1.000  Hf
  Hf3      1.0000 0.37001  0.99852  0.74656  Biso   1.000  Hf
  O1       1.0000 0.99074  0.14745  0.97905  Biso   1.000  O
  O2       1.0000 0.99544  0.11953  0.50040  Biso   1.000  O
  O3       1.0000 0.00079  0.36327  0.49784  Biso   1.000  O
  O4       1.0000 0.99968  0.39466  0.99950  Biso   1.000  O
  O5       1.0000 0.25815  0.14050  0.51062  Biso   1.000  O
  O6       1.0000 0.25555  0.12216  0.98703  Biso   1.000  O
  O7       1.0000 0.24903  0.36394  0.99874  Biso   1.000  O
  O8       1.0000 0.25025  0.38949  0.49747  Biso   1.000  O
  Hf4      1.0000 0.12460  0.50105  0.25017  Biso   1.000  Hf
  Hf5      1.0000 0.12720  0.75237  0.75151  Biso   1.000  Hf
  Hf6      1.0000 0.37324  0.75055  0.25374  Biso   1.000  Hf
  Hf7      1.0000 0.37561  0.50073  0.75025  Biso   1.000  Hf
  O9       1.0000 0.99960  0.64648  0.00499  Biso   1.000  O
  O10      1.0000 0.00157  0.60792  0.50308  Biso   1.000  O
  O11      1.0000 0.98479  0.85107  0.55018  Biso   1.000  O
  O12      1.0000 0.00693  0.89803  0.03559  Biso   1.000  O
  O13      1.0000 0.25039  0.63731  0.50296  Biso   1.000  O
  O14      1.0000 0.25034  0.60956  0.00313  Biso   1.000  O
  O15      1.0000 0.26208  0.85781  0.98336  Biso   1.000  O
  O16      1.0000 0.25425  0.87850  0.50351  Biso   1.000  O
  Hf8      1.0000 0.62564  0.00218  0.24947  Biso   1.000  Hf
  Hf9      1.0000 0.62536  0.24993  0.75088  Biso   1.000  Hf
  Hf10     1.0000 0.87709  0.25047  0.25091  Biso   1.000  Hf
  Hf11     1.0000 0.88066  0.00100  0.75101  Biso   1.000  Hf
  O17      1.0000 0.50178  0.14433  0.00252  Biso   1.000  O
  O18      1.0000 0.50254  0.10800  0.50134  Biso   1.000  O
  O19      1.0000 0.49984  0.35806  0.50498  Biso   1.000  O
  O20      1.0000 0.49890  0.39388  0.00503  Biso   1.000  O
  O21      1.0000 0.75069  0.14547  0.50181  Biso   1.000  O
  O22      1.0000 0.74819  0.10744  0.00058  Biso   1.000  O
  O23      1.0000 0.74942  0.35827  0.00065  Biso   1.000  O
  O24      1.0000 0.75026  0.39553  0.50157  Biso   1.000  O
  Hf12     1.0000 0.62545  0.50081  0.25232  Biso   1.000  Hf
  Hf13     1.0000 0.62615  0.75349  0.75420  Biso   1.000  Hf
  Hf14     1.0000 0.87669  0.75288  0.26316  Biso   1.000  Hf
  Hf15     1.0000 0.87475  0.50306  0.75391  Biso   1.000  Hf
  O25      1.0000 0.50011  0.64397  0.99614  Biso   1.000  O
  O26      1.0000 0.50001  0.60768  0.49776  Biso   1.000  O
  O27      1.0000 0.50178  0.85760  0.49656  Biso   1.000  O
  O28      1.0000 0.50677  0.89465  0.99453  Biso   1.000  O
  O29      1.0000 0.75125  0.64540  0.50737  Biso   1.000  O
  O30      1.0000 0.74961  0.60723  0.00683  Biso   1.000  O
  O31      1.0000 0.75883  0.85615  0.99530  Biso   1.000  O
  O32      1.0000 0.74681  0.89680  0.49817  Biso   1.000  O
