data_image0
_cell_length_a       4.97716
_cell_length_b       10.3545
_cell_length_c       10.0555
_cell_angle_alpha    89.9426
_cell_angle_beta     89.6021
_cell_angle_gamma    89.8155

_symmetry_space_group_name_H-M    "P 1"
_symmetry_int_tables_number       1

loop_
  _symmetry_equiv_pos_as_xyz
  'x, y, z'

loop_
  _atom_site_label
  _atom_site_occupancy
  _atom_site_fract_x
  _atom_site_fract_y
  _atom_site_fract_z
  _atom_site_thermal_displace_type
  _atom_site_B_iso_or_equiv
  _atom_site_type_symbol
  H1       1.0000 0.13021  0.95136  0.17924  Biso   1.000  H
  Hf1      1.0000 0.26799  0.23038  0.37262  Biso   1.000  Hf
  Hf2      1.0000 0.72288  0.26337  0.12787  Biso   1.000  Hf
  Hf3      1.0000 0.73067  0.48475  0.37691  Biso   1.000  Hf
  O1       1.0000 0.06834  0.19622  0.19981  Biso   1.000  O
  O2       1.0000 0.06318  0.06796  0.44845  Biso   1.000  O
  O3       1.0000 0.92915  0.43498  0.19575  Biso   1.000  O
  O4       1.0000 0.93018  0.31917  0.44683  Biso   1.000  O
  O5       1.0000 0.56445  0.12988  0.25721  Biso   1.000  O
  O6       1.0000 0.53343  0.13184  0.50211  Biso   1.000  O
  O7       1.0000 0.45820  0.38408  0.50076  Biso   1.000  O
  O8       1.0000 0.45421  0.37227  0.25119  Biso   1.000  O
  Hf4      1.0000 0.26174  0.01747  0.63220  Biso   1.000  Hf
  Hf5      1.0000 0.28530  0.23446  0.87769  Biso   1.000  Hf
  Hf6      1.0000 0.72410  0.26941  0.62287  Biso   1.000  Hf
  Hf7      1.0000 0.73844  0.48324  0.87736  Biso   1.000  Hf
  O9       1.0000 0.07664  0.19209  0.69151  Biso   1.000  O
  O10      1.0000 0.10102  0.05922  0.87419  Biso   1.000  O
  O11      1.0000 0.92830  0.43517  0.69470  Biso   1.000  O
  O12      1.0000 0.94003  0.31586  0.94524  Biso   1.000  O
  O13      1.0000 0.55363  0.12298  0.74459  Biso   1.000  O
  O14      1.0000 0.57228  0.13563  0.98974  Biso   1.000  O
  O15      1.0000 0.46551  0.38309  0.00142  Biso   1.000  O
  O16      1.0000 0.45863  0.37027  0.75126  Biso   1.000  O
  Hf8      1.0000 0.27425  0.51749  0.12733  Biso   1.000  Hf
  Hf9      1.0000 0.27140  0.73695  0.37532  Biso   1.000  Hf
  Hf10     1.0000 0.72814  0.77012  0.12584  Biso   1.000  Hf
  Hf11     1.0000 0.72020  0.98653  0.37528  Biso   1.000  Hf
  O17      1.0000 0.07439  0.68518  0.19449  Biso   1.000  O
  O18      1.0000 0.06862  0.56805  0.44687  Biso   1.000  O
  O19      1.0000 0.93764  0.93711  0.19652  Biso   1.000  O
  O20      1.0000 0.92689  0.81661  0.44370  Biso   1.000  O
  O21      1.0000 0.54380  0.61639  0.24925  Biso   1.000  O
  O22      1.0000 0.53838  0.63361  0.49894  Biso   1.000  O
  O23      1.0000 0.44969  0.88411  0.50260  Biso   1.000  O
  O24      1.0000 0.48533  0.86114  0.25721  Biso   1.000  O
  Hf12     1.0000 0.26731  0.51959  0.62660  Biso   1.000  Hf
  Hf13     1.0000 0.27772  0.73381  0.87885  Biso   1.000  Hf
  Hf14     1.0000 0.73238  0.76639  0.62331  Biso   1.000  Hf
  Hf15     1.0000 0.71877  0.98338  0.87332  Biso   1.000  Hf
  O25      1.0000 0.07279  0.68634  0.69622  Biso   1.000  O
  O26      1.0000 0.07584  0.56749  0.94592  Biso   1.000  O
  O27      1.0000 0.91111  0.93504  0.68133  Biso   1.000  O
  O28      1.0000 0.94187  0.82426  0.94631  Biso   1.000  O
  O29      1.0000 0.54423  0.61814  0.75044  Biso   1.000  O
  O30      1.0000 0.55081  0.62890  0.00102  Biso   1.000  O
  O31      1.0000 0.47425  0.87089  0.99533  Biso   1.000  O
  O32      1.0000 0.45747  0.86909  0.74934  Biso   1.000  O
