data_image0
_cell_length_a       10.1146
_cell_length_b       10.2841
_cell_length_c       10.4465
_cell_angle_alpha    90.062
_cell_angle_beta     80.1311
_cell_angle_gamma    90.1102

_symmetry_space_group_name_H-M    "P 1"
_symmetry_int_tables_number       1

loop_
  _symmetry_equiv_pos_as_xyz
  'x, y, z'

loop_
  _atom_site_label
  _atom_site_occupancy
  _atom_site_fract_x
  _atom_site_fract_y
  _atom_site_fract_z
  _atom_site_thermal_displace_type
  _atom_site_B_iso_or_equiv
  _atom_site_type_symbol
  Hf1      1.0000 0.13849  0.02223  0.14652  Biso   1.000  Hf
  Hf2      1.0000 0.13694  0.22876  0.39638  Biso   1.000  Hf
  Hf3      1.0000 0.35881  0.27274  0.10158  Biso   1.000  Hf
  Hf4      1.0000 0.35493  0.48582  0.35095  Biso   1.000  Hf
  O1       1.0000 0.03508  0.17059  0.08183  Biso   1.000  O
  O2       1.0000 0.03624  0.07923  0.33154  Biso   1.000  O
  O3       1.0000 0.46132  0.42126  0.16872  Biso   1.000  O
  O4       1.0000 0.45955  0.31539  0.40529  Biso   1.000  O
  O5       1.0000 0.27782  0.13142  0.24134  Biso   1.000  O
  O6       1.0000 0.27900  0.12229  0.49049  Biso   1.000  O
  O7       1.0000 0.22099  0.38013  0.00837  Biso   1.000  O
  O8       1.0000 0.22094  0.37148  0.25917  Biso   1.000  O
  Hf5      1.0000 0.13763  0.02154  0.64629  Biso   1.000  Hf
  Hf6      1.0000 0.13694  0.22845  0.89687  Biso   1.000  Hf
  Hf7      1.0000 0.35813  0.26834  0.60893  Biso   1.000  Hf
  Hf8      1.0000 0.35945  0.47954  0.85311  Biso   1.000  Hf
  O9       1.0000 0.03779  0.17268  0.58221  Biso   1.000  O
  O10      1.0000 0.03536  0.07951  0.83138  Biso   1.000  O
  O11      1.0000 0.46237  0.42083  0.66321  Biso   1.000  O
  O12      1.0000 0.46208  0.33005  0.91660  Biso   1.000  O
  O13      1.0000 0.27645  0.12897  0.74189  Biso   1.000  O
  O14      1.0000 0.27544  0.12098  0.99071  Biso   1.000  O
  O15      1.0000 0.22883  0.38079  0.50836  Biso   1.000  O
  O16      1.0000 0.22197  0.37026  0.75953  Biso   1.000  O
  Hf9      1.0000 0.13694  0.52187  0.14487  Biso   1.000  Hf
  Hf10     1.0000 0.13706  0.72967  0.39706  Biso   1.000  Hf
  Hf11     1.0000 0.36057  0.77235  0.10337  Biso   1.000  Hf
  Hf12     1.0000 0.35938  0.97718  0.35394  Biso   1.000  Hf
  O17      1.0000 0.03490  0.67087  0.08139  Biso   1.000  O
  O18      1.0000 0.03638  0.57947  0.33151  Biso   1.000  O
  O19      1.0000 0.46285  0.92099  0.16941  Biso   1.000  O
  O20      1.0000 0.46351  0.83014  0.41871  Biso   1.000  O
  O21      1.0000 0.27638  0.62939  0.24085  Biso   1.000  O
  O22      1.0000 0.27572  0.62335  0.49056  Biso   1.000  O
  O23      1.0000 0.22228  0.87965  0.00976  Biso   1.000  O
  O24      1.0000 0.22192  0.87073  0.25937  Biso   1.000  O
  Hf13     1.0000 0.13887  0.52226  0.64621  Biso   1.000  Hf
  Hf14     1.0000 0.13770  0.72917  0.89646  Biso   1.000  Hf
  Hf15     1.0000 0.36048  0.77262  0.60472  Biso   1.000  Hf
  Hf16     1.0000 0.36013  0.97818  0.85499  Biso   1.000  Hf
  O25      1.0000 0.03546  0.67073  0.58211  Biso   1.000  O
  O26      1.0000 0.03606  0.57964  0.83143  Biso   1.000  O
  O27      1.0000 0.46275  0.92135  0.66944  Biso   1.000  O
  O28      1.0000 0.46327  0.82970  0.91949  Biso   1.000  O
  O29      1.0000 0.27640  0.62977  0.74037  Biso   1.000  O
  O30      1.0000 0.27616  0.62101  0.99058  Biso   1.000  O
  O31      1.0000 0.22239  0.88017  0.50964  Biso   1.000  O
  O32      1.0000 0.22206  0.87126  0.75970  Biso   1.000  O
  Hf17     1.0000 0.63773  0.02283  0.14588  Biso   1.000  Hf
  Hf18     1.0000 0.65366  0.22434  0.39709  Biso   1.000  Hf
  Hf19     1.0000 0.86005  0.27192  0.10371  Biso   1.000  Hf
  Hf20     1.0000 0.86067  0.47956  0.35407  Biso   1.000  Hf
  O33      1.0000 0.53430  0.17117  0.08060  Biso   1.000  O
  O34      1.0000 0.53306  0.08644  0.33007  Biso   1.000  O
  O35      1.0000 0.96239  0.42124  0.16881  Biso   1.000  O
  O36      1.0000 0.96190  0.32955  0.41924  Biso   1.000  O
  O37      1.0000 0.77891  0.12757  0.24134  Biso   1.000  O
  O38      1.0000 0.78235  0.11856  0.49283  Biso   1.000  O
  O39      1.0000 0.72114  0.37947  0.00991  Biso   1.000  O
  O40      1.0000 0.72278  0.36922  0.26008  Biso   1.000  O
  Hf21     1.0000 0.63836  0.02156  0.64702  Biso   1.000  Hf
  Hf22     1.0000 0.63789  0.22918  0.89603  Biso   1.000  Hf
  Hf23     1.0000 0.86135  0.27257  0.60612  Biso   1.000  Hf
  Hf24     1.0000 0.86008  0.47918  0.85474  Biso   1.000  Hf
  O41      1.0000 0.53775  0.17124  0.57877  Biso   1.000  O
  O42      1.0000 0.53513  0.08019  0.83102  Biso   1.000  O
  O43      1.0000 0.96420  0.42100  0.66955  Biso   1.000  O
  O44      1.0000 0.96204  0.32960  0.91926  Biso   1.000  O
  O45      1.0000 0.77629  0.12993  0.74186  Biso   1.000  O
  O46      1.0000 0.77528  0.12113  0.99152  Biso   1.000  O
  O47      1.0000 0.72158  0.37868  0.50933  Biso   1.000  O
  O48      1.0000 0.72241  0.37174  0.75949  Biso   1.000  O
  Hf25     1.0000 0.63781  0.52049  0.14671  Biso   1.000  Hf
  Hf26     1.0000 0.63800  0.72849  0.39695  Biso   1.000  Hf
  Hf27     1.0000 0.85912  0.77184  0.10419  Biso   1.000  Hf
  Hf28     1.0000 0.86155  0.97563  0.35394  Biso   1.000  Hf
  O49      1.0000 0.53537  0.67012  0.08280  Biso   1.000  O
  O50      1.0000 0.53526  0.57418  0.33589  Biso   1.000  O
  O51      1.0000 0.96365  0.91945  0.16932  Biso   1.000  O
  O52      1.0000 0.96265  0.82858  0.42004  Biso   1.000  O
  O53      1.0000 0.77465  0.62930  0.24169  Biso   1.000  O
  O54      1.0000 0.77588  0.62047  0.49131  Biso   1.000  O
  O55      1.0000 0.72147  0.87980  0.00993  Biso   1.000  O
  O56      1.0000 0.72106  0.87123  0.25973  Biso   1.000  O
  Hf29     1.0000 0.63816  0.52204  0.64600  Biso   1.000  Hf
  Hf30     1.0000 0.63835  0.72813  0.89681  Biso   1.000  Hf
  Hf31     1.0000 0.85959  0.77141  0.60560  Biso   1.000  Hf
  Hf32     1.0000 0.85957  0.97876  0.85484  Biso   1.000  Hf
  O57      1.0000 0.53566  0.67174  0.58212  Biso   1.000  O
  O58      1.0000 0.53499  0.57956  0.83044  Biso   1.000  O
  O59      1.0000 0.96241  0.92122  0.66893  Biso   1.000  O
  O60      1.0000 0.96223  0.82976  0.91914  Biso   1.000  O
  O61      1.0000 0.77622  0.62940  0.74157  Biso   1.000  O
  O62      1.0000 0.77589  0.62075  0.99154  Biso   1.000  O
  O63      1.0000 0.72217  0.87840  0.51005  Biso   1.000  O
  O64      1.0000 0.72181  0.87085  0.76017  Biso   1.000  O
  H1       1.0000 0.43431  0.23573  0.35973  Biso   1.000  H
