data_image0
_cell_length_a       10.0364
_cell_length_b       10.2307
_cell_length_c       5.23757
_cell_angle_alpha    89.876
_cell_angle_beta     90.2377
_cell_angle_gamma    90.1495

_symmetry_space_group_name_H-M    "P 1"
_symmetry_int_tables_number       1

loop_
  _symmetry_equiv_pos_as_xyz
  'x, y, z'

loop_
  _atom_site_label
  _atom_site_occupancy
  _atom_site_fract_x
  _atom_site_fract_y
  _atom_site_fract_z
  _atom_site_thermal_displace_type
  _atom_site_B_iso_or_equiv
  _atom_site_type_symbol
  Hf1      1.0000 0.14140  0.01971  0.34548  Biso   1.000  Hf
  Hf2      1.0000 0.14058  0.22569  0.84992  Biso   1.000  Hf
  Hf3      1.0000 0.34735  0.27689  0.35485  Biso   1.000  Hf
  Hf4      1.0000 0.36262  0.47753  0.84691  Biso   1.000  Hf
  Hf5      1.0000 0.64571  0.01359  0.14734  Biso   1.000  Hf
  Hf6      1.0000 0.64414  0.23109  0.66141  Biso   1.000  Hf
  Hf7      1.0000 0.86513  0.27077  0.15908  Biso   1.000  Hf
  Hf8      1.0000 0.86438  0.47745  0.65776  Biso   1.000  Hf
  O1       1.0000 0.03591  0.16617  0.17447  Biso   1.000  O
  O2       1.0000 0.03356  0.08427  0.66563  Biso   1.000  O
  O3       1.0000 0.47252  0.40787  0.16258  Biso   1.000  O
  O4       1.0000 0.46706  0.33218  0.66486  Biso   1.000  O
  O5       1.0000 0.28079  0.12288  0.59307  Biso   1.000  O
  O6       1.0000 0.28040  0.12664  0.09860  Biso   1.000  O
  O7       1.0000 0.21799  0.37459  0.60591  Biso   1.000  O
  O8       1.0000 0.21985  0.37839  0.09630  Biso   1.000  O
  O9       1.0000 0.53923  0.18221  0.29706  Biso   1.000  O
  O10      1.0000 0.53710  0.08210  0.81840  Biso   1.000  O
  O11      1.0000 0.96880  0.41606  0.33641  Biso   1.000  O
  O12      1.0000 0.96671  0.33176  0.83563  Biso   1.000  O
  O13      1.0000 0.78007  0.12273  0.90848  Biso   1.000  O
  O14      1.0000 0.77213  0.12357  0.40622  Biso   1.000  O
  O15      1.0000 0.72273  0.37161  0.91063  Biso   1.000  O
  O16      1.0000 0.72371  0.37495  0.40780  Biso   1.000  O
  Hf9      1.0000 0.14111  0.52280  0.34842  Biso   1.000  Hf
  Hf10     1.0000 0.14122  0.72889  0.84674  Biso   1.000  Hf
  Hf11     1.0000 0.36330  0.77112  0.34870  Biso   1.000  Hf
  Hf12     1.0000 0.36236  0.97970  0.84716  Biso   1.000  Hf
  Hf13     1.0000 0.64181  0.52217  0.15592  Biso   1.000  Hf
  Hf14     1.0000 0.64010  0.72680  0.65559  Biso   1.000  Hf
  Hf15     1.0000 0.86460  0.76915  0.15690  Biso   1.000  Hf
  Hf16     1.0000 0.86411  0.97844  0.65360  Biso   1.000  Hf
  O17      1.0000 0.03623  0.66690  0.17188  Biso   1.000  O
  O18      1.0000 0.03446  0.58475  0.67295  Biso   1.000  O
  O19      1.0000 0.46932  0.92131  0.17841  Biso   1.000  O
  O20      1.0000 0.46839  0.83231  0.67533  Biso   1.000  O
  O21      1.0000 0.27797  0.62494  0.59634  Biso   1.000  O
  O22      1.0000 0.28014  0.62621  0.09371  Biso   1.000  O
  O23      1.0000 0.22527  0.87388  0.59485  Biso   1.000  O
  O24      1.0000 0.22701  0.87521  0.09641  Biso   1.000  O
  O25      1.0000 0.53384  0.66460  0.33235  Biso   1.000  O
  O26      1.0000 0.53532  0.58207  0.83160  Biso   1.000  O
  O27      1.0000 0.96750  0.91674  0.32912  Biso   1.000  O
  O28      1.0000 0.96847  0.83360  0.83216  Biso   1.000  O
  O29      1.0000 0.77858  0.62300  0.90842  Biso   1.000  O
  O30      1.0000 0.77861  0.62484  0.40923  Biso   1.000  O
  O31      1.0000 0.72531  0.87281  0.90738  Biso   1.000  O
  O32      1.0000 0.72527  0.87323  0.40677  Biso   1.000  O
  H1       1.0000 0.55867  0.26414  0.19581  Biso   1.000  H
