data_image0
_cell_length_a       10.0897
_cell_length_b       5.08872
_cell_length_c       10.4648
_cell_angle_alpha    89.7562
_cell_angle_beta     89.9642
_cell_angle_gamma    90.1751

_symmetry_space_group_name_H-M    "P 1"
_symmetry_int_tables_number       1

loop_
  _symmetry_equiv_pos_as_xyz
  'x, y, z'

loop_
  _atom_site_label
  _atom_site_occupancy
  _atom_site_fract_x
  _atom_site_fract_y
  _atom_site_fract_z
  _atom_site_thermal_displace_type
  _atom_site_B_iso_or_equiv
  _atom_site_type_symbol
  H1       1.0000 0.02362  0.12873  0.11700  Biso   1.000  H
  Hf1      1.0000 0.14629  0.45829  0.42111  Biso   1.000  Hf
  Hf2      1.0000 0.35527  0.53505  0.17319  Biso   1.000  Hf
  Hf3      1.0000 0.35889  0.95755  0.42018  Biso   1.000  Hf
  Hf4      1.0000 0.64065  0.04255  0.07875  Biso   1.000  Hf
  Hf5      1.0000 0.64084  0.45813  0.32782  Biso   1.000  Hf
  Hf6      1.0000 0.86260  0.55091  0.07935  Biso   1.000  Hf
  Hf7      1.0000 0.86631  0.95957  0.32617  Biso   1.000  Hf
  O1       1.0000 0.02903  0.31885  0.08495  Biso   1.000  O
  O2       1.0000 0.02604  0.18010  0.35539  Biso   1.000  O
  O3       1.0000 0.47414  0.81914  0.08417  Biso   1.000  O
  O4       1.0000 0.47469  0.68050  0.33215  Biso   1.000  O
  O5       1.0000 0.28553  0.25606  0.30727  Biso   1.000  O
  O6       1.0000 0.28871  0.25666  0.04003  Biso   1.000  O
  O7       1.0000 0.23441  0.73529  0.30258  Biso   1.000  O
  O8       1.0000 0.23620  0.72833  0.04035  Biso   1.000  O
  O9       1.0000 0.53354  0.32390  0.16867  Biso   1.000  O
  O10      1.0000 0.53404  0.17125  0.41752  Biso   1.000  O
  O11      1.0000 0.95965  0.85193  0.16166  Biso   1.000  O
  O12      1.0000 0.97071  0.66925  0.41561  Biso   1.000  O
  O13      1.0000 0.77566  0.24906  0.45507  Biso   1.000  O
  O14      1.0000 0.77815  0.25767  0.20486  Biso   1.000  O
  O15      1.0000 0.72771  0.74827  0.45392  Biso   1.000  O
  O16      1.0000 0.72177  0.75317  0.20410  Biso   1.000  O
  Hf8      1.0000 0.14270  0.03680  0.67403  Biso   1.000  Hf
  Hf9      1.0000 0.14520  0.44798  0.92761  Biso   1.000  Hf
  Hf10     1.0000 0.36275  0.53941  0.67422  Biso   1.000  Hf
  Hf11     1.0000 0.36006  0.95261  0.92767  Biso   1.000  Hf
  Hf12     1.0000 0.64031  0.03780  0.57732  Biso   1.000  Hf
  Hf13     1.0000 0.64099  0.45505  0.82826  Biso   1.000  Hf
  Hf14     1.0000 0.86195  0.53817  0.57710  Biso   1.000  Hf
  Hf15     1.0000 0.86311  0.95562  0.82851  Biso   1.000  Hf
  O17      1.0000 0.03382  0.32777  0.58708  Biso   1.000  O
  O18      1.0000 0.03346  0.16752  0.83290  Biso   1.000  O
  O19      1.0000 0.47041  0.82224  0.58252  Biso   1.000  O
  O20      1.0000 0.47185  0.67092  0.83274  Biso   1.000  O
  O21      1.0000 0.27709  0.24225  0.79687  Biso   1.000  O
  O22      1.0000 0.27790  0.24935  0.55023  Biso   1.000  O
  O23      1.0000 0.22612  0.74198  0.79617  Biso   1.000  O
  O24      1.0000 0.22578  0.75049  0.54900  Biso   1.000  O
  O25      1.0000 0.53411  0.32341  0.66774  Biso   1.000  O
  O26      1.0000 0.53531  0.16781  0.91740  Biso   1.000  O
  O27      1.0000 0.97020  0.82374  0.66677  Biso   1.000  O
  O28      1.0000 0.97229  0.66904  0.91860  Biso   1.000  O
  O29      1.0000 0.77841  0.24741  0.95399  Biso   1.000  O
  O30      1.0000 0.77764  0.24777  0.70431  Biso   1.000  O
  O31      1.0000 0.72684  0.74684  0.95354  Biso   1.000  O
  O32      1.0000 0.72724  0.74782  0.70357  Biso   1.000  O
