data_image0
_cell_length_a       10.1474
_cell_length_b       10.2741
_cell_length_c       5.23235
_cell_angle_alpha    90.1109
_cell_angle_beta     79.7238
_cell_angle_gamma    90.2124

_symmetry_space_group_name_H-M    "P 1"
_symmetry_int_tables_number       1

loop_
  _symmetry_equiv_pos_as_xyz
  'x, y, z'

loop_
  _atom_site_label
  _atom_site_occupancy
  _atom_site_fract_x
  _atom_site_fract_y
  _atom_site_fract_z
  _atom_site_thermal_displace_type
  _atom_site_B_iso_or_equiv
  _atom_site_type_symbol
  Hf1      1.0000 0.13691  0.02251  0.29353  Biso   1.000  Hf
  Hf2      1.0000 0.13486  0.22863  0.79519  Biso   1.000  Hf
  Hf3      1.0000 0.35562  0.26961  0.21350  Biso   1.000  Hf
  Hf4      1.0000 0.35368  0.48661  0.70032  Biso   1.000  Hf
  O1       1.0000 0.03601  0.17250  0.16495  Biso   1.000  O
  O2       1.0000 0.03448  0.07988  0.66233  Biso   1.000  O
  O3       1.0000 0.46064  0.42111  0.32739  Biso   1.000  O
  O4       1.0000 0.45862  0.31641  0.80737  Biso   1.000  O
  O5       1.0000 0.27693  0.13064  0.48482  Biso   1.000  O
  O6       1.0000 0.27758  0.12269  0.98085  Biso   1.000  O
  O7       1.0000 0.22710  0.38146  0.01523  Biso   1.000  O
  O8       1.0000 0.22036  0.37136  0.51938  Biso   1.000  O
  Hf5      1.0000 0.13671  0.52258  0.29070  Biso   1.000  Hf
  Hf6      1.0000 0.13572  0.73030  0.79512  Biso   1.000  Hf
  Hf7      1.0000 0.36007  0.77352  0.20801  Biso   1.000  Hf
  Hf8      1.0000 0.35831  0.97702  0.70926  Biso   1.000  Hf
  O9       1.0000 0.03357  0.67064  0.16398  Biso   1.000  O
  O10      1.0000 0.03582  0.57994  0.66324  Biso   1.000  O
  O11      1.0000 0.46219  0.92153  0.34020  Biso   1.000  O
  O12      1.0000 0.46365  0.83103  0.83946  Biso   1.000  O
  O13      1.0000 0.27571  0.62952  0.48087  Biso   1.000  O
  O14      1.0000 0.27484  0.62404  0.98070  Biso   1.000  O
  O15      1.0000 0.22184  0.88008  0.02022  Biso   1.000  O
  O16      1.0000 0.22091  0.87158  0.51927  Biso   1.000  O
  Hf9      1.0000 0.63710  0.02294  0.29367  Biso   1.000  Hf
  Hf10     1.0000 0.65244  0.22475  0.79515  Biso   1.000  Hf
  Hf11     1.0000 0.85997  0.27318  0.21151  Biso   1.000  Hf
  Hf12     1.0000 0.85983  0.47995  0.70958  Biso   1.000  Hf
  O17      1.0000 0.53519  0.17130  0.15548  Biso   1.000  O
  O18      1.0000 0.53089  0.08787  0.65832  Biso   1.000  O
  O19      1.0000 0.96377  0.42113  0.34057  Biso   1.000  O
  O20      1.0000 0.96080  0.33010  0.84032  Biso   1.000  O
  O21      1.0000 0.77811  0.12762  0.48436  Biso   1.000  O
  O22      1.0000 0.78110  0.11923  0.98785  Biso   1.000  O
  O23      1.0000 0.71948  0.37886  0.01963  Biso   1.000  O
  O24      1.0000 0.72207  0.37075  0.52097  Biso   1.000  O
  Hf13     1.0000 0.63710  0.52093  0.29364  Biso   1.000  Hf
  Hf14     1.0000 0.63717  0.72821  0.79576  Biso   1.000  Hf
  Hf15     1.0000 0.85791  0.77167  0.21137  Biso   1.000  Hf
  Hf16     1.0000 0.85991  0.97613  0.70929  Biso   1.000  Hf
  O25      1.0000 0.53417  0.67099  0.16685  Biso   1.000  O
  O26      1.0000 0.53350  0.57476  0.66967  Biso   1.000  O
  O27      1.0000 0.96254  0.91987  0.33903  Biso   1.000  O
  O28      1.0000 0.96169  0.82926  0.84110  Biso   1.000  O
  O29      1.0000 0.77378  0.62907  0.48506  Biso   1.000  O
  O30      1.0000 0.77441  0.62103  0.98408  Biso   1.000  O
  O31      1.0000 0.72109  0.87847  0.02165  Biso   1.000  O
  O32      1.0000 0.71991  0.87155  0.52098  Biso   1.000  O
  H1       1.0000 0.43526  0.23516  0.71818  Biso   1.000  H
