data_image0
_cell_length_a       10.0253
_cell_length_b       10.2345
_cell_length_c       10.4608
_cell_angle_alpha    89.9317
_cell_angle_beta     90.1128
_cell_angle_gamma    90.1035

_symmetry_space_group_name_H-M    "P 1"
_symmetry_int_tables_number       1

loop_
  _symmetry_equiv_pos_as_xyz
  'x, y, z'

loop_
  _atom_site_label
  _atom_site_occupancy
  _atom_site_fract_x
  _atom_site_fract_y
  _atom_site_fract_z
  _atom_site_thermal_displace_type
  _atom_site_B_iso_or_equiv
  _atom_site_type_symbol
  Hf1      1.0000 0.13909  0.02025  0.17200  Biso   1.000  Hf
  Hf2      1.0000 0.13860  0.22750  0.42405  Biso   1.000  Hf
  Hf3      1.0000 0.34642  0.27619  0.17579  Biso   1.000  Hf
  Hf4      1.0000 0.36187  0.47865  0.42317  Biso   1.000  Hf
  Hf5      1.0000 0.64491  0.01418  0.07482  Biso   1.000  Hf
  Hf6      1.0000 0.64193  0.23242  0.33338  Biso   1.000  Hf
  Hf7      1.0000 0.86282  0.27095  0.07855  Biso   1.000  Hf
  Hf8      1.0000 0.86232  0.47841  0.32840  Biso   1.000  Hf
  O1       1.0000 0.03496  0.16723  0.08609  Biso   1.000  O
  O2       1.0000 0.03325  0.08354  0.33425  Biso   1.000  O
  O3       1.0000 0.46960  0.40973  0.08288  Biso   1.000  O
  O4       1.0000 0.46462  0.33206  0.33340  Biso   1.000  O
  O5       1.0000 0.27802  0.12381  0.29572  Biso   1.000  O
  O6       1.0000 0.27756  0.12750  0.04694  Biso   1.000  O
  O7       1.0000 0.21800  0.37506  0.29994  Biso   1.000  O
  O8       1.0000 0.22007  0.37857  0.04676  Biso   1.000  O
  O9       1.0000 0.53768  0.18219  0.15085  Biso   1.000  O
  O10      1.0000 0.53529  0.08212  0.40865  Biso   1.000  O
  O11      1.0000 0.96666  0.41694  0.16650  Biso   1.000  O
  O12      1.0000 0.96658  0.33321  0.41698  Biso   1.000  O
  O13      1.0000 0.77796  0.12408  0.45531  Biso   1.000  O
  O14      1.0000 0.77093  0.12469  0.20446  Biso   1.000  O
  O15      1.0000 0.72314  0.37353  0.45590  Biso   1.000  O
  O16      1.0000 0.72153  0.37490  0.20448  Biso   1.000  O
  Hf9      1.0000 0.14094  0.02051  0.67212  Biso   1.000  Hf
  Hf10     1.0000 0.13964  0.22817  0.92198  Biso   1.000  Hf
  Hf11     1.0000 0.36243  0.27089  0.67223  Biso   1.000  Hf
  Hf12     1.0000 0.36221  0.47767  0.92196  Biso   1.000  Hf
  Hf13     1.0000 0.64023  0.02013  0.57736  Biso   1.000  Hf
  Hf14     1.0000 0.64117  0.22757  0.82605  Biso   1.000  Hf
  Hf15     1.0000 0.86303  0.27112  0.57981  Biso   1.000  Hf
  Hf16     1.0000 0.86243  0.47828  0.82905  Biso   1.000  Hf
  O17      1.0000 0.03476  0.16612  0.58613  Biso   1.000  O
  O18      1.0000 0.03487  0.08353  0.83434  Biso   1.000  O
  O19      1.0000 0.46793  0.41622  0.58474  Biso   1.000  O
  O20      1.0000 0.46843  0.33263  0.83423  Biso   1.000  O
  O21      1.0000 0.27870  0.12342  0.79610  Biso   1.000  O
  O22      1.0000 0.27845  0.12540  0.54613  Biso   1.000  O
  O23      1.0000 0.22474  0.37355  0.79684  Biso   1.000  O
  O24      1.0000 0.22430  0.37573  0.54750  Biso   1.000  O
  O25      1.0000 0.53536  0.16657  0.66265  Biso   1.000  O
  O26      1.0000 0.53622  0.08258  0.91528  Biso   1.000  O
  O27      1.0000 0.96803  0.41614  0.66696  Biso   1.000  O
  O28      1.0000 0.96677  0.33276  0.91635  Biso   1.000  O
  O29      1.0000 0.77961  0.12225  0.95405  Biso   1.000  O
  O30      1.0000 0.77833  0.12523  0.70366  Biso   1.000  O
  O31      1.0000 0.72235  0.37162  0.95469  Biso   1.000  O
  O32      1.0000 0.72485  0.37617  0.70448  Biso   1.000  O
  Hf17     1.0000 0.13868  0.52363  0.17294  Biso   1.000  Hf
  Hf18     1.0000 0.13947  0.72901  0.42284  Biso   1.000  Hf
  Hf19     1.0000 0.36219  0.77082  0.17291  Biso   1.000  Hf
  Hf20     1.0000 0.36186  0.97814  0.42172  Biso   1.000  Hf
  Hf21     1.0000 0.64082  0.52209  0.07767  Biso   1.000  Hf
  Hf22     1.0000 0.63950  0.72766  0.32868  Biso   1.000  Hf
  Hf23     1.0000 0.86325  0.76961  0.07852  Biso   1.000  Hf
  Hf24     1.0000 0.86140  0.97878  0.32829  Biso   1.000  Hf
  O33      1.0000 0.03510  0.66764  0.08508  Biso   1.000  O
  O34      1.0000 0.03320  0.58466  0.33542  Biso   1.000  O
  O35      1.0000 0.46754  0.92172  0.08975  Biso   1.000  O
  O36      1.0000 0.46699  0.83154  0.33607  Biso   1.000  O
  O37      1.0000 0.27687  0.62458  0.29701  Biso   1.000  O
  O38      1.0000 0.27861  0.62597  0.04560  Biso   1.000  O
  O39      1.0000 0.22401  0.87413  0.29611  Biso   1.000  O
  O40      1.0000 0.22549  0.87606  0.04643  Biso   1.000  O
  O41      1.0000 0.53345  0.66534  0.16534  Biso   1.000  O
  O42      1.0000 0.53478  0.58221  0.41559  Biso   1.000  O
  O43      1.0000 0.96571  0.91756  0.16461  Biso   1.000  O
  O44      1.0000 0.96708  0.83388  0.41554  Biso   1.000  O
  O45      1.0000 0.77754  0.62339  0.45491  Biso   1.000  O
  O46      1.0000 0.77764  0.62521  0.20463  Biso   1.000  O
  O47      1.0000 0.72397  0.87353  0.45412  Biso   1.000  O
  O48      1.0000 0.72437  0.87360  0.20420  Biso   1.000  O
  Hf25     1.0000 0.14033  0.52096  0.67265  Biso   1.000  Hf
  Hf26     1.0000 0.14080  0.72886  0.92169  Biso   1.000  Hf
  Hf27     1.0000 0.36204  0.77137  0.67258  Biso   1.000  Hf
  Hf28     1.0000 0.36234  0.98013  0.92295  Biso   1.000  Hf
  Hf29     1.0000 0.63993  0.52151  0.57910  Biso   1.000  Hf
  Hf30     1.0000 0.63926  0.72794  0.82755  Biso   1.000  Hf
  Hf31     1.0000 0.86240  0.77074  0.57828  Biso   1.000  Hf
  Hf32     1.0000 0.86364  0.97832  0.82729  Biso   1.000  Hf
  O49      1.0000 0.03449  0.66615  0.58532  Biso   1.000  O
  O50      1.0000 0.03521  0.58304  0.83583  Biso   1.000  O
  O51      1.0000 0.46760  0.91691  0.58435  Biso   1.000  O
  O52      1.0000 0.46759  0.83376  0.83648  Biso   1.000  O
  O53      1.0000 0.27830  0.62370  0.79597  Biso   1.000  O
  O54      1.0000 0.27788  0.62613  0.54631  Biso   1.000  O
  O55      1.0000 0.22468  0.87385  0.79626  Biso   1.000  O
  O56      1.0000 0.22439  0.87570  0.54645  Biso   1.000  O
  O57      1.0000 0.53414  0.66665  0.66569  Biso   1.000  O
  O58      1.0000 0.53438  0.58260  0.91535  Biso   1.000  O
  O59      1.0000 0.96813  0.91603  0.66533  Biso   1.000  O
  O60      1.0000 0.96761  0.83284  0.91545  Biso   1.000  O
  O61      1.0000 0.77777  0.62346  0.95399  Biso   1.000  O
  O62      1.0000 0.77777  0.62598  0.70488  Biso   1.000  O
  O63      1.0000 0.72454  0.87300  0.95442  Biso   1.000  O
  O64      1.0000 0.72424  0.87595  0.70412  Biso   1.000  O
  H1       1.0000 0.56023  0.26199  0.09902  Biso   1.000  H
