data_image0
_cell_length_a       5.09187
_cell_length_b       10.2307
_cell_length_c       10.4824
_cell_angle_alpha    89.8145
_cell_angle_beta     79.7239
_cell_angle_gamma    90.1463

_symmetry_space_group_name_H-M    "P 1"
_symmetry_int_tables_number       1

loop_
  _symmetry_equiv_pos_as_xyz
  'x, y, z'

loop_
  _atom_site_label
  _atom_site_occupancy
  _atom_site_fract_x
  _atom_site_fract_y
  _atom_site_fract_z
  _atom_site_thermal_displace_type
  _atom_site_B_iso_or_equiv
  _atom_site_type_symbol
  H1       1.0000 0.04188  0.00742  0.12273  Biso   1.000  H
  Hf1      1.0000 0.28760  0.22910  0.39465  Biso   1.000  Hf
  Hf2      1.0000 0.71572  0.26346  0.10668  Biso   1.000  Hf
  Hf3      1.0000 0.72316  0.47851  0.35266  Biso   1.000  Hf
  O1       1.0000 0.06325  0.16144  0.07478  Biso   1.000  O
  O2       1.0000 0.05791  0.09012  0.34270  Biso   1.000  O
  O3       1.0000 0.93582  0.41114  0.17359  Biso   1.000  O
  O4       1.0000 0.93749  0.33798  0.42496  Biso   1.000  O
  O5       1.0000 0.57529  0.13777  0.25479  Biso   1.000  O
  O6       1.0000 0.55050  0.12169  0.49547  Biso   1.000  O
  O7       1.0000 0.45018  0.37840  0.01072  Biso   1.000  O
  O8       1.0000 0.44353  0.37421  0.26021  Biso   1.000  O
  Hf4      1.0000 0.28278  0.01873  0.64620  Biso   1.000  Hf
  Hf5      1.0000 0.28189  0.22436  0.90208  Biso   1.000  Hf
  Hf6      1.0000 0.72067  0.27150  0.60523  Biso   1.000  Hf
  Hf7      1.0000 0.72406  0.47769  0.85620  Biso   1.000  Hf
  O9       1.0000 0.06417  0.16274  0.57795  Biso   1.000  O
  O10      1.0000 0.06936  0.08618  0.82515  Biso   1.000  O
  O11      1.0000 0.93999  0.41254  0.67424  Biso   1.000  O
  O12      1.0000 0.94350  0.33909  0.92487  Biso   1.000  O
  O13      1.0000 0.55312  0.12667  0.73979  Biso   1.000  O
  O14      1.0000 0.58256  0.13165  0.97927  Biso   1.000  O
  O15      1.0000 0.45075  0.37873  0.51106  Biso   1.000  O
  O16      1.0000 0.45323  0.37076  0.76097  Biso   1.000  O
  Hf8      1.0000 0.28067  0.52083  0.14514  Biso   1.000  Hf
  Hf9      1.0000 0.28653  0.72899  0.39386  Biso   1.000  Hf
  Hf10     1.0000 0.72139  0.77681  0.10445  Biso   1.000  Hf
  Hf11     1.0000 0.71898  0.98145  0.35153  Biso   1.000  Hf
  O17      1.0000 0.06896  0.66691  0.07856  Biso   1.000  O
  O18      1.0000 0.06631  0.58627  0.32652  Biso   1.000  O
  O19      1.0000 0.93494  0.93030  0.16572  Biso   1.000  O
  O20      1.0000 0.94181  0.83549  0.42095  Biso   1.000  O
  O21      1.0000 0.55483  0.62358  0.23791  Biso   1.000  O
  O22      1.0000 0.55588  0.62131  0.49004  Biso   1.000  O
  O23      1.0000 0.47379  0.86981  0.99811  Biso   1.000  O
  O24      1.0000 0.48336  0.85984  0.26468  Biso   1.000  O
  Hf12     1.0000 0.28310  0.52180  0.64763  Biso   1.000  Hf
  Hf13     1.0000 0.28789  0.73111  0.89773  Biso   1.000  Hf
  Hf14     1.0000 0.72723  0.77153  0.60212  Biso   1.000  Hf
  Hf15     1.0000 0.71779  0.97947  0.85608  Biso   1.000  Hf
  O25      1.0000 0.07025  0.66385  0.57841  Biso   1.000  O
  O26      1.0000 0.06962  0.58534  0.82830  Biso   1.000  O
  O27      1.0000 0.93633  0.91340  0.67352  Biso   1.000  O
  O28      1.0000 0.95323  0.84237  0.92370  Biso   1.000  O
  O29      1.0000 0.55773  0.62846  0.74051  Biso   1.000  O
  O30      1.0000 0.55804  0.61987  0.99131  Biso   1.000  O
  O31      1.0000 0.45186  0.87779  0.51028  Biso   1.000  O
  O32      1.0000 0.45106  0.87154  0.75600  Biso   1.000  O
