data_image0
_cell_length_a       5.08074
_cell_length_b       10.2668
_cell_length_c       10.4621
_cell_angle_alpha    90.0862
_cell_angle_beta     79.6875
_cell_angle_gamma    90.1825

_symmetry_space_group_name_H-M    "P 1"
_symmetry_int_tables_number       1

loop_
  _symmetry_equiv_pos_as_xyz
  'x, y, z'

loop_
  _atom_site_label
  _atom_site_occupancy
  _atom_site_fract_x
  _atom_site_fract_y
  _atom_site_fract_z
  _atom_site_thermal_displace_type
  _atom_site_B_iso_or_equiv
  _atom_site_type_symbol
  Hf1      1.0000 0.27235  0.02305  0.14616  Biso   1.000  Hf
  Hf2      1.0000 0.30304  0.22357  0.39814  Biso   1.000  Hf
  Hf3      1.0000 0.71479  0.27291  0.10195  Biso   1.000  Hf
  Hf4      1.0000 0.70902  0.48619  0.35088  Biso   1.000  Hf
  O1       1.0000 0.06468  0.17080  0.08071  Biso   1.000  O
  O2       1.0000 0.06242  0.08716  0.32927  Biso   1.000  O
  O3       1.0000 0.92134  0.42086  0.16964  Biso   1.000  O
  O4       1.0000 0.92094  0.31711  0.40705  Biso   1.000  O
  O5       1.0000 0.55582  0.12830  0.24059  Biso   1.000  O
  O6       1.0000 0.57194  0.12140  0.49343  Biso   1.000  O
  O7       1.0000 0.43873  0.37971  0.00893  Biso   1.000  O
  O8       1.0000 0.44078  0.37028  0.25991  Biso   1.000  O
  Hf5      1.0000 0.27466  0.02155  0.64715  Biso   1.000  Hf
  Hf6      1.0000 0.27133  0.22916  0.89710  Biso   1.000  Hf
  Hf7      1.0000 0.71816  0.26921  0.61070  Biso   1.000  Hf
  Hf8      1.0000 0.71764  0.48015  0.85378  Biso   1.000  Hf
  O9       1.0000 0.07849  0.17263  0.57957  Biso   1.000  O
  O10      1.0000 0.06696  0.08094  0.83074  Biso   1.000  O
  O11      1.0000 0.92749  0.42103  0.66456  Biso   1.000  O
  O12      1.0000 0.92178  0.33071  0.91776  Biso   1.000  O
  O13      1.0000 0.55089  0.12915  0.74339  Biso   1.000  O
  O14      1.0000 0.54633  0.12154  0.99146  Biso   1.000  O
  O15      1.0000 0.45806  0.37962  0.50884  Biso   1.000  O
  O16      1.0000 0.44396  0.37180  0.75999  Biso   1.000  O
  Hf9      1.0000 0.27108  0.52048  0.14615  Biso   1.000  Hf
  Hf10     1.0000 0.27095  0.72983  0.39799  Biso   1.000  Hf
  Hf11     1.0000 0.71736  0.77244  0.10369  Biso   1.000  Hf
  Hf12     1.0000 0.71796  0.97574  0.35388  Biso   1.000  Hf
  O17      1.0000 0.06641  0.66968  0.08236  Biso   1.000  O
  O18      1.0000 0.06832  0.57543  0.33551  Biso   1.000  O
  O19      1.0000 0.92512  0.91945  0.16994  Biso   1.000  O
  O20      1.0000 0.92487  0.83023  0.42013  Biso   1.000  O
  O21      1.0000 0.54699  0.62898  0.24184  Biso   1.000  O
  O22      1.0000 0.54825  0.62337  0.49110  Biso   1.000  O
  O23      1.0000 0.44237  0.87937  0.01026  Biso   1.000  O
  O24      1.0000 0.43970  0.87169  0.25960  Biso   1.000  O
  Hf13     1.0000 0.27616  0.52269  0.64597  Biso   1.000  Hf
  Hf14     1.0000 0.27371  0.72858  0.89729  Biso   1.000  Hf
  Hf15     1.0000 0.71839  0.77272  0.60586  Biso   1.000  Hf
  Hf16     1.0000 0.71799  0.97845  0.85550  Biso   1.000  Hf
  O25      1.0000 0.06810  0.67137  0.58248  Biso   1.000  O
  O26      1.0000 0.06842  0.58024  0.83022  Biso   1.000  O
  O27      1.0000 0.92457  0.92136  0.67005  Biso   1.000  O
  O28      1.0000 0.92497  0.83048  0.92025  Biso   1.000  O
  O29      1.0000 0.55042  0.62935  0.74106  Biso   1.000  O
  O30      1.0000 0.54911  0.62139  0.99127  Biso   1.000  O
  O31      1.0000 0.44337  0.87857  0.51051  Biso   1.000  O
  O32      1.0000 0.44279  0.87165  0.76064  Biso   1.000  O
  H1       1.0000 0.87367  0.23762  0.35973  Biso   1.000  H
