data_image0
_cell_length_a       10.143
_cell_length_b       5.13865
_cell_length_c       10.4679
_cell_angle_alpha    90.1329
_cell_angle_beta     79.7561
_cell_angle_gamma    90.222

_symmetry_space_group_name_H-M    "P 1"
_symmetry_int_tables_number       1

loop_
  _symmetry_equiv_pos_as_xyz
  'x, y, z'

loop_
  _atom_site_label
  _atom_site_occupancy
  _atom_site_fract_x
  _atom_site_fract_y
  _atom_site_fract_z
  _atom_site_thermal_displace_type
  _atom_site_B_iso_or_equiv
  _atom_site_type_symbol
  Hf1      1.0000 0.13613  0.04470  0.14554  Biso   1.000  Hf
  Hf2      1.0000 0.13554  0.45817  0.39760  Biso   1.000  Hf
  Hf3      1.0000 0.35784  0.54698  0.10126  Biso   1.000  Hf
  Hf4      1.0000 0.35237  0.96899  0.35060  Biso   1.000  Hf
  O1       1.0000 0.03277  0.34007  0.08097  Biso   1.000  O
  O2       1.0000 0.03506  0.16027  0.33078  Biso   1.000  O
  O3       1.0000 0.46051  0.84129  0.17031  Biso   1.000  O
  O4       1.0000 0.46110  0.63544  0.40696  Biso   1.000  O
  O5       1.0000 0.27651  0.26256  0.24069  Biso   1.000  O
  O6       1.0000 0.27950  0.25179  0.49067  Biso   1.000  O
  O7       1.0000 0.22008  0.75984  0.00846  Biso   1.000  O
  O8       1.0000 0.21838  0.74327  0.25877  Biso   1.000  O
  Hf5      1.0000 0.13804  0.04458  0.64583  Biso   1.000  Hf
  Hf6      1.0000 0.13547  0.45774  0.89724  Biso   1.000  Hf
  Hf7      1.0000 0.35811  0.53852  0.60990  Biso   1.000  Hf
  Hf8      1.0000 0.35879  0.95783  0.85406  Biso   1.000  Hf
  O9       1.0000 0.03665  0.34467  0.58252  Biso   1.000  O
  O10      1.0000 0.03467  0.16026  0.83078  Biso   1.000  O
  O11      1.0000 0.46236  0.84241  0.66489  Biso   1.000  O
  O12      1.0000 0.46230  0.66149  0.91798  Biso   1.000  O
  O13      1.0000 0.27595  0.25734  0.74190  Biso   1.000  O
  O14      1.0000 0.27398  0.24265  0.99025  Biso   1.000  O
  O15      1.0000 0.22936  0.76241  0.50938  Biso   1.000  O
  O16      1.0000 0.22131  0.74195  0.76016  Biso   1.000  O
  Hf9      1.0000 0.63600  0.04380  0.14701  Biso   1.000  Hf
  Hf10     1.0000 0.65254  0.44756  0.39813  Biso   1.000  Hf
  Hf11     1.0000 0.85789  0.54423  0.10410  Biso   1.000  Hf
  Hf12     1.0000 0.86119  0.95235  0.35367  Biso   1.000  Hf
  O17      1.0000 0.53234  0.33984  0.08147  Biso   1.000  O
  O18      1.0000 0.53104  0.16657  0.33310  Biso   1.000  O
  O19      1.0000 0.96237  0.83870  0.16946  Biso   1.000  O
  O20      1.0000 0.96203  0.65892  0.42086  Biso   1.000  O
  O21      1.0000 0.77666  0.25384  0.24165  Biso   1.000  O
  O22      1.0000 0.78178  0.23706  0.49361  Biso   1.000  O
  O23      1.0000 0.71979  0.75907  0.01047  Biso   1.000  O
  O24      1.0000 0.72007  0.73953  0.26052  Biso   1.000  O
  Hf13     1.0000 0.63810  0.04404  0.64722  Biso   1.000  Hf
  Hf14     1.0000 0.63712  0.45738  0.89722  Biso   1.000  Hf
  Hf15     1.0000 0.86040  0.54470  0.60698  Biso   1.000  Hf
  Hf16     1.0000 0.85889  0.95860  0.85527  Biso   1.000  Hf
  O25      1.0000 0.53716  0.34273  0.57945  Biso   1.000  O
  O26      1.0000 0.53353  0.16136  0.83010  Biso   1.000  O
  O27      1.0000 0.96345  0.84275  0.66986  Biso   1.000  O
  O28      1.0000 0.96096  0.66072  0.91987  Biso   1.000  O
  O29      1.0000 0.77568  0.25981  0.74287  Biso   1.000  O
  O30      1.0000 0.77380  0.24234  0.99219  Biso   1.000  O
  O31      1.0000 0.72122  0.75581  0.51056  Biso   1.000  O
  O32      1.0000 0.72163  0.74369  0.76047  Biso   1.000  O
  H1       1.0000 0.43287  0.47934  0.36139  Biso   1.000  H
