data_image0
_cell_length_a       9.98172
_cell_length_b       10.3721
_cell_length_c       5.01064
_cell_angle_alpha    89.7394
_cell_angle_beta     90.1828
_cell_angle_gamma    90.3169

_symmetry_space_group_name_H-M    "P 1"
_symmetry_int_tables_number       1

loop_
  _symmetry_equiv_pos_as_xyz
  'x, y, z'

loop_
  _atom_site_label
  _atom_site_occupancy
  _atom_site_fract_x
  _atom_site_fract_y
  _atom_site_fract_z
  _atom_site_thermal_displace_type
  _atom_site_B_iso_or_equiv
  _atom_site_type_symbol
  Hf1      1.0000 0.13905  0.01224  0.24064  Biso   1.000  Hf
  Hf2      1.0000 0.13960  0.23347  0.77651  Biso   1.000  Hf
  Hf3      1.0000 0.36255  0.26587  0.25207  Biso   1.000  Hf
  Hf4      1.0000 0.36828  0.48450  0.74890  Biso   1.000  Hf
  O1       1.0000 0.02928  0.18883  0.40546  Biso   1.000  O
  O2       1.0000 0.03825  0.06587  0.89385  Biso   1.000  O
  O3       1.0000 0.46296  0.43405  0.38733  Biso   1.000  O
  O4       1.0000 0.46389  0.31561  0.88590  Biso   1.000  O
  O5       1.0000 0.26502  0.11735  0.49665  Biso   1.000  O
  O6       1.0000 0.28694  0.12517  0.98932  Biso   1.000  O
  O7       1.0000 0.23454  0.38608  0.00020  Biso   1.000  O
  O8       1.0000 0.22588  0.36633  0.50144  Biso   1.000  O
  Hf5      1.0000 0.13322  0.51637  0.25242  Biso   1.000  Hf
  Hf6      1.0000 0.13467  0.73353  0.74926  Biso   1.000  Hf
  Hf7      1.0000 0.36772  0.76490  0.24745  Biso   1.000  Hf
  Hf8      1.0000 0.36902  0.98200  0.74347  Biso   1.000  Hf
  O9       1.0000 0.03692  0.68409  0.38767  Biso   1.000  O
  O10      1.0000 0.03667  0.56708  0.88937  Biso   1.000  O
  O11      1.0000 0.46520  0.93410  0.38016  Biso   1.000  O
  O12      1.0000 0.46618  0.81521  0.88614  Biso   1.000  O
  O13      1.0000 0.27053  0.61661  0.49700  Biso   1.000  O
  O14      1.0000 0.27085  0.63262  0.99680  Biso   1.000  O
  O15      1.0000 0.23160  0.88039  0.99350  Biso   1.000  O
  O16      1.0000 0.23301  0.86511  0.49403  Biso   1.000  O
  Hf9      1.0000 0.63491  0.01682  0.24710  Biso   1.000  Hf
  Hf10     1.0000 0.63027  0.23250  0.74791  Biso   1.000  Hf
  Hf11     1.0000 0.85289  0.27185  0.24986  Biso   1.000  Hf
  Hf12     1.0000 0.86751  0.48381  0.75370  Biso   1.000  Hf
  O17      1.0000 0.53560  0.18338  0.38439  Biso   1.000  O
  O18      1.0000 0.54169  0.06235  0.87906  Biso   1.000  O
  O19      1.0000 0.96190  0.43432  0.39267  Biso   1.000  O
  O20      1.0000 0.96575  0.31900  0.90441  Biso   1.000  O
  O21      1.0000 0.77137  0.11983  0.49607  Biso   1.000  O
  O22      1.0000 0.77129  0.13418  0.99517  Biso   1.000  O
  O23      1.0000 0.72716  0.38374  0.99980  Biso   1.000  O
  O24      1.0000 0.72539  0.37103  0.50198  Biso   1.000  O
  Hf13     1.0000 0.63286  0.51904  0.25368  Biso   1.000  Hf
  Hf14     1.0000 0.63687  0.73480  0.75229  Biso   1.000  Hf
  Hf15     1.0000 0.86782  0.76807  0.25227  Biso   1.000  Hf
  Hf16     1.0000 0.86803  0.98544  0.75009  Biso   1.000  Hf
  O25      1.0000 0.53707  0.68460  0.39098  Biso   1.000  O
  O26      1.0000 0.53695  0.56736  0.89049  Biso   1.000  O
  O27      1.0000 0.96811  0.93646  0.39265  Biso   1.000  O
  O28      1.0000 0.96613  0.81727  0.89042  Biso   1.000  O
  O29      1.0000 0.77149  0.61944  0.50172  Biso   1.000  O
  O30      1.0000 0.77179  0.63326  0.00197  Biso   1.000  O
  O31      1.0000 0.73260  0.88293  0.99925  Biso   1.000  O
  O32      1.0000 0.73189  0.86943  0.49843  Biso   1.000  O
  H1       1.0000 0.09609  0.23291  0.27157  Biso   1.000  H
