data_image0
_cell_length_a       4.97532
_cell_length_b       10.1569
_cell_length_c       10.0385
_cell_angle_alpha    90.1207
_cell_angle_beta     90.2202
_cell_angle_gamma    90.2676

_symmetry_space_group_name_H-M    "P 1"
_symmetry_int_tables_number       1

loop_
  _symmetry_equiv_pos_as_xyz
  'x, y, z'

loop_
  _atom_site_label
  _atom_site_occupancy
  _atom_site_fract_x
  _atom_site_fract_y
  _atom_site_fract_z
  _atom_site_thermal_displace_type
  _atom_site_B_iso_or_equiv
  _atom_site_type_symbol
  H1       1.0000 0.15198  0.95438  0.06313  Biso   1.000  H
  Hf1      1.0000 0.24572  0.25041  0.37318  Biso   1.000  Hf
  Hf2      1.0000 0.74419  0.24674  0.12502  Biso   1.000  Hf
  Hf3      1.0000 0.74677  0.99882  0.37036  Biso   1.000  Hf
  O1       1.0000 0.97927  0.14775  0.99109  Biso   1.000  O
  O2       1.0000 0.98725  0.12246  0.25591  Biso   1.000  O
  O3       1.0000 0.99895  0.36425  0.24938  Biso   1.000  O
  O4       1.0000 0.99971  0.39495  0.00003  Biso   1.000  O
  O5       1.0000 0.51084  0.14081  0.25850  Biso   1.000  O
  O6       1.0000 0.50063  0.11983  0.99579  Biso   1.000  O
  O7       1.0000 0.49805  0.36357  0.00114  Biso   1.000  O
  O8       1.0000 0.49769  0.38980  0.25060  Biso   1.000  O
  Hf4      1.0000 0.24968  0.00248  0.62598  Biso   1.000  Hf
  Hf5      1.0000 0.25114  0.25077  0.87744  Biso   1.000  Hf
  Hf6      1.0000 0.75112  0.25023  0.62571  Biso   1.000  Hf
  Hf7      1.0000 0.75121  0.00130  0.88100  Biso   1.000  Hf
  O9       1.0000 0.00277  0.14464  0.50214  Biso   1.000  O
  O10      1.0000 0.00081  0.10774  0.74854  Biso   1.000  O
  O11      1.0000 0.00087  0.35857  0.74976  Biso   1.000  O
  O12      1.0000 0.00523  0.39419  0.49925  Biso   1.000  O
  O13      1.0000 0.50203  0.14577  0.75104  Biso   1.000  O
  O14      1.0000 0.50158  0.10830  0.50288  Biso   1.000  O
  O15      1.0000 0.50518  0.35836  0.50019  Biso   1.000  O
  O16      1.0000 0.50180  0.39583  0.75061  Biso   1.000  O
  Hf8      1.0000 0.25038  0.50135  0.12494  Biso   1.000  Hf
  Hf9      1.0000 0.25398  0.75086  0.37359  Biso   1.000  Hf
  Hf10     1.0000 0.75173  0.75267  0.12755  Biso   1.000  Hf
  Hf11     1.0000 0.75046  0.50103  0.37596  Biso   1.000  Hf
  O17      1.0000 0.00521  0.64678  0.99994  Biso   1.000  O
  O18      1.0000 0.00333  0.60986  0.25067  Biso   1.000  O
  O19      1.0000 0.98358  0.85810  0.26243  Biso   1.000  O
  O20      1.0000 0.03578  0.89833  0.00728  Biso   1.000  O
  O21      1.0000 0.50316  0.63761  0.25073  Biso   1.000  O
  O22      1.0000 0.50330  0.60823  0.00191  Biso   1.000  O
  O23      1.0000 0.55037  0.85137  0.98514  Biso   1.000  O
  O24      1.0000 0.50375  0.87880  0.25459  Biso   1.000  O
  Hf12     1.0000 0.25254  0.50111  0.62580  Biso   1.000  Hf
  Hf13     1.0000 0.26339  0.75319  0.87703  Biso   1.000  Hf
  Hf14     1.0000 0.75443  0.75379  0.62650  Biso   1.000  Hf
  Hf15     1.0000 0.75412  0.50336  0.87509  Biso   1.000  Hf
  O25      1.0000 0.99637  0.64427  0.50045  Biso   1.000  O
  O26      1.0000 0.00704  0.60753  0.74995  Biso   1.000  O
  O27      1.0000 0.99551  0.85645  0.75918  Biso   1.000  O
  O28      1.0000 0.99474  0.89496  0.50712  Biso   1.000  O
  O29      1.0000 0.50758  0.64569  0.75160  Biso   1.000  O
  O30      1.0000 0.49799  0.60798  0.50036  Biso   1.000  O
  O31      1.0000 0.49677  0.85790  0.50212  Biso   1.000  O
  O32      1.0000 0.49839  0.89710  0.74716  Biso   1.000  O
