data_image0
_cell_length_a       9.98236
_cell_length_b       5.16288
_cell_length_c       10.0291
_cell_angle_alpha    89.9209
_cell_angle_beta     89.5097
_cell_angle_gamma    89.838

_symmetry_space_group_name_H-M    "P 1"
_symmetry_int_tables_number       1

loop_
  _symmetry_equiv_pos_as_xyz
  'x, y, z'

loop_
  _atom_site_label
  _atom_site_occupancy
  _atom_site_fract_x
  _atom_site_fract_y
  _atom_site_fract_z
  _atom_site_thermal_displace_type
  _atom_site_B_iso_or_equiv
  _atom_site_type_symbol
  H1       1.0000 0.06788  0.88653  0.18072  Biso   1.000  H
  Hf1      1.0000 0.13667  0.46353  0.37573  Biso   1.000  Hf
  Hf2      1.0000 0.36022  0.53779  0.12949  Biso   1.000  Hf
  Hf3      1.0000 0.35875  0.96911  0.37543  Biso   1.000  Hf
  O1       1.0000 0.02984  0.39304  0.20503  Biso   1.000  O
  O2       1.0000 0.03347  0.13596  0.45227  Biso   1.000  O
  O3       1.0000 0.47081  0.86646  0.19992  Biso   1.000  O
  O4       1.0000 0.46538  0.63698  0.44781  Biso   1.000  O
  O5       1.0000 0.28496  0.25923  0.25904  Biso   1.000  O
  O6       1.0000 0.26906  0.26227  0.50582  Biso   1.000  O
  O7       1.0000 0.22635  0.76666  0.50655  Biso   1.000  O
  O8       1.0000 0.23478  0.73400  0.25876  Biso   1.000  O
  Hf4      1.0000 0.13371  0.03951  0.63614  Biso   1.000  Hf
  Hf5      1.0000 0.14199  0.47488  0.88194  Biso   1.000  Hf
  Hf6      1.0000 0.36647  0.54000  0.62737  Biso   1.000  Hf
  Hf7      1.0000 0.36154  0.97162  0.88339  Biso   1.000  Hf
  O9       1.0000 0.03758  0.38718  0.69189  Biso   1.000  O
  O10      1.0000 0.04942  0.11966  0.87794  Biso   1.000  O
  O11      1.0000 0.46296  0.87383  0.69653  Biso   1.000  O
  O12      1.0000 0.46945  0.63711  0.94532  Biso   1.000  O
  O13      1.0000 0.27752  0.24907  0.75153  Biso   1.000  O
  O14      1.0000 0.27853  0.27217  0.99858  Biso   1.000  O
  O15      1.0000 0.23594  0.75534  0.00260  Biso   1.000  O
  O16      1.0000 0.22960  0.74331  0.75396  Biso   1.000  O
  Hf8      1.0000 0.63578  0.02943  0.12336  Biso   1.000  Hf
  Hf9      1.0000 0.63132  0.47194  0.37035  Biso   1.000  Hf
  Hf10     1.0000 0.86662  0.52697  0.12197  Biso   1.000  Hf
  Hf11     1.0000 0.86779  0.97558  0.37640  Biso   1.000  Hf
  O17      1.0000 0.54112  0.37376  0.18842  Biso   1.000  O
  O18      1.0000 0.53313  0.13806  0.44301  Biso   1.000  O
  O19      1.0000 0.96915  0.87880  0.19172  Biso   1.000  O
  O20      1.0000 0.96377  0.63702  0.44207  Biso   1.000  O
  O21      1.0000 0.76989  0.23019  0.24546  Biso   1.000  O
  O22      1.0000 0.76708  0.27065  0.49334  Biso   1.000  O
  O23      1.0000 0.72825  0.77025  0.49593  Biso   1.000  O
  O24      1.0000 0.73831  0.73539  0.24684  Biso   1.000  O
  Hf12     1.0000 0.62941  0.03596  0.62243  Biso   1.000  Hf
  Hf13     1.0000 0.63585  0.46418  0.87470  Biso   1.000  Hf
  Hf14     1.0000 0.86165  0.53261  0.61914  Biso   1.000  Hf
  Hf15     1.0000 0.86542  0.95997  0.86715  Biso   1.000  Hf
  O25      1.0000 0.53847  0.37506  0.69348  Biso   1.000  O
  O26      1.0000 0.53962  0.13044  0.94354  Biso   1.000  O
  O27      1.0000 0.95645  0.86844  0.67943  Biso   1.000  O
  O28      1.0000 0.96543  0.63162  0.94169  Biso   1.000  O
  O29      1.0000 0.77073  0.23406  0.74368  Biso   1.000  O
  O30      1.0000 0.77967  0.25567  0.99410  Biso   1.000  O
  O31      1.0000 0.72977  0.75850  0.99691  Biso   1.000  O
  O32      1.0000 0.72874  0.73599  0.74700  Biso   1.000  O
