data_image0
_cell_length_a       10.0187
_cell_length_b       10.2071
_cell_length_c       5.00767
_cell_angle_alpha    89.9999
_cell_angle_beta     90
_cell_angle_gamma    89.9999

_symmetry_space_group_name_H-M    "P 1"
_symmetry_int_tables_number       1

loop_
  _symmetry_equiv_pos_as_xyz
  'x, y, z'

loop_
  _atom_site_label
  _atom_site_occupancy
  _atom_site_fract_x
  _atom_site_fract_y
  _atom_site_fract_z
  _atom_site_thermal_displace_type
  _atom_site_B_iso_or_equiv
  _atom_site_type_symbol
  Hf1      1.0000 0.12491  0.99802  0.24982  Biso   1.000  Hf
  Hf2      1.0000 0.12491  0.25006  0.74983  Biso   1.000  Hf
  Hf3      1.0000 0.37050  0.25005  0.24982  Biso   1.000  Hf
  Hf4      1.0000 0.37659  0.99873  0.75218  Biso   1.000  Hf
  O1       1.0000 0.99137  0.14532  0.98069  Biso   1.000  O
  O2       1.0000 0.00211  0.10214  0.49347  Biso   1.000  O
  O3       1.0000 0.99137  0.35479  0.51895  Biso   1.000  O
  O4       1.0000 0.00211  0.39797  0.00617  Biso   1.000  O
  O5       1.0000 0.25845  0.14532  0.51895  Biso   1.000  O
  O6       1.0000 0.24770  0.10214  0.00617  Biso   1.000  O
  O7       1.0000 0.25845  0.35479  0.98069  Biso   1.000  O
  O8       1.0000 0.24771  0.39797  0.49347  Biso   1.000  O
  Hf5      1.0000 0.12491  0.50208  0.24982  Biso   1.000  Hf
  Hf6      1.0000 0.12491  0.75006  0.74981  Biso   1.000  Hf
  Hf7      1.0000 0.37595  0.75005  0.24982  Biso   1.000  Hf
  Hf8      1.0000 0.37659  0.50138  0.74745  Biso   1.000  Hf
  O9       1.0000 0.99723  0.64796  0.99682  Biso   1.000  O
  O10      1.0000 0.00206  0.60260  0.49957  Biso   1.000  O
  O11      1.0000 0.99722  0.85214  0.50281  Biso   1.000  O
  O12      1.0000 0.00205  0.89750  0.00006  Biso   1.000  O
  O13      1.0000 0.25259  0.64796  0.50281  Biso   1.000  O
  O14      1.0000 0.24776  0.60260  0.00006  Biso   1.000  O
  O15      1.0000 0.25259  0.85214  0.99682  Biso   1.000  O
  O16      1.0000 0.24776  0.89750  0.49957  Biso   1.000  O
  Hf9      1.0000 0.62491  0.00307  0.24982  Biso   1.000  Hf
  Hf10     1.0000 0.62491  0.25006  0.74982  Biso   1.000  Hf
  Hf11     1.0000 0.87932  0.25005  0.24982  Biso   1.000  Hf
  Hf12     1.0000 0.87323  0.99873  0.74746  Biso   1.000  Hf
  O17      1.0000 0.49629  0.14836  0.00192  Biso   1.000  O
  O18      1.0000 0.50478  0.10192  0.50662  Biso   1.000  O
  O19      1.0000 0.49629  0.35175  0.49771  Biso   1.000  O
  O20      1.0000 0.50478  0.39818  0.99301  Biso   1.000  O
  O21      1.0000 0.75352  0.14836  0.49771  Biso   1.000  O
  O22      1.0000 0.74503  0.10192  0.99301  Biso   1.000  O
  O23      1.0000 0.75352  0.35175  0.00192  Biso   1.000  O
  O24      1.0000 0.74503  0.39818  0.50662  Biso   1.000  O
  Hf13     1.0000 0.62491  0.49704  0.24982  Biso   1.000  Hf
  Hf14     1.0000 0.62491  0.75006  0.74982  Biso   1.000  Hf
  Hf15     1.0000 0.87387  0.75005  0.24981  Biso   1.000  Hf
  Hf16     1.0000 0.87322  0.50138  0.75218  Biso   1.000  Hf
  O25      1.0000 0.49569  0.64763  0.99015  Biso   1.000  O
  O26      1.0000 0.50234  0.60324  0.49224  Biso   1.000  O
  O27      1.0000 0.49568  0.85248  0.50949  Biso   1.000  O
  O28      1.0000 0.50234  0.89687  0.00739  Biso   1.000  O
  O29      1.0000 0.75413  0.64762  0.50949  Biso   1.000  O
  O30      1.0000 0.74747  0.60324  0.00739  Biso   1.000  O
  O31      1.0000 0.75413  0.85248  0.99015  Biso   1.000  O
  O32      1.0000 0.74748  0.89687  0.49224  Biso   1.000  O
  H1       1.0000 0.12491  0.25005  0.24981  Biso   1.000  H
