data_image0
_cell_length_a       10.0326
_cell_length_b       5.03388
_cell_length_c       10.0326
_cell_angle_alpha    90.3378
_cell_angle_beta     90.1822
_cell_angle_gamma    90.3381

_symmetry_space_group_name_H-M    "P 1"
_symmetry_int_tables_number       1

loop_
  _symmetry_equiv_pos_as_xyz
  'x, y, z'

loop_
  _atom_site_label
  _atom_site_occupancy
  _atom_site_fract_x
  _atom_site_fract_y
  _atom_site_fract_z
  _atom_site_thermal_displace_type
  _atom_site_B_iso_or_equiv
  _atom_site_type_symbol
  H1       1.0000 0.06626  0.92179  0.06624  Biso   1.000  H
  Hf1      1.0000 0.12571  0.49213  0.36894  Biso   1.000  Hf
  Hf2      1.0000 0.36896  0.49213  0.12569  Biso   1.000  Hf
  Hf3      1.0000 0.37234  0.99289  0.37232  Biso   1.000  Hf
  O1       1.0000 0.98392  0.31650  0.98390  Biso   1.000  O
  O2       1.0000 0.99623  0.23545  0.25280  Biso   1.000  O
  O3       1.0000 0.99137  0.71700  0.26321  Biso   1.000  O
  O4       1.0000 0.00973  0.80710  0.00972  Biso   1.000  O
  O5       1.0000 0.25784  0.26881  0.25782  Biso   1.000  O
  O6       1.0000 0.25282  0.23545  0.99622  Biso   1.000  O
  O7       1.0000 0.26322  0.71701  0.99135  Biso   1.000  O
  O8       1.0000 0.25528  0.74795  0.25526  Biso   1.000  O
  Hf4      1.0000 0.12668  0.00048  0.62665  Biso   1.000  Hf
  Hf5      1.0000 0.12727  0.50213  0.87863  Biso   1.000  Hf
  Hf6      1.0000 0.37586  0.49961  0.62532  Biso   1.000  Hf
  Hf7      1.0000 0.37550  0.00254  0.87903  Biso   1.000  Hf
  O9       1.0000 0.99972  0.28295  0.50023  Biso   1.000  O
  O10      1.0000 0.00252  0.21857  0.74517  Biso   1.000  O
  O11      1.0000 0.99715  0.72034  0.75929  Biso   1.000  O
  O12      1.0000 0.99949  0.78382  0.50761  Biso   1.000  O
  O13      1.0000 0.25232  0.28430  0.75138  Biso   1.000  O
  O14      1.0000 0.25026  0.21658  0.50241  Biso   1.000  O
  O15      1.0000 0.25049  0.71737  0.50066  Biso   1.000  O
  O16      1.0000 0.25060  0.78456  0.74727  Biso   1.000  O
  Hf8      1.0000 0.62666  0.00048  0.12666  Biso   1.000  Hf
  Hf9      1.0000 0.62533  0.49961  0.37584  Biso   1.000  Hf
  Hf10     1.0000 0.87866  0.50213  0.12725  Biso   1.000  Hf
  Hf11     1.0000 0.87905  0.00254  0.37548  Biso   1.000  Hf
  O17      1.0000 0.50026  0.28294  0.99969  Biso   1.000  O
  O18      1.0000 0.50242  0.21658  0.25023  Biso   1.000  O
  O19      1.0000 0.50068  0.71737  0.25048  Biso   1.000  O
  O20      1.0000 0.50762  0.78382  0.99948  Biso   1.000  O
  O21      1.0000 0.75140  0.28430  0.25230  Biso   1.000  O
  O22      1.0000 0.74519  0.21857  0.00251  Biso   1.000  O
  O23      1.0000 0.75930  0.72034  0.99712  Biso   1.000  O
  O24      1.0000 0.74729  0.78455  0.25057  Biso   1.000  O
  Hf12     1.0000 0.62528  0.00146  0.62526  Biso   1.000  Hf
  Hf13     1.0000 0.62674  0.50476  0.87723  Biso   1.000  Hf
  Hf14     1.0000 0.87725  0.50476  0.62672  Biso   1.000  Hf
  Hf15     1.0000 0.87645  0.01334  0.87643  Biso   1.000  Hf
  O25      1.0000 0.49944  0.28314  0.49941  Biso   1.000  O
  O26      1.0000 0.50269  0.21691  0.74964  Biso   1.000  O
  O27      1.0000 0.49999  0.71549  0.75142  Biso   1.000  O
  O28      1.0000 0.50099  0.78206  0.50099  Biso   1.000  O
  O29      1.0000 0.75452  0.29151  0.75451  Biso   1.000  O
  O30      1.0000 0.74967  0.21691  0.50268  Biso   1.000  O
  O31      1.0000 0.75143  0.71549  0.49997  Biso   1.000  O
  O32      1.0000 0.74904  0.79245  0.74901  Biso   1.000  O
