data_image0
_cell_length_a       10.1152
_cell_length_b       10.1063
_cell_length_c       5.00886
_cell_angle_alpha    89.7332
_cell_angle_beta     90.2727
_cell_angle_gamma    89.9061

_symmetry_space_group_name_H-M    "P 1"
_symmetry_int_tables_number       1

loop_
  _symmetry_equiv_pos_as_xyz
  'x, y, z'

loop_
  _atom_site_label
  _atom_site_occupancy
  _atom_site_fract_x
  _atom_site_fract_y
  _atom_site_fract_z
  _atom_site_thermal_displace_type
  _atom_site_B_iso_or_equiv
  _atom_site_type_symbol
  H1       1.0000 0.18050  0.94352  0.34335  Biso   1.000  H
  Zr1      1.0000 0.12641  0.24562  0.75450  Biso   1.000  Zr
  Zr2      1.0000 0.37267  0.24997  0.24673  Biso   1.000  Zr
  Zr3      1.0000 0.37196  0.00145  0.74914  Biso   1.000  Zr
  O1       1.0000 0.98967  0.13548  0.98370  Biso   1.000  O
  O2       1.0000 0.99880  0.12749  0.50469  Biso   1.000  O
  O3       1.0000 0.99236  0.37203  0.51537  Biso   1.000  O
  O4       1.0000 0.00646  0.38060  0.01413  Biso   1.000  O
  O5       1.0000 0.26252  0.14003  0.52461  Biso   1.000  O
  O6       1.0000 0.25078  0.12524  0.00587  Biso   1.000  O
  O7       1.0000 0.25777  0.37137  0.98452  Biso   1.000  O
  O8       1.0000 0.24334  0.38452  0.48667  Biso   1.000  O
  Zr4      1.0000 0.12427  0.50149  0.24998  Biso   1.000  Zr
  Zr5      1.0000 0.12422  0.75372  0.74931  Biso   1.000  Zr
  Zr6      1.0000 0.37412  0.75143  0.23827  Biso   1.000  Zr
  Zr7      1.0000 0.37402  0.50212  0.74546  Biso   1.000  Zr
  O9       1.0000 0.99086  0.63076  0.98307  Biso   1.000  O
  O10      1.0000 0.00728  0.61963  0.48532  Biso   1.000  O
  O11      1.0000 0.98472  0.86361  0.52466  Biso   1.000  O
  O12      1.0000 0.00128  0.87414  0.00580  Biso   1.000  O
  O13      1.0000 0.26025  0.63799  0.51423  Biso   1.000  O
  O14      1.0000 0.24105  0.61735  0.01187  Biso   1.000  O
  O15      1.0000 0.26943  0.85687  0.94623  Biso   1.000  O
  O16      1.0000 0.23648  0.88767  0.45864  Biso   1.000  O
  Zr8      1.0000 0.62408  0.00122  0.24988  Biso   1.000  Zr
  Zr9      1.0000 0.62454  0.25120  0.74960  Biso   1.000  Zr
  Zr10     1.0000 0.87695  0.24868  0.25558  Biso   1.000  Zr
  Zr11     1.0000 0.88012  0.99929  0.75463  Biso   1.000  Zr
  O17      1.0000 0.49409  0.13315  0.98289  Biso   1.000  O
  O18      1.0000 0.50707  0.12001  0.48502  Biso   1.000  O
  O19      1.0000 0.49194  0.36909  0.51610  Biso   1.000  O
  O20      1.0000 0.50665  0.38249  0.01237  Biso   1.000  O
  O21      1.0000 0.75438  0.13184  0.51530  Biso   1.000  O
  O22      1.0000 0.74402  0.12059  0.01407  Biso   1.000  O
  O23      1.0000 0.75746  0.36943  0.98314  Biso   1.000  O
  O24      1.0000 0.74312  0.38091  0.48566  Biso   1.000  O
  Zr12     1.0000 0.62488  0.50074  0.24757  Biso   1.000  Zr
  Zr13     1.0000 0.62335  0.75139  0.74543  Biso   1.000  Zr
  Zr14     1.0000 0.87558  0.75290  0.24672  Biso   1.000  Zr
  Zr15     1.0000 0.87449  0.50105  0.74948  Biso   1.000  Zr
  O25      1.0000 0.48981  0.63428  0.97742  Biso   1.000  O
  O26      1.0000 0.50812  0.61928  0.48060  Biso   1.000  O
  O27      1.0000 0.48664  0.86691  0.51346  Biso   1.000  O
  O28      1.0000 0.50954  0.88276  0.01144  Biso   1.000  O
  O29      1.0000 0.75797  0.63234  0.51552  Biso   1.000  O
  O30      1.0000 0.74125  0.62055  0.01177  Biso   1.000  O
  O31      1.0000 0.75520  0.86922  0.98503  Biso   1.000  O
  O32      1.0000 0.73978  0.88076  0.48696  Biso   1.000  O
