data_image0
_cell_length_a       5.11458
_cell_length_b       10.3525
_cell_length_c       10.5099
_cell_angle_alpha    90.1275
_cell_angle_beta     79.807
_cell_angle_gamma    90.2056

_symmetry_space_group_name_H-M    "P 1"
_symmetry_int_tables_number       1

loop_
  _symmetry_equiv_pos_as_xyz
  'x, y, z'

loop_
  _atom_site_label
  _atom_site_occupancy
  _atom_site_fract_x
  _atom_site_fract_y
  _atom_site_fract_z
  _atom_site_thermal_displace_type
  _atom_site_B_iso_or_equiv
  _atom_site_type_symbol
  Zr1      1.0000 0.27304  0.02331  0.14583  Biso   1.000  Zr
  Zr2      1.0000 0.30348  0.22440  0.39760  Biso   1.000  Zr
  Zr3      1.0000 0.71569  0.27288  0.10212  Biso   1.000  Zr
  Zr4      1.0000 0.70964  0.48672  0.35129  Biso   1.000  Zr
  O1       1.0000 0.06504  0.17161  0.08123  Biso   1.000  O
  O2       1.0000 0.06352  0.08652  0.32996  Biso   1.000  O
  O3       1.0000 0.92070  0.42249  0.16836  Biso   1.000  O
  O4       1.0000 0.91786  0.31502  0.40496  Biso   1.000  O
  O5       1.0000 0.55632  0.12872  0.24150  Biso   1.000  O
  O6       1.0000 0.56906  0.12116  0.49340  Biso   1.000  O
  O7       1.0000 0.44106  0.37993  0.00911  Biso   1.000  O
  O8       1.0000 0.44346  0.37035  0.25978  Biso   1.000  O
  Zr5      1.0000 0.27425  0.02135  0.64674  Biso   1.000  Zr
  Zr6      1.0000 0.27132  0.22924  0.89661  Biso   1.000  Zr
  Zr7      1.0000 0.71834  0.26907  0.61125  Biso   1.000  Zr
  Zr8      1.0000 0.71727  0.48027  0.85417  Biso   1.000  Zr
  O9       1.0000 0.07824  0.17306  0.57967  Biso   1.000  O
  O10      1.0000 0.06700  0.08050  0.83134  Biso   1.000  O
  O11      1.0000 0.92652  0.42181  0.66357  Biso   1.000  O
  O12      1.0000 0.92192  0.33034  0.91698  Biso   1.000  O
  O13      1.0000 0.54876  0.12916  0.74325  Biso   1.000  O
  O14      1.0000 0.54591  0.12202  0.99173  Biso   1.000  O
  O15      1.0000 0.45924  0.37971  0.50864  Biso   1.000  O
  O16      1.0000 0.44388  0.37192  0.75970  Biso   1.000  O
  Zr9      1.0000 0.27089  0.52073  0.14526  Biso   1.000  Zr
  Zr10     1.0000 0.27108  0.73001  0.39770  Biso   1.000  Zr
  Zr11     1.0000 0.71730  0.77251  0.10424  Biso   1.000  Zr
  Zr12     1.0000 0.71888  0.97533  0.35430  Biso   1.000  Zr
  O17      1.0000 0.06692  0.67076  0.08318  Biso   1.000  O
  O18      1.0000 0.06867  0.57409  0.33638  Biso   1.000  O
  O19      1.0000 0.92577  0.92014  0.16963  Biso   1.000  O
  O20      1.0000 0.92520  0.82925  0.41979  Biso   1.000  O
  O21      1.0000 0.54518  0.62887  0.24204  Biso   1.000  O
  O22      1.0000 0.54714  0.62338  0.49122  Biso   1.000  O
  O23      1.0000 0.44393  0.87962  0.01038  Biso   1.000  O
  O24      1.0000 0.44089  0.87187  0.25962  Biso   1.000  O
  Zr13     1.0000 0.27577  0.52257  0.64561  Biso   1.000  Zr
  Zr14     1.0000 0.27356  0.72895  0.89692  Biso   1.000  Zr
  Zr15     1.0000 0.71829  0.77258  0.60674  Biso   1.000  Zr
  Zr16     1.0000 0.71783  0.97853  0.85614  Biso   1.000  Zr
  O25      1.0000 0.06821  0.67202  0.58306  Biso   1.000  O
  O26      1.0000 0.06793  0.57978  0.83075  Biso   1.000  O
  O27      1.0000 0.92427  0.92193  0.66983  Biso   1.000  O
  O28      1.0000 0.92465  0.82995  0.91987  Biso   1.000  O
  O29      1.0000 0.54831  0.62946  0.74111  Biso   1.000  O
  O30      1.0000 0.54822  0.62159  0.99144  Biso   1.000  O
  O31      1.0000 0.44484  0.87835  0.51046  Biso   1.000  O
  O32      1.0000 0.44302  0.87200  0.76060  Biso   1.000  O
  H1       1.0000 0.87437  0.23426  0.35998  Biso   1.000  H
