data_image0
_cell_length_a       10.0709
_cell_length_b       10.1901
_cell_length_c       10.0709
_cell_angle_alpha    89.876
_cell_angle_beta     90.0523
_cell_angle_gamma    89.877

_symmetry_space_group_name_H-M    "P 1"
_symmetry_int_tables_number       1

loop_
  _symmetry_equiv_pos_as_xyz
  'x, y, z'

loop_
  _atom_site_label
  _atom_site_occupancy
  _atom_site_fract_x
  _atom_site_fract_y
  _atom_site_fract_z
  _atom_site_thermal_displace_type
  _atom_site_B_iso_or_equiv
  _atom_site_type_symbol
  H1       1.0000 0.18650  0.95433  0.18620  Biso   1.000  H
  Zr1      1.0000 0.12656  0.24952  0.37328  Biso   1.000  Zr
  Zr2      1.0000 0.37354  0.24952  0.12630  Biso   1.000  Zr
  Zr3      1.0000 0.37574  0.00282  0.37548  Biso   1.000  Zr
  O1       1.0000 0.99303  0.14382  0.99278  Biso   1.000  O
  O2       1.0000 0.99722  0.11724  0.25610  Biso   1.000  O
  O3       1.0000 0.00055  0.36010  0.25150  Biso   1.000  O
  O4       1.0000 0.00234  0.39220  0.00209  Biso   1.000  O
  O5       1.0000 0.26338  0.15052  0.26313  Biso   1.000  O
  O6       1.0000 0.25636  0.11724  0.99697  Biso   1.000  O
  O7       1.0000 0.25175  0.36010  0.00030  Biso   1.000  O
  O8       1.0000 0.25001  0.39756  0.24976  Biso   1.000  O
  Zr4      1.0000 0.12433  0.00089  0.62408  Biso   1.000  Zr
  Zr5      1.0000 0.12667  0.24787  0.87964  Biso   1.000  Zr
  Zr6      1.0000 0.37555  0.25078  0.62578  Biso   1.000  Zr
  Zr7      1.0000 0.37104  0.00019  0.87649  Biso   1.000  Zr
  O9       1.0000 0.00097  0.14575  0.50089  Biso   1.000  O
  O10      1.0000 0.00115  0.10532  0.74854  Biso   1.000  O
  O11      1.0000 0.99918  0.35457  0.75242  Biso   1.000  O
  O12      1.0000 0.00024  0.39630  0.50178  Biso   1.000  O
  O13      1.0000 0.25101  0.14505  0.75135  Biso   1.000  O
  O14      1.0000 0.25080  0.10639  0.50473  Biso   1.000  O
  O15      1.0000 0.25167  0.35639  0.50016  Biso   1.000  O
  O16      1.0000 0.24998  0.39500  0.75055  Biso   1.000  O
  Zr8      1.0000 0.12607  0.50114  0.12581  Biso   1.000  Zr
  Zr9      1.0000 0.12230  0.75167  0.37408  Biso   1.000  Zr
  Zr10     1.0000 0.37434  0.75168  0.12203  Biso   1.000  Zr
  Zr11     1.0000 0.37559  0.50203  0.37533  Biso   1.000  Zr
  O17      1.0000 0.99989  0.63950  0.99963  Biso   1.000  O
  O18      1.0000 0.00085  0.60634  0.24961  Biso   1.000  O
  O19      1.0000 0.98700  0.85292  0.25983  Biso   1.000  O
  O20      1.0000 0.99532  0.88093  0.99505  Biso   1.000  O
  O21      1.0000 0.25125  0.64865  0.25099  Biso   1.000  O
  O22      1.0000 0.24987  0.60635  0.00059  Biso   1.000  O
  O23      1.0000 0.26010  0.85293  0.98673  Biso   1.000  O
  O24      1.0000 0.24295  0.89857  0.24268  Biso   1.000  O
  Zr12     1.0000 0.12558  0.50006  0.62582  Biso   1.000  Zr
  Zr13     1.0000 0.12453  0.75092  0.87728  Biso   1.000  Zr
  Zr14     1.0000 0.37493  0.75193  0.62423  Biso   1.000  Zr
  Zr15     1.0000 0.37640  0.50134  0.87404  Biso   1.000  Zr
  O25      1.0000 0.99771  0.64607  0.49877  Biso   1.000  O
  O26      1.0000 0.00058  0.60478  0.74987  Biso   1.000  O
  O27      1.0000 0.00138  0.85567  0.74894  Biso   1.000  O
  O28      1.0000 0.00161  0.89550  0.50217  Biso   1.000  O
  O29      1.0000 0.25180  0.64548  0.75018  Biso   1.000  O
  O30      1.0000 0.24817  0.60573  0.50042  Biso   1.000  O
  O31      1.0000 0.25460  0.85569  0.49106  Biso   1.000  O
  O32      1.0000 0.25181  0.89563  0.74274  Biso   1.000  O
  Zr16     1.0000 0.62433  0.00088  0.12407  Biso   1.000  Zr
  Zr17     1.0000 0.62605  0.25079  0.37528  Biso   1.000  Zr
  Zr18     1.0000 0.87989  0.24787  0.12642  Biso   1.000  Zr
  Zr19     1.0000 0.87675  0.00018  0.37078  Biso   1.000  Zr
  O33      1.0000 0.50114  0.14575  0.00070  Biso   1.000  O
  O34      1.0000 0.50498  0.10639  0.25053  Biso   1.000  O
  O35      1.0000 0.50041  0.35640  0.25142  Biso   1.000  O
  O36      1.0000 0.50203  0.39629  1.00000  Biso   1.000  O
  O37      1.0000 0.75160  0.14505  0.25075  Biso   1.000  O
  O38      1.0000 0.74879  0.10532  0.00089  Biso   1.000  O
  O39      1.0000 0.75267  0.35457  0.99893  Biso   1.000  O
  O40      1.0000 0.75081  0.39500  0.24973  Biso   1.000  O
  Zr20     1.0000 0.62708  0.00110  0.62682  Biso   1.000  Zr
  Zr21     1.0000 0.62594  0.25050  0.87527  Biso   1.000  Zr
  Zr22     1.0000 0.87553  0.25050  0.62568  Biso   1.000  Zr
  Zr23     1.0000 0.87985  0.99951  0.87961  Biso   1.000  Zr
  O41      1.0000 0.49875  0.14633  0.49849  Biso   1.000  O
  O42      1.0000 0.50080  0.10549  0.75009  Biso   1.000  O
  O43      1.0000 0.49951  0.35604  0.75110  Biso   1.000  O
  O44      1.0000 0.50099  0.39604  0.50074  Biso   1.000  O
  O45      1.0000 0.75094  0.14621  0.75069  Biso   1.000  O
  O46      1.0000 0.75036  0.10549  0.50054  Biso   1.000  O
  O47      1.0000 0.75136  0.35604  0.49925  Biso   1.000  O
  O48      1.0000 0.74955  0.39559  0.74930  Biso   1.000  O
  Zr24     1.0000 0.62608  0.50006  0.12533  Biso   1.000  Zr
  Zr25     1.0000 0.62448  0.75193  0.37467  Biso   1.000  Zr
  Zr26     1.0000 0.87754  0.75092  0.12427  Biso   1.000  Zr
  Zr27     1.0000 0.87430  0.50134  0.37614  Biso   1.000  Zr
  O49      1.0000 0.49903  0.64606  0.99745  Biso   1.000  O
  O50      1.0000 0.50068  0.60573  0.24791  Biso   1.000  O
  O51      1.0000 0.49133  0.85570  0.25433  Biso   1.000  O
  O52      1.0000 0.50243  0.89550  0.00134  Biso   1.000  O
  O53      1.0000 0.75044  0.64548  0.25154  Biso   1.000  O
  O54      1.0000 0.75013  0.60478  0.00032  Biso   1.000  O
  O55      1.0000 0.74920  0.85567  0.00111  Biso   1.000  O
  O56      1.0000 0.74300  0.89563  0.25154  Biso   1.000  O
  Zr28     1.0000 0.62504  0.50059  0.62479  Biso   1.000  Zr
  Zr29     1.0000 0.62608  0.75051  0.87422  Biso   1.000  Zr
  Zr30     1.0000 0.87448  0.75051  0.62582  Biso   1.000  Zr
  Zr31     1.0000 0.87563  0.49807  0.87538  Biso   1.000  Zr
  O57      1.0000 0.49788  0.64603  0.49762  Biso   1.000  O
  O58      1.0000 0.50116  0.60578  0.74821  Biso   1.000  O
  O59      1.0000 0.50040  0.85463  0.75091  Biso   1.000  O
  O60      1.0000 0.50250  0.89717  0.50224  Biso   1.000  O
  O61      1.0000 0.75141  0.64479  0.75116  Biso   1.000  O
  O62      1.0000 0.74847  0.60578  0.50090  Biso   1.000  O
  O63      1.0000 0.75117  0.85463  0.50014  Biso   1.000  O
  O64      1.0000 0.75140  0.89505  0.75113  Biso   1.000  O
