data_image0
_cell_length_a       10.0976
_cell_length_b       10.3183
_cell_length_c       10.5086
_cell_angle_alpha    89.9288
_cell_angle_beta     90.1134
_cell_angle_gamma    90.1124

_symmetry_space_group_name_H-M    "P 1"
_symmetry_int_tables_number       1

loop_
  _symmetry_equiv_pos_as_xyz
  'x, y, z'

loop_
  _atom_site_label
  _atom_site_occupancy
  _atom_site_fract_x
  _atom_site_fract_y
  _atom_site_fract_z
  _atom_site_thermal_displace_type
  _atom_site_B_iso_or_equiv
  _atom_site_type_symbol
  Zr1      1.0000 0.13889  0.01984  0.17140  Biso   1.000  Zr
  Zr2      1.0000 0.13833  0.22776  0.42367  Biso   1.000  Zr
  Zr3      1.0000 0.34629  0.27531  0.17503  Biso   1.000  Zr
  Zr4      1.0000 0.36192  0.47878  0.42284  Biso   1.000  Zr
  Zr5      1.0000 0.64483  0.01399  0.07531  Biso   1.000  Zr
  Zr6      1.0000 0.64165  0.23242  0.33408  Biso   1.000  Zr
  Zr7      1.0000 0.86275  0.27058  0.07934  Biso   1.000  Zr
  Zr8      1.0000 0.86212  0.47870  0.32903  Biso   1.000  Zr
  O1       1.0000 0.03498  0.16775  0.08654  Biso   1.000  O
  O2       1.0000 0.03341  0.08276  0.33489  Biso   1.000  O
  O3       1.0000 0.46966  0.40988  0.08324  Biso   1.000  O
  O4       1.0000 0.46449  0.33151  0.33372  Biso   1.000  O
  O5       1.0000 0.27689  0.12447  0.29538  Biso   1.000  O
  O6       1.0000 0.27663  0.12711  0.04644  Biso   1.000  O
  O7       1.0000 0.21938  0.37557  0.29888  Biso   1.000  O
  O8       1.0000 0.22130  0.37812  0.04693  Biso   1.000  O
  O9       1.0000 0.53837  0.18340  0.14961  Biso   1.000  O
  O10      1.0000 0.53527  0.08157  0.40792  Biso   1.000  O
  O11      1.0000 0.96643  0.41747  0.16603  Biso   1.000  O
  O12      1.0000 0.96670  0.33287  0.41662  Biso   1.000  O
  O13      1.0000 0.77724  0.12452  0.45555  Biso   1.000  O
  O14      1.0000 0.77036  0.12425  0.20505  Biso   1.000  O
  O15      1.0000 0.72406  0.37394  0.45596  Biso   1.000  O
  O16      1.0000 0.72245  0.37450  0.20487  Biso   1.000  O
  Zr9      1.0000 0.14105  0.02029  0.67162  Biso   1.000  Zr
  Zr10     1.0000 0.13932  0.22839  0.92116  Biso   1.000  Zr
  Zr11     1.0000 0.36251  0.27065  0.67172  Biso   1.000  Zr
  Zr12     1.0000 0.36228  0.47774  0.92144  Biso   1.000  Zr
  Zr13     1.0000 0.64040  0.01995  0.57795  Biso   1.000  Zr
  Zr14     1.0000 0.64115  0.22765  0.82656  Biso   1.000  Zr
  Zr15     1.0000 0.86300  0.27100  0.58042  Biso   1.000  Zr
  Zr16     1.0000 0.86228  0.47839  0.82960  Biso   1.000  Zr
  O17      1.0000 0.03466  0.16655  0.58642  Biso   1.000  O
  O18      1.0000 0.03496  0.08291  0.83490  Biso   1.000  O
  O19      1.0000 0.46794  0.41670  0.58514  Biso   1.000  O
  O20      1.0000 0.46858  0.33214  0.83450  Biso   1.000  O
  O21      1.0000 0.27790  0.12387  0.79601  Biso   1.000  O
  O22      1.0000 0.27756  0.12493  0.54569  Biso   1.000  O
  O23      1.0000 0.22549  0.37390  0.79670  Biso   1.000  O
  O24      1.0000 0.22511  0.37519  0.54714  Biso   1.000  O
  O25      1.0000 0.53533  0.16702  0.66214  Biso   1.000  O
  O26      1.0000 0.53645  0.08150  0.91437  Biso   1.000  O
  O27      1.0000 0.96806  0.41653  0.66671  Biso   1.000  O
  O28      1.0000 0.96681  0.33242  0.91622  Biso   1.000  O
  O29      1.0000 0.77875  0.12274  0.95455  Biso   1.000  O
  O30      1.0000 0.77763  0.12485  0.70411  Biso   1.000  O
  O31      1.0000 0.72302  0.37198  0.95547  Biso   1.000  O
  O32      1.0000 0.72555  0.37566  0.70480  Biso   1.000  O
  Zr17     1.0000 0.13814  0.52381  0.17225  Biso   1.000  Zr
  Zr18     1.0000 0.13958  0.72907  0.42243  Biso   1.000  Zr
  Zr19     1.0000 0.36215  0.77075  0.17238  Biso   1.000  Zr
  Zr20     1.0000 0.36195  0.97818  0.42131  Biso   1.000  Zr
  Zr21     1.0000 0.64069  0.52213  0.07827  Biso   1.000  Zr
  Zr22     1.0000 0.63945  0.72784  0.32925  Biso   1.000  Zr
  Zr23     1.0000 0.86315  0.76963  0.07902  Biso   1.000  Zr
  Zr24     1.0000 0.86137  0.97888  0.32902  Biso   1.000  Zr
  O33      1.0000 0.03491  0.66833  0.08539  Biso   1.000  O
  O34      1.0000 0.03301  0.58427  0.33548  Biso   1.000  O
  O35      1.0000 0.46770  0.92262  0.09020  Biso   1.000  O
  O36      1.0000 0.46692  0.83092  0.33641  Biso   1.000  O
  O37      1.0000 0.27616  0.62480  0.29642  Biso   1.000  O
  O38      1.0000 0.27764  0.62551  0.04551  Biso   1.000  O
  O39      1.0000 0.22482  0.87461  0.29583  Biso   1.000  O
  O40      1.0000 0.22635  0.87570  0.04608  Biso   1.000  O
  O41      1.0000 0.53333  0.66605  0.16489  Biso   1.000  O
  O42      1.0000 0.53460  0.58174  0.41528  Biso   1.000  O
  O43      1.0000 0.96580  0.91807  0.16432  Biso   1.000  O
  O44      1.0000 0.96721  0.83325  0.41515  Biso   1.000  O
  O45      1.0000 0.77674  0.62382  0.45503  Biso   1.000  O
  O46      1.0000 0.77675  0.62485  0.20478  Biso   1.000  O
  O47      1.0000 0.72469  0.87396  0.45425  Biso   1.000  O
  O48      1.0000 0.72513  0.87323  0.20442  Biso   1.000  O
  Zr25     1.0000 0.14027  0.52084  0.67223  Biso   1.000  Zr
  Zr26     1.0000 0.14084  0.72897  0.92101  Biso   1.000  Zr
  Zr27     1.0000 0.36203  0.77114  0.67212  Biso   1.000  Zr
  Zr28     1.0000 0.36256  0.98016  0.92215  Biso   1.000  Zr
  Zr29     1.0000 0.63995  0.52135  0.57961  Biso   1.000  Zr
  Zr30     1.0000 0.63934  0.72798  0.82792  Biso   1.000  Zr
  Zr31     1.0000 0.86241  0.77063  0.57874  Biso   1.000  Zr
  Zr32     1.0000 0.86365  0.97837  0.82780  Biso   1.000  Zr
  O49      1.0000 0.03441  0.66655  0.58560  Biso   1.000  O
  O50      1.0000 0.03498  0.58259  0.83619  Biso   1.000  O
  O51      1.0000 0.46778  0.91743  0.58456  Biso   1.000  O
  O52      1.0000 0.46766  0.83298  0.83692  Biso   1.000  O
  O53      1.0000 0.27758  0.62404  0.79582  Biso   1.000  O
  O54      1.0000 0.27714  0.62556  0.54614  Biso   1.000  O
  O55      1.0000 0.22549  0.87427  0.79613  Biso   1.000  O
  O56      1.0000 0.22518  0.87518  0.54619  Biso   1.000  O
  O57      1.0000 0.53414  0.66712  0.66533  Biso   1.000  O
  O58      1.0000 0.53421  0.58216  0.91525  Biso   1.000  O
  O59      1.0000 0.96827  0.91651  0.66507  Biso   1.000  O
  O60      1.0000 0.96773  0.83238  0.91511  Biso   1.000  O
  O61      1.0000 0.77697  0.62383  0.95439  Biso   1.000  O
  O62      1.0000 0.77705  0.62541  0.70504  Biso   1.000  O
  O63      1.0000 0.72547  0.87344  0.95468  Biso   1.000  O
  O64      1.0000 0.72503  0.87547  0.70440  Biso   1.000  O
  H1       1.0000 0.56013  0.26381  0.09987  Biso   1.000  H
