data_image0
_cell_length_a       5.03568
_cell_length_b       10.2223
_cell_length_c       10.0719
_cell_angle_alpha    89.9999
_cell_angle_beta     90
_cell_angle_gamma    89.9999

_symmetry_space_group_name_H-M    "P 1"
_symmetry_int_tables_number       1

loop_
  _symmetry_equiv_pos_as_xyz
  'x, y, z'

loop_
  _atom_site_label
  _atom_site_occupancy
  _atom_site_fract_x
  _atom_site_fract_y
  _atom_site_fract_z
  _atom_site_thermal_displace_type
  _atom_site_B_iso_or_equiv
  _atom_site_type_symbol
  Zr1      1.0000 0.25080  0.99963  0.12539  Biso   1.000  Zr
  Zr2      1.0000 0.25079  0.25007  0.37248  Biso   1.000  Zr
  Zr3      1.0000 0.75079  0.25008  0.12540  Biso   1.000  Zr
  Zr4      1.0000 0.75184  0.99873  0.37702  Biso   1.000  Zr
  O1       1.0000 0.98355  0.14398  0.99304  Biso   1.000  O
  O2       1.0000 0.00653  0.10344  0.24912  Biso   1.000  O
  O3       1.0000 0.98356  0.35617  0.25775  Biso   1.000  O
  O4       1.0000 0.00653  0.39671  0.00167  Biso   1.000  O
  O5       1.0000 0.51803  0.14398  0.25775  Biso   1.000  O
  O6       1.0000 0.49506  0.10344  0.00167  Biso   1.000  O
  O7       1.0000 0.51803  0.35617  0.99304  Biso   1.000  O
  O8       1.0000 0.49505  0.39671  0.24912  Biso   1.000  O
  Zr5      1.0000 0.25079  0.00182  0.62540  Biso   1.000  Zr
  Zr6      1.0000 0.25079  0.25007  0.87831  Biso   1.000  Zr
  Zr7      1.0000 0.75079  0.25008  0.62539  Biso   1.000  Zr
  Zr8      1.0000 0.74975  0.99873  0.87377  Biso   1.000  Zr
  O9       1.0000 0.99919  0.14645  0.49707  Biso   1.000  O
  O10      1.0000 0.99938  0.10393  0.74700  Biso   1.000  O
  O11      1.0000 0.99918  0.35370  0.75373  Biso   1.000  O
  O12      1.0000 0.99939  0.39622  0.50379  Biso   1.000  O
  O13      1.0000 0.50240  0.14645  0.75373  Biso   1.000  O
  O14      1.0000 0.50219  0.10393  0.50380  Biso   1.000  O
  O15      1.0000 0.50240  0.35370  0.49706  Biso   1.000  O
  O16      1.0000 0.50220  0.39622  0.74700  Biso   1.000  O
  Zr9      1.0000 0.25079  0.50052  0.12540  Biso   1.000  Zr
  Zr10     1.0000 0.25079  0.75008  0.37546  Biso   1.000  Zr
  Zr11     1.0000 0.75079  0.75007  0.12540  Biso   1.000  Zr
  Zr12     1.0000 0.74975  0.50142  0.37702  Biso   1.000  Zr
  O17      1.0000 0.99557  0.64632  0.99742  Biso   1.000  O
  O18      1.0000 0.00375  0.60420  0.24843  Biso   1.000  O
  O19      1.0000 0.99556  0.85384  0.25338  Biso   1.000  O
  O20      1.0000 0.00375  0.89595  0.00237  Biso   1.000  O
  O21      1.0000 0.50602  0.64631  0.25338  Biso   1.000  O
  O22      1.0000 0.49783  0.60420  0.00237  Biso   1.000  O
  O23      1.0000 0.50602  0.85383  0.99741  Biso   1.000  O
  O24      1.0000 0.49784  0.89595  0.24843  Biso   1.000  O
  Zr13     1.0000 0.25079  0.49833  0.62540  Biso   1.000  Zr
  Zr14     1.0000 0.25079  0.75008  0.87533  Biso   1.000  Zr
  Zr15     1.0000 0.75079  0.75007  0.62540  Biso   1.000  Zr
  Zr16     1.0000 0.75184  0.50143  0.87377  Biso   1.000  Zr
  O25      1.0000 0.99331  0.64601  0.49677  Biso   1.000  O
  O26      1.0000 0.00620  0.60484  0.74787  Biso   1.000  O
  O27      1.0000 0.99330  0.85413  0.75402  Biso   1.000  O
  O28      1.0000 0.00619  0.89531  0.50292  Biso   1.000  O
  O29      1.0000 0.50828  0.64601  0.75402  Biso   1.000  O
  O30      1.0000 0.49539  0.60484  0.50291  Biso   1.000  O
  O31      1.0000 0.50828  0.85414  0.49677  Biso   1.000  O
  O32      1.0000 0.49539  0.89531  0.74787  Biso   1.000  O
  H1       1.0000 0.25079  0.25008  0.12540  Biso   1.000  H
