data_image0
_cell_length_a       10.0719
_cell_length_b       10.2224
_cell_length_c       5.03565
_cell_angle_alpha    90
_cell_angle_beta     90.0001
_cell_angle_gamma    90

_symmetry_space_group_name_H-M    "P 1"
_symmetry_int_tables_number       1

loop_
  _symmetry_equiv_pos_as_xyz
  'x, y, z'

loop_
  _atom_site_label
  _atom_site_occupancy
  _atom_site_fract_x
  _atom_site_fract_y
  _atom_site_fract_z
  _atom_site_thermal_displace_type
  _atom_site_B_iso_or_equiv
  _atom_site_type_symbol
  Zr1      1.0000 0.12539  0.99963  0.25079  Biso   1.000  Zr
  Zr2      1.0000 0.12540  0.25007  0.75079  Biso   1.000  Zr
  Zr3      1.0000 0.37246  0.25008  0.25079  Biso   1.000  Zr
  Zr4      1.0000 0.37703  0.99872  0.75185  Biso   1.000  Zr
  O1       1.0000 0.99303  0.14397  0.98358  Biso   1.000  O
  O2       1.0000 0.00170  0.10345  0.49511  Biso   1.000  O
  O3       1.0000 0.99303  0.35618  0.51800  Biso   1.000  O
  O4       1.0000 0.00170  0.39670  0.00648  Biso   1.000  O
  O5       1.0000 0.25777  0.14397  0.51800  Biso   1.000  O
  O6       1.0000 0.24909  0.10345  0.00648  Biso   1.000  O
  O7       1.0000 0.25777  0.35618  0.98358  Biso   1.000  O
  O8       1.0000 0.24909  0.39670  0.49510  Biso   1.000  O
  Zr5      1.0000 0.12539  0.50052  0.25079  Biso   1.000  Zr
  Zr6      1.0000 0.12540  0.75007  0.75079  Biso   1.000  Zr
  Zr7      1.0000 0.37547  0.75008  0.25079  Biso   1.000  Zr
  Zr8      1.0000 0.37703  0.50143  0.74974  Biso   1.000  Zr
  O9       1.0000 0.99741  0.64632  0.99563  Biso   1.000  O
  O10      1.0000 0.00239  0.60419  0.49791  Biso   1.000  O
  O11      1.0000 0.99741  0.85383  0.50596  Biso   1.000  O
  O12      1.0000 0.00238  0.89596  0.00367  Biso   1.000  O
  O13      1.0000 0.25338  0.64632  0.50595  Biso   1.000  O
  O14      1.0000 0.24841  0.60419  0.00368  Biso   1.000  O
  O15      1.0000 0.25338  0.85383  0.99563  Biso   1.000  O
  O16      1.0000 0.24841  0.89596  0.49791  Biso   1.000  O
  Zr9      1.0000 0.62540  0.00184  0.25079  Biso   1.000  Zr
  Zr10     1.0000 0.62539  0.25007  0.75079  Biso   1.000  Zr
  Zr11     1.0000 0.87834  0.25008  0.25079  Biso   1.000  Zr
  Zr12     1.0000 0.87376  0.99872  0.74974  Biso   1.000  Zr
  O17      1.0000 0.49706  0.14645  0.99926  Biso   1.000  O
  O18      1.0000 0.50383  0.10392  0.50230  Biso   1.000  O
  O19      1.0000 0.49706  0.35370  0.50233  Biso   1.000  O
  O20      1.0000 0.50383  0.39623  0.99928  Biso   1.000  O
  O21      1.0000 0.75374  0.14645  0.50233  Biso   1.000  O
  O22      1.0000 0.74697  0.10392  0.99928  Biso   1.000  O
  O23      1.0000 0.75374  0.35370  0.99925  Biso   1.000  O
  O24      1.0000 0.74697  0.39623  0.50230  Biso   1.000  O
  Zr13     1.0000 0.62540  0.49831  0.25079  Biso   1.000  Zr
  Zr14     1.0000 0.62539  0.75007  0.75079  Biso   1.000  Zr
  Zr15     1.0000 0.87532  0.75008  0.25079  Biso   1.000  Zr
  Zr16     1.0000 0.87376  0.50143  0.75185  Biso   1.000  Zr
  O25      1.0000 0.49676  0.64601  0.99330  Biso   1.000  O
  O26      1.0000 0.50293  0.60484  0.49539  Biso   1.000  O
  O27      1.0000 0.49676  0.85414  0.50828  Biso   1.000  O
  O28      1.0000 0.50293  0.89531  0.00619  Biso   1.000  O
  O29      1.0000 0.75404  0.64602  0.50829  Biso   1.000  O
  O30      1.0000 0.74786  0.60484  0.00618  Biso   1.000  O
  O31      1.0000 0.75404  0.85413  0.99330  Biso   1.000  O
  O32      1.0000 0.74786  0.89531  0.49540  Biso   1.000  O
  H1       1.0000 0.12540  0.25007  0.25079  Biso   1.000  H
