data_image0
_cell_length_a       10.0772
_cell_length_b       10.4435
_cell_length_c       5.03543
_cell_angle_alpha    89.4453
_cell_angle_beta     89.5512
_cell_angle_gamma    89.1003

_symmetry_space_group_name_H-M    "P 1"
_symmetry_int_tables_number       1

loop_
  _symmetry_equiv_pos_as_xyz
  'x, y, z'

loop_
  _atom_site_label
  _atom_site_occupancy
  _atom_site_fract_x
  _atom_site_fract_y
  _atom_site_fract_z
  _atom_site_thermal_displace_type
  _atom_site_B_iso_or_equiv
  _atom_site_type_symbol
  H1       1.0000 0.05086  0.93927  0.33230  Biso   1.000  H
  Zr1      1.0000 0.15430  0.24844  0.76591  Biso   1.000  Zr
  Zr2      1.0000 0.36996  0.26774  0.25555  Biso   1.000  Zr
  Zr3      1.0000 0.37202  0.49010  0.75279  Biso   1.000  Zr
  O1       1.0000 0.02705  0.17569  0.46034  Biso   1.000  O
  O2       1.0000 0.02843  0.09206  0.68029  Biso   1.000  O
  O3       1.0000 0.46797  0.43619  0.38968  Biso   1.000  O
  O4       1.0000 0.46805  0.31900  0.88247  Biso   1.000  O
  O5       1.0000 0.29201  0.13949  0.52763  Biso   1.000  O
  O6       1.0000 0.27100  0.13786  0.00980  Biso   1.000  O
  O7       1.0000 0.23877  0.39056  0.00659  Biso   1.000  O
  O8       1.0000 0.23333  0.37643  0.50177  Biso   1.000  O
  Zr4      1.0000 0.13524  0.52053  0.25816  Biso   1.000  Zr
  Zr5      1.0000 0.14024  0.73817  0.75903  Biso   1.000  Zr
  Zr6      1.0000 0.36181  0.77334  0.25482  Biso   1.000  Zr
  Zr7      1.0000 0.35537  0.98587  0.75789  Biso   1.000  Zr
  O9       1.0000 0.03573  0.68549  0.39025  Biso   1.000  O
  O10      1.0000 0.03387  0.56901  0.89881  Biso   1.000  O
  O11      1.0000 0.46666  0.93584  0.39740  Biso   1.000  O
  O12      1.0000 0.46774  0.82054  0.89891  Biso   1.000  O
  O13      1.0000 0.26973  0.61990  0.50201  Biso   1.000  O
  O14      1.0000 0.27279  0.63316  0.00451  Biso   1.000  O
  O15      1.0000 0.23024  0.87771  0.00259  Biso   1.000  O
  O16      1.0000 0.23586  0.86642  0.51621  Biso   1.000  O
  Zr8      1.0000 0.62856  0.01452  0.24002  Biso   1.000  Zr
  Zr9      1.0000 0.63301  0.23126  0.74646  Biso   1.000  Zr
  Zr10     1.0000 0.85849  0.26478  0.24965  Biso   1.000  Zr
  Zr11     1.0000 0.87132  0.48108  0.75416  Biso   1.000  Zr
  O17      1.0000 0.54593  0.18950  0.37148  Biso   1.000  O
  O18      1.0000 0.53606  0.06698  0.88152  Biso   1.000  O
  O19      1.0000 0.97141  0.42395  0.40560  Biso   1.000  O
  O20      1.0000 0.97665  0.31433  0.92618  Biso   1.000  O
  O21      1.0000 0.76784  0.11454  0.48428  Biso   1.000  O
  O22      1.0000 0.77726  0.12901  0.98449  Biso   1.000  O
  O23      1.0000 0.73422  0.38033  0.00143  Biso   1.000  O
  O24      1.0000 0.73330  0.36746  0.50315  Biso   1.000  O
  Zr12     1.0000 0.63506  0.51765  0.25469  Biso   1.000  Zr
  Zr13     1.0000 0.63025  0.73435  0.74789  Biso   1.000  Zr
  Zr14     1.0000 0.86632  0.75921  0.23702  Biso   1.000  Zr
  Zr15     1.0000 0.85509  0.97534  0.73176  Biso   1.000  Zr
  O25      1.0000 0.53634  0.68424  0.39139  Biso   1.000  O
  O26      1.0000 0.53941  0.56719  0.89125  Biso   1.000  O
  O27      1.0000 0.95389  0.93199  0.35320  Biso   1.000  O
  O28      1.0000 0.96640  0.82414  0.87545  Biso   1.000  O
  O29      1.0000 0.77345  0.61395  0.49408  Biso   1.000  O
  O30      1.0000 0.77020  0.63106  0.99030  Biso   1.000  O
  O31      1.0000 0.72668  0.87814  0.99276  Biso   1.000  O
  O32      1.0000 0.73344  0.86516  0.49092  Biso   1.000  O
