data_image0
_cell_length_a       10.2576
_cell_length_b       5.16206
_cell_length_c       10.5036
_cell_angle_alpha    89.8131
_cell_angle_beta     79.7128
_cell_angle_gamma    90.0628

_symmetry_space_group_name_H-M    "P 1"
_symmetry_int_tables_number       1

loop_
  _symmetry_equiv_pos_as_xyz
  'x, y, z'

loop_
  _atom_site_label
  _atom_site_occupancy
  _atom_site_fract_x
  _atom_site_fract_y
  _atom_site_fract_z
  _atom_site_thermal_displace_type
  _atom_site_B_iso_or_equiv
  _atom_site_type_symbol
  H1       1.0000 0.06126  0.88478  0.13194  Biso   1.000  H
  Zr1      1.0000 0.14438  0.45793  0.39203  Biso   1.000  Zr
  Zr2      1.0000 0.35316  0.54327  0.10597  Biso   1.000  Zr
  Zr3      1.0000 0.35679  0.95947  0.35065  Biso   1.000  Zr
  O1       1.0000 0.03629  0.36297  0.08140  Biso   1.000  O
  O2       1.0000 0.02862  0.18109  0.34168  Biso   1.000  O
  O3       1.0000 0.47166  0.82583  0.17245  Biso   1.000  O
  O4       1.0000 0.46923  0.67396  0.42353  Biso   1.000  O
  O5       1.0000 0.28731  0.26567  0.24960  Biso   1.000  O
  O6       1.0000 0.27623  0.24533  0.49404  Biso   1.000  O
  O7       1.0000 0.22911  0.75254  0.00384  Biso   1.000  O
  O8       1.0000 0.23266  0.73192  0.26246  Biso   1.000  O
  Zr4      1.0000 0.14192  0.04290  0.64663  Biso   1.000  Zr
  Zr5      1.0000 0.14206  0.45761  0.90193  Biso   1.000  Zr
  Zr6      1.0000 0.36090  0.54554  0.60515  Biso   1.000  Zr
  Zr7      1.0000 0.35736  0.95892  0.85929  Biso   1.000  Zr
  O9       1.0000 0.03300  0.33217  0.57935  Biso   1.000  O
  O10      1.0000 0.03336  0.17006  0.82825  Biso   1.000  O
  O11      1.0000 0.46776  0.83095  0.67421  Biso   1.000  O
  O12      1.0000 0.47277  0.68052  0.92396  Biso   1.000  O
  O13      1.0000 0.27615  0.25671  0.74098  Biso   1.000  O
  O14      1.0000 0.29059  0.26199  0.98175  Biso   1.000  O
  O15      1.0000 0.22558  0.75886  0.51054  Biso   1.000  O
  O16      1.0000 0.22488  0.74458  0.75847  Biso   1.000  O
  Zr8      1.0000 0.63917  0.04296  0.14580  Biso   1.000  Zr
  Zr9      1.0000 0.63944  0.46237  0.39506  Biso   1.000  Zr
  Zr10     1.0000 0.86198  0.53772  0.10222  Biso   1.000  Zr
  Zr11     1.0000 0.86490  0.96711  0.35345  Biso   1.000  Zr
  O17      1.0000 0.53515  0.33318  0.07898  Biso   1.000  O
  O18      1.0000 0.53452  0.16938  0.32935  Biso   1.000  O
  O19      1.0000 0.96645  0.84910  0.16531  Biso   1.000  O
  O20      1.0000 0.96852  0.67409  0.42018  Biso   1.000  O
  O21      1.0000 0.77465  0.25909  0.24076  Biso   1.000  O
  O22      1.0000 0.77484  0.24787  0.49048  Biso   1.000  O
  O23      1.0000 0.72583  0.76044  0.00811  Biso   1.000  O
  O24      1.0000 0.73169  0.74580  0.25791  Biso   1.000  O
  Zr12     1.0000 0.63911  0.04391  0.64614  Biso   1.000  Zr
  Zr13     1.0000 0.63919  0.45991  0.89683  Biso   1.000  Zr
  Zr14     1.0000 0.86097  0.54532  0.60299  Biso   1.000  Zr
  Zr15     1.0000 0.86125  0.95968  0.85387  Biso   1.000  Zr
  O25      1.0000 0.53405  0.33378  0.57911  Biso   1.000  O
  O26      1.0000 0.53522  0.17063  0.82885  Biso   1.000  O
  O27      1.0000 0.96765  0.83361  0.67006  Biso   1.000  O
  O28      1.0000 0.96672  0.66848  0.91723  Biso   1.000  O
  O29      1.0000 0.77610  0.25852  0.73980  Biso   1.000  O
  O30      1.0000 0.77734  0.24590  0.99020  Biso   1.000  O
  O31      1.0000 0.72607  0.76077  0.50897  Biso   1.000  O
  O32      1.0000 0.72620  0.74479  0.75822  Biso   1.000  O
