data_image0
_cell_length_a       10.1837
_cell_length_b       10.3676
_cell_length_c       10.4956
_cell_angle_alpha    90.0678
_cell_angle_beta     80.2221
_cell_angle_gamma    90.1137

_symmetry_space_group_name_H-M    "P 1"
_symmetry_int_tables_number       1

loop_
  _symmetry_equiv_pos_as_xyz
  'x, y, z'

loop_
  _atom_site_label
  _atom_site_occupancy
  _atom_site_fract_x
  _atom_site_fract_y
  _atom_site_fract_z
  _atom_site_thermal_displace_type
  _atom_site_B_iso_or_equiv
  _atom_site_type_symbol
  Zr1      1.0000 0.13862  0.02224  0.14611  Biso   1.000  Zr
  Zr2      1.0000 0.13710  0.22903  0.39586  Biso   1.000  Zr
  Zr3      1.0000 0.35886  0.27276  0.10207  Biso   1.000  Zr
  Zr4      1.0000 0.35509  0.48598  0.35129  Biso   1.000  Zr
  O1       1.0000 0.03495  0.17092  0.08210  Biso   1.000  O
  O2       1.0000 0.03640  0.07893  0.33188  Biso   1.000  O
  O3       1.0000 0.46121  0.42221  0.16792  Biso   1.000  O
  O4       1.0000 0.45891  0.31418  0.40411  Biso   1.000  O
  O5       1.0000 0.27756  0.13140  0.24156  Biso   1.000  O
  O6       1.0000 0.27835  0.12228  0.49065  Biso   1.000  O
  O7       1.0000 0.22161  0.38001  0.00830  Biso   1.000  O
  O8       1.0000 0.22170  0.37173  0.25902  Biso   1.000  O
  Zr5      1.0000 0.13764  0.02140  0.64570  Biso   1.000  Zr
  Zr6      1.0000 0.13689  0.22858  0.89631  Biso   1.000  Zr
  Zr7      1.0000 0.35830  0.26833  0.60935  Biso   1.000  Zr
  Zr8      1.0000 0.35940  0.47968  0.85365  Biso   1.000  Zr
  O9       1.0000 0.03776  0.17299  0.58250  Biso   1.000  O
  O10      1.0000 0.03524  0.07924  0.83166  Biso   1.000  O
  O11      1.0000 0.46241  0.42117  0.66260  Biso   1.000  O
  O12      1.0000 0.46210  0.32975  0.91611  Biso   1.000  O
  O13      1.0000 0.27577  0.12888  0.74191  Biso   1.000  O
  O14      1.0000 0.27481  0.12124  0.99080  Biso   1.000  O
  O15      1.0000 0.22931  0.38073  0.50828  Biso   1.000  O
  O16      1.0000 0.22254  0.37048  0.75949  Biso   1.000  O
  Zr9      1.0000 0.13681  0.52182  0.14432  Biso   1.000  Zr
  Zr10     1.0000 0.13711  0.72975  0.39655  Biso   1.000  Zr
  Zr11     1.0000 0.36054  0.77231  0.10385  Biso   1.000  Zr
  Zr12     1.0000 0.35944  0.97723  0.35442  Biso   1.000  Zr
  O17      1.0000 0.03480  0.67126  0.08178  Biso   1.000  O
  O18      1.0000 0.03625  0.57898  0.33197  Biso   1.000  O
  O19      1.0000 0.46299  0.92130  0.16911  Biso   1.000  O
  O20      1.0000 0.46369  0.82970  0.41836  Biso   1.000  O
  O21      1.0000 0.27554  0.62933  0.24093  Biso   1.000  O
  O22      1.0000 0.27512  0.62344  0.49059  Biso   1.000  O
  O23      1.0000 0.22289  0.87960  0.00963  Biso   1.000  O
  O24      1.0000 0.22255  0.87087  0.25928  Biso   1.000  O
  Zr13     1.0000 0.13888  0.52214  0.64566  Biso   1.000  Zr
  Zr14     1.0000 0.13763  0.72933  0.89596  Biso   1.000  Zr
  Zr15     1.0000 0.36056  0.77249  0.60524  Biso   1.000  Zr
  Zr16     1.0000 0.36012  0.97835  0.85551  Biso   1.000  Zr
  O25      1.0000 0.03536  0.67100  0.58247  Biso   1.000  O
  O26      1.0000 0.03589  0.57938  0.83179  Biso   1.000  O
  O27      1.0000 0.46286  0.92169  0.66911  Biso   1.000  O
  O28      1.0000 0.46334  0.82940  0.91918  Biso   1.000  O
  O29      1.0000 0.27572  0.62964  0.74046  Biso   1.000  O
  O30      1.0000 0.27547  0.62120  0.99063  Biso   1.000  O
  O31      1.0000 0.22305  0.87990  0.50961  Biso   1.000  O
  O32      1.0000 0.22271  0.87144  0.75964  Biso   1.000  O
  Zr17     1.0000 0.63762  0.02284  0.14552  Biso   1.000  Zr
  Zr18     1.0000 0.65381  0.22470  0.39656  Biso   1.000  Zr
  Zr19     1.0000 0.86017  0.27178  0.10414  Biso   1.000  Zr
  Zr20     1.0000 0.86077  0.47976  0.35463  Biso   1.000  Zr
  O33      1.0000 0.53417  0.17160  0.08086  Biso   1.000  O
  O34      1.0000 0.53296  0.08630  0.33028  Biso   1.000  O
  O35      1.0000 0.96240  0.42172  0.16845  Biso   1.000  O
  O36      1.0000 0.96184  0.32893  0.41876  Biso   1.000  O
  O37      1.0000 0.77847  0.12739  0.24159  Biso   1.000  O
  O38      1.0000 0.78154  0.11863  0.49296  Biso   1.000  O
  O39      1.0000 0.72181  0.37939  0.00984  Biso   1.000  O
  O40      1.0000 0.72348  0.36931  0.25994  Biso   1.000  O
  Zr21     1.0000 0.63832  0.02145  0.64656  Biso   1.000  Zr
  Zr22     1.0000 0.63782  0.22931  0.89554  Biso   1.000  Zr
  Zr23     1.0000 0.86152  0.27241  0.60671  Biso   1.000  Zr
  Zr24     1.0000 0.86009  0.47938  0.85524  Biso   1.000  Zr
  O41      1.0000 0.53779  0.17163  0.57904  Biso   1.000  O
  O42      1.0000 0.53499  0.07990  0.83131  Biso   1.000  O
  O43      1.0000 0.96425  0.42140  0.66918  Biso   1.000  O
  O44      1.0000 0.96213  0.32933  0.91893  Biso   1.000  O
  O45      1.0000 0.77561  0.12979  0.74199  Biso   1.000  O
  O46      1.0000 0.77460  0.12134  0.99163  Biso   1.000  O
  O47      1.0000 0.72228  0.37853  0.50929  Biso   1.000  O
  O48      1.0000 0.72306  0.37189  0.75943  Biso   1.000  O
  Zr25     1.0000 0.63771  0.52041  0.14613  Biso   1.000  Zr
  Zr26     1.0000 0.63800  0.72861  0.39650  Biso   1.000  Zr
  Zr27     1.0000 0.85907  0.77182  0.10475  Biso   1.000  Zr
  Zr28     1.0000 0.86180  0.97565  0.35443  Biso   1.000  Zr
  O49      1.0000 0.53531  0.67065  0.08322  Biso   1.000  O
  O50      1.0000 0.53509  0.57350  0.33638  Biso   1.000  O
  O51      1.0000 0.96392  0.91969  0.16912  Biso   1.000  O
  O52      1.0000 0.96282  0.82813  0.41976  Biso   1.000  O
  O53      1.0000 0.77389  0.62912  0.24182  Biso   1.000  O
  O54      1.0000 0.77532  0.62060  0.49146  Biso   1.000  O
  O55      1.0000 0.72204  0.87973  0.00988  Biso   1.000  O
  O56      1.0000 0.72179  0.87131  0.25974  Biso   1.000  O
  Zr29     1.0000 0.63809  0.52193  0.64554  Biso   1.000  Zr
  Zr30     1.0000 0.63828  0.72833  0.89640  Biso   1.000  Zr
  Zr31     1.0000 0.85965  0.77130  0.60617  Biso   1.000  Zr
  Zr32     1.0000 0.85960  0.97889  0.85543  Biso   1.000  Zr
  O57      1.0000 0.53565  0.67214  0.58244  Biso   1.000  O
  O58      1.0000 0.53479  0.57923  0.83070  Biso   1.000  O
  O59      1.0000 0.96255  0.92155  0.66862  Biso   1.000  O
  O60      1.0000 0.96229  0.82947  0.91888  Biso   1.000  O
  O61      1.0000 0.77551  0.62932  0.74171  Biso   1.000  O
  O62      1.0000 0.77523  0.62091  0.99165  Biso   1.000  O
  O63      1.0000 0.72287  0.87825  0.51001  Biso   1.000  O
  O64      1.0000 0.72246  0.87105  0.76017  Biso   1.000  O
  H1       1.0000 0.43425  0.23406  0.36041  Biso   1.000  H
