data_image0
_cell_length_a       5.13313
_cell_length_b       10.3023
_cell_length_c       10.5406
_cell_angle_alpha    89.8133
_cell_angle_beta     79.715
_cell_angle_gamma    90.137

_symmetry_space_group_name_H-M    "P 1"
_symmetry_int_tables_number       1

loop_
  _symmetry_equiv_pos_as_xyz
  'x, y, z'

loop_
  _atom_site_label
  _atom_site_occupancy
  _atom_site_fract_x
  _atom_site_fract_y
  _atom_site_fract_z
  _atom_site_thermal_displace_type
  _atom_site_B_iso_or_equiv
  _atom_site_type_symbol
  H1       1.0000 0.04030  0.00794  0.12347  Biso   1.000  H
  Zr1      1.0000 0.28713  0.22925  0.39408  Biso   1.000  Zr
  Zr2      1.0000 0.71642  0.26367  0.10703  Biso   1.000  Zr
  Zr3      1.0000 0.72332  0.47866  0.35309  Biso   1.000  Zr
  O1       1.0000 0.06213  0.16009  0.07361  Biso   1.000  O
  O2       1.0000 0.05603  0.09159  0.34149  Biso   1.000  O
  O3       1.0000 0.93835  0.40978  0.17481  Biso   1.000  O
  O4       1.0000 0.93892  0.33953  0.42599  Biso   1.000  O
  O5       1.0000 0.57314  0.13705  0.25461  Biso   1.000  O
  O6       1.0000 0.54845  0.12210  0.49555  Biso   1.000  O
  O7       1.0000 0.45220  0.37798  0.01087  Biso   1.000  O
  O8       1.0000 0.44632  0.37442  0.26016  Biso   1.000  O
  Zr4      1.0000 0.28247  0.01869  0.64591  Biso   1.000  Zr
  Zr5      1.0000 0.28219  0.22434  0.90180  Biso   1.000  Zr
  Zr6      1.0000 0.72015  0.27159  0.60564  Biso   1.000  Zr
  Zr7      1.0000 0.72475  0.47741  0.85660  Biso   1.000  Zr
  O9       1.0000 0.06122  0.16074  0.57627  Biso   1.000  O
  O10      1.0000 0.06674  0.08803  0.82367  Biso   1.000  O
  O11      1.0000 0.94215  0.41084  0.67526  Biso   1.000  O
  O12      1.0000 0.94523  0.34037  0.92620  Biso   1.000  O
  O13      1.0000 0.55108  0.12639  0.73995  Biso   1.000  O
  O14      1.0000 0.58116  0.13181  0.97939  Biso   1.000  O
  O15      1.0000 0.45204  0.37841  0.51104  Biso   1.000  O
  O16      1.0000 0.45502  0.37112  0.76096  Biso   1.000  O
  Zr8      1.0000 0.28100  0.52083  0.14476  Biso   1.000  Zr
  Zr9      1.0000 0.28620  0.72903  0.39329  Biso   1.000  Zr
  Zr10     1.0000 0.72250  0.77675  0.10448  Biso   1.000  Zr
  Zr11     1.0000 0.71793  0.98144  0.35251  Biso   1.000  Zr
  O17      1.0000 0.06716  0.66549  0.07756  Biso   1.000  O
  O18      1.0000 0.06490  0.58737  0.32556  Biso   1.000  O
  O19      1.0000 0.93705  0.93037  0.16594  Biso   1.000  O
  O20      1.0000 0.94307  0.83657  0.42174  Biso   1.000  O
  O21      1.0000 0.55326  0.62352  0.23798  Biso   1.000  O
  O22      1.0000 0.55410  0.62166  0.49004  Biso   1.000  O
  O23      1.0000 0.47559  0.86927  0.99796  Biso   1.000  O
  O24      1.0000 0.48533  0.85998  0.26484  Biso   1.000  O
  Zr12     1.0000 0.28290  0.52185  0.64720  Biso   1.000  Zr
  Zr13     1.0000 0.28846  0.73102  0.89727  Biso   1.000  Zr
  Zr14     1.0000 0.72725  0.77141  0.60252  Biso   1.000  Zr
  Zr15     1.0000 0.71788  0.97941  0.85644  Biso   1.000  Zr
  O25      1.0000 0.06838  0.66246  0.57735  Biso   1.000  O
  O26      1.0000 0.06773  0.58670  0.82733  Biso   1.000  O
  O27      1.0000 0.93838  0.91178  0.67470  Biso   1.000  O
  O28      1.0000 0.95540  0.84376  0.92493  Biso   1.000  O
  O29      1.0000 0.55594  0.62812  0.74045  Biso   1.000  O
  O30      1.0000 0.55644  0.62006  0.99120  Biso   1.000  O
  O31      1.0000 0.45328  0.87747  0.51046  Biso   1.000  O
  O32      1.0000 0.45298  0.87190  0.75603  Biso   1.000  O
