data_image0
_cell_length_a       10.2128
_cell_length_b       10.3614
_cell_length_c       5.25699
_cell_angle_alpha    90.1253
_cell_angle_beta     79.8436
_cell_angle_gamma    90.2216

_symmetry_space_group_name_H-M    "P 1"
_symmetry_int_tables_number       1

loop_
  _symmetry_equiv_pos_as_xyz
  'x, y, z'

loop_
  _atom_site_label
  _atom_site_occupancy
  _atom_site_fract_x
  _atom_site_fract_y
  _atom_site_fract_z
  _atom_site_thermal_displace_type
  _atom_site_B_iso_or_equiv
  _atom_site_type_symbol
  Zr1      1.0000 0.13720  0.02250  0.29265  Biso   1.000  Zr
  Zr2      1.0000 0.13501  0.22889  0.79416  Biso   1.000  Zr
  Zr3      1.0000 0.35579  0.26975  0.21424  Biso   1.000  Zr
  Zr4      1.0000 0.35367  0.48684  0.70098  Biso   1.000  Zr
  O1       1.0000 0.03598  0.17279  0.16530  Biso   1.000  O
  O2       1.0000 0.03473  0.07955  0.66292  Biso   1.000  O
  O3       1.0000 0.46040  0.42219  0.32497  Biso   1.000  O
  O4       1.0000 0.45779  0.31507  0.80420  Biso   1.000  O
  O5       1.0000 0.27684  0.13085  0.48547  Biso   1.000  O
  O6       1.0000 0.27712  0.12280  0.98141  Biso   1.000  O
  O7       1.0000 0.22758  0.38152  0.01503  Biso   1.000  O
  O8       1.0000 0.22090  0.37166  0.51909  Biso   1.000  O
  Zr5      1.0000 0.13660  0.52252  0.28949  Biso   1.000  Zr
  Zr6      1.0000 0.13575  0.73045  0.79421  Biso   1.000  Zr
  Zr7      1.0000 0.36009  0.77345  0.20901  Biso   1.000  Zr
  Zr8      1.0000 0.35832  0.97709  0.71032  Biso   1.000  Zr
  O9       1.0000 0.03358  0.67116  0.16500  Biso   1.000  O
  O10      1.0000 0.03573  0.57940  0.66436  Biso   1.000  O
  O11      1.0000 0.46224  0.92196  0.33959  Biso   1.000  O
  O12      1.0000 0.46373  0.83040  0.83874  Biso   1.000  O
  O13      1.0000 0.27485  0.62953  0.48102  Biso   1.000  O
  O14      1.0000 0.27427  0.62410  0.98079  Biso   1.000  O
  O15      1.0000 0.22248  0.87996  0.02006  Biso   1.000  O
  O16      1.0000 0.22140  0.87168  0.51906  Biso   1.000  O
  Zr9      1.0000 0.63698  0.02294  0.29314  Biso   1.000  Zr
  Zr10     1.0000 0.65254  0.22526  0.79414  Biso   1.000  Zr
  Zr11     1.0000 0.86021  0.27293  0.21237  Biso   1.000  Zr
  Zr12     1.0000 0.85991  0.48029  0.71057  Biso   1.000  Zr
  O17      1.0000 0.53532  0.17190  0.15609  Biso   1.000  O
  O18      1.0000 0.53099  0.08745  0.65916  Biso   1.000  O
  O19      1.0000 0.96361  0.42184  0.33953  Biso   1.000  O
  O20      1.0000 0.96056  0.32940  0.83908  Biso   1.000  O
  O21      1.0000 0.77762  0.12758  0.48503  Biso   1.000  O
  O22      1.0000 0.78021  0.11923  0.98807  Biso   1.000  O
  O23      1.0000 0.72019  0.37892  0.01955  Biso   1.000  O
  O24      1.0000 0.72274  0.37081  0.52052  Biso   1.000  O
  Zr13     1.0000 0.63695  0.52089  0.29263  Biso   1.000  Zr
  Zr14     1.0000 0.63717  0.72841  0.79520  Biso   1.000  Zr
  Zr15     1.0000 0.85787  0.77170  0.21264  Biso   1.000  Zr
  Zr16     1.0000 0.86019  0.97614  0.71032  Biso   1.000  Zr
  O25      1.0000 0.53432  0.67172  0.16787  Biso   1.000  O
  O26      1.0000 0.53324  0.57397  0.67060  Biso   1.000  O
  O27      1.0000 0.96277  0.92025  0.33854  Biso   1.000  O
  O28      1.0000 0.96178  0.82876  0.84057  Biso   1.000  O
  O29      1.0000 0.77295  0.62903  0.48546  Biso   1.000  O
  O30      1.0000 0.77400  0.62113  0.98462  Biso   1.000  O
  O31      1.0000 0.72169  0.87848  0.02161  Biso   1.000  O
  O32      1.0000 0.72055  0.87165  0.52118  Biso   1.000  O
  H1       1.0000 0.43492  0.23331  0.71942  Biso   1.000  H
