data_image0
_cell_length_a       10.2123
_cell_length_b       5.18104
_cell_length_c       10.5192
_cell_angle_alpha    90.1441
_cell_angle_beta     79.8493
_cell_angle_gamma    90.22

_symmetry_space_group_name_H-M    "P 1"
_symmetry_int_tables_number       1

loop_
  _symmetry_equiv_pos_as_xyz
  'x, y, z'

loop_
  _atom_site_label
  _atom_site_occupancy
  _atom_site_fract_x
  _atom_site_fract_y
  _atom_site_fract_z
  _atom_site_thermal_displace_type
  _atom_site_B_iso_or_equiv
  _atom_site_type_symbol
  Zr1      1.0000 0.13622  0.04492  0.14510  Biso   1.000  Zr
  Zr2      1.0000 0.13564  0.45872  0.39716  Biso   1.000  Zr
  Zr3      1.0000 0.35787  0.54714  0.10164  Biso   1.000  Zr
  Zr4      1.0000 0.35254  0.96907  0.35092  Biso   1.000  Zr
  O1       1.0000 0.03272  0.34083  0.08126  Biso   1.000  O
  O2       1.0000 0.03527  0.15928  0.33118  Biso   1.000  O
  O3       1.0000 0.46057  0.84274  0.16962  Biso   1.000  O
  O4       1.0000 0.46036  0.63270  0.40577  Biso   1.000  O
  O5       1.0000 0.27616  0.26291  0.24093  Biso   1.000  O
  O6       1.0000 0.27880  0.25156  0.49080  Biso   1.000  O
  O7       1.0000 0.22075  0.75984  0.00833  Biso   1.000  O
  O8       1.0000 0.21935  0.74375  0.25870  Biso   1.000  O
  Zr5      1.0000 0.13799  0.04431  0.64536  Biso   1.000  Zr
  Zr6      1.0000 0.13542  0.45808  0.89674  Biso   1.000  Zr
  Zr7      1.0000 0.35818  0.53852  0.61022  Biso   1.000  Zr
  Zr8      1.0000 0.35872  0.95822  0.85452  Biso   1.000  Zr
  O9       1.0000 0.03651  0.34482  0.58270  Biso   1.000  O
  O10      1.0000 0.03438  0.16022  0.83105  Biso   1.000  O
  O11      1.0000 0.46237  0.84292  0.66434  Biso   1.000  O
  O12      1.0000 0.46234  0.66114  0.91755  Biso   1.000  O
  O13      1.0000 0.27517  0.25732  0.74192  Biso   1.000  O
  O14      1.0000 0.27336  0.24325  0.99030  Biso   1.000  O
  O15      1.0000 0.22962  0.76223  0.50928  Biso   1.000  O
  O16      1.0000 0.22182  0.74246  0.76011  Biso   1.000  O
  Zr9      1.0000 0.63586  0.04397  0.14652  Biso   1.000  Zr
  Zr10     1.0000 0.65276  0.44823  0.39773  Biso   1.000  Zr
  Zr11     1.0000 0.85799  0.54429  0.10461  Biso   1.000  Zr
  Zr12     1.0000 0.86149  0.95271  0.35422  Biso   1.000  Zr
  O17      1.0000 0.53226  0.34082  0.08160  Biso   1.000  O
  O18      1.0000 0.53071  0.16656  0.33313  Biso   1.000  O
  O19      1.0000 0.96272  0.83914  0.16938  Biso   1.000  O
  O20      1.0000 0.96191  0.65742  0.42053  Biso   1.000  O
  O21      1.0000 0.77611  0.25354  0.24190  Biso   1.000  O
  O22      1.0000 0.78117  0.23728  0.49392  Biso   1.000  O
  O23      1.0000 0.72043  0.75900  0.01042  Biso   1.000  O
  O24      1.0000 0.72089  0.73975  0.26047  Biso   1.000  O
  Zr13     1.0000 0.63800  0.04392  0.64680  Biso   1.000  Zr
  Zr14     1.0000 0.63703  0.45776  0.89678  Biso   1.000  Zr
  Zr15     1.0000 0.86048  0.54441  0.60766  Biso   1.000  Zr
  Zr16     1.0000 0.85887  0.95898  0.85587  Biso   1.000  Zr
  O25      1.0000 0.53719  0.34335  0.57958  Biso   1.000  O
  O26      1.0000 0.53324  0.16096  0.83022  Biso   1.000  O
  O27      1.0000 0.96353  0.84337  0.66970  Biso   1.000  O
  O28      1.0000 0.96112  0.66061  0.91976  Biso   1.000  O
  O29      1.0000 0.77487  0.25962  0.74311  Biso   1.000  O
  O30      1.0000 0.77314  0.24289  0.99234  Biso   1.000  O
  O31      1.0000 0.72190  0.75564  0.51055  Biso   1.000  O
  O32      1.0000 0.72228  0.74413  0.76053  Biso   1.000  O
  H1       1.0000 0.43323  0.47490  0.36218  Biso   1.000  H
