data_image0
_cell_length_a       10.0283
_cell_length_b       10.294
_cell_length_c       5.30494
_cell_angle_alpha    89.781
_cell_angle_beta     91.7548
_cell_angle_gamma    91.0312

_symmetry_space_group_name_H-M    "P 1"
_symmetry_int_tables_number       1

loop_
  _symmetry_equiv_pos_as_xyz
  'x, y, z'

loop_
  _atom_site_label
  _atom_site_occupancy
  _atom_site_fract_x
  _atom_site_fract_y
  _atom_site_fract_z
  _atom_site_thermal_displace_type
  _atom_site_B_iso_or_equiv
  _atom_site_type_symbol
  Hf1      1.0000 0.14188  0.02248  0.34968  Biso   1.000  Hf
  Hf2      1.0000 0.13711  0.22849  0.85986  Biso   1.000  Hf
  Hf3      1.0000 0.35052  0.27619  0.38583  Biso   1.000  Hf
  Hf4      1.0000 0.35681  0.48503  0.86461  Biso   1.000  Hf
  Hf5      1.0000 0.65301  0.01458  0.14935  Biso   1.000  Hf
  Hf6      1.0000 0.65728  0.21784  0.61684  Biso   1.000  Hf
  Hf7      1.0000 0.85614  0.26574  0.14217  Biso   1.000  Hf
  Hf8      1.0000 0.86067  0.47683  0.65377  Biso   1.000  Hf
  O1       1.0000 0.03424  0.16149  0.16782  Biso   1.000  O
  O2       1.0000 0.03946  0.08374  0.66637  Biso   1.000  O
  O3       1.0000 0.46113  0.43859  0.20652  Biso   1.000  O
  O4       1.0000 0.47423  0.33230  0.68395  Biso   1.000  O
  O5       1.0000 0.27679  0.12595  0.60924  Biso   1.000  O
  O6       1.0000 0.28233  0.12878  0.10149  Biso   1.000  O
  O7       1.0000 0.21901  0.37786  0.62043  Biso   1.000  O
  O8       1.0000 0.21795  0.37872  0.11587  Biso   1.000  O
  O9       1.0000 0.52273  0.14497  0.35482  Biso   1.000  O
  O10      1.0000 0.53579  0.09140  0.84445  Biso   1.000  O
  O11      1.0000 0.96091  0.41200  0.34185  Biso   1.000  O
  O12      1.0000 0.96600  0.33512  0.83838  Biso   1.000  O
  O13      1.0000 0.79125  0.11479  0.88321  Biso   1.000  O
  O14      1.0000 0.79384  0.11693  0.39887  Biso   1.000  O
  O15      1.0000 0.71641  0.37605  0.89665  Biso   1.000  O
  O16      1.0000 0.71114  0.37045  0.37886  Biso   1.000  O
  Hf9      1.0000 0.13578  0.52018  0.35220  Biso   1.000  Hf
  Hf10     1.0000 0.14065  0.72789  0.84716  Biso   1.000  Hf
  Hf11     1.0000 0.36469  0.77492  0.35147  Biso   1.000  Hf
  Hf12     1.0000 0.36174  0.97664  0.85399  Biso   1.000  Hf
  Hf13     1.0000 0.64047  0.53358  0.15306  Biso   1.000  Hf
  Hf14     1.0000 0.64178  0.73063  0.65588  Biso   1.000  Hf
  Hf15     1.0000 0.86739  0.76823  0.15933  Biso   1.000  Hf
  Hf16     1.0000 0.86975  0.97269  0.65722  Biso   1.000  Hf
  O17      1.0000 0.03528  0.66101  0.16650  Biso   1.000  O
  O18      1.0000 0.03119  0.58454  0.66968  Biso   1.000  O
  O19      1.0000 0.47398  0.91109  0.15859  Biso   1.000  O
  O20      1.0000 0.47393  0.84282  0.66573  Biso   1.000  O
  O21      1.0000 0.27539  0.62630  0.59595  Biso   1.000  O
  O22      1.0000 0.27632  0.62845  0.09512  Biso   1.000  O
  O23      1.0000 0.22760  0.87399  0.59878  Biso   1.000  O
  O24      1.0000 0.22647  0.87753  0.09777  Biso   1.000  O
  O25      1.0000 0.53536  0.67271  0.33815  Biso   1.000  O
  O26      1.0000 0.53025  0.58971  0.83703  Biso   1.000  O
  O27      1.0000 0.97602  0.90896  0.34002  Biso   1.000  O
  O28      1.0000 0.97328  0.83370  0.84387  Biso   1.000  O
  O29      1.0000 0.78061  0.62630  0.90236  Biso   1.000  O
  O30      1.0000 0.77951  0.62467  0.40990  Biso   1.000  O
  O31      1.0000 0.73009  0.87128  0.91379  Biso   1.000  O
  O32      1.0000 0.73283  0.87027  0.41185  Biso   1.000  O
  Hf17     1.0000 0.54186  0.26588  0.04429  Biso   1.000  Hf
