data_image0
_cell_length_a       5.09193
_cell_length_b       10.298
_cell_length_c       10.6256
_cell_angle_alpha    90.0665
_cell_angle_beta     78.5348
_cell_angle_gamma    91.0837

_symmetry_space_group_name_H-M    "P 1"
_symmetry_int_tables_number       1

loop_
  _symmetry_equiv_pos_as_xyz
  'x, y, z'

loop_
  _atom_site_label
  _atom_site_occupancy
  _atom_site_fract_x
  _atom_site_fract_y
  _atom_site_fract_z
  _atom_site_thermal_displace_type
  _atom_site_B_iso_or_equiv
  _atom_site_type_symbol
  Hf1      1.0000 0.28697  0.01644  0.15181  Biso   1.000  Hf
  Hf2      1.0000 0.33178  0.23219  0.40978  Biso   1.000  Hf
  Hf3      1.0000 0.66958  0.27244  0.08988  Biso   1.000  Hf
  Hf4      1.0000 0.70393  0.48145  0.35502  Biso   1.000  Hf
  O1       1.0000 0.04214  0.16714  0.07616  Biso   1.000  O
  O2       1.0000 0.09479  0.07242  0.33995  Biso   1.000  O
  O3       1.0000 0.89271  0.42224  0.16714  Biso   1.000  O
  O4       1.0000 0.96403  0.34665  0.43667  Biso   1.000  O
  O5       1.0000 0.59214  0.12471  0.24494  Biso   1.000  O
  O6       1.0000 0.59098  0.11722  0.49633  Biso   1.000  O
  O7       1.0000 0.41136  0.38607  0.00209  Biso   1.000  O
  O8       1.0000 0.36381  0.35990  0.24617  Biso   1.000  O
  Hf5      1.0000 0.28214  0.02119  0.64830  Biso   1.000  Hf
  Hf6      1.0000 0.25720  0.22942  0.89357  Biso   1.000  Hf
  Hf7      1.0000 0.73861  0.27399  0.60949  Biso   1.000  Hf
  Hf8      1.0000 0.70888  0.48207  0.85475  Biso   1.000  Hf
  O9       1.0000 0.09000  0.17037  0.58619  Biso   1.000  O
  O10      1.0000 0.05912  0.08229  0.82833  Biso   1.000  O
  O11      1.0000 0.93278  0.41875  0.67940  Biso   1.000  O
  O12      1.0000 0.90903  0.33301  0.91762  Biso   1.000  O
  O13      1.0000 0.55029  0.12950  0.74404  Biso   1.000  O
  O14      1.0000 0.52631  0.11967  0.98927  Biso   1.000  O
  O15      1.0000 0.46022  0.38199  0.51806  Biso   1.000  O
  O16      1.0000 0.44303  0.37171  0.75939  Biso   1.000  O
  Hf9      1.0000 0.26207  0.52443  0.14618  Biso   1.000  Hf
  Hf10     1.0000 0.26965  0.72496  0.39964  Biso   1.000  Hf
  Hf11     1.0000 0.71680  0.77157  0.10509  Biso   1.000  Hf
  Hf12     1.0000 0.72483  0.97176  0.35707  Biso   1.000  Hf
  O17      1.0000 0.05631  0.66829  0.07921  Biso   1.000  O
  O18      1.0000 0.05435  0.58283  0.32829  Biso   1.000  O
  O19      1.0000 0.93704  0.91519  0.17525  Biso   1.000  O
  O20      1.0000 0.92962  0.82871  0.42491  Biso   1.000  O
  O21      1.0000 0.54040  0.62625  0.24360  Biso   1.000  O
  O22      1.0000 0.53962  0.62401  0.49434  Biso   1.000  O
  O23      1.0000 0.44622  0.87776  0.01226  Biso   1.000  O
  O24      1.0000 0.44558  0.86717  0.25996  Biso   1.000  O
  Hf13     1.0000 0.27662  0.52424  0.65001  Biso   1.000  Hf
  Hf14     1.0000 0.26874  0.72958  0.89941  Biso   1.000  Hf
  Hf15     1.0000 0.71988  0.77180  0.60554  Biso   1.000  Hf
  Hf16     1.0000 0.71438  0.97716  0.85457  Biso   1.000  Hf
  O25      1.0000 0.05698  0.66363  0.58058  Biso   1.000  O
  O26      1.0000 0.06086  0.58675  0.83075  Biso   1.000  O
  O27      1.0000 0.92982  0.91576  0.67420  Biso   1.000  O
  O28      1.0000 0.92855  0.83641  0.92471  Biso   1.000  O
  O29      1.0000 0.54873  0.62989  0.74379  Biso   1.000  O
  O30      1.0000 0.54391  0.62470  0.99340  Biso   1.000  O
  O31      1.0000 0.44353  0.87750  0.51148  Biso   1.000  O
  O32      1.0000 0.44159  0.87157  0.76174  Biso   1.000  O
  Hf17     1.0000 0.96315  0.24639  0.26437  Biso   1.000  Hf
