data_image0
_cell_length_a       10.1118
_cell_length_b       5.16337
_cell_length_c       10.5446
_cell_angle_alpha    90.1598
_cell_angle_beta     91.131
_cell_angle_gamma    89.4588

_symmetry_space_group_name_H-M    "P 1"
_symmetry_int_tables_number       1

loop_
  _symmetry_equiv_pos_as_xyz
  'x, y, z'

loop_
  _atom_site_label
  _atom_site_occupancy
  _atom_site_fract_x
  _atom_site_fract_y
  _atom_site_fract_z
  _atom_site_thermal_displace_type
  _atom_site_B_iso_or_equiv
  _atom_site_type_symbol
  Hf1      1.0000 0.14112  0.03985  0.17532  Biso   1.000  Hf
  Hf2      1.0000 0.13616  0.45671  0.42497  Biso   1.000  Hf
  Hf3      1.0000 0.35214  0.52876  0.18165  Biso   1.000  Hf
  Hf4      1.0000 0.36119  0.95336  0.42695  Biso   1.000  Hf
  Hf5      1.0000 0.63986  0.02195  0.07911  Biso   1.000  Hf
  Hf6      1.0000 0.63328  0.45095  0.33358  Biso   1.000  Hf
  Hf7      1.0000 0.88191  0.55472  0.07292  Biso   1.000  Hf
  Hf8      1.0000 0.86041  0.96228  0.32626  Biso   1.000  Hf
  O1       1.0000 0.03855  0.31779  0.07773  Biso   1.000  O
  O2       1.0000 0.02651  0.18602  0.32909  Biso   1.000  O
  O3       1.0000 0.46798  0.80708  0.08610  Biso   1.000  O
  O4       1.0000 0.46630  0.67481  0.33182  Biso   1.000  O
  O5       1.0000 0.26943  0.24689  0.30211  Biso   1.000  O
  O6       1.0000 0.27552  0.24049  0.04905  Biso   1.000  O
  O7       1.0000 0.21988  0.74740  0.30175  Biso   1.000  O
  O8       1.0000 0.22496  0.74727  0.04770  Biso   1.000  O
  O9       1.0000 0.51038  0.26818  0.19043  Biso   1.000  O
  O10      1.0000 0.52650  0.17614  0.42862  Biso   1.000  O
  O11      1.0000 0.97164  0.83688  0.17201  Biso   1.000  O
  O12      1.0000 0.96778  0.68377  0.42003  Biso   1.000  O
  O13      1.0000 0.77629  0.24556  0.45209  Biso   1.000  O
  O14      1.0000 0.76135  0.27116  0.19563  Biso   1.000  O
  O15      1.0000 0.72482  0.74993  0.45498  Biso   1.000  O
  O16      1.0000 0.72793  0.74852  0.20555  Biso   1.000  O
  Hf9      1.0000 0.13908  0.04261  0.67337  Biso   1.000  Hf
  Hf10     1.0000 0.14564  0.45693  0.92161  Biso   1.000  Hf
  Hf11     1.0000 0.36262  0.54239  0.67476  Biso   1.000  Hf
  Hf12     1.0000 0.36300  0.95971  0.92510  Biso   1.000  Hf
  Hf13     1.0000 0.63983  0.03864  0.57567  Biso   1.000  Hf
  Hf14     1.0000 0.64570  0.46296  0.81100  Biso   1.000  Hf
  Hf15     1.0000 0.86405  0.54711  0.57562  Biso   1.000  Hf
  Hf16     1.0000 0.86517  0.96710  0.82732  Biso   1.000  Hf
  O17      1.0000 0.03226  0.32635  0.58087  Biso   1.000  O
  O18      1.0000 0.03443  0.17906  0.83046  Biso   1.000  O
  O19      1.0000 0.47250  0.81040  0.58072  Biso   1.000  O
  O20      1.0000 0.47583  0.68983  0.83034  Biso   1.000  O
  O21      1.0000 0.27796  0.24818  0.79796  Biso   1.000  O
  O22      1.0000 0.27438  0.24972  0.54921  Biso   1.000  O
  O23      1.0000 0.22899  0.74874  0.79774  Biso   1.000  O
  O24      1.0000 0.22562  0.75095  0.54941  Biso   1.000  O
  O25      1.0000 0.52715  0.30702  0.67280  Biso   1.000  O
  O26      1.0000 0.52428  0.20429  0.93454  Biso   1.000  O
  O27      1.0000 0.97075  0.82742  0.66944  Biso   1.000  O
  O28      1.0000 0.97832  0.68101  0.91527  Biso   1.000  O
  O29      1.0000 0.76844  0.26806  0.95248  Biso   1.000  O
  O30      1.0000 0.78102  0.24862  0.69717  Biso   1.000  O
  O31      1.0000 0.73504  0.76300  0.95036  Biso   1.000  O
  O32      1.0000 0.73054  0.75375  0.70180  Biso   1.000  O
  Hf17     1.0000 0.61437  0.51031  0.06484  Biso   1.000  Hf
