data_image0
_cell_length_a       10.2153
_cell_length_b       10.2958
_cell_length_c       5.32848
_cell_angle_alpha    90.3381
_cell_angle_beta     78.7738
_cell_angle_gamma    89.7563

_symmetry_space_group_name_H-M    "P 1"
_symmetry_int_tables_number       1

loop_
  _symmetry_equiv_pos_as_xyz
  'x, y, z'

loop_
  _atom_site_label
  _atom_site_occupancy
  _atom_site_fract_x
  _atom_site_fract_y
  _atom_site_fract_z
  _atom_site_thermal_displace_type
  _atom_site_B_iso_or_equiv
  _atom_site_type_symbol
  Hf1      1.0000 0.12829  0.01672  0.30292  Biso   1.000  Hf
  Hf2      1.0000 0.12899  0.22843  0.77629  Biso   1.000  Hf
  Hf3      1.0000 0.34688  0.27904  0.15249  Biso   1.000  Hf
  Hf4      1.0000 0.35606  0.49506  0.69920  Biso   1.000  Hf
  O1       1.0000 0.04087  0.16316  0.14585  Biso   1.000  O
  O2       1.0000 0.02737  0.08279  0.65648  Biso   1.000  O
  O3       1.0000 0.47126  0.41014  0.35420  Biso   1.000  O
  O4       1.0000 0.47632  0.35734  0.84728  Biso   1.000  O
  O5       1.0000 0.27380  0.11974  0.43955  Biso   1.000  O
  O6       1.0000 0.29243  0.13874  0.90267  Biso   1.000  O
  O7       1.0000 0.21187  0.39281  0.99460  Biso   1.000  O
  O8       1.0000 0.23834  0.36235  0.50391  Biso   1.000  O
  Hf5      1.0000 0.13429  0.52533  0.28952  Biso   1.000  Hf
  Hf6      1.0000 0.13127  0.73002  0.79850  Biso   1.000  Hf
  Hf7      1.0000 0.36051  0.77158  0.20883  Biso   1.000  Hf
  Hf8      1.0000 0.36084  0.96341  0.70356  Biso   1.000  Hf
  O9       1.0000 0.02668  0.66205  0.15500  Biso   1.000  O
  O10      1.0000 0.03226  0.58782  0.65386  Biso   1.000  O
  O11      1.0000 0.46801  0.90996  0.35374  Biso   1.000  O
  O12      1.0000 0.46507  0.82958  0.85753  Biso   1.000  O
  O13      1.0000 0.27324  0.62675  0.47559  Biso   1.000  O
  O14      1.0000 0.27117  0.63147  0.98217  Biso   1.000  O
  O15      1.0000 0.22186  0.88498  0.02410  Biso   1.000  O
  O16      1.0000 0.21863  0.86478  0.52158  Biso   1.000  O
  Hf9      1.0000 0.63595  0.02723  0.31394  Biso   1.000  Hf
  Hf10     1.0000 0.64602  0.22983  0.81233  Biso   1.000  Hf
  Hf11     1.0000 0.85993  0.27031  0.22721  Biso   1.000  Hf
  Hf12     1.0000 0.86164  0.47857  0.72083  Biso   1.000  Hf
  O17      1.0000 0.51824  0.16819  0.16983  Biso   1.000  O
  O18      1.0000 0.53884  0.06774  0.69165  Biso   1.000  O
  O19      1.0000 0.97274  0.40856  0.36312  Biso   1.000  O
  O20      1.0000 0.96318  0.33742  0.86271  Biso   1.000  O
  O21      1.0000 0.78485  0.12628  0.50142  Biso   1.000  O
  O22      1.0000 0.77752  0.12096  0.00826  Biso   1.000  O
  O23      1.0000 0.72574  0.37728  0.04022  Biso   1.000  O
  O24      1.0000 0.73209  0.37612  0.53864  Biso   1.000  O
  Hf13     1.0000 0.63915  0.52204  0.30154  Biso   1.000  Hf
  Hf14     1.0000 0.63848  0.72707  0.80190  Biso   1.000  Hf
  Hf15     1.0000 0.85470  0.77295  0.21988  Biso   1.000  Hf
  Hf16     1.0000 0.85183  0.97717  0.72571  Biso   1.000  Hf
  O25      1.0000 0.52986  0.65898  0.15468  Biso   1.000  O
  O26      1.0000 0.53064  0.59327  0.64856  Biso   1.000  O
  O27      1.0000 0.96262  0.90733  0.36867  Biso   1.000  O
  O28      1.0000 0.96384  0.83945  0.86610  Biso   1.000  O
  O29      1.0000 0.77564  0.62850  0.48901  Biso   1.000  O
  O30      1.0000 0.77413  0.62187  0.98911  Biso   1.000  O
  O31      1.0000 0.71935  0.87824  0.03440  Biso   1.000  O
  O32      1.0000 0.72003  0.87135  0.53164  Biso   1.000  O
  Hf17     1.0000 0.42800  0.22919  0.56917  Biso   1.000  Hf
