data_image0
_cell_length_a       10.0852
_cell_length_b       10.2305
_cell_length_c       10.5318
_cell_angle_alpha    90.0524
_cell_angle_beta     90.617
_cell_angle_gamma    89.7192

_symmetry_space_group_name_H-M    "P 1"
_symmetry_int_tables_number       1

loop_
  _symmetry_equiv_pos_as_xyz
  'x, y, z'

loop_
  _atom_site_label
  _atom_site_occupancy
  _atom_site_fract_x
  _atom_site_fract_y
  _atom_site_fract_z
  _atom_site_thermal_displace_type
  _atom_site_B_iso_or_equiv
  _atom_site_type_symbol
  Hf1      1.0000 0.13785  0.01937  0.17323  Biso   1.000  Hf
  Hf2      1.0000 0.13720  0.22867  0.42405  Biso   1.000  Hf
  Hf3      1.0000 0.35464  0.26498  0.17902  Biso   1.000  Hf
  Hf4      1.0000 0.36113  0.47763  0.42472  Biso   1.000  Hf
  Hf5      1.0000 0.63415  0.99900  0.08119  Biso   1.000  Hf
  Hf6      1.0000 0.63259  0.22593  0.33219  Biso   1.000  Hf
  Hf7      1.0000 0.87848  0.27807  0.07263  Biso   1.000  Hf
  Hf8      1.0000 0.86075  0.47923  0.32576  Biso   1.000  Hf
  O1       1.0000 0.03508  0.15808  0.07690  Biso   1.000  O
  O2       1.0000 0.02626  0.09218  0.32771  Biso   1.000  O
  O3       1.0000 0.47128  0.41491  0.09068  Biso   1.000  O
  O4       1.0000 0.46524  0.33600  0.33276  Biso   1.000  O
  O5       1.0000 0.26829  0.12347  0.30061  Biso   1.000  O
  O6       1.0000 0.27356  0.12126  0.04795  Biso   1.000  O
  O7       1.0000 0.22095  0.37510  0.30017  Biso   1.000  O
  O8       1.0000 0.22620  0.37463  0.04670  Biso   1.000  O
  O9       1.0000 0.50835  0.12849  0.18949  Biso   1.000  O
  O10      1.0000 0.52734  0.08944  0.42943  Biso   1.000  O
  O11      1.0000 0.97395  0.41533  0.17299  Biso   1.000  O
  O12      1.0000 0.96894  0.33972  0.41953  Biso   1.000  O
  O13      1.0000 0.77599  0.12235  0.45200  Biso   1.000  O
  O14      1.0000 0.75704  0.13591  0.19390  Biso   1.000  O
  O15      1.0000 0.72458  0.37489  0.45258  Biso   1.000  O
  O16      1.0000 0.72347  0.38173  0.19852  Biso   1.000  O
  Hf9      1.0000 0.13786  0.02095  0.67326  Biso   1.000  Hf
  Hf10     1.0000 0.14455  0.22773  0.92140  Biso   1.000  Hf
  Hf11     1.0000 0.36192  0.27071  0.67378  Biso   1.000  Hf
  Hf12     1.0000 0.36280  0.47913  0.92388  Biso   1.000  Hf
  Hf13     1.0000 0.63916  0.01836  0.57719  Biso   1.000  Hf
  Hf14     1.0000 0.64476  0.23016  0.81183  Biso   1.000  Hf
  Hf15     1.0000 0.86329  0.27237  0.57415  Biso   1.000  Hf
  Hf16     1.0000 0.86463  0.48069  0.82592  Biso   1.000  Hf
  O17      1.0000 0.03136  0.16123  0.57975  Biso   1.000  O
  O18      1.0000 0.03194  0.08924  0.83059  Biso   1.000  O
  O19      1.0000 0.47124  0.40909  0.58155  Biso   1.000  O
  O20      1.0000 0.47347  0.34039  0.83287  Biso   1.000  O
  O21      1.0000 0.27602  0.12426  0.79629  Biso   1.000  O
  O22      1.0000 0.27503  0.12570  0.54831  Biso   1.000  O
  O23      1.0000 0.22824  0.37452  0.79677  Biso   1.000  O
  O24      1.0000 0.22536  0.37569  0.54813  Biso   1.000  O
  O25      1.0000 0.52671  0.15349  0.67246  Biso   1.000  O
  O26      1.0000 0.52435  0.10032  0.93450  Biso   1.000  O
  O27      1.0000 0.97079  0.41287  0.66792  Biso   1.000  O
  O28      1.0000 0.97803  0.34092  0.91570  Biso   1.000  O
  O29      1.0000 0.76558  0.12967  0.95364  Biso   1.000  O
  O30      1.0000 0.78038  0.12348  0.69761  Biso   1.000  O
  O31      1.0000 0.73193  0.38197  0.94927  Biso   1.000  O
  O32      1.0000 0.72867  0.37701  0.69915  Biso   1.000  O
  Hf17     1.0000 0.14203  0.52149  0.17486  Biso   1.000  Hf
  Hf18     1.0000 0.13708  0.72912  0.42357  Biso   1.000  Hf
  Hf19     1.0000 0.35897  0.76854  0.17538  Biso   1.000  Hf
  Hf20     1.0000 0.36138  0.97810  0.42484  Biso   1.000  Hf
  Hf21     1.0000 0.64344  0.53328  0.07645  Biso   1.000  Hf
  Hf22     1.0000 0.63839  0.72854  0.33008  Biso   1.000  Hf
  Hf23     1.0000 0.86658  0.77083  0.07788  Biso   1.000  Hf
  Hf24     1.0000 0.86089  0.98085  0.32752  Biso   1.000  Hf
  O33      1.0000 0.03492  0.66281  0.08121  Biso   1.000  O
  O34      1.0000 0.03091  0.58990  0.33166  Biso   1.000  O
  O35      1.0000 0.46672  0.89520  0.07248  Biso   1.000  O
  O36      1.0000 0.46996  0.84137  0.32898  Biso   1.000  O
  O37      1.0000 0.27545  0.62386  0.29889  Biso   1.000  O
  O38      1.0000 0.27733  0.62412  0.04756  Biso   1.000  O
  O39      1.0000 0.22334  0.87282  0.29807  Biso   1.000  O
  O40      1.0000 0.22300  0.87517  0.04767  Biso   1.000  O
  O41      1.0000 0.53107  0.66245  0.17431  Biso   1.000  O
  O42      1.0000 0.52981  0.58851  0.42097  Biso   1.000  O
  O43      1.0000 0.96711  0.91511  0.16884  Biso   1.000  O
  O44      1.0000 0.96738  0.84145  0.42024  Biso   1.000  O
  O45      1.0000 0.77600  0.62397  0.45389  Biso   1.000  O
  O46      1.0000 0.77914  0.62962  0.20429  Biso   1.000  O
  O47      1.0000 0.72407  0.87384  0.45576  Biso   1.000  O
  O48      1.0000 0.72931  0.87119  0.20868  Biso   1.000  O
  Hf25     1.0000 0.13961  0.52165  0.67283  Biso   1.000  Hf
  Hf26     1.0000 0.14012  0.72966  0.92265  Biso   1.000  Hf
  Hf27     1.0000 0.36222  0.77144  0.67338  Biso   1.000  Hf
  Hf28     1.0000 0.36236  0.97873  0.92402  Biso   1.000  Hf
  Hf29     1.0000 0.63934  0.52159  0.57603  Biso   1.000  Hf
  Hf30     1.0000 0.63989  0.72906  0.82564  Biso   1.000  Hf
  Hf31     1.0000 0.86230  0.77239  0.57907  Biso   1.000  Hf
  Hf32     1.0000 0.86194  0.98211  0.82978  Biso   1.000  Hf
  O49      1.0000 0.03214  0.66386  0.58153  Biso   1.000  O
  O50      1.0000 0.03377  0.58918  0.83023  Biso   1.000  O
  O51      1.0000 0.47058  0.90610  0.57848  Biso   1.000  O
  O52      1.0000 0.47308  0.84415  0.82610  Biso   1.000  O
  O53      1.0000 0.27794  0.62375  0.79792  Biso   1.000  O
  O54      1.0000 0.27507  0.62553  0.54732  Biso   1.000  O
  O55      1.0000 0.22566  0.87360  0.79727  Biso   1.000  O
  O56      1.0000 0.22437  0.87647  0.54767  Biso   1.000  O
  O57      1.0000 0.53096  0.65951  0.67091  Biso   1.000  O
  O58      1.0000 0.53100  0.59112  0.92060  Biso   1.000  O
  O59      1.0000 0.96863  0.91260  0.67136  Biso   1.000  O
  O60      1.0000 0.97067  0.83945  0.91947  Biso   1.000  O
  O61      1.0000 0.77995  0.62883  0.95097  Biso   1.000  O
  O62      1.0000 0.77651  0.62648  0.70243  Biso   1.000  O
  O63      1.0000 0.72719  0.87259  0.95420  Biso   1.000  O
  O64      1.0000 0.72625  0.87550  0.70627  Biso   1.000  O
  Hf33     1.0000 0.61162  0.25648  0.06443  Biso   1.000  Hf
