data_image0
_cell_length_a       10.1715
_cell_length_b       10.2931
_cell_length_c       10.535
_cell_angle_alpha    90.1008
_cell_angle_beta     79.4379
_cell_angle_gamma    89.868

_symmetry_space_group_name_H-M    "P 1"
_symmetry_int_tables_number       1

loop_
  _symmetry_equiv_pos_as_xyz
  'x, y, z'

loop_
  _atom_site_label
  _atom_site_occupancy
  _atom_site_fract_x
  _atom_site_fract_y
  _atom_site_fract_z
  _atom_site_thermal_displace_type
  _atom_site_B_iso_or_equiv
  _atom_site_type_symbol
  Hf1      1.0000 0.13399  0.02063  0.14492  Biso   1.000  Hf
  Hf2      1.0000 0.13717  0.22687  0.39294  Biso   1.000  Hf
  Hf3      1.0000 0.34450  0.27249  0.07466  Biso   1.000  Hf
  Hf4      1.0000 0.35932  0.49000  0.35524  Biso   1.000  Hf
  O1       1.0000 0.03201  0.16701  0.07589  Biso   1.000  O
  O2       1.0000 0.03449  0.08094  0.32839  Biso   1.000  O
  O3       1.0000 0.47147  0.40829  0.17742  Biso   1.000  O
  O4       1.0000 0.47817  0.35109  0.43036  Biso   1.000  O
  O5       1.0000 0.27619  0.11775  0.23077  Biso   1.000  O
  O6       1.0000 0.29906  0.13587  0.46635  Biso   1.000  O
  O7       1.0000 0.20984  0.38810  0.99729  Biso   1.000  O
  O8       1.0000 0.23852  0.36189  0.25271  Biso   1.000  O
  Hf5      1.0000 0.13348  0.01839  0.64885  Biso   1.000  Hf
  Hf6      1.0000 0.13041  0.22918  0.88944  Biso   1.000  Hf
  Hf7      1.0000 0.36211  0.27507  0.60466  Biso   1.000  Hf
  Hf8      1.0000 0.35739  0.48469  0.84892  Biso   1.000  Hf
  O9       1.0000 0.04276  0.16731  0.57776  Biso   1.000  O
  O10      1.0000 0.02843  0.08205  0.82846  Biso   1.000  O
  O11      1.0000 0.46530  0.41996  0.67218  Biso   1.000  O
  O12      1.0000 0.46566  0.34038  0.91492  Biso   1.000  O
  O13      1.0000 0.27215  0.12805  0.73211  Biso   1.000  O
  O14      1.0000 0.26670  0.12101  0.97906  Biso   1.000  O
  O15      1.0000 0.22560  0.38338  0.50789  Biso   1.000  O
  O16      1.0000 0.22300  0.37140  0.75529  Biso   1.000  O
  Hf9      1.0000 0.13749  0.52309  0.14476  Biso   1.000  Hf
  Hf10     1.0000 0.13521  0.72873  0.39739  Biso   1.000  Hf
  Hf11     1.0000 0.35967  0.77095  0.10298  Biso   1.000  Hf
  Hf12     1.0000 0.36059  0.96477  0.35167  Biso   1.000  Hf
  O17      1.0000 0.03288  0.66623  0.07894  Biso   1.000  O
  O18      1.0000 0.03682  0.58304  0.32833  Biso   1.000  O
  O19      1.0000 0.46721  0.91164  0.17416  Biso   1.000  O
  O20      1.0000 0.46348  0.82494  0.42497  Biso   1.000  O
  O21      1.0000 0.27723  0.62595  0.23941  Biso   1.000  O
  O22      1.0000 0.27202  0.62728  0.49320  Biso   1.000  O
  O23      1.0000 0.22297  0.87922  0.00909  Biso   1.000  O
  O24      1.0000 0.21911  0.86376  0.25776  Biso   1.000  O
  Hf13     1.0000 0.13654  0.52275  0.64580  Biso   1.000  Hf
  Hf14     1.0000 0.13528  0.72920  0.89760  Biso   1.000  Hf
  Hf15     1.0000 0.36180  0.77201  0.60527  Biso   1.000  Hf
  Hf16     1.0000 0.36033  0.97687  0.85242  Biso   1.000  Hf
  O25      1.0000 0.03011  0.66620  0.57989  Biso   1.000  O
  O26      1.0000 0.03271  0.58326  0.82987  Biso   1.000  O
  O27      1.0000 0.46537  0.91773  0.67234  Biso   1.000  O
  O28      1.0000 0.46530  0.83523  0.92319  Biso   1.000  O
  O29      1.0000 0.27344  0.62950  0.74000  Biso   1.000  O
  O30      1.0000 0.27581  0.62479  0.98980  Biso   1.000  O
  O31      1.0000 0.22193  0.88345  0.51106  Biso   1.000  O
  O32      1.0000 0.22218  0.87098  0.76066  Biso   1.000  O
  Hf17     1.0000 0.63630  0.02575  0.15489  Biso   1.000  Hf
  Hf18     1.0000 0.65234  0.22840  0.40288  Biso   1.000  Hf
  Hf19     1.0000 0.85743  0.27152  0.10895  Biso   1.000  Hf
  Hf20     1.0000 0.86377  0.47888  0.35736  Biso   1.000  Hf
  O33      1.0000 0.51571  0.16554  0.08347  Biso   1.000  O
  O34      1.0000 0.54205  0.06505  0.34617  Biso   1.000  O
  O35      1.0000 0.96974  0.41401  0.17442  Biso   1.000  O
  O36      1.0000 0.96776  0.33444  0.42544  Biso   1.000  O
  O37      1.0000 0.78647  0.12612  0.24575  Biso   1.000  O
  O38      1.0000 0.78553  0.11787  0.49920  Biso   1.000  O
  O39      1.0000 0.71960  0.37841  0.01376  Biso   1.000  O
  O40      1.0000 0.73194  0.37635  0.26542  Biso   1.000  O
  Hf21     1.0000 0.63802  0.02388  0.64866  Biso   1.000  Hf
  Hf22     1.0000 0.63632  0.23006  0.90009  Biso   1.000  Hf
  Hf23     1.0000 0.86349  0.27109  0.60870  Biso   1.000  Hf
  Hf24     1.0000 0.85877  0.47913  0.85699  Biso   1.000  Hf
  O41      1.0000 0.53741  0.17110  0.58217  Biso   1.000  O
  O42      1.0000 0.53097  0.08576  0.83060  Biso   1.000  O
  O43      1.0000 0.96572  0.41623  0.67493  Biso   1.000  O
  O44      1.0000 0.95850  0.33200  0.92284  Biso   1.000  O
  O45      1.0000 0.77453  0.12980  0.74649  Biso   1.000  O
  O46      1.0000 0.76923  0.12356  0.99688  Biso   1.000  O
  O47      1.0000 0.72993  0.37899  0.51617  Biso   1.000  O
  O48      1.0000 0.72300  0.37108  0.76407  Biso   1.000  O
  Hf25     1.0000 0.63887  0.52150  0.14948  Biso   1.000  Hf
  Hf26     1.0000 0.64030  0.72829  0.39829  Biso   1.000  Hf
  Hf27     1.0000 0.85812  0.77239  0.10668  Biso   1.000  Hf
  Hf28     1.0000 0.85884  0.97761  0.35700  Biso   1.000  Hf
  O49      1.0000 0.53176  0.66267  0.07774  Biso   1.000  O
  O50      1.0000 0.53429  0.58800  0.32734  Biso   1.000  O
  O51      1.0000 0.96449  0.91344  0.17460  Biso   1.000  O
  O52      1.0000 0.96406  0.83338  0.42596  Biso   1.000  O
  O53      1.0000 0.77770  0.62906  0.24249  Biso   1.000  O
  O54      1.0000 0.77568  0.62152  0.49278  Biso   1.000  O
  O55      1.0000 0.72148  0.88007  0.01378  Biso   1.000  O
  O56      1.0000 0.72286  0.87052  0.26212  Biso   1.000  O
  Hf29     1.0000 0.63892  0.52243  0.64846  Biso   1.000  Hf
  Hf30     1.0000 0.63711  0.72817  0.89912  Biso   1.000  Hf
  Hf31     1.0000 0.85800  0.77222  0.60697  Biso   1.000  Hf
  Hf32     1.0000 0.85464  0.97800  0.85946  Biso   1.000  Hf
  O57      1.0000 0.53376  0.66611  0.58080  Biso   1.000  O
  O58      1.0000 0.53181  0.58700  0.82796  Biso   1.000  O
  O59      1.0000 0.96251  0.91542  0.67676  Biso   1.000  O
  O60      1.0000 0.96358  0.83471  0.92444  Biso   1.000  O
  O61      1.0000 0.77469  0.62909  0.74301  Biso   1.000  O
  O62      1.0000 0.77514  0.62171  0.99259  Biso   1.000  O
  O63      1.0000 0.72124  0.87804  0.51336  Biso   1.000  O
  O64      1.0000 0.72106  0.87240  0.76343  Biso   1.000  O
  Hf33     1.0000 0.43173  0.22861  0.28737  Biso   1.000  Hf
