data_image0
_cell_length_a       10.0906
_cell_length_b       10.2918
_cell_length_c       5.11165
_cell_angle_alpha    90.7618
_cell_angle_beta     91.621
_cell_angle_gamma    89.305

_symmetry_space_group_name_H-M    "P 1"
_symmetry_int_tables_number       1

loop_
  _symmetry_equiv_pos_as_xyz
  'x, y, z'

loop_
  _atom_site_label
  _atom_site_occupancy
  _atom_site_fract_x
  _atom_site_fract_y
  _atom_site_fract_z
  _atom_site_thermal_displace_type
  _atom_site_B_iso_or_equiv
  _atom_site_type_symbol
  Hf1      1.0000 0.10946  0.97947  0.24933  Biso   1.000  Hf
  Hf2      1.0000 0.12499  0.24320  0.69158  Biso   1.000  Hf
  Hf3      1.0000 0.39160  0.26573  0.20041  Biso   1.000  Hf
  Hf4      1.0000 0.36626  0.48815  0.72571  Biso   1.000  Hf
  O1       1.0000 0.99814  0.13718  0.42983  Biso   1.000  O
  O2       1.0000 0.02659  0.08778  0.93058  Biso   1.000  O
  O3       1.0000 0.47403  0.43594  0.38047  Biso   1.000  O
  O4       1.0000 0.47730  0.33331  0.87342  Biso   1.000  O
  O5       1.0000 0.24969  0.11388  0.44107  Biso   1.000  O
  O6       1.0000 0.27114  0.15046  0.93655  Biso   1.000  O
  O7       1.0000 0.23170  0.39081  0.95628  Biso   1.000  O
  O8       1.0000 0.24690  0.36521  0.45298  Biso   1.000  O
  Hf5      1.0000 0.14162  0.52355  0.22960  Biso   1.000  Hf
  Hf6      1.0000 0.12345  0.74315  0.73813  Biso   1.000  Hf
  Hf7      1.0000 0.37065  0.76939  0.23310  Biso   1.000  Hf
  Hf8      1.0000 0.35921  0.99574  0.73313  Biso   1.000  Hf
  O9       1.0000 0.02452  0.66030  0.41300  Biso   1.000  O
  O10      1.0000 0.02732  0.58193  0.89998  Biso   1.000  O
  O11      1.0000 0.46638  0.93446  0.40168  Biso   1.000  O
  O12      1.0000 0.47466  0.83296  0.90010  Biso   1.000  O
  O13      1.0000 0.27482  0.62074  0.47576  Biso   1.000  O
  O14      1.0000 0.26686  0.64187  0.97573  Biso   1.000  O
  O15      1.0000 0.23821  0.89331  0.98181  Biso   1.000  O
  O16      1.0000 0.23824  0.85854  0.48873  Biso   1.000  O
  Hf9      1.0000 0.62768  0.01092  0.25197  Biso   1.000  Hf
  Hf10     1.0000 0.63488  0.23373  0.75041  Biso   1.000  Hf
  Hf11     1.0000 0.85122  0.25967  0.26010  Biso   1.000  Hf
  Hf12     1.0000 0.86913  0.48105  0.75775  Biso   1.000  Hf
  O17      1.0000 0.53215  0.17697  0.41737  Biso   1.000  O
  O18      1.0000 0.52113  0.08361  0.92310  Biso   1.000  O
  O19      1.0000 0.99591  0.39226  0.43255  Biso   1.000  O
  O20      1.0000 0.96788  0.32680  0.92820  Biso   1.000  O
  O21      1.0000 0.75971  0.10870  0.51058  Biso   1.000  O
  O22      1.0000 0.76113  0.13126  0.00604  Biso   1.000  O
  O23      1.0000 0.73251  0.38597  0.00144  Biso   1.000  O
  O24      1.0000 0.73392  0.36792  0.50619  Biso   1.000  O
  Hf13     1.0000 0.63212  0.51958  0.24108  Biso   1.000  Hf
  Hf14     1.0000 0.63135  0.73820  0.75041  Biso   1.000  Hf
  Hf15     1.0000 0.86204  0.75925  0.27034  Biso   1.000  Hf
  Hf16     1.0000 0.86990  0.98902  0.77378  Biso   1.000  Hf
  O25      1.0000 0.53781  0.68760  0.39080  Biso   1.000  O
  O26      1.0000 0.53080  0.57847  0.89128  Biso   1.000  O
  O27      1.0000 0.98431  0.89109  0.50725  Biso   1.000  O
  O28      1.0000 0.98984  0.83854  0.99680  Biso   1.000  O
  O29      1.0000 0.77050  0.61150  0.49583  Biso   1.000  O
  O30      1.0000 0.77082  0.63517  0.99370  Biso   1.000  O
  O31      1.0000 0.73881  0.88372  0.00399  Biso   1.000  O
  O32      1.0000 0.73370  0.86529  0.50354  Biso   1.000  O
  Hf17     1.0000 0.12229  0.24776  0.19001  Biso   1.000  Hf
