data_image0
_cell_length_a       10.109
_cell_length_b       10.2184
_cell_length_c       10.109
_cell_angle_alpha    89.9994
_cell_angle_beta     89.9994
_cell_angle_gamma    90.0004

_symmetry_space_group_name_H-M    "P 1"
_symmetry_int_tables_number       1

loop_
  _symmetry_equiv_pos_as_xyz
  'x, y, z'

loop_
  _atom_site_label
  _atom_site_occupancy
  _atom_site_fract_x
  _atom_site_fract_y
  _atom_site_fract_z
  _atom_site_thermal_displace_type
  _atom_site_B_iso_or_equiv
  _atom_site_type_symbol
  Zr1      1.0000 0.12550  0.98236  0.12551  Biso   1.000  Zr
  Zr2      1.0000 0.12552  0.24987  0.39301  Biso   1.000  Zr
  Zr3      1.0000 0.39301  0.24987  0.12552  Biso   1.000  Zr
  Zr4      1.0000 0.37369  0.00231  0.37369  Biso   1.000  Zr
  O1       1.0000 0.99523  0.14119  0.99523  Biso   1.000  O
  O2       1.0000 0.00445  0.11103  0.24658  Biso   1.000  O
  O3       1.0000 0.99523  0.35854  0.25580  Biso   1.000  O
  O4       1.0000 0.00445  0.38871  0.00445  Biso   1.000  O
  O5       1.0000 0.25580  0.14121  0.25581  Biso   1.000  O
  O6       1.0000 0.24658  0.11102  0.00445  Biso   1.000  O
  O7       1.0000 0.25580  0.35854  0.99523  Biso   1.000  O
  O8       1.0000 0.24658  0.38872  0.24658  Biso   1.000  O
  Zr5      1.0000 0.12551  0.99560  0.62551  Biso   1.000  Zr
  Zr6      1.0000 0.12552  0.24987  0.85802  Biso   1.000  Zr
  Zr7      1.0000 0.37879  0.24987  0.62551  Biso   1.000  Zr
  Zr8      1.0000 0.37269  0.00331  0.87834  Biso   1.000  Zr
  O9       1.0000 0.99396  0.14079  0.50161  Biso   1.000  O
  O10      1.0000 0.00279  0.10531  0.74744  Biso   1.000  O
  O11      1.0000 0.99395  0.35895  0.74943  Biso   1.000  O
  O12      1.0000 0.00280  0.39443  0.50359  Biso   1.000  O
  O13      1.0000 0.25707  0.14079  0.74942  Biso   1.000  O
  O14      1.0000 0.24824  0.10531  0.50359  Biso   1.000  O
  O15      1.0000 0.25708  0.35896  0.50160  Biso   1.000  O
  O16      1.0000 0.24823  0.39443  0.74744  Biso   1.000  O
  Zr9      1.0000 0.12551  0.51738  0.12552  Biso   1.000  Zr
  Zr10     1.0000 0.12551  0.74987  0.37843  Biso   1.000  Zr
  Zr11     1.0000 0.37843  0.74987  0.12551  Biso   1.000  Zr
  Zr12     1.0000 0.37269  0.49644  0.37269  Biso   1.000  Zr
  O17      1.0000 0.99986  0.64283  0.99986  Biso   1.000  O
  O18      1.0000 0.99790  0.61239  0.25312  Biso   1.000  O
  O19      1.0000 0.99986  0.85690  0.25116  Biso   1.000  O
  O20      1.0000 0.99790  0.88734  0.99790  Biso   1.000  O
  O21      1.0000 0.25116  0.64284  0.25116  Biso   1.000  O
  O22      1.0000 0.25312  0.61239  0.99790  Biso   1.000  O
  O23      1.0000 0.25116  0.85690  0.99986  Biso   1.000  O
  O24      1.0000 0.25312  0.88736  0.25312  Biso   1.000  O
  Zr13     1.0000 0.12551  0.50414  0.62551  Biso   1.000  Zr
  Zr14     1.0000 0.12551  0.74987  0.87259  Biso   1.000  Zr
  Zr15     1.0000 0.37697  0.74988  0.62551  Biso   1.000  Zr
  Zr16     1.0000 0.37369  0.49743  0.87734  Biso   1.000  Zr
  O25      1.0000 0.99944  0.64411  0.50209  Biso   1.000  O
  O26      1.0000 0.00259  0.60605  0.75264  Biso   1.000  O
  O27      1.0000 0.99945  0.85563  0.74893  Biso   1.000  O
  O28      1.0000 0.00259  0.89369  0.49839  Biso   1.000  O
  O29      1.0000 0.25158  0.64412  0.74893  Biso   1.000  O
  O30      1.0000 0.24843  0.60605  0.49838  Biso   1.000  O
  O31      1.0000 0.25158  0.85563  0.50210  Biso   1.000  O
  O32      1.0000 0.24844  0.89369  0.75264  Biso   1.000  O
  Zr17     1.0000 0.62551  0.99560  0.12551  Biso   1.000  Zr
  Zr18     1.0000 0.62552  0.24987  0.37879  Biso   1.000  Zr
  Zr19     1.0000 0.85802  0.24987  0.12551  Biso   1.000  Zr
  Zr20     1.0000 0.87833  0.00331  0.37269  Biso   1.000  Zr
  O33      1.0000 0.50161  0.14079  0.99396  Biso   1.000  O
  O34      1.0000 0.50359  0.10531  0.24823  Biso   1.000  O
  O35      1.0000 0.50161  0.35895  0.25708  Biso   1.000  O
  O36      1.0000 0.50359  0.39443  0.00280  Biso   1.000  O
  O37      1.0000 0.74942  0.14079  0.25707  Biso   1.000  O
  O38      1.0000 0.74744  0.10531  0.00279  Biso   1.000  O
  O39      1.0000 0.74943  0.35895  0.99395  Biso   1.000  O
  O40      1.0000 0.74744  0.39443  0.24823  Biso   1.000  O
  Zr21     1.0000 0.62551  0.99789  0.62552  Biso   1.000  Zr
  Zr22     1.0000 0.62551  0.24987  0.87224  Biso   1.000  Zr
  Zr23     1.0000 0.87224  0.24987  0.62551  Biso   1.000  Zr
  Zr24     1.0000 0.87733  0.00231  0.87733  Biso   1.000  Zr
  O41      1.0000 0.49727  0.14563  0.49727  Biso   1.000  O
  O42      1.0000 0.50285  0.10390  0.74817  Biso   1.000  O
  O43      1.0000 0.49726  0.35412  0.75376  Biso   1.000  O
  O44      1.0000 0.50286  0.39584  0.50286  Biso   1.000  O
  O45      1.0000 0.75376  0.14562  0.75376  Biso   1.000  O
  O46      1.0000 0.74817  0.10390  0.50286  Biso   1.000  O
  O47      1.0000 0.75377  0.35412  0.49726  Biso   1.000  O
  O48      1.0000 0.74817  0.39584  0.74817  Biso   1.000  O
  Zr25     1.0000 0.62551  0.50414  0.12552  Biso   1.000  Zr
  Zr26     1.0000 0.62551  0.74987  0.37697  Biso   1.000  Zr
  Zr27     1.0000 0.87259  0.74987  0.12551  Biso   1.000  Zr
  Zr28     1.0000 0.87733  0.49743  0.37370  Biso   1.000  Zr
  O49      1.0000 0.50209  0.64411  0.99944  Biso   1.000  O
  O50      1.0000 0.49838  0.60605  0.24842  Biso   1.000  O
  O51      1.0000 0.50209  0.85563  0.25158  Biso   1.000  O
  O52      1.0000 0.49838  0.89369  0.00260  Biso   1.000  O
  O53      1.0000 0.74893  0.64411  0.25158  Biso   1.000  O
  O54      1.0000 0.75263  0.60605  0.00260  Biso   1.000  O
  O55      1.0000 0.74892  0.85563  0.99945  Biso   1.000  O
  O56      1.0000 0.75263  0.89369  0.24844  Biso   1.000  O
  Zr29     1.0000 0.62551  0.50185  0.62552  Biso   1.000  Zr
  Zr30     1.0000 0.62551  0.74987  0.87406  Biso   1.000  Zr
  Zr31     1.0000 0.87406  0.74987  0.62551  Biso   1.000  Zr
  Zr32     1.0000 0.87834  0.49643  0.87834  Biso   1.000  Zr
  O57      1.0000 0.49877  0.64558  0.49877  Biso   1.000  O
  O58      1.0000 0.50099  0.60379  0.75003  Biso   1.000  O
  O59      1.0000 0.49878  0.85417  0.75225  Biso   1.000  O
  O60      1.0000 0.50099  0.89595  0.50099  Biso   1.000  O
  O61      1.0000 0.75225  0.64557  0.75225  Biso   1.000  O
  O62      1.0000 0.75004  0.60379  0.50099  Biso   1.000  O
  O63      1.0000 0.75225  0.85417  0.49878  Biso   1.000  O
  O64      1.0000 0.75004  0.89595  0.75004  Biso   1.000  O
  Hf1      1.0000 0.12552  0.24987  0.12551  Biso   1.000  Hf
