data_image0
_cell_length_a       5.1308
_cell_length_b       10.3774
_cell_length_c       10.6886
_cell_angle_alpha    90.058
_cell_angle_beta     78.5366
_cell_angle_gamma    91.2038

_symmetry_space_group_name_H-M    "P 1"
_symmetry_int_tables_number       1

loop_
  _symmetry_equiv_pos_as_xyz
  'x, y, z'

loop_
  _atom_site_label
  _atom_site_occupancy
  _atom_site_fract_x
  _atom_site_fract_y
  _atom_site_fract_z
  _atom_site_thermal_displace_type
  _atom_site_B_iso_or_equiv
  _atom_site_type_symbol
  Zr1      1.0000 0.29002  0.01615  0.15138  Biso   1.000  Zr
  Zr2      1.0000 0.32966  0.23193  0.41096  Biso   1.000  Zr
  Zr3      1.0000 0.66914  0.27211  0.08895  Biso   1.000  Zr
  Zr4      1.0000 0.70106  0.48209  0.35502  Biso   1.000  Zr
  O1       1.0000 0.04506  0.16916  0.07759  Biso   1.000  O
  O2       1.0000 0.09484  0.07535  0.33767  Biso   1.000  O
  O3       1.0000 0.89250  0.42076  0.16862  Biso   1.000  O
  O4       1.0000 0.96030  0.34344  0.43541  Biso   1.000  O
  O5       1.0000 0.59686  0.12626  0.24595  Biso   1.000  O
  O6       1.0000 0.58910  0.11741  0.49689  Biso   1.000  O
  O7       1.0000 0.41214  0.38637  0.00153  Biso   1.000  O
  O8       1.0000 0.36026  0.35811  0.24588  Biso   1.000  O
  Zr5      1.0000 0.28282  0.02092  0.64845  Biso   1.000  Zr
  Zr6      1.0000 0.25716  0.22948  0.89310  Biso   1.000  Zr
  Zr7      1.0000 0.73796  0.27383  0.61040  Biso   1.000  Zr
  Zr8      1.0000 0.70843  0.48230  0.85476  Biso   1.000  Zr
  O9       1.0000 0.08868  0.16967  0.58749  Biso   1.000  O
  O10      1.0000 0.05867  0.08201  0.82917  Biso   1.000  O
  O11      1.0000 0.93308  0.41901  0.67865  Biso   1.000  O
  O12      1.0000 0.90927  0.33293  0.91652  Biso   1.000  O
  O13      1.0000 0.54901  0.12931  0.74434  Biso   1.000  O
  O14      1.0000 0.52599  0.11877  0.98885  Biso   1.000  O
  O15      1.0000 0.46017  0.38202  0.51806  Biso   1.000  O
  O16      1.0000 0.44407  0.37179  0.75921  Biso   1.000  O
  Zr9      1.0000 0.26213  0.52418  0.14624  Biso   1.000  Zr
  Zr10     1.0000 0.26887  0.72516  0.39962  Biso   1.000  Zr
  Zr11     1.0000 0.71779  0.77155  0.10529  Biso   1.000  Zr
  Zr12     1.0000 0.72502  0.97212  0.35720  Biso   1.000  Zr
  O17      1.0000 0.05471  0.66701  0.07904  Biso   1.000  O
  O18      1.0000 0.05326  0.58232  0.32881  Biso   1.000  O
  O19      1.0000 0.93937  0.91561  0.17511  Biso   1.000  O
  O20      1.0000 0.93189  0.83022  0.42532  Biso   1.000  O
  O21      1.0000 0.53789  0.62668  0.24362  Biso   1.000  O
  O22      1.0000 0.53727  0.62490  0.49466  Biso   1.000  O
  O23      1.0000 0.44840  0.87683  0.01223  Biso   1.000  O
  O24      1.0000 0.44821  0.86767  0.25990  Biso   1.000  O
  Zr13     1.0000 0.27669  0.52438  0.64937  Biso   1.000  Zr
  Zr14     1.0000 0.26900  0.72913  0.89918  Biso   1.000  Zr
  Zr15     1.0000 0.71994  0.77202  0.60585  Biso   1.000  Zr
  Zr16     1.0000 0.71481  0.97667  0.85511  Biso   1.000  Zr
  O25      1.0000 0.05521  0.66350  0.58019  Biso   1.000  O
  O26      1.0000 0.05987  0.58709  0.83017  Biso   1.000  O
  O27      1.0000 0.93116  0.91522  0.67485  Biso   1.000  O
  O28      1.0000 0.93042  0.83633  0.92517  Biso   1.000  O
  O29      1.0000 0.54737  0.62969  0.74380  Biso   1.000  O
  O30      1.0000 0.54257  0.62478  0.99349  Biso   1.000  O
  O31      1.0000 0.44538  0.87753  0.51159  Biso   1.000  O
  O32      1.0000 0.44319  0.87152  0.76186  Biso   1.000  O
  Hf1      1.0000 0.96188  0.24673  0.26370  Biso   1.000  Hf
