data_image0
_cell_length_a       10.0301
_cell_length_b       10.424
_cell_length_c       10.0602
_cell_angle_alpha    89.9911
_cell_angle_beta     89.9817
_cell_angle_gamma    89.9975

_symmetry_space_group_name_H-M    "P 1"
_symmetry_int_tables_number       1

loop_
  _symmetry_equiv_pos_as_xyz
  'x, y, z'

loop_
  _atom_site_label
  _atom_site_occupancy
  _atom_site_fract_x
  _atom_site_fract_y
  _atom_site_fract_z
  _atom_site_thermal_displace_type
  _atom_site_B_iso_or_equiv
  _atom_site_type_symbol
  Hf1      1.0000 0.13436  0.01624  0.12557  Biso   1.000  Hf
  Zr1      1.0000 0.13389  0.01572  0.62585  Biso   1.000  Zr
  Zr2      1.0000 0.13396  0.51572  0.12581  Biso   1.000  Zr
  Zr3      1.0000 0.13381  0.51574  0.62571  Biso   1.000  Zr
  Zr4      1.0000 0.63385  0.01574  0.12571  Biso   1.000  Zr
  Zr5      1.0000 0.63389  0.01565  0.62566  Biso   1.000  Zr
  Zr6      1.0000 0.63396  0.51580  0.12574  Biso   1.000  Zr
  Zr7      1.0000 0.63387  0.51576  0.62572  Biso   1.000  Zr
  Zr8      1.0000 0.13387  0.23416  0.37561  Biso   1.000  Zr
  Zr9      1.0000 0.13379  0.23414  0.87604  Biso   1.000  Zr
  Zr10     1.0000 0.13389  0.73450  0.37559  Biso   1.000  Zr
  Zr11     1.0000 0.13373  0.73432  0.87579  Biso   1.000  Zr
  Zr12     1.0000 0.63395  0.23430  0.37580  Biso   1.000  Zr
  Zr13     1.0000 0.63380  0.23427  0.87571  Biso   1.000  Zr
  Zr14     1.0000 0.63395  0.73440  0.37556  Biso   1.000  Zr
  Zr15     1.0000 0.63379  0.73434  0.87578  Biso   1.000  Zr
  Zr16     1.0000 0.36624  0.26573  0.12581  Biso   1.000  Zr
  Zr17     1.0000 0.36615  0.26578  0.62583  Biso   1.000  Zr
  Zr18     1.0000 0.36591  0.76594  0.12587  Biso   1.000  Zr
  Zr19     1.0000 0.36618  0.76572  0.62573  Biso   1.000  Zr
  Zr20     1.0000 0.86638  0.26551  0.12573  Biso   1.000  Zr
  Zr21     1.0000 0.86615  0.26561  0.62576  Biso   1.000  Zr
  Zr22     1.0000 0.86658  0.76596  0.12555  Biso   1.000  Zr
  Zr23     1.0000 0.86613  0.76578  0.62574  Biso   1.000  Zr
  Zr24     1.0000 0.36623  0.48435  0.37580  Biso   1.000  Zr
  Zr25     1.0000 0.36608  0.48434  0.87575  Biso   1.000  Zr
  Zr26     1.0000 0.36609  0.98444  0.37575  Biso   1.000  Zr
  Zr27     1.0000 0.36597  0.98421  0.87592  Biso   1.000  Zr
  Zr28     1.0000 0.86623  0.48430  0.37570  Biso   1.000  Zr
  Zr29     1.0000 0.86612  0.48433  0.87572  Biso   1.000  Zr
  Zr30     1.0000 0.86662  0.98429  0.37527  Biso   1.000  Zr
  Zr31     1.0000 0.86639  0.98441  0.87583  Biso   1.000  Zr
  O1       1.0000 0.03615  0.18309  0.19389  Biso   1.000  O
  O2       1.0000 0.03551  0.18362  0.69501  Biso   1.000  O
  O3       1.0000 0.03580  0.68363  0.19426  Biso   1.000  O
  O4       1.0000 0.03573  0.68389  0.69427  Biso   1.000  O
  O5       1.0000 0.53570  0.18389  0.19443  Biso   1.000  O
  O6       1.0000 0.53580  0.18394  0.69423  Biso   1.000  O
  O7       1.0000 0.53579  0.68405  0.19415  Biso   1.000  O
  O8       1.0000 0.53576  0.68396  0.69429  Biso   1.000  O
  O9       1.0000 0.03575  0.06620  0.44468  Biso   1.000  O
  O10      1.0000 0.03588  0.06551  0.94579  Biso   1.000  O
  O11      1.0000 0.03583  0.56613  0.44418  Biso   1.000  O
  O12      1.0000 0.03581  0.56589  0.94434  Biso   1.000  O
  O13      1.0000 0.53574  0.06613  0.44426  Biso   1.000  O
  O14      1.0000 0.53555  0.06611  0.94439  Biso   1.000  O
  O15      1.0000 0.53585  0.56618  0.44424  Biso   1.000  O
  O16      1.0000 0.53578  0.56603  0.94419  Biso   1.000  O
  O17      1.0000 0.46424  0.43396  0.19425  Biso   1.000  O
  O18      1.0000 0.46415  0.43398  0.69428  Biso   1.000  O
  O19      1.0000 0.46424  0.93387  0.19435  Biso   1.000  O
  O20      1.0000 0.46416  0.93396  0.69431  Biso   1.000  O
  O21      1.0000 0.96450  0.43351  0.19435  Biso   1.000  O
  O22      1.0000 0.96414  0.43387  0.69416  Biso   1.000  O
  O23      1.0000 0.96542  0.93381  0.19374  Biso   1.000  O
  O24      1.0000 0.96432  0.93391  0.69439  Biso   1.000  O
  O25      1.0000 0.46430  0.31618  0.44434  Biso   1.000  O
  O26      1.0000 0.46401  0.31594  0.94426  Biso   1.000  O
  O27      1.0000 0.46415  0.81609  0.44409  Biso   1.000  O
  O28      1.0000 0.46372  0.81601  0.94426  Biso   1.000  O
  O29      1.0000 0.96428  0.31597  0.44424  Biso   1.000  O
  O30      1.0000 0.96412  0.31590  0.94417  Biso   1.000  O
  O31      1.0000 0.96432  0.81612  0.44428  Biso   1.000  O
  O32      1.0000 0.96366  0.81562  0.94360  Biso   1.000  O
  O33      1.0000 0.26918  0.11660  0.24893  Biso   1.000  O
  O34      1.0000 0.26962  0.11709  0.74940  Biso   1.000  O
  O35      1.0000 0.26978  0.61734  0.24922  Biso   1.000  O
  O36      1.0000 0.26959  0.61707  0.74918  Biso   1.000  O
  O37      1.0000 0.76972  0.11708  0.24906  Biso   1.000  O
  O38      1.0000 0.76958  0.11700  0.74918  Biso   1.000  O
  O39      1.0000 0.76978  0.61709  0.24912  Biso   1.000  O
  O40      1.0000 0.76957  0.61709  0.74919  Biso   1.000  O
  O41      1.0000 0.26967  0.13304  0.49920  Biso   1.000  O
  O42      1.0000 0.26919  0.13252  0.99976  Biso   1.000  O
  O43      1.0000 0.26963  0.63301  0.49915  Biso   1.000  O
  O44      1.0000 0.26962  0.63303  0.99921  Biso   1.000  O
  O45      1.0000 0.76975  0.13291  0.49907  Biso   1.000  O
  O46      1.0000 0.76953  0.13297  0.99914  Biso   1.000  O
  O47      1.0000 0.76967  0.63300  0.49915  Biso   1.000  O
  O48      1.0000 0.76961  0.63298  0.99916  Biso   1.000  O
  O49      1.0000 0.23036  0.38294  0.49918  Biso   1.000  O
  O50      1.0000 0.23030  0.38282  0.99922  Biso   1.000  O
  O51      1.0000 0.23039  0.88299  0.49916  Biso   1.000  O
  O52      1.0000 0.22936  0.88343  0.99971  Biso   1.000  O
  O53      1.0000 0.73041  0.38296  0.49916  Biso   1.000  O
  O54      1.0000 0.73036  0.38290  0.99917  Biso   1.000  O
  O55      1.0000 0.73050  0.88305  0.49890  Biso   1.000  O
  O56      1.0000 0.73022  0.88307  0.99901  Biso   1.000  O
  O57      1.0000 0.23051  0.36706  0.24923  Biso   1.000  O
  O58      1.0000 0.23021  0.36700  0.74929  Biso   1.000  O
  O59      1.0000 0.22952  0.86791  0.24869  Biso   1.000  O
  O60      1.0000 0.23036  0.86703  0.74930  Biso   1.000  O
  O61      1.0000 0.73047  0.36702  0.24913  Biso   1.000  O
  O62      1.0000 0.73031  0.36704  0.74914  Biso   1.000  O
  O63      1.0000 0.73079  0.86717  0.24894  Biso   1.000  O
  O64      1.0000 0.73027  0.86707  0.74905  Biso   1.000  O
