data_image0
_cell_length_a       10.1971
_cell_length_b       5.19122
_cell_length_c       10.6183
_cell_angle_alpha    90.1898
_cell_angle_beta     91.0995
_cell_angle_gamma    89.5281

_symmetry_space_group_name_H-M    "P 1"
_symmetry_int_tables_number       1

loop_
  _symmetry_equiv_pos_as_xyz
  'x, y, z'

loop_
  _atom_site_label
  _atom_site_occupancy
  _atom_site_fract_x
  _atom_site_fract_y
  _atom_site_fract_z
  _atom_site_thermal_displace_type
  _atom_site_B_iso_or_equiv
  _atom_site_type_symbol
  Zr1      1.0000 0.14077  0.04081  0.17504  Biso   1.000  Zr
  Zr2      1.0000 0.13574  0.45625  0.42514  Biso   1.000  Zr
  Zr3      1.0000 0.35080  0.53019  0.18204  Biso   1.000  Zr
  Zr4      1.0000 0.36120  0.95296  0.42698  Biso   1.000  Zr
  Zr5      1.0000 0.64016  0.01845  0.07884  Biso   1.000  Zr
  Zr6      1.0000 0.63344  0.45134  0.33471  Biso   1.000  Zr
  Zr7      1.0000 0.88334  0.55320  0.07419  Biso   1.000  Zr
  Zr8      1.0000 0.86049  0.96193  0.32679  Biso   1.000  Zr
  O1       1.0000 0.03765  0.31096  0.07468  Biso   1.000  O
  O2       1.0000 0.02453  0.19209  0.32694  Biso   1.000  O
  O3       1.0000 0.47036  0.79394  0.08041  Biso   1.000  O
  O4       1.0000 0.46777  0.68106  0.32814  Biso   1.000  O
  O5       1.0000 0.26854  0.24737  0.30177  Biso   1.000  O
  O6       1.0000 0.27530  0.24227  0.04874  Biso   1.000  O
  O7       1.0000 0.22082  0.74769  0.30230  Biso   1.000  O
  O8       1.0000 0.22618  0.74841  0.04812  Biso   1.000  O
  O9       1.0000 0.51033  0.27235  0.18969  Biso   1.000  O
  O10      1.0000 0.52509  0.18026  0.43043  Biso   1.000  O
  O11      1.0000 0.97359  0.83222  0.17523  Biso   1.000  O
  O12      1.0000 0.96925  0.68876  0.42275  Biso   1.000  O
  O13      1.0000 0.77523  0.24622  0.45242  Biso   1.000  O
  O14      1.0000 0.75963  0.26962  0.19565  Biso   1.000  O
  O15      1.0000 0.72613  0.75089  0.45511  Biso   1.000  O
  O16      1.0000 0.72891  0.74516  0.20544  Biso   1.000  O
  Zr9      1.0000 0.13878  0.04310  0.67322  Biso   1.000  Zr
  Zr10     1.0000 0.14562  0.45741  0.92106  Biso   1.000  Zr
  Zr11     1.0000 0.36258  0.54342  0.67450  Biso   1.000  Zr
  Zr12     1.0000 0.36341  0.96108  0.92441  Biso   1.000  Zr
  Zr13     1.0000 0.63966  0.03871  0.57583  Biso   1.000  Zr
  Zr14     1.0000 0.64486  0.46285  0.81106  Biso   1.000  Zr
  Zr15     1.0000 0.86403  0.54753  0.57619  Biso   1.000  Zr
  Zr16     1.0000 0.86523  0.96640  0.82794  Biso   1.000  Zr
  O17      1.0000 0.03062  0.32249  0.57905  Biso   1.000  O
  O18      1.0000 0.03259  0.18409  0.82827  Biso   1.000  O
  O19      1.0000 0.47401  0.80466  0.57733  Biso   1.000  O
  O20      1.0000 0.47673  0.69712  0.82648  Biso   1.000  O
  O21      1.0000 0.27662  0.24925  0.79774  Biso   1.000  O
  O22      1.0000 0.27299  0.24927  0.54908  Biso   1.000  O
  O23      1.0000 0.22990  0.75015  0.79801  Biso   1.000  O
  O24      1.0000 0.22658  0.75062  0.54985  Biso   1.000  O
  O25      1.0000 0.52552  0.30252  0.67481  Biso   1.000  O
  O26      1.0000 0.52193  0.21426  0.93831  Biso   1.000  O
  O27      1.0000 0.97202  0.82360  0.67197  Biso   1.000  O
  O28      1.0000 0.98010  0.68594  0.91768  Biso   1.000  O
  O29      1.0000 0.76576  0.26652  0.95379  Biso   1.000  O
  O30      1.0000 0.77972  0.24809  0.69759  Biso   1.000  O
  O31      1.0000 0.73486  0.75744  0.95120  Biso   1.000  O
  O32      1.0000 0.73156  0.75382  0.70176  Biso   1.000  O
  Hf1      1.0000 0.61777  0.50561  0.06662  Biso   1.000  Hf
