data_image0
_cell_length_a       10.0894
_cell_length_b       10.3066
_cell_length_c       5.24853
_cell_angle_alpha    89.9984
_cell_angle_beta     90.0027
_cell_angle_gamma    89.9884

_symmetry_space_group_name_H-M    "P 1"
_symmetry_int_tables_number       1

loop_
  _symmetry_equiv_pos_as_xyz
  'x, y, z'

loop_
  _atom_site_label
  _atom_site_occupancy
  _atom_site_fract_x
  _atom_site_fract_y
  _atom_site_fract_z
  _atom_site_thermal_displace_type
  _atom_site_B_iso_or_equiv
  _atom_site_type_symbol
  Hf1      1.0000 0.13893  0.02100  0.34278  Biso   1.000  Hf
  Zr1      1.0000 0.13882  0.52104  0.34210  Biso   1.000  Zr
  Zr2      1.0000 0.13873  0.22861  0.84214  Biso   1.000  Zr
  Zr3      1.0000 0.13868  0.72925  0.84201  Biso   1.000  Zr
  Zr4      1.0000 0.36117  0.27102  0.34201  Biso   1.000  Zr
  Zr5      1.0000 0.36105  0.77128  0.34198  Biso   1.000  Zr
  Zr6      1.0000 0.36125  0.47905  0.84207  Biso   1.000  Zr
  Zr7      1.0000 0.36097  0.97918  0.84212  Biso   1.000  Zr
  Zr8      1.0000 0.63874  0.02105  0.15770  Biso   1.000  Zr
  Zr9      1.0000 0.63889  0.52108  0.15823  Biso   1.000  Zr
  Zr10     1.0000 0.63882  0.22905  0.65798  Biso   1.000  Zr
  Zr11     1.0000 0.63875  0.72902  0.65818  Biso   1.000  Zr
  Zr12     1.0000 0.86166  0.27068  0.15829  Biso   1.000  Zr
  Zr13     1.0000 0.86153  0.77132  0.15820  Biso   1.000  Zr
  Zr14     1.0000 0.86130  0.47897  0.65832  Biso   1.000  Zr
  Zr15     1.0000 0.86147  0.97902  0.65746  Biso   1.000  Zr
  O1       1.0000 0.03321  0.16496  0.16814  Biso   1.000  O
  O2       1.0000 0.03309  0.66602  0.16820  Biso   1.000  O
  O3       1.0000 0.03361  0.08355  0.66636  Biso   1.000  O
  O4       1.0000 0.03317  0.58381  0.66857  Biso   1.000  O
  O5       1.0000 0.46687  0.41634  0.16875  Biso   1.000  O
  O6       1.0000 0.46676  0.91624  0.16847  Biso   1.000  O
  O7       1.0000 0.46682  0.33369  0.66871  Biso   1.000  O
  O8       1.0000 0.46643  0.83367  0.66898  Biso   1.000  O
  O9       1.0000 0.27540  0.12387  0.58856  Biso   1.000  O
  O10      1.0000 0.27569  0.62451  0.58945  Biso   1.000  O
  O11      1.0000 0.27517  0.12524  0.09053  Biso   1.000  O
  O12      1.0000 0.27584  0.62612  0.08930  Biso   1.000  O
  O13      1.0000 0.22432  0.37422  0.58953  Biso   1.000  O
  O14      1.0000 0.22357  0.87499  0.58861  Biso   1.000  O
  O15      1.0000 0.22431  0.37570  0.08935  Biso   1.000  O
  O16      1.0000 0.22319  0.87665  0.09035  Biso   1.000  O
  O17      1.0000 0.53311  0.16626  0.33147  Biso   1.000  O
  O18      1.0000 0.53310  0.66646  0.33145  Biso   1.000  O
  O19      1.0000 0.53284  0.08394  0.83160  Biso   1.000  O
  O20      1.0000 0.53321  0.58371  0.83139  Biso   1.000  O
  O21      1.0000 0.96715  0.41590  0.33196  Biso   1.000  O
  O22      1.0000 0.96779  0.91635  0.33063  Biso   1.000  O
  O23      1.0000 0.96706  0.33353  0.83189  Biso   1.000  O
  O24      1.0000 0.96674  0.83366  0.83100  Biso   1.000  O
  O25      1.0000 0.77581  0.12417  0.91021  Biso   1.000  O
  O26      1.0000 0.77580  0.62429  0.91080  Biso   1.000  O
  O27      1.0000 0.77572  0.12572  0.41033  Biso   1.000  O
  O28      1.0000 0.77582  0.62577  0.41088  Biso   1.000  O
  O29      1.0000 0.72442  0.37418  0.91095  Biso   1.000  O
  O30      1.0000 0.72420  0.87431  0.91052  Biso   1.000  O
  O31      1.0000 0.72441  0.37573  0.41084  Biso   1.000  O
  O32      1.0000 0.72459  0.87585  0.41064  Biso   1.000  O
