data_image0
_cell_length_a       10.3009
_cell_length_b       10.3185
_cell_length_c       10.6134
_cell_angle_alpha    89.7891
_cell_angle_beta     79.5837
_cell_angle_gamma    89.7365

_symmetry_space_group_name_H-M    "P 1"
_symmetry_int_tables_number       1

loop_
  _symmetry_equiv_pos_as_xyz
  'x, y, z'

loop_
  _atom_site_label
  _atom_site_occupancy
  _atom_site_fract_x
  _atom_site_fract_y
  _atom_site_fract_z
  _atom_site_thermal_displace_type
  _atom_site_B_iso_or_equiv
  _atom_site_type_symbol
  Zr1      1.0000 0.13510  0.01990  0.14399  Biso   1.000  Zr
  Zr2      1.0000 0.12022  0.22254  0.39627  Biso   1.000  Zr
  Zr3      1.0000 0.35496  0.27007  0.08940  Biso   1.000  Zr
  Zr4      1.0000 0.36569  0.50007  0.35444  Biso   1.000  Zr
  O1       1.0000 0.02970  0.15972  0.07005  Biso   1.000  O
  O2       1.0000 0.02191  0.08577  0.31804  Biso   1.000  O
  O3       1.0000 0.47835  0.39416  0.19156  Biso   1.000  O
  O4       1.0000 0.49184  0.36844  0.44090  Biso   1.000  O
  O5       1.0000 0.27041  0.12150  0.23555  Biso   1.000  O
  O6       1.0000 0.27357  0.11807  0.48342  Biso   1.000  O
  O7       1.0000 0.22007  0.38079  0.00257  Biso   1.000  O
  O8       1.0000 0.23794  0.36712  0.25746  Biso   1.000  O
  Zr5      1.0000 0.13843  0.02147  0.64380  Biso   1.000  Zr
  Zr6      1.0000 0.13547  0.22786  0.89094  Biso   1.000  Zr
  Zr7      1.0000 0.36800  0.27386  0.60833  Biso   1.000  Zr
  Zr8      1.0000 0.36055  0.48112  0.85327  Biso   1.000  Zr
  O9       1.0000 0.02687  0.15938  0.57580  Biso   1.000  O
  O10      1.0000 0.02959  0.08762  0.82205  Biso   1.000  O
  O11      1.0000 0.47221  0.41054  0.68542  Biso   1.000  O
  O12      1.0000 0.47319  0.34722  0.92852  Biso   1.000  O
  O13      1.0000 0.27277  0.12686  0.73847  Biso   1.000  O
  O14      1.0000 0.27064  0.12192  0.98460  Biso   1.000  O
  O15      1.0000 0.24323  0.36766  0.49588  Biso   1.000  O
  O16      1.0000 0.22408  0.37399  0.75660  Biso   1.000  O
  Zr9      1.0000 0.14019  0.51944  0.14613  Biso   1.000  Zr
  Zr10     1.0000 0.13289  0.72839  0.39702  Biso   1.000  Zr
  Zr11     1.0000 0.36065  0.77182  0.10226  Biso   1.000  Zr
  Zr12     1.0000 0.35651  0.96681  0.35331  Biso   1.000  Zr
  O17      1.0000 0.03128  0.65815  0.07248  Biso   1.000  O
  O18      1.0000 0.03201  0.58864  0.32238  Biso   1.000  O
  O19      1.0000 0.46848  0.90842  0.17728  Biso   1.000  O
  O20      1.0000 0.46825  0.83773  0.43028  Biso   1.000  O
  O21      1.0000 0.27361  0.63012  0.24000  Biso   1.000  O
  O22      1.0000 0.26800  0.62546  0.49536  Biso   1.000  O
  O23      1.0000 0.22458  0.87765  0.00862  Biso   1.000  O
  O24      1.0000 0.22010  0.86807  0.25800  Biso   1.000  O
  Zr13     1.0000 0.13878  0.51852  0.64470  Biso   1.000  Zr
  Zr14     1.0000 0.13739  0.72693  0.89531  Biso   1.000  Zr
  Zr15     1.0000 0.36101  0.77207  0.60649  Biso   1.000  Zr
  Zr16     1.0000 0.36066  0.97835  0.85312  Biso   1.000  Zr
  O25      1.0000 0.02681  0.65835  0.57407  Biso   1.000  O
  O26      1.0000 0.03208  0.58783  0.82091  Biso   1.000  O
  O27      1.0000 0.46904  0.91108  0.67734  Biso   1.000  O
  O28      1.0000 0.46940  0.84129  0.92760  Biso   1.000  O
  O29      1.0000 0.27358  0.62718  0.74000  Biso   1.000  O
  O30      1.0000 0.27489  0.62354  0.99057  Biso   1.000  O
  O31      1.0000 0.22263  0.87459  0.51118  Biso   1.000  O
  O32      1.0000 0.22491  0.87172  0.76010  Biso   1.000  O
  Zr17     1.0000 0.63771  0.02159  0.14583  Biso   1.000  Zr
  Zr18     1.0000 0.64749  0.23506  0.40065  Biso   1.000  Zr
  Zr19     1.0000 0.86257  0.27195  0.10552  Biso   1.000  Zr
  Zr20     1.0000 0.86207  0.48161  0.35500  Biso   1.000  Zr
  O33      1.0000 0.52719  0.15775  0.07498  Biso   1.000  O
  O34      1.0000 0.52812  0.08889  0.33237  Biso   1.000  O
  O35      1.0000 0.97348  0.40788  0.17751  Biso   1.000  O
  O36      1.0000 0.96573  0.34501  0.43101  Biso   1.000  O
  O37      1.0000 0.77199  0.12842  0.23924  Biso   1.000  O
  O38      1.0000 0.77903  0.12096  0.49292  Biso   1.000  O
  O39      1.0000 0.72612  0.37671  0.01210  Biso   1.000  O
  O40      1.0000 0.73220  0.37494  0.26140  Biso   1.000  O
  Zr21     1.0000 0.63835  0.02237  0.64725  Biso   1.000  Zr
  Zr22     1.0000 0.63816  0.22827  0.89805  Biso   1.000  Zr
  Zr23     1.0000 0.85919  0.27260  0.60969  Biso   1.000  Zr
  Zr24     1.0000 0.86145  0.47878  0.85510  Biso   1.000  Zr
  O41      1.0000 0.53470  0.16214  0.57408  Biso   1.000  O
  O42      1.0000 0.52857  0.09190  0.82441  Biso   1.000  O
  O43      1.0000 0.97051  0.40955  0.67681  Biso   1.000  O
  O44      1.0000 0.96682  0.33820  0.92543  Biso   1.000  O
  O45      1.0000 0.77232  0.12800  0.74285  Biso   1.000  O
  O46      1.0000 0.77282  0.12116  0.99095  Biso   1.000  O
  O47      1.0000 0.72882  0.37925  0.51524  Biso   1.000  O
  O48      1.0000 0.72639  0.37274  0.76375  Biso   1.000  O
  Zr25     1.0000 0.63803  0.51964  0.14631  Biso   1.000  Zr
  Zr26     1.0000 0.63986  0.73061  0.39693  Biso   1.000  Zr
  Zr27     1.0000 0.86130  0.77003  0.10427  Biso   1.000  Zr
  Zr28     1.0000 0.85623  0.97705  0.35429  Biso   1.000  Zr
  O49      1.0000 0.52751  0.65462  0.07044  Biso   1.000  O
  O50      1.0000 0.53435  0.60240  0.31514  Biso   1.000  O
  O51      1.0000 0.96562  0.90864  0.17483  Biso   1.000  O
  O52      1.0000 0.96541  0.83856  0.42655  Biso   1.000  O
  O53      1.0000 0.77630  0.62783  0.23859  Biso   1.000  O
  O54      1.0000 0.77353  0.62345  0.49003  Biso   1.000  O
  O55      1.0000 0.72440  0.87787  0.01219  Biso   1.000  O
  O56      1.0000 0.72238  0.87285  0.26107  Biso   1.000  O
  Zr29     1.0000 0.63718  0.52322  0.64671  Biso   1.000  Zr
  Zr30     1.0000 0.63721  0.72755  0.89626  Biso   1.000  Zr
  Zr31     1.0000 0.86079  0.77218  0.60635  Biso   1.000  Zr
  Zr32     1.0000 0.86091  0.97746  0.85510  Biso   1.000  Zr
  O57      1.0000 0.52866  0.65825  0.57189  Biso   1.000  O
  O58      1.0000 0.52867  0.59483  0.82162  Biso   1.000  O
  O59      1.0000 0.96847  0.91092  0.67610  Biso   1.000  O
  O60      1.0000 0.96747  0.83625  0.92495  Biso   1.000  O
  O61      1.0000 0.77317  0.62780  0.74016  Biso   1.000  O
  O62      1.0000 0.77347  0.62135  0.98945  Biso   1.000  O
  O63      1.0000 0.72343  0.87797  0.51248  Biso   1.000  O
  O64      1.0000 0.72539  0.87252  0.76209  Biso   1.000  O
  Hf1      1.0000 0.38603  0.24369  0.33709  Biso   1.000  Hf
