data_image0
_cell_length_a       5.0292
_cell_length_b       10.2199
_cell_length_c       10.0584
_cell_angle_alpha    89.9964
_cell_angle_beta     90.0012
_cell_angle_gamma    90.0029

_symmetry_space_group_name_H-M    "P 1"
_symmetry_int_tables_number       1

loop_
  _symmetry_equiv_pos_as_xyz
  'x, y, z'

loop_
  _atom_site_label
  _atom_site_occupancy
  _atom_site_fract_x
  _atom_site_fract_y
  _atom_site_fract_z
  _atom_site_thermal_displace_type
  _atom_site_B_iso_or_equiv
  _atom_site_type_symbol
  Hf1      1.0000 0.25001  0.00009  0.12506  Biso   1.000  Hf
  Zr1      1.0000 0.25001  0.00009  0.62506  Biso   1.000  Zr
  Zr2      1.0000 0.25003  0.50009  0.12505  Biso   1.000  Zr
  Zr3      1.0000 0.25003  0.50009  0.62506  Biso   1.000  Zr
  Zr4      1.0000 0.25013  0.25000  0.37499  Biso   1.000  Zr
  Zr5      1.0000 0.24996  0.25000  0.87510  Biso   1.000  Zr
  Zr6      1.0000 0.24997  0.75018  0.37499  Biso   1.000  Zr
  Zr7      1.0000 0.25014  0.75018  0.87510  Biso   1.000  Zr
  Zr8      1.0000 0.75004  0.24991  0.12505  Biso   1.000  Zr
  Zr9      1.0000 0.75004  0.25009  0.62505  Biso   1.000  Zr
  Zr10     1.0000 0.75006  0.75027  0.12504  Biso   1.000  Zr
  Zr11     1.0000 0.75005  0.75008  0.62504  Biso   1.000  Zr
  Zr12     1.0000 0.75001  0.00009  0.37478  Biso   1.000  Zr
  Zr13     1.0000 0.75001  0.00009  0.87534  Biso   1.000  Zr
  Zr14     1.0000 0.75003  0.50009  0.37509  Biso   1.000  Zr
  Zr15     1.0000 0.75003  0.50009  0.87502  Biso   1.000  Zr
  O1       1.0000 0.99942  0.14629  0.99988  Biso   1.000  O
  O2       1.0000 0.99895  0.14637  0.49941  Biso   1.000  O
  O3       1.0000 0.99920  0.64664  0.99972  Biso   1.000  O
  O4       1.0000 0.99965  0.64641  0.49980  Biso   1.000  O
  O5       1.0000 0.00167  0.10307  0.24923  Biso   1.000  O
  O6       1.0000 0.00051  0.10379  0.74985  Biso   1.000  O
  O7       1.0000 0.00057  0.60372  0.24993  Biso   1.000  O
  O8       1.0000 0.00018  0.60380  0.74985  Biso   1.000  O
  O9       1.0000 0.99918  0.35355  0.25039  Biso   1.000  O
  O10      1.0000 0.99965  0.35377  0.75031  Biso   1.000  O
  O11      1.0000 0.99942  0.85390  0.25022  Biso   1.000  O
  O12      1.0000 0.99897  0.85381  0.75069  Biso   1.000  O
  O13      1.0000 0.00055  0.39646  0.00017  Biso   1.000  O
  O14      1.0000 0.00017  0.39637  0.50025  Biso   1.000  O
  O15      1.0000 0.00168  0.89710  0.00087  Biso   1.000  O
  O16      1.0000 0.00051  0.89639  0.50025  Biso   1.000  O
  O17      1.0000 0.50061  0.14628  0.25022  Biso   1.000  O
  O18      1.0000 0.50110  0.14637  0.75070  Biso   1.000  O
  O19      1.0000 0.50087  0.64664  0.25037  Biso   1.000  O
  O20      1.0000 0.50038  0.64641  0.75029  Biso   1.000  O
  O21      1.0000 0.49837  0.10307  0.00086  Biso   1.000  O
  O22      1.0000 0.49955  0.10379  0.50026  Biso   1.000  O
  O23      1.0000 0.49951  0.60371  0.00015  Biso   1.000  O
  O24      1.0000 0.49985  0.60380  0.50023  Biso   1.000  O
  O25      1.0000 0.50085  0.35354  0.99974  Biso   1.000  O
  O26      1.0000 0.50037  0.35377  0.49982  Biso   1.000  O
  O27      1.0000 0.50064  0.85389  0.99988  Biso   1.000  O
  O28      1.0000 0.50110  0.85381  0.49940  Biso   1.000  O
  O29      1.0000 0.49949  0.39646  0.24995  Biso   1.000  O
  O30      1.0000 0.49985  0.39637  0.74987  Biso   1.000  O
  O31      1.0000 0.49837  0.89710  0.24923  Biso   1.000  O
  O32      1.0000 0.49957  0.89638  0.74985  Biso   1.000  O
