data_image0
_cell_length_a       10.0278
_cell_length_b       5.21102
_cell_length_c       10.0581
_cell_angle_alpha    89.9808
_cell_angle_beta     89.9644
_cell_angle_gamma    89.9985

_symmetry_space_group_name_H-M    "P 1"
_symmetry_int_tables_number       1

loop_
  _symmetry_equiv_pos_as_xyz
  'x, y, z'

loop_
  _atom_site_label
  _atom_site_occupancy
  _atom_site_fract_x
  _atom_site_fract_y
  _atom_site_fract_z
  _atom_site_thermal_displace_type
  _atom_site_B_iso_or_equiv
  _atom_site_type_symbol
  Hf1      1.0000 0.13446  0.03251  0.12566  Biso   1.000  Hf
  Zr1      1.0000 0.13384  0.03153  0.62584  Biso   1.000  Zr
  Zr2      1.0000 0.63396  0.03170  0.12574  Biso   1.000  Zr
  Zr3      1.0000 0.63390  0.03143  0.62567  Biso   1.000  Zr
  Zr4      1.0000 0.13389  0.46875  0.37549  Biso   1.000  Zr
  Zr5      1.0000 0.13368  0.46835  0.87612  Biso   1.000  Zr
  Zr6      1.0000 0.63403  0.46884  0.37564  Biso   1.000  Zr
  Zr7      1.0000 0.63374  0.46867  0.87579  Biso   1.000  Zr
  Zr8      1.0000 0.36597  0.53194  0.12597  Biso   1.000  Zr
  Zr9      1.0000 0.36615  0.53161  0.62584  Biso   1.000  Zr
  Zr10     1.0000 0.86677  0.53155  0.12557  Biso   1.000  Zr
  Zr11     1.0000 0.86609  0.53138  0.62579  Biso   1.000  Zr
  Zr12     1.0000 0.36613  0.96901  0.37583  Biso   1.000  Zr
  Zr13     1.0000 0.36587  0.96853  0.87595  Biso   1.000  Zr
  Zr14     1.0000 0.86665  0.96862  0.37526  Biso   1.000  Zr
  Zr15     1.0000 0.86632  0.96891  0.87583  Biso   1.000  Zr
  O1       1.0000 0.03618  0.36571  0.19384  Biso   1.000  O
  O2       1.0000 0.03549  0.36727  0.69496  Biso   1.000  O
  O3       1.0000 0.53571  0.36810  0.19427  Biso   1.000  O
  O4       1.0000 0.53580  0.36803  0.69421  Biso   1.000  O
  O5       1.0000 0.03580  0.13246  0.44455  Biso   1.000  O
  O6       1.0000 0.03592  0.13061  0.94582  Biso   1.000  O
  O7       1.0000 0.53582  0.13242  0.44420  Biso   1.000  O
  O8       1.0000 0.53557  0.13205  0.94427  Biso   1.000  O
  O9       1.0000 0.46422  0.86787  0.19430  Biso   1.000  O
  O10      1.0000 0.46403  0.86809  0.69428  Biso   1.000  O
  O11      1.0000 0.96564  0.86690  0.19378  Biso   1.000  O
  O12      1.0000 0.96419  0.86779  0.69425  Biso   1.000  O
  O13      1.0000 0.46418  0.63233  0.44412  Biso   1.000  O
  O14      1.0000 0.46346  0.63167  0.94422  Biso   1.000  O
  O15      1.0000 0.96433  0.63199  0.44421  Biso   1.000  O
  O16      1.0000 0.96352  0.63086  0.94348  Biso   1.000  O
  O17      1.0000 0.26930  0.23376  0.24900  Biso   1.000  O
  O18      1.0000 0.26957  0.23426  0.74944  Biso   1.000  O
  O19      1.0000 0.76984  0.23426  0.24904  Biso   1.000  O
  O20      1.0000 0.76951  0.23413  0.74923  Biso   1.000  O
  O21      1.0000 0.26964  0.26622  0.49920  Biso   1.000  O
  O22      1.0000 0.26916  0.26521  0.99983  Biso   1.000  O
  O23      1.0000 0.76976  0.26595  0.49908  Biso   1.000  O
  O24      1.0000 0.76950  0.26601  0.99916  Biso   1.000  O
  O25      1.0000 0.23035  0.76597  0.49920  Biso   1.000  O
  O26      1.0000 0.22929  0.76661  0.99979  Biso   1.000  O
  O27      1.0000 0.73052  0.76614  0.49893  Biso   1.000  O
  O28      1.0000 0.73020  0.76606  0.99905  Biso   1.000  O
  O29      1.0000 0.22964  0.73587  0.24878  Biso   1.000  O
  O30      1.0000 0.23018  0.73400  0.74945  Biso   1.000  O
  O31      1.0000 0.73087  0.73431  0.24893  Biso   1.000  O
  O32      1.0000 0.73019  0.73417  0.74905  Biso   1.000  O
