data_image0
_cell_length_a       10.1121
_cell_length_b       10.3661
_cell_length_c       5.33682
_cell_angle_alpha    89.8388
_cell_angle_beta     91.8056
_cell_angle_gamma    91.1638

_symmetry_space_group_name_H-M    "P 1"
_symmetry_int_tables_number       1

loop_
  _symmetry_equiv_pos_as_xyz
  'x, y, z'

loop_
  _atom_site_label
  _atom_site_occupancy
  _atom_site_fract_x
  _atom_site_fract_y
  _atom_site_fract_z
  _atom_site_thermal_displace_type
  _atom_site_B_iso_or_equiv
  _atom_site_type_symbol
  Zr1      1.0000 0.14188  0.02260  0.34961  Biso   1.000  Zr
  Zr2      1.0000 0.13677  0.22830  0.86018  Biso   1.000  Zr
  Zr3      1.0000 0.35047  0.27604  0.38848  Biso   1.000  Zr
  Zr4      1.0000 0.35527  0.48654  0.86397  Biso   1.000  Zr
  Zr5      1.0000 0.65401  0.01388  0.14783  Biso   1.000  Zr
  Zr6      1.0000 0.65782  0.21686  0.61517  Biso   1.000  Zr
  Zr7      1.0000 0.85647  0.26537  0.14165  Biso   1.000  Zr
  Zr8      1.0000 0.86029  0.47609  0.65334  Biso   1.000  Zr
  O1       1.0000 0.03363  0.15954  0.16531  Biso   1.000  O
  O2       1.0000 0.03852  0.08483  0.66408  Biso   1.000  O
  O3       1.0000 0.46123  0.43617  0.20309  Biso   1.000  O
  O4       1.0000 0.47221  0.33088  0.69316  Biso   1.000  O
  O5       1.0000 0.27589  0.12625  0.61064  Biso   1.000  O
  O6       1.0000 0.28153  0.12932  0.10280  Biso   1.000  O
  O7       1.0000 0.21924  0.37854  0.62069  Biso   1.000  O
  O8       1.0000 0.21925  0.37825  0.11621  Biso   1.000  O
  O9       1.0000 0.52258  0.14694  0.35076  Biso   1.000  O
  O10      1.0000 0.53520  0.09529  0.84909  Biso   1.000  O
  O11      1.0000 0.96088  0.41143  0.34374  Biso   1.000  O
  O12      1.0000 0.96733  0.33665  0.84094  Biso   1.000  O
  O13      1.0000 0.79037  0.11471  0.88164  Biso   1.000  O
  O14      1.0000 0.79412  0.11589  0.39826  Biso   1.000  O
  O15      1.0000 0.71594  0.37464  0.89437  Biso   1.000  O
  O16      1.0000 0.70901  0.36904  0.37341  Biso   1.000  O
  Zr9      1.0000 0.13519  0.52025  0.35142  Biso   1.000  Zr
  Zr10     1.0000 0.14021  0.72817  0.84692  Biso   1.000  Zr
  Zr11     1.0000 0.36511  0.77587  0.35260  Biso   1.000  Zr
  Zr12     1.0000 0.36195  0.97728  0.85530  Biso   1.000  Zr
  Zr13     1.0000 0.64026  0.53411  0.15139  Biso   1.000  Zr
  Zr14     1.0000 0.64211  0.73029  0.65495  Biso   1.000  Zr
  Zr15     1.0000 0.86762  0.76779  0.15966  Biso   1.000  Zr
  Zr16     1.0000 0.86981  0.97226  0.65742  Biso   1.000  Zr
  O17      1.0000 0.03421  0.65959  0.16441  Biso   1.000  O
  O18      1.0000 0.03024  0.58530  0.66780  Biso   1.000  O
  O19      1.0000 0.47483  0.91068  0.15635  Biso   1.000  O
  O20      1.0000 0.47557  0.84503  0.66366  Biso   1.000  O
  O21      1.0000 0.27414  0.62704  0.59661  Biso   1.000  O
  O22      1.0000 0.27499  0.62832  0.09612  Biso   1.000  O
  O23      1.0000 0.22898  0.87475  0.60017  Biso   1.000  O
  O24      1.0000 0.22782  0.87756  0.09864  Biso   1.000  O
  O25      1.0000 0.53377  0.67168  0.34022  Biso   1.000  O
  O26      1.0000 0.52893  0.59051  0.83763  Biso   1.000  O
  O27      1.0000 0.97747  0.90713  0.34260  Biso   1.000  O
  O28      1.0000 0.97469  0.83483  0.84632  Biso   1.000  O
  O29      1.0000 0.77996  0.62624  0.90082  Biso   1.000  O
  O30      1.0000 0.77867  0.62388  0.40957  Biso   1.000  O
  O31      1.0000 0.73159  0.87064  0.91309  Biso   1.000  O
  O32      1.0000 0.73425  0.86904  0.41092  Biso   1.000  O
  Hf1      1.0000 0.54646  0.26792  0.04756  Biso   1.000  Hf
