data_image0
_cell_length_a       10.0894
_cell_length_b       5.15327
_cell_length_c       10.4971
_cell_angle_alpha    89.9991
_cell_angle_beta     90.0031
_cell_angle_gamma    89.9892

_symmetry_space_group_name_H-M    "P 1"
_symmetry_int_tables_number       1

loop_
  _symmetry_equiv_pos_as_xyz
  'x, y, z'

loop_
  _atom_site_label
  _atom_site_occupancy
  _atom_site_fract_x
  _atom_site_fract_y
  _atom_site_fract_z
  _atom_site_thermal_displace_type
  _atom_site_B_iso_or_equiv
  _atom_site_type_symbol
  Hf1      1.0000 0.13900  0.04203  0.17146  Biso   1.000  Hf
  Zr1      1.0000 0.13876  0.04207  0.67099  Biso   1.000  Zr
  Zr2      1.0000 0.13865  0.45812  0.42076  Biso   1.000  Zr
  Zr3      1.0000 0.13876  0.45760  0.92132  Biso   1.000  Zr
  Zr4      1.0000 0.36096  0.54238  0.17096  Biso   1.000  Zr
  Zr5      1.0000 0.36126  0.54222  0.67105  Biso   1.000  Zr
  Zr6      1.0000 0.36115  0.95832  0.42095  Biso   1.000  Zr
  Zr7      1.0000 0.36107  0.95813  0.92116  Biso   1.000  Zr
  Zr8      1.0000 0.63885  0.04220  0.07895  Biso   1.000  Zr
  Zr9      1.0000 0.63878  0.04207  0.57901  Biso   1.000  Zr
  Zr10     1.0000 0.63874  0.45803  0.32892  Biso   1.000  Zr
  Zr11     1.0000 0.63883  0.45811  0.82916  Biso   1.000  Zr
  Zr12     1.0000 0.86202  0.54204  0.07926  Biso   1.000  Zr
  Zr13     1.0000 0.86117  0.54197  0.57899  Biso   1.000  Zr
  Zr14     1.0000 0.86146  0.95808  0.32877  Biso   1.000  Zr
  Zr15     1.0000 0.86130  0.95789  0.82911  Biso   1.000  Zr
  O1       1.0000 0.03331  0.33012  0.08441  Biso   1.000  O
  O2       1.0000 0.03298  0.33184  0.58376  Biso   1.000  O
  O3       1.0000 0.03373  0.16678  0.33349  Biso   1.000  O
  O4       1.0000 0.03304  0.16794  0.83397  Biso   1.000  O
  O5       1.0000 0.46685  0.83230  0.08426  Biso   1.000  O
  O6       1.0000 0.46680  0.83280  0.58433  Biso   1.000  O
  O7       1.0000 0.46642  0.66711  0.33439  Biso   1.000  O
  O8       1.0000 0.46684  0.66767  0.83442  Biso   1.000  O
  O9       1.0000 0.27530  0.24819  0.29417  Biso   1.000  O
  O10      1.0000 0.27579  0.24858  0.79485  Biso   1.000  O
  O11      1.0000 0.27524  0.25097  0.04533  Biso   1.000  O
  O12      1.0000 0.27576  0.25173  0.54459  Biso   1.000  O
  O13      1.0000 0.22365  0.74991  0.29424  Biso   1.000  O
  O14      1.0000 0.22425  0.74850  0.79485  Biso   1.000  O
  O15      1.0000 0.22329  0.75322  0.04529  Biso   1.000  O
  O16      1.0000 0.22421  0.75150  0.54456  Biso   1.000  O
  O17      1.0000 0.53303  0.33267  0.16573  Biso   1.000  O
  O18      1.0000 0.53316  0.33270  0.66575  Biso   1.000  O
  O19      1.0000 0.53310  0.16754  0.41567  Biso   1.000  O
  O20      1.0000 0.53295  0.16781  0.91585  Biso   1.000  O
  O21      1.0000 0.96794  0.83249  0.16548  Biso   1.000  O
  O22      1.0000 0.96700  0.83200  0.66581  Biso   1.000  O
  O23      1.0000 0.96679  0.66728  0.41560  Biso   1.000  O
  O24      1.0000 0.96701  0.66710  0.91584  Biso   1.000  O
  O25      1.0000 0.77577  0.24852  0.95533  Biso   1.000  O
  O26      1.0000 0.77584  0.24839  0.45517  Biso   1.000  O
  O27      1.0000 0.77575  0.25152  0.20529  Biso   1.000  O
  O28      1.0000 0.77579  0.25146  0.70531  Biso   1.000  O
  O29      1.0000 0.72442  0.74848  0.95544  Biso   1.000  O
  O30      1.0000 0.72421  0.74848  0.45530  Biso   1.000  O
  O31      1.0000 0.72476  0.75154  0.20535  Biso   1.000  O
  O32      1.0000 0.72425  0.75160  0.70538  Biso   1.000  O
