data_image0
_cell_length_a       10.0584
_cell_length_b       10.2199
_cell_length_c       5.02919
_cell_angle_alpha    90.0028
_cell_angle_beta     90.0003
_cell_angle_gamma    89.9976

_symmetry_space_group_name_H-M    "P 1"
_symmetry_int_tables_number       1

loop_
  _symmetry_equiv_pos_as_xyz
  'x, y, z'

loop_
  _atom_site_label
  _atom_site_occupancy
  _atom_site_fract_x
  _atom_site_fract_y
  _atom_site_fract_z
  _atom_site_thermal_displace_type
  _atom_site_B_iso_or_equiv
  _atom_site_type_symbol
  Hf1      1.0000 0.12505  0.00009  0.25000  Biso   1.000  Hf
  Zr1      1.0000 0.12505  0.50009  0.25001  Biso   1.000  Zr
  Zr2      1.0000 0.62505  0.00009  0.25000  Biso   1.000  Zr
  Zr3      1.0000 0.62505  0.50009  0.25002  Biso   1.000  Zr
  Zr4      1.0000 0.12504  0.24991  0.75002  Biso   1.000  Zr
  Zr5      1.0000 0.12504  0.75027  0.75003  Biso   1.000  Zr
  Zr6      1.0000 0.62504  0.25010  0.75003  Biso   1.000  Zr
  Zr7      1.0000 0.62504  0.75008  0.75004  Biso   1.000  Zr
  Zr8      1.0000 0.37499  0.25000  0.25011  Biso   1.000  Zr
  Zr9      1.0000 0.37498  0.75018  0.24995  Biso   1.000  Zr
  Zr10     1.0000 0.87509  0.24999  0.24994  Biso   1.000  Zr
  Zr11     1.0000 0.87509  0.75018  0.25011  Biso   1.000  Zr
  Zr12     1.0000 0.37477  0.00009  0.75000  Biso   1.000  Zr
  Zr13     1.0000 0.37508  0.50009  0.75001  Biso   1.000  Zr
  Zr14     1.0000 0.87533  0.00009  0.75000  Biso   1.000  Zr
  Zr15     1.0000 0.87502  0.50009  0.75001  Biso   1.000  Zr
  O1       1.0000 0.99988  0.14628  0.99940  Biso   1.000  O
  O2       1.0000 0.99971  0.64663  0.99917  Biso   1.000  O
  O3       1.0000 0.49940  0.14637  0.99893  Biso   1.000  O
  O4       1.0000 0.49979  0.64641  0.99967  Biso   1.000  O
  O5       1.0000 0.00086  0.10307  0.49836  Biso   1.000  O
  O6       1.0000 0.00016  0.60372  0.49949  Biso   1.000  O
  O7       1.0000 0.50025  0.10379  0.49953  Biso   1.000  O
  O8       1.0000 0.50024  0.60380  0.49988  Biso   1.000  O
  O9       1.0000 0.99973  0.35354  0.50084  Biso   1.000  O
  O10      1.0000 0.99987  0.85389  0.50062  Biso   1.000  O
  O11      1.0000 0.49981  0.35377  0.50036  Biso   1.000  O
  O12      1.0000 0.49940  0.85381  0.50109  Biso   1.000  O
  O13      1.0000 0.00017  0.39646  0.00054  Biso   1.000  O
  O14      1.0000 0.00086  0.89710  0.00166  Biso   1.000  O
  O15      1.0000 0.50025  0.39637  0.00016  Biso   1.000  O
  O16      1.0000 0.50025  0.89638  0.00049  Biso   1.000  O
  O17      1.0000 0.25022  0.14628  0.50061  Biso   1.000  O
  O18      1.0000 0.25037  0.64663  0.50086  Biso   1.000  O
  O19      1.0000 0.75069  0.14637  0.50110  Biso   1.000  O
  O20      1.0000 0.75029  0.64641  0.50036  Biso   1.000  O
  O21      1.0000 0.24923  0.10307  0.00166  Biso   1.000  O
  O22      1.0000 0.24993  0.60372  0.00055  Biso   1.000  O
  O23      1.0000 0.74984  0.10379  0.00050  Biso   1.000  O
  O24      1.0000 0.74985  0.60380  0.00017  Biso   1.000  O
  O25      1.0000 0.25038  0.35355  0.99916  Biso   1.000  O
  O26      1.0000 0.25022  0.85389  0.99941  Biso   1.000  O
  O27      1.0000 0.75030  0.35377  0.99964  Biso   1.000  O
  O28      1.0000 0.75069  0.85381  0.99895  Biso   1.000  O
  O29      1.0000 0.24994  0.39646  0.49947  Biso   1.000  O
  O30      1.0000 0.24922  0.89710  0.49836  Biso   1.000  O
  O31      1.0000 0.74986  0.39637  0.49984  Biso   1.000  O
  O32      1.0000 0.74984  0.89638  0.49955  Biso   1.000  O
