data_image0
_cell_length_a       10.109
_cell_length_b       10.2184
_cell_length_c       10.109
_cell_angle_alpha    89.9996
_cell_angle_beta     90
_cell_angle_gamma    89.9998

_symmetry_space_group_name_H-M    "P 1"
_symmetry_int_tables_number       1

loop_
  _symmetry_equiv_pos_as_xyz
  'x, y, z'

loop_
  _atom_site_label
  _atom_site_occupancy
  _atom_site_fract_x
  _atom_site_fract_y
  _atom_site_fract_z
  _atom_site_thermal_displace_type
  _atom_site_B_iso_or_equiv
  _atom_site_type_symbol
  Zr1      1.0000 0.12512  0.98271  0.10658  Biso   1.000  Zr
  Zr2      1.0000 0.12513  0.25023  0.37405  Biso   1.000  Zr
  Zr3      1.0000 0.39265  0.25022  0.10656  Biso   1.000  Zr
  Zr4      1.0000 0.37331  0.49777  0.35473  Biso   1.000  Zr
  O1       1.0000 0.99488  0.14152  0.23682  Biso   1.000  O
  O2       1.0000 0.00242  0.10566  0.48462  Biso   1.000  O
  O3       1.0000 0.50322  0.39478  0.22927  Biso   1.000  O
  O4       1.0000 0.49687  0.35446  0.47830  Biso   1.000  O
  O5       1.0000 0.24622  0.11137  0.22760  Biso   1.000  O
  O6       1.0000 0.25670  0.14113  0.48264  Biso   1.000  O
  O7       1.0000 0.24784  0.39478  0.48463  Biso   1.000  O
  O8       1.0000 0.25544  0.35888  0.23685  Biso   1.000  O
  Zr5      1.0000 0.12514  0.99595  0.60655  Biso   1.000  Zr
  Zr6      1.0000 0.12514  0.25022  0.83905  Biso   1.000  Zr
  Zr7      1.0000 0.37841  0.25022  0.60655  Biso   1.000  Zr
  Zr8      1.0000 0.37231  0.49678  0.85937  Biso   1.000  Zr
  O9       1.0000 0.99357  0.14114  0.73046  Biso   1.000  O
  O10      1.0000 0.00409  0.11138  0.98547  Biso   1.000  O
  O11      1.0000 0.50249  0.39619  0.72920  Biso   1.000  O
  O12      1.0000 0.50124  0.35931  0.97499  Biso   1.000  O
  O13      1.0000 0.24785  0.10566  0.72847  Biso   1.000  O
  O14      1.0000 0.25545  0.14157  0.97625  Biso   1.000  O
  O15      1.0000 0.24621  0.38908  0.98550  Biso   1.000  O
  O16      1.0000 0.25671  0.35931  0.73047  Biso   1.000  O
  Zr9      1.0000 0.12513  0.51773  0.10655  Biso   1.000  Zr
  Zr10     1.0000 0.12513  0.75021  0.35948  Biso   1.000  Zr
  Zr11     1.0000 0.37805  0.75023  0.10656  Biso   1.000  Zr
  Zr12     1.0000 0.37231  0.00366  0.35373  Biso   1.000  Zr
  O17      1.0000 0.99948  0.64318  0.23221  Biso   1.000  O
  O18      1.0000 0.00222  0.60640  0.47943  Biso   1.000  O
  O19      1.0000 0.49801  0.89404  0.22947  Biso   1.000  O
  O20      1.0000 0.49841  0.85451  0.47982  Biso   1.000  O
  O21      1.0000 0.25273  0.61273  0.23417  Biso   1.000  O
  O22      1.0000 0.25121  0.64446  0.48315  Biso   1.000  O
  O23      1.0000 0.24806  0.89403  0.47944  Biso   1.000  O
  O24      1.0000 0.25078  0.85725  0.23222  Biso   1.000  O
  Zr13     1.0000 0.12514  0.50449  0.60656  Biso   1.000  Zr
  Zr14     1.0000 0.12513  0.75023  0.85364  Biso   1.000  Zr
  Zr15     1.0000 0.37660  0.75022  0.60656  Biso   1.000  Zr
  Zr16     1.0000 0.37332  0.00267  0.85838  Biso   1.000  Zr
  O25      1.0000 0.99907  0.64447  0.72997  Biso   1.000  O
  O26      1.0000 0.99753  0.61275  0.97894  Biso   1.000  O
  O27      1.0000 0.50063  0.89631  0.73108  Biso   1.000  O
  O28      1.0000 0.50171  0.85598  0.98048  Biso   1.000  O
  O29      1.0000 0.24805  0.60640  0.73369  Biso   1.000  O
  O30      1.0000 0.25079  0.64320  0.98091  Biso   1.000  O
  O31      1.0000 0.25274  0.88772  0.97896  Biso   1.000  O
  O32      1.0000 0.25123  0.85598  0.72999  Biso   1.000  O
  Zr17     1.0000 0.62514  0.99596  0.10656  Biso   1.000  Zr
  Zr18     1.0000 0.62514  0.25023  0.35983  Biso   1.000  Zr
  Zr19     1.0000 0.85765  0.25022  0.10656  Biso   1.000  Zr
  Zr20     1.0000 0.87795  0.49678  0.35373  Biso   1.000  Zr
  O33      1.0000 0.50124  0.14114  0.23812  Biso   1.000  O
  O34      1.0000 0.50248  0.10425  0.48390  Biso   1.000  O
  O35      1.0000 0.00408  0.38906  0.22762  Biso   1.000  O
  O36      1.0000 0.99357  0.35931  0.48264  Biso   1.000  O
  O37      1.0000 0.74707  0.10566  0.22927  Biso   1.000  O
  O38      1.0000 0.75339  0.14597  0.47830  Biso   1.000  O
  O39      1.0000 0.74778  0.39619  0.48390  Biso   1.000  O
  O40      1.0000 0.74906  0.35930  0.23813  Biso   1.000  O
  Zr21     1.0000 0.62514  0.99824  0.60655  Biso   1.000  Zr
  Zr22     1.0000 0.62514  0.25022  0.85328  Biso   1.000  Zr
  Zr23     1.0000 0.87186  0.25023  0.60655  Biso   1.000  Zr
  Zr24     1.0000 0.87696  0.49778  0.85837  Biso   1.000  Zr
  O41      1.0000 0.49688  0.14598  0.73481  Biso   1.000  O
  O42      1.0000 0.50323  0.10566  0.98384  Biso   1.000  O
  O43      1.0000 0.00242  0.39479  0.72847  Biso   1.000  O
  O44      1.0000 0.99486  0.35890  0.97627  Biso   1.000  O
  O45      1.0000 0.74779  0.10425  0.72921  Biso   1.000  O
  O46      1.0000 0.74906  0.14115  0.97499  Biso   1.000  O
  O47      1.0000 0.74707  0.39479  0.98385  Biso   1.000  O
  O48      1.0000 0.75339  0.35447  0.73481  Biso   1.000  O
  Zr25     1.0000 0.62513  0.50449  0.10654  Biso   1.000  Zr
  Zr26     1.0000 0.62513  0.75022  0.35801  Biso   1.000  Zr
  Zr27     1.0000 0.87221  0.75022  0.10656  Biso   1.000  Zr
  Zr28     1.0000 0.87695  0.00267  0.35474  Biso   1.000  Zr
  O49      1.0000 0.50171  0.64447  0.23262  Biso   1.000  O
  O50      1.0000 0.50062  0.60414  0.48203  Biso   1.000  O
  O51      1.0000 0.99752  0.88768  0.23418  Biso   1.000  O
  O52      1.0000 0.99908  0.85597  0.48315  Biso   1.000  O
  O53      1.0000 0.75225  0.60640  0.22947  Biso   1.000  O
  O54      1.0000 0.75188  0.64593  0.47981  Biso   1.000  O
  O55      1.0000 0.74967  0.89630  0.48203  Biso   1.000  O
  O56      1.0000 0.74855  0.85598  0.23263  Biso   1.000  O
  Zr29     1.0000 0.62513  0.50220  0.60656  Biso   1.000  Zr
  Zr30     1.0000 0.62514  0.75023  0.85510  Biso   1.000  Zr
  Zr31     1.0000 0.87369  0.75021  0.60655  Biso   1.000  Zr
  Zr32     1.0000 0.87796  0.00366  0.85937  Biso   1.000  Zr
  O57      1.0000 0.49840  0.64593  0.73329  Biso   1.000  O
  O58      1.0000 0.49801  0.60640  0.98364  Biso   1.000  O
  O59      1.0000 0.00224  0.89405  0.73369  Biso   1.000  O
  O60      1.0000 0.99947  0.85726  0.98091  Biso   1.000  O
  O61      1.0000 0.74966  0.60414  0.73108  Biso   1.000  O
  O62      1.0000 0.74856  0.64447  0.98048  Biso   1.000  O
  O63      1.0000 0.75225  0.89405  0.98363  Biso   1.000  O
  O64      1.0000 0.75189  0.85451  0.73330  Biso   1.000  O
  Hf1      1.0000 0.12515  0.25022  0.10655  Biso   1.000  Hf
