data_image0
_cell_length_a       10.1387
_cell_length_b       5.13583
_cell_length_c       10.1387
_cell_angle_alpha    90
_cell_angle_beta     90
_cell_angle_gamma    90

_symmetry_space_group_name_H-M    "P 1"
_symmetry_int_tables_number       1

loop_
  _symmetry_equiv_pos_as_xyz
  'x, y, z'

loop_
  _atom_site_label
  _atom_site_occupancy
  _atom_site_fract_x
  _atom_site_fract_y
  _atom_site_fract_z
  _atom_site_thermal_displace_type
  _atom_site_B_iso_or_equiv
  _atom_site_type_symbol
  Zr1      1.0000 0.12517  0.99996  0.10669  Biso   1.000  Zr
  Zr2      1.0000 0.12517  0.49995  0.37500  Biso   1.000  Zr
  Zr3      1.0000 0.39349  0.49996  0.10669  Biso   1.000  Zr
  Zr4      1.0000 0.37158  0.00143  0.35310  Biso   1.000  Zr
  O1       1.0000 0.99687  0.27019  0.23500  Biso   1.000  O
  O2       1.0000 0.00571  0.21707  0.48439  Biso   1.000  O
  O3       1.0000 0.50287  0.78284  0.22614  Biso   1.000  O
  O4       1.0000 0.49197  0.71228  0.47349  Biso   1.000  O
  O5       1.0000 0.24806  0.23830  0.22957  Biso   1.000  O
  O6       1.0000 0.25996  0.27755  0.48136  Biso   1.000  O
  O7       1.0000 0.24463  0.78284  0.48439  Biso   1.000  O
  O8       1.0000 0.25347  0.72973  0.23500  Biso   1.000  O
  Zr5      1.0000 0.12517  0.99996  0.60669  Biso   1.000  Zr
  Zr6      1.0000 0.12517  0.49996  0.83837  Biso   1.000  Zr
  Zr7      1.0000 0.37937  0.49996  0.60669  Biso   1.000  Zr
  Zr8      1.0000 0.37158  0.99849  0.86027  Biso   1.000  Zr
  O9       1.0000 0.99038  0.27757  0.73202  Biso   1.000  O
  O10      1.0000 0.00228  0.23830  0.98381  Biso   1.000  O
  O11      1.0000 0.50540  0.78626  0.72645  Biso   1.000  O
  O12      1.0000 0.49985  0.72236  0.97189  Biso   1.000  O
  O13      1.0000 0.24463  0.21708  0.72899  Biso   1.000  O
  O14      1.0000 0.25347  0.27019  0.97838  Biso   1.000  O
  O15      1.0000 0.24806  0.76161  0.98381  Biso   1.000  O
  O16      1.0000 0.25996  0.72236  0.73202  Biso   1.000  O
  Zr9      1.0000 0.62517  0.99996  0.10669  Biso   1.000  Zr
  Zr10     1.0000 0.62517  0.49996  0.36090  Biso   1.000  Zr
  Zr11     1.0000 0.85685  0.49996  0.10669  Biso   1.000  Zr
  Zr12     1.0000 0.87876  0.99849  0.35310  Biso   1.000  Zr
  O17      1.0000 0.49985  0.27755  0.24148  Biso   1.000  O
  O18      1.0000 0.50541  0.21366  0.48692  Biso   1.000  O
  O19      1.0000 0.00228  0.76161  0.22957  Biso   1.000  O
  O20      1.0000 0.99038  0.72235  0.48136  Biso   1.000  O
  O21      1.0000 0.74748  0.21707  0.22615  Biso   1.000  O
  O22      1.0000 0.75837  0.28764  0.47349  Biso   1.000  O
  O23      1.0000 0.74494  0.78626  0.48693  Biso   1.000  O
  O24      1.0000 0.75049  0.72236  0.24148  Biso   1.000  O
  Zr13     1.0000 0.62517  0.99996  0.60669  Biso   1.000  Zr
  Zr14     1.0000 0.62517  0.49996  0.85248  Biso   1.000  Zr
  Zr15     1.0000 0.87097  0.49996  0.60669  Biso   1.000  Zr
  Zr16     1.0000 0.87875  0.00143  0.86027  Biso   1.000  Zr
  O25      1.0000 0.49198  0.28763  0.73988  Biso   1.000  O
  O26      1.0000 0.50287  0.21708  0.98723  Biso   1.000  O
  O27      1.0000 0.00571  0.78285  0.72899  Biso   1.000  O
  O28      1.0000 0.99687  0.72972  0.97838  Biso   1.000  O
  O29      1.0000 0.74494  0.21364  0.72645  Biso   1.000  O
  O30      1.0000 0.75049  0.27757  0.97189  Biso   1.000  O
  O31      1.0000 0.74748  0.78285  0.98723  Biso   1.000  O
  O32      1.0000 0.75837  0.71227  0.73989  Biso   1.000  O
  Hf1      1.0000 0.12517  0.49996  0.10669  Biso   1.000  Hf
