data_image0
_cell_length_a       10.1711
_cell_length_b       10.3542
_cell_length_c       5.24223
_cell_angle_alpha    89.988
_cell_angle_beta     80.451
_cell_angle_gamma    89.9858

_symmetry_space_group_name_H-M    "P 1"
_symmetry_int_tables_number       1

loop_
  _symmetry_equiv_pos_as_xyz
  'x, y, z'

loop_
  _atom_site_label
  _atom_site_occupancy
  _atom_site_fract_x
  _atom_site_fract_y
  _atom_site_fract_z
  _atom_site_thermal_displace_type
  _atom_site_B_iso_or_equiv
  _atom_site_type_symbol
  Hf1      1.0000 0.13907  0.02130  0.29144  Biso   1.000  Hf
  Zr1      1.0000 0.13893  0.52135  0.29083  Biso   1.000  Zr
  Zr2      1.0000 0.63881  0.02131  0.29060  Biso   1.000  Zr
  Zr3      1.0000 0.63896  0.52138  0.29069  Biso   1.000  Zr
  Zr4      1.0000 0.13883  0.22833  0.79082  Biso   1.000  Zr
  Zr5      1.0000 0.13880  0.72899  0.79072  Biso   1.000  Zr
  Zr6      1.0000 0.63893  0.22874  0.79068  Biso   1.000  Zr
  Zr7      1.0000 0.63887  0.72875  0.79087  Biso   1.000  Zr
  Zr8      1.0000 0.36108  0.27133  0.20951  Biso   1.000  Zr
  Zr9      1.0000 0.36091  0.77158  0.20927  Biso   1.000  Zr
  Zr10     1.0000 0.86154  0.27101  0.20941  Biso   1.000  Zr
  Zr11     1.0000 0.86145  0.77165  0.20951  Biso   1.000  Zr
  Zr12     1.0000 0.36115  0.47877  0.70948  Biso   1.000  Zr
  Zr13     1.0000 0.36090  0.97889  0.70943  Biso   1.000  Zr
  Zr14     1.0000 0.86119  0.47870  0.70953  Biso   1.000  Zr
  Zr15     1.0000 0.86137  0.97877  0.70882  Biso   1.000  Zr
  O1       1.0000 0.03610  0.16892  0.16172  Biso   1.000  O
  O2       1.0000 0.03606  0.67009  0.16187  Biso   1.000  O
  O3       1.0000 0.53615  0.17041  0.16232  Biso   1.000  O
  O4       1.0000 0.53600  0.67048  0.16232  Biso   1.000  O
  O5       1.0000 0.03654  0.07954  0.65971  Biso   1.000  O
  O6       1.0000 0.03616  0.57976  0.66226  Biso   1.000  O
  O7       1.0000 0.53590  0.07973  0.66236  Biso   1.000  O
  O8       1.0000 0.53619  0.57963  0.66242  Biso   1.000  O
  O9       1.0000 0.46387  0.42047  0.33769  Biso   1.000  O
  O10      1.0000 0.46382  0.92031  0.33789  Biso   1.000  O
  O11      1.0000 0.96422  0.41995  0.33821  Biso   1.000  O
  O12      1.0000 0.96492  0.92027  0.33699  Biso   1.000  O
  O13      1.0000 0.46376  0.32953  0.83775  Biso   1.000  O
  O14      1.0000 0.46339  0.82953  0.83747  Biso   1.000  O
  O15      1.0000 0.96411  0.32952  0.83822  Biso   1.000  O
  O16      1.0000 0.96379  0.82965  0.83761  Biso   1.000  O
  O17      1.0000 0.27566  0.12854  0.48046  Biso   1.000  O
  O18      1.0000 0.27608  0.62941  0.48160  Biso   1.000  O
  O19      1.0000 0.77599  0.12897  0.48132  Biso   1.000  O
  O20      1.0000 0.77618  0.62911  0.48155  Biso   1.000  O
  O21      1.0000 0.27559  0.12055  0.98248  Biso   1.000  O
  O22      1.0000 0.27610  0.62118  0.98144  Biso   1.000  O
  O23      1.0000 0.77623  0.12093  0.98112  Biso   1.000  O
  O24      1.0000 0.77608  0.62100  0.98150  Biso   1.000  O
  O25      1.0000 0.22389  0.37901  0.01885  Biso   1.000  O
  O26      1.0000 0.22308  0.87986  0.01962  Biso   1.000  O
  O27      1.0000 0.72408  0.37894  0.01879  Biso   1.000  O
  O28      1.0000 0.72384  0.87907  0.01863  Biso   1.000  O
  O29      1.0000 0.22406  0.37085  0.51896  Biso   1.000  O
  O30      1.0000 0.22306  0.87180  0.51793  Biso   1.000  O
  O31      1.0000 0.72407  0.37098  0.51871  Biso   1.000  O
  O32      1.0000 0.72426  0.87114  0.51861  Biso   1.000  O
