data_image0
_cell_length_a       10.1682
_cell_length_b       10.287
_cell_length_c       10.6026
_cell_angle_alpha    90.0563
_cell_angle_beta     90.5794
_cell_angle_gamma    89.754

_symmetry_space_group_name_H-M    "P 1"
_symmetry_int_tables_number       1

loop_
  _symmetry_equiv_pos_as_xyz
  'x, y, z'

loop_
  _atom_site_label
  _atom_site_occupancy
  _atom_site_fract_x
  _atom_site_fract_y
  _atom_site_fract_z
  _atom_site_thermal_displace_type
  _atom_site_B_iso_or_equiv
  _atom_site_type_symbol
  Zr1      1.0000 0.13785  0.01928  0.17277  Biso   1.000  Zr
  Zr2      1.0000 0.13674  0.22848  0.42400  Biso   1.000  Zr
  Zr3      1.0000 0.35340  0.26555  0.17920  Biso   1.000  Zr
  Zr4      1.0000 0.36132  0.47776  0.42473  Biso   1.000  Zr
  Zr5      1.0000 0.63450  0.99806  0.08133  Biso   1.000  Zr
  Zr6      1.0000 0.63291  0.22647  0.33318  Biso   1.000  Zr
  Zr7      1.0000 0.87982  0.27740  0.07368  Biso   1.000  Zr
  Zr8      1.0000 0.86079  0.47906  0.32605  Biso   1.000  Zr
  O1       1.0000 0.03394  0.15410  0.07355  Biso   1.000  O
  O2       1.0000 0.02441  0.09512  0.32488  Biso   1.000  O
  O3       1.0000 0.47353  0.40901  0.08591  Biso   1.000  O
  O4       1.0000 0.46681  0.33943  0.32953  Biso   1.000  O
  O5       1.0000 0.26725  0.12373  0.30039  Biso   1.000  O
  O6       1.0000 0.27320  0.12199  0.04775  Biso   1.000  O
  O7       1.0000 0.22209  0.37543  0.30023  Biso   1.000  O
  O8       1.0000 0.22722  0.37465  0.04661  Biso   1.000  O
  O9       1.0000 0.50846  0.13160  0.18944  Biso   1.000  O
  O10      1.0000 0.52580  0.09150  0.43122  Biso   1.000  O
  O11      1.0000 0.97581  0.41315  0.17591  Biso   1.000  O
  O12      1.0000 0.97045  0.34221  0.42206  Biso   1.000  O
  O13      1.0000 0.77494  0.12261  0.45220  Biso   1.000  O
  O14      1.0000 0.75558  0.13564  0.19388  Biso   1.000  O
  O15      1.0000 0.72608  0.37555  0.45309  Biso   1.000  O
  O16      1.0000 0.72387  0.38037  0.19882  Biso   1.000  O
  Zr9      1.0000 0.13772  0.02096  0.67299  Biso   1.000  Zr
  Zr10     1.0000 0.14435  0.22769  0.92077  Biso   1.000  Zr
  Zr11     1.0000 0.36180  0.27083  0.67311  Biso   1.000  Zr
  Zr12     1.0000 0.36256  0.47906  0.92294  Biso   1.000  Zr
  Zr13     1.0000 0.63894  0.01833  0.57714  Biso   1.000  Zr
  Zr14     1.0000 0.64375  0.23032  0.81190  Biso   1.000  Zr
  Zr15     1.0000 0.86332  0.27252  0.57469  Biso   1.000  Zr
  Zr16     1.0000 0.86459  0.48011  0.82665  Biso   1.000  Zr
  O17      1.0000 0.02972  0.15877  0.57738  Biso   1.000  O
  O18      1.0000 0.03011  0.09195  0.82790  Biso   1.000  O
  O19      1.0000 0.47285  0.40647  0.57872  Biso   1.000  O
  O20      1.0000 0.47366  0.34321  0.82918  Biso   1.000  O
  O21      1.0000 0.27467  0.12461  0.79604  Biso   1.000  O
  O22      1.0000 0.27360  0.12519  0.54799  Biso   1.000  O
  O23      1.0000 0.22893  0.37499  0.79647  Biso   1.000  O
  O24      1.0000 0.22646  0.37546  0.54806  Biso   1.000  O
  O25      1.0000 0.52488  0.15068  0.67449  Biso   1.000  O
  O26      1.0000 0.52186  0.10515  0.93847  Biso   1.000  O
  O27      1.0000 0.97221  0.41061  0.67034  Biso   1.000  O
  O28      1.0000 0.98010  0.34370  0.91814  Biso   1.000  O
  O29      1.0000 0.76296  0.12993  0.95466  Biso   1.000  O
  O30      1.0000 0.77894  0.12319  0.69776  Biso   1.000  O
  O31      1.0000 0.73155  0.38031  0.95044  Biso   1.000  O
  O32      1.0000 0.72985  0.37705  0.69930  Biso   1.000  O
  Zr17     1.0000 0.14163  0.52213  0.17471  Biso   1.000  Zr
  Zr18     1.0000 0.13701  0.72911  0.42346  Biso   1.000  Zr
  Zr19     1.0000 0.35936  0.76874  0.17511  Biso   1.000  Zr
  Zr20     1.0000 0.36160  0.97773  0.42460  Biso   1.000  Zr
  Zr21     1.0000 0.64348  0.53274  0.07652  Biso   1.000  Zr
  Zr22     1.0000 0.63843  0.72838  0.33003  Biso   1.000  Zr
  Zr23     1.0000 0.86699  0.77082  0.07806  Biso   1.000  Zr
  Zr24     1.0000 0.86117  0.98084  0.32786  Biso   1.000  Zr
  O33      1.0000 0.03345  0.66041  0.07876  Biso   1.000  O
  O34      1.0000 0.02947  0.59256  0.32974  Biso   1.000  O
  O35      1.0000 0.46792  0.89304  0.07000  Biso   1.000  O
  O36      1.0000 0.47201  0.84423  0.32578  Biso   1.000  O
  O37      1.0000 0.27440  0.62424  0.29881  Biso   1.000  O
  O38      1.0000 0.27633  0.62394  0.04748  Biso   1.000  O
  O39      1.0000 0.22493  0.87309  0.29828  Biso   1.000  O
  O40      1.0000 0.22446  0.87518  0.04765  Biso   1.000  O
  O41      1.0000 0.52947  0.65911  0.17652  Biso   1.000  O
  O42      1.0000 0.52838  0.59137  0.42363  Biso   1.000  O
  O43      1.0000 0.96938  0.91191  0.17148  Biso   1.000  O
  O44      1.0000 0.96909  0.84412  0.42257  Biso   1.000  O
  O45      1.0000 0.77481  0.62448  0.45380  Biso   1.000  O
  O46      1.0000 0.77784  0.62886  0.20424  Biso   1.000  O
  O47      1.0000 0.72531  0.87417  0.45556  Biso   1.000  O
  O48      1.0000 0.73124  0.87063  0.20868  Biso   1.000  O
  Zr25     1.0000 0.13916  0.52192  0.67264  Biso   1.000  Zr
  Zr26     1.0000 0.14018  0.72978  0.92230  Biso   1.000  Zr
  Zr27     1.0000 0.36246  0.77175  0.67336  Biso   1.000  Zr
  Zr28     1.0000 0.36316  0.97934  0.92391  Biso   1.000  Zr
  Zr29     1.0000 0.63937  0.52192  0.57637  Biso   1.000  Zr
  Zr30     1.0000 0.63983  0.72880  0.82577  Biso   1.000  Zr
  Zr31     1.0000 0.86233  0.77263  0.57932  Biso   1.000  Zr
  Zr32     1.0000 0.86190  0.98224  0.82997  Biso   1.000  Zr
  O49      1.0000 0.03053  0.66184  0.57945  Biso   1.000  O
  O50      1.0000 0.03200  0.59175  0.82802  Biso   1.000  O
  O51      1.0000 0.47220  0.90298  0.57540  Biso   1.000  O
  O52      1.0000 0.47485  0.84705  0.82368  Biso   1.000  O
  O53      1.0000 0.27659  0.62418  0.79793  Biso   1.000  O
  O54      1.0000 0.27383  0.62533  0.54747  Biso   1.000  O
  O55      1.0000 0.22709  0.87418  0.79743  Biso   1.000  O
  O56      1.0000 0.22566  0.87610  0.54794  Biso   1.000  O
  O57      1.0000 0.52936  0.65706  0.67355  Biso   1.000  O
  O58      1.0000 0.52951  0.59318  0.92270  Biso   1.000  O
  O59      1.0000 0.96995  0.91042  0.67363  Biso   1.000  O
  O60      1.0000 0.97230  0.84195  0.92161  Biso   1.000  O
  O61      1.0000 0.77873  0.62829  0.95104  Biso   1.000  O
  O62      1.0000 0.77535  0.62628  0.70249  Biso   1.000  O
  O63      1.0000 0.72874  0.87220  0.95419  Biso   1.000  O
  O64      1.0000 0.72721  0.87533  0.70613  Biso   1.000  O
  Hf1      1.0000 0.61495  0.25469  0.06610  Biso   1.000  Hf
