data_image0
_cell_length_a       10.0845
_cell_length_b       10.1981
_cell_length_c       10.066
_cell_angle_alpha    89.1948
_cell_angle_beta     90.392
_cell_angle_gamma    89.246

_symmetry_space_group_name_H-M    "P 1"
_symmetry_int_tables_number       1

loop_
  _symmetry_equiv_pos_as_xyz
  'x, y, z'

loop_
  _atom_site_label
  _atom_site_occupancy
  _atom_site_fract_x
  _atom_site_fract_y
  _atom_site_fract_z
  _atom_site_thermal_displace_type
  _atom_site_B_iso_or_equiv
  _atom_site_type_symbol
  Hg1      1.0000 0.12289  0.00109  0.10553  Biso   1.000  Hg
  Hf1      1.0000 0.14194  0.23910  0.36348  Biso   1.000  Hf
  Hf2      1.0000 0.39228  0.24938  0.12283  Biso   1.000  Hf
  Hf3      1.0000 0.37651  0.99202  0.37548  Biso   1.000  Hf
  O1       1.0000 0.02753  0.12595  0.97580  Biso   1.000  O
  O2       1.0000 0.01667  0.10325  0.23762  Biso   1.000  O
  O3       1.0000 0.01056  0.35468  0.25815  Biso   1.000  O
  O4       1.0000 0.01681  0.37942  0.00759  Biso   1.000  O
  O5       1.0000 0.27749  0.14543  0.25081  Biso   1.000  O
  O6       1.0000 0.28980  0.14405  0.97849  Biso   1.000  O
  O7       1.0000 0.26848  0.38244  0.01275  Biso   1.000  O
  O8       1.0000 0.26240  0.38981  0.25856  Biso   1.000  O
  Hf4      1.0000 0.12131  0.00702  0.62156  Biso   1.000  Hf
  Hf5      1.0000 0.15319  0.27323  0.88559  Biso   1.000  Hf
  Hf6      1.0000 0.36898  0.24730  0.62023  Biso   1.000  Hf
  Hf7      1.0000 0.37169  0.99720  0.86796  Biso   1.000  Hf
  O9       1.0000 0.99110  0.15679  0.47777  Biso   1.000  O
  O10      1.0000 0.97546  0.09826  0.72009  Biso   1.000  O
  O11      1.0000 0.00042  0.34529  0.75508  Biso   1.000  O
  O12      1.0000 0.97273  0.40427  0.51434  Biso   1.000  O
  O13      1.0000 0.22795  0.15858  0.73455  Biso   1.000  O
  O14      1.0000 0.24360  0.09861  0.49012  Biso   1.000  O
  O15      1.0000 0.23038  0.35284  0.50720  Biso   1.000  O
  O16      1.0000 0.24936  0.41303  0.76276  Biso   1.000  O
  Hf8      1.0000 0.12526  0.49602  0.14068  Biso   1.000  Hf
  Hf9      1.0000 0.10172  0.76255  0.36802  Biso   1.000  Hf
  Hf10     1.0000 0.37077  0.75002  0.13292  Biso   1.000  Hf
  Hf11     1.0000 0.35982  0.51421  0.38656  Biso   1.000  Hf
  O17      1.0000 0.99230  0.61710  0.00896  Biso   1.000  O
  O18      1.0000 0.98919  0.60676  0.25485  Biso   1.000  O
  O19      1.0000 0.95624  0.84995  0.25641  Biso   1.000  O
  O20      1.0000 0.96031  0.85520  0.98457  Biso   1.000  O
  O21      1.0000 0.23348  0.64313  0.27106  Biso   1.000  O
  O22      1.0000 0.24176  0.62279  0.02019  Biso   1.000  O
  O23      1.0000 0.21927  0.88509  0.97322  Biso   1.000  O
  O24      1.0000 0.22778  0.89189  0.23567  Biso   1.000  O
  Hf12     1.0000 0.11356  0.49032  0.62236  Biso   1.000  Hf
  Hf13     1.0000 0.10489  0.73491  0.88901  Biso   1.000  Hf
  Hf14     1.0000 0.37654  0.75452  0.62652  Biso   1.000  Hf
  Hf15     1.0000 0.37202  0.52568  0.88323  Biso   1.000  Hf
  O25      1.0000 0.01352  0.64873  0.50974  Biso   1.000  O
  O26      1.0000 0.01666  0.59866  0.76122  Biso   1.000  O
  O27      1.0000 0.02052  0.85427  0.74126  Biso   1.000  O
  O28      1.0000 0.00795  0.90365  0.49197  Biso   1.000  O
  O29      1.0000 0.27221  0.67962  0.78435  Biso   1.000  O
  O30      1.0000 0.26584  0.59606  0.54197  Biso   1.000  O
  O31      1.0000 0.26128  0.84053  0.47398  Biso   1.000  O
  O32      1.0000 0.27649  0.91687  0.71273  Biso   1.000  O
  Hf16     1.0000 0.62532  0.99725  0.11683  Biso   1.000  Hf
  Hf17     1.0000 0.61482  0.23238  0.37891  Biso   1.000  Hf
  Hf18     1.0000 0.88135  0.24857  0.12209  Biso   1.000  Hf
  Hf19     1.0000 0.86996  0.00603  0.37420  Biso   1.000  Hf
  O33      1.0000 0.54125  0.15774  0.01157  Biso   1.000  O
  O34      1.0000 0.51323  0.09365  0.25717  Biso   1.000  O
  O35      1.0000 0.53389  0.34456  0.22970  Biso   1.000  O
  O36      1.0000 0.51800  0.40870  0.97796  Biso   1.000  O
  O37      1.0000 0.77198  0.16334  0.26920  Biso   1.000  O
  O38      1.0000 0.78998  0.07738  0.03069  Biso   1.000  O
  O39      1.0000 0.77710  0.32737  0.96684  Biso   1.000  O
  O40      1.0000 0.77827  0.40997  0.20878  Biso   1.000  O
  Hf20     1.0000 0.62726  0.99856  0.64427  Biso   1.000  Hf
  Hf21     1.0000 0.61739  0.26423  0.85957  Biso   1.000  Hf
  Hf22     1.0000 0.87146  0.25098  0.61817  Biso   1.000  Hf
  Hf23     1.0000 0.88174  0.00442  0.86853  Biso   1.000  Hf
  O41      1.0000 0.48808  0.13518  0.50230  Biso   1.000  O
  O42      1.0000 0.49141  0.11456  0.75334  Biso   1.000  O
  O43      1.0000 0.49727  0.35918  0.72635  Biso   1.000  O
  O44      1.0000 0.48730  0.38454  0.48279  Biso   1.000  O
  O45      1.0000 0.74178  0.13856  0.76290  Biso   1.000  O
  O46      1.0000 0.74277  0.10653  0.51337  Biso   1.000  O
  O47      1.0000 0.73602  0.35906  0.47739  Biso   1.000  O
  O48      1.0000 0.74867  0.39514  0.72919  Biso   1.000  O
  Hf24     1.0000 0.61470  0.50545  0.12811  Biso   1.000  Hf
  Hf25     1.0000 0.63448  0.76388  0.39297  Biso   1.000  Hf
  Hf26     1.0000 0.86466  0.73222  0.11848  Biso   1.000  Hf
  Hf27     1.0000 0.86269  0.49518  0.36783  Biso   1.000  Hf
  O49      1.0000 0.49363  0.65935  0.99547  Biso   1.000  O
  O50      1.0000 0.46747  0.58999  0.23127  Biso   1.000  O
  O51      1.0000 0.47452  0.83537  0.27874  Biso   1.000  O
  O52      1.0000 0.45890  0.91384  0.03238  Biso   1.000  O
  O53      1.0000 0.72566  0.64818  0.25147  Biso   1.000  O
  O54      1.0000 0.74653  0.58738  0.99436  Biso   1.000  O
  O55      1.0000 0.70667  0.83176  0.02869  Biso   1.000  O
  O56      1.0000 0.71544  0.91594  0.28023  Biso   1.000  O
  Hf28     1.0000 0.61380  0.49233  0.60324  Biso   1.000  Hf
  Hf29     1.0000 0.63789  0.73328  0.86757  Biso   1.000  Hf
  Hf30     1.0000 0.88692  0.74788  0.63079  Biso   1.000  Hf
  Hf31     1.0000 0.87692  0.48207  0.87162  Biso   1.000  Hf
  O57      1.0000 0.50156  0.63957  0.48942  Biso   1.000  O
  O58      1.0000 0.51342  0.60657  0.74394  Biso   1.000  O
  O59      1.0000 0.50907  0.86027  0.77114  Biso   1.000  O
  O60      1.0000 0.50742  0.89264  0.51841  Biso   1.000  O
  O61      1.0000 0.77513  0.63961  0.75612  Biso   1.000  O
  O62      1.0000 0.75448  0.61065  0.50177  Biso   1.000  O
  O63      1.0000 0.76129  0.86065  0.51696  Biso   1.000  O
  O64      1.0000 0.75657  0.88560  0.76518  Biso   1.000  O
