data_image0
_cell_length_a       9.96584
_cell_length_b       5.30561
_cell_length_c       10.2211
_cell_angle_alpha    87.3107
_cell_angle_beta     90.8904
_cell_angle_gamma    90.2042

_symmetry_space_group_name_H-M    "P 1"
_symmetry_int_tables_number       1

loop_
  _symmetry_equiv_pos_as_xyz
  'x, y, z'

loop_
  _atom_site_label
  _atom_site_occupancy
  _atom_site_fract_x
  _atom_site_fract_y
  _atom_site_fract_z
  _atom_site_thermal_displace_type
  _atom_site_B_iso_or_equiv
  _atom_site_type_symbol
  Hf1      1.0000 0.14108  0.08742  0.13785  Biso   1.000  Hf
  Hf2      1.0000 0.13589  0.46406  0.38565  Biso   1.000  Hf
  Hf3      1.0000 0.37229  0.56238  0.12967  Biso   1.000  Hf
  Hf4      1.0000 0.36986  0.96075  0.37919  Biso   1.000  Hf
  O1       1.0000 0.02625  0.37104  0.21688  Biso   1.000  O
  O2       1.0000 0.05217  0.11017  0.43273  Biso   1.000  O
  O3       1.0000 0.47262  0.87424  0.21137  Biso   1.000  O
  O4       1.0000 0.46517  0.62259  0.45437  Biso   1.000  O
  O5       1.0000 0.27773  0.25358  0.25740  Biso   1.000  O
  O6       1.0000 0.27923  0.24751  0.50432  Biso   1.000  O
  O7       1.0000 0.23416  0.74613  0.50249  Biso   1.000  O
  O8       1.0000 0.22898  0.74459  0.25491  Biso   1.000  O
  Hf5      1.0000 0.14038  0.00282  0.61457  Biso   1.000  Hf
  Hf6      1.0000 0.12061  0.40467  0.83369  Biso   1.000  Hf
  Hf7      1.0000 0.36863  0.51043  0.63010  Biso   1.000  Hf
  Hf8      1.0000 0.39252  0.95004  0.86473  Biso   1.000  Hf
  O9       1.0000 0.05305  0.35187  0.64702  Biso   1.000  O
  O10      1.0000 0.02535  0.12938  0.94103  Biso   1.000  O
  O11      1.0000 0.46664  0.83467  0.68845  Biso   1.000  O
  O12      1.0000 0.47908  0.62510  0.95034  Biso   1.000  O
  O13      1.0000 0.26814  0.19401  0.75210  Biso   1.000  O
  O14      1.0000 0.24454  0.35994  0.01140  Biso   1.000  O
  O15      1.0000 0.27680  0.88022  0.02057  Biso   1.000  O
  O16      1.0000 0.23380  0.70454  0.75588  Biso   1.000  O
  Hf9      1.0000 0.63938  0.04583  0.13686  Biso   1.000  Hf
  Hf10     1.0000 0.63023  0.46141  0.38730  Biso   1.000  Hf
  Hf11     1.0000 0.84524  0.53938  0.15720  Biso   1.000  Hf
  Hf12     1.0000 0.87383  0.96145  0.38777  Biso   1.000  Hf
  O17      1.0000 0.53865  0.37530  0.20298  Biso   1.000  O
  O18      1.0000 0.53557  0.12750  0.45291  Biso   1.000  O
  O19      1.0000 0.96061  0.88831  0.20912  Biso   1.000  O
  O20      1.0000 0.96192  0.61762  0.44273  Biso   1.000  O
  O21      1.0000 0.76622  0.23561  0.27074  Biso   1.000  O
  O22      1.0000 0.76974  0.26094  0.51346  Biso   1.000  O
  O23      1.0000 0.73019  0.75492  0.50743  Biso   1.000  O
  O24      1.0000 0.72365  0.74577  0.26538  Biso   1.000  O
  Hf13     1.0000 0.63900  0.01887  0.62869  Biso   1.000  Hf
  Hf14     1.0000 0.64188  0.44927  0.88093  Biso   1.000  Hf
  Hf15     1.0000 0.86738  0.52718  0.62990  Biso   1.000  Hf
  Hf16     1.0000 0.87278  0.91758  0.86227  Biso   1.000  Hf
  O25      1.0000 0.52762  0.32287  0.71223  Biso   1.000  O
  O26      1.0000 0.53795  0.12836  0.95925  Biso   1.000  O
  O27      1.0000 0.95446  0.89202  0.65959  Biso   1.000  O
  O28      1.0000 0.93201  0.55985  0.82326  Biso   1.000  O
  O29      1.0000 0.76707  0.20452  0.76321  Biso   1.000  O
  O30      1.0000 0.76410  0.30172  0.02488  Biso   1.000  O
  O31      1.0000 0.74852  0.78477  0.00963  Biso   1.000  O
  O32      1.0000 0.71558  0.72376  0.75074  Biso   1.000  O
  Hg1      1.0000 0.06579  0.66521  0.03207  Biso   1.000  Hg
