data_image0
_cell_length_a       10.1738
_cell_length_b       10.2959
_cell_length_c       10.5261
_cell_angle_alpha    90.1169
_cell_angle_beta     79.8936
_cell_angle_gamma    89.9025

_symmetry_space_group_name_H-M    "P 1"
_symmetry_int_tables_number       1

loop_
  _symmetry_equiv_pos_as_xyz
  'x, y, z'

loop_
  _atom_site_label
  _atom_site_occupancy
  _atom_site_fract_x
  _atom_site_fract_y
  _atom_site_fract_z
  _atom_site_thermal_displace_type
  _atom_site_B_iso_or_equiv
  _atom_site_type_symbol
  Hf1      1.0000 0.13043  0.02095  0.14268  Biso   1.000  Hf
  Hf2      1.0000 0.13650  0.22732  0.39234  Biso   1.000  Hf
  Hf3      1.0000 0.35337  0.27463  0.09603  Biso   1.000  Hf
  Hf4      1.0000 0.36433  0.47827  0.35083  Biso   1.000  Hf
  O1       1.0000 0.03071  0.16700  0.07460  Biso   1.000  O
  O2       1.0000 0.02701  0.08250  0.32867  Biso   1.000  O
  O3       1.0000 0.45698  0.43631  0.15526  Biso   1.000  O
  O4       1.0000 0.49338  0.38261  0.46038  Biso   1.000  O
  O5       1.0000 0.25759  0.12436  0.23190  Biso   1.000  O
  O6       1.0000 0.27404  0.11187  0.48842  Biso   1.000  O
  O7       1.0000 0.21857  0.38216  0.00611  Biso   1.000  O
  O8       1.0000 0.21261  0.37583  0.25578  Biso   1.000  O
  Hf5      1.0000 0.13919  0.01994  0.64520  Biso   1.000  Hf
  Hf6      1.0000 0.13531  0.22911  0.89245  Biso   1.000  Hf
  Hf7      1.0000 0.36446  0.27982  0.60833  Biso   1.000  Hf
  Hf8      1.0000 0.35985  0.48009  0.85880  Biso   1.000  Hf
  O9       1.0000 0.03765  0.16633  0.57733  Biso   1.000  O
  O10      1.0000 0.03261  0.08394  0.82579  Biso   1.000  O
  O11      1.0000 0.46924  0.40912  0.69179  Biso   1.000  O
  O12      1.0000 0.46467  0.33333  0.92403  Biso   1.000  O
  O13      1.0000 0.27465  0.13022  0.73742  Biso   1.000  O
  O14      1.0000 0.27213  0.12426  0.98484  Biso   1.000  O
  O15      1.0000 0.22849  0.37389  0.50841  Biso   1.000  O
  O16      1.0000 0.22413  0.37352  0.75942  Biso   1.000  O
  Hf9      1.0000 0.13812  0.52322  0.14630  Biso   1.000  Hf
  Hf10     1.0000 0.13734  0.72631  0.39683  Biso   1.000  Hf
  Hf11     1.0000 0.35942  0.77326  0.10427  Biso   1.000  Hf
  Hf12     1.0000 0.35973  0.96391  0.35841  Biso   1.000  Hf
  O17      1.0000 0.03241  0.66785  0.07715  Biso   1.000  O
  O18      1.0000 0.03232  0.58530  0.32680  Biso   1.000  O
  O19      1.0000 0.46304  0.91932  0.17423  Biso   1.000  O
  O20      1.0000 0.46025  0.82163  0.42313  Biso   1.000  O
  O21      1.0000 0.27456  0.63050  0.24167  Biso   1.000  O
  O22      1.0000 0.27348  0.61723  0.49096  Biso   1.000  O
  O23      1.0000 0.22255  0.88060  0.00992  Biso   1.000  O
  O24      1.0000 0.22163  0.86910  0.26143  Biso   1.000  O
  Hf13     1.0000 0.13898  0.52135  0.64555  Biso   1.000  Hf
  Hf14     1.0000 0.13669  0.72916  0.89680  Biso   1.000  Hf
  Hf15     1.0000 0.36053  0.76759  0.60675  Biso   1.000  Hf
  Hf16     1.0000 0.35945  0.98028  0.85286  Biso   1.000  Hf
  O25      1.0000 0.03166  0.66412  0.57783  Biso   1.000  O
  O26      1.0000 0.03355  0.58506  0.82688  Biso   1.000  O
  O27      1.0000 0.46415  0.91599  0.67026  Biso   1.000  O
  O28      1.0000 0.46389  0.83696  0.92175  Biso   1.000  O
  O29      1.0000 0.27559  0.62730  0.74158  Biso   1.000  O
  O30      1.0000 0.27498  0.62498  0.99250  Biso   1.000  O
  O31      1.0000 0.22195  0.87234  0.51232  Biso   1.000  O
  O32      1.0000 0.22319  0.87103  0.76072  Biso   1.000  O
  Hf17     1.0000 0.64020  0.01815  0.14770  Biso   1.000  Hf
  Hf18     1.0000 0.65667  0.23695  0.41027  Biso   1.000  Hf
  Hf19     1.0000 0.85869  0.27364  0.10536  Biso   1.000  Hf
  Hf20     1.0000 0.86349  0.48001  0.35330  Biso   1.000  Hf
  O33      1.0000 0.53049  0.16016  0.07433  Biso   1.000  O
  O34      1.0000 0.55395  0.05209  0.34642  Biso   1.000  O
  O35      1.0000 0.96388  0.41854  0.17063  Biso   1.000  O
  O36      1.0000 0.96567  0.33221  0.42203  Biso   1.000  O
  O37      1.0000 0.77482  0.13215  0.24285  Biso   1.000  O
  O38      1.0000 0.78088  0.11972  0.49554  Biso   1.000  O
  O39      1.0000 0.72165  0.37887  0.01230  Biso   1.000  O
  O40      1.0000 0.72303  0.37417  0.26340  Biso   1.000  O
  Hf21     1.0000 0.63663  0.02115  0.64605  Biso   1.000  Hf
  Hf22     1.0000 0.63783  0.22751  0.89741  Biso   1.000  Hf
  Hf23     1.0000 0.86711  0.27042  0.60995  Biso   1.000  Hf
  Hf24     1.0000 0.86013  0.47959  0.85498  Biso   1.000  Hf
  O41      1.0000 0.53454  0.16806  0.57645  Biso   1.000  O
  O42      1.0000 0.53216  0.08542  0.82493  Biso   1.000  O
  O43      1.0000 0.96822  0.41618  0.67378  Biso   1.000  O
  O44      1.0000 0.96277  0.33440  0.92160  Biso   1.000  O
  O45      1.0000 0.77473  0.12841  0.74213  Biso   1.000  O
  O46      1.0000 0.77514  0.12175  0.99173  Biso   1.000  O
  O47      1.0000 0.73469  0.37787  0.51684  Biso   1.000  O
  O48      1.0000 0.72582  0.37105  0.76353  Biso   1.000  O
  Hf25     1.0000 0.63526  0.52537  0.14288  Biso   1.000  Hf
  Hf26     1.0000 0.63929  0.72512  0.39522  Biso   1.000  Hf
  Hf27     1.0000 0.85891  0.76965  0.10351  Biso   1.000  Hf
  Hf28     1.0000 0.85814  0.97596  0.35472  Biso   1.000  Hf
  O49      1.0000 0.53656  0.67633  0.07729  Biso   1.000  O
  O50      1.0000 0.53261  0.58954  0.32042  Biso   1.000  O
  O51      1.0000 0.96001  0.91519  0.17311  Biso   1.000  O
  O52      1.0000 0.96369  0.83218  0.42247  Biso   1.000  O
  O53      1.0000 0.77655  0.62772  0.23941  Biso   1.000  O
  O54      1.0000 0.77400  0.61973  0.48931  Biso   1.000  O
  O55      1.0000 0.72340  0.88031  0.00995  Biso   1.000  O
  O56      1.0000 0.72309  0.86656  0.25855  Biso   1.000  O
  Hf29     1.0000 0.63613  0.52017  0.64799  Biso   1.000  Hf
  Hf30     1.0000 0.63645  0.73119  0.89493  Biso   1.000  Hf
  Hf31     1.0000 0.86017  0.77137  0.60389  Biso   1.000  Hf
  Hf32     1.0000 0.86033  0.97889  0.85400  Biso   1.000  Hf
  O57      1.0000 0.53289  0.66285  0.57883  Biso   1.000  O
  O58      1.0000 0.53262  0.58641  0.83009  Biso   1.000  O
  O59      1.0000 0.96465  0.91586  0.67180  Biso   1.000  O
  O60      1.0000 0.96471  0.83470  0.92202  Biso   1.000  O
  O61      1.0000 0.77370  0.62842  0.73867  Biso   1.000  O
  O62      1.0000 0.77413  0.62237  0.98844  Biso   1.000  O
  O63      1.0000 0.72143  0.87739  0.51031  Biso   1.000  O
  O64      1.0000 0.72289  0.87262  0.75974  Biso   1.000  O
  Hg1      1.0000 0.43915  0.22379  0.31021  Biso   1.000  Hg
