data_image0
_cell_length_a       10.0168
_cell_length_b       10.2679
_cell_length_c       10.4326
_cell_angle_alpha    89.6954
_cell_angle_beta     90.6267
_cell_angle_gamma    89.9661

_symmetry_space_group_name_H-M    "P 1"
_symmetry_int_tables_number       1

loop_
  _symmetry_equiv_pos_as_xyz
  'x, y, z'

loop_
  _atom_site_label
  _atom_site_occupancy
  _atom_site_fract_x
  _atom_site_fract_y
  _atom_site_fract_z
  _atom_site_thermal_displace_type
  _atom_site_B_iso_or_equiv
  _atom_site_type_symbol
  Hg1      1.0000 0.12769  0.01779  0.18203  Biso   1.000  Hg
  Hf1      1.0000 0.13540  0.23188  0.42353  Biso   1.000  Hf
  Hf2      1.0000 0.35992  0.27037  0.16619  Biso   1.000  Hf
  Hf3      1.0000 0.36003  0.47951  0.41985  Biso   1.000  Hf
  Hf4      1.0000 0.64092  0.02117  0.07929  Biso   1.000  Hf
  Hf5      1.0000 0.63642  0.23051  0.33002  Biso   1.000  Hf
  Hf6      1.0000 0.86083  0.26980  0.08190  Biso   1.000  Hf
  Hf7      1.0000 0.85965  0.47953  0.32991  Biso   1.000  Hf
  O1       1.0000 0.04329  0.17115  0.09040  Biso   1.000  O
  O2       1.0000 0.02328  0.08050  0.37385  Biso   1.000  O
  O3       1.0000 0.46701  0.41665  0.08430  Biso   1.000  O
  O4       1.0000 0.46288  0.33090  0.33530  Biso   1.000  O
  O5       1.0000 0.27288  0.12310  0.29028  Biso   1.000  O
  O6       1.0000 0.29243  0.13627  0.03070  Biso   1.000  O
  O7       1.0000 0.22238  0.37355  0.29356  Biso   1.000  O
  O8       1.0000 0.22173  0.37752  0.04321  Biso   1.000  O
  O9       1.0000 0.53592  0.16820  0.16381  Biso   1.000  O
  O10      1.0000 0.53228  0.08193  0.41391  Biso   1.000  O
  O11      1.0000 0.96366  0.41915  0.16399  Biso   1.000  O
  O12      1.0000 0.96283  0.33366  0.41733  Biso   1.000  O
  O13      1.0000 0.77107  0.12639  0.46098  Biso   1.000  O
  O14      1.0000 0.77785  0.12789  0.21041  Biso   1.000  O
  O15      1.0000 0.72184  0.37570  0.45611  Biso   1.000  O
  O16      1.0000 0.72293  0.37562  0.20622  Biso   1.000  O
  Hf8      1.0000 0.13760  0.02134  0.66677  Biso   1.000  Hf
  Hf9      1.0000 0.14475  0.22550  0.91829  Biso   1.000  Hf
  Hf10     1.0000 0.36109  0.27089  0.66975  Biso   1.000  Hf
  Hf11     1.0000 0.36119  0.47804  0.92012  Biso   1.000  Hf
  Hf12     1.0000 0.63681  0.02138  0.58167  Biso   1.000  Hf
  Hf13     1.0000 0.63955  0.22873  0.82993  Biso   1.000  Hf
  Hf14     1.0000 0.86092  0.27194  0.58254  Biso   1.000  Hf
  Hf15     1.0000 0.86413  0.47753  0.83110  Biso   1.000  Hf
  O17      1.0000 0.03971  0.18175  0.60027  Biso   1.000  O
  O18      1.0000 0.03841  0.07664  0.83858  Biso   1.000  O
  O19      1.0000 0.46596  0.41778  0.58406  Biso   1.000  O
  O20      1.0000 0.46702  0.33228  0.83417  Biso   1.000  O
  O21      1.0000 0.27738  0.12184  0.78765  Biso   1.000  O
  O22      1.0000 0.27722  0.12706  0.53969  Biso   1.000  O
  O23      1.0000 0.22440  0.37232  0.79364  Biso   1.000  O
  O24      1.0000 0.22285  0.37817  0.54446  Biso   1.000  O
  O25      1.0000 0.53417  0.16822  0.66420  Biso   1.000  O
  O26      1.0000 0.53944  0.07992  0.91238  Biso   1.000  O
  O27      1.0000 0.96347  0.42221  0.66531  Biso   1.000  O
  O28      1.0000 0.96728  0.32705  0.91810  Biso   1.000  O
  O29      1.0000 0.78052  0.12332  0.95808  Biso   1.000  O
  O30      1.0000 0.77695  0.12646  0.70828  Biso   1.000  O
  O31      1.0000 0.72525  0.37278  0.95748  Biso   1.000  O
  O32      1.0000 0.72406  0.37599  0.70686  Biso   1.000  O
  Hf16     1.0000 0.13858  0.52002  0.17002  Biso   1.000  Hf
  Hf17     1.0000 0.13470  0.72718  0.42040  Biso   1.000  Hf
  Hf18     1.0000 0.36256  0.76967  0.16411  Biso   1.000  Hf
  Hf19     1.0000 0.36138  0.97884  0.41913  Biso   1.000  Hf
  Hf20     1.0000 0.63904  0.52005  0.07831  Biso   1.000  Hf
  Hf21     1.0000 0.63802  0.72913  0.32804  Biso   1.000  Hf
  Hf22     1.0000 0.86152  0.76741  0.07678  Biso   1.000  Hf
  Hf23     1.0000 0.85736  0.98326  0.33926  Biso   1.000  Hf
  O33      1.0000 0.03790  0.67355  0.08892  Biso   1.000  O
  O34      1.0000 0.03458  0.57852  0.33696  Biso   1.000  O
  O35      1.0000 0.47142  0.91702  0.08447  Biso   1.000  O
  O36      1.0000 0.46269  0.83168  0.33312  Biso   1.000  O
  O37      1.0000 0.27503  0.62656  0.29323  Biso   1.000  O
  O38      1.0000 0.27702  0.62088  0.04372  Biso   1.000  O
  O39      1.0000 0.22028  0.87260  0.28617  Biso   1.000  O
  O40      1.0000 0.23792  0.86578  0.03206  Biso   1.000  O
  O41      1.0000 0.53552  0.66715  0.16279  Biso   1.000  O
  O42      1.0000 0.53327  0.58257  0.41285  Biso   1.000  O
  O43      1.0000 0.95008  0.92890  0.16162  Biso   1.000  O
  O44      1.0000 0.96047  0.82624  0.41058  Biso   1.000  O
  O45      1.0000 0.77537  0.62455  0.45582  Biso   1.000  O
  O46      1.0000 0.77632  0.62584  0.20554  Biso   1.000  O
  O47      1.0000 0.72024  0.87485  0.45724  Biso   1.000  O
  O48      1.0000 0.72730  0.87504  0.20554  Biso   1.000  O
  Hf24     1.0000 0.13874  0.52058  0.67149  Biso   1.000  Hf
  Hf25     1.0000 0.14195  0.73019  0.91885  Biso   1.000  Hf
  Hf26     1.0000 0.36025  0.77077  0.66868  Biso   1.000  Hf
  Hf27     1.0000 0.36258  0.97921  0.91897  Biso   1.000  Hf
  Hf28     1.0000 0.63855  0.52092  0.57917  Biso   1.000  Hf
  Hf29     1.0000 0.63865  0.72929  0.82791  Biso   1.000  Hf
  Hf30     1.0000 0.85998  0.77045  0.57999  Biso   1.000  Hf
  Hf31     1.0000 0.86306  0.97941  0.83021  Biso   1.000  Hf
  O49      1.0000 0.03463  0.66986  0.58728  Biso   1.000  O
  O50      1.0000 0.03722  0.57772  0.83887  Biso   1.000  O
  O51      1.0000 0.46446  0.91761  0.58375  Biso   1.000  O
  O52      1.0000 0.46710  0.83274  0.83180  Biso   1.000  O
  O53      1.0000 0.27770  0.62355  0.79298  Biso   1.000  O
  O54      1.0000 0.27509  0.62554  0.54325  Biso   1.000  O
  O55      1.0000 0.22257  0.87285  0.78764  Biso   1.000  O
  O56      1.0000 0.22243  0.87638  0.53852  Biso   1.000  O
  O57      1.0000 0.53419  0.66766  0.66292  Biso   1.000  O
  O58      1.0000 0.53455  0.58212  0.91382  Biso   1.000  O
  O59      1.0000 0.96278  0.92183  0.66011  Biso   1.000  O
  O60      1.0000 0.96592  0.82854  0.91234  Biso   1.000  O
  O61      1.0000 0.77789  0.62255  0.95629  Biso   1.000  O
  O62      1.0000 0.77727  0.62592  0.70682  Biso   1.000  O
  O63      1.0000 0.72488  0.87323  0.95520  Biso   1.000  O
  O64      1.0000 0.72375  0.87593  0.70599  Biso   1.000  O
