data_image0
_cell_length_a       9.92627
_cell_length_b       5.19523
_cell_length_c       10.0525
_cell_angle_alpha    90.1761
_cell_angle_beta     88.8547
_cell_angle_gamma    89.8485

_symmetry_space_group_name_H-M    "P 1"
_symmetry_int_tables_number       1

loop_
  _symmetry_equiv_pos_as_xyz
  'x, y, z'

loop_
  _atom_site_label
  _atom_site_occupancy
  _atom_site_fract_x
  _atom_site_fract_y
  _atom_site_fract_z
  _atom_site_thermal_displace_type
  _atom_site_B_iso_or_equiv
  _atom_site_type_symbol
  Hg1      1.0000 0.12097  0.04487  0.11173  Biso   1.000  Hg
  Hf1      1.0000 0.14300  0.46394  0.38511  Biso   1.000  Hf
  Hf2      1.0000 0.36623  0.53376  0.13821  Biso   1.000  Hf
  Hf3      1.0000 0.36140  0.96776  0.38034  Biso   1.000  Hf
  O1       1.0000 0.03922  0.37044  0.19232  Biso   1.000  O
  O2       1.0000 0.03978  0.12693  0.44636  Biso   1.000  O
  O3       1.0000 0.46904  0.86473  0.19946  Biso   1.000  O
  O4       1.0000 0.46591  0.63361  0.45107  Biso   1.000  O
  O5       1.0000 0.28708  0.25425  0.26383  Biso   1.000  O
  O6       1.0000 0.27180  0.25937  0.51140  Biso   1.000  O
  O7       1.0000 0.22711  0.76411  0.51107  Biso   1.000  O
  O8       1.0000 0.23823  0.72653  0.26474  Biso   1.000  O
  Hf4      1.0000 0.13145  0.04115  0.63733  Biso   1.000  Hf
  Hf5      1.0000 0.13059  0.47127  0.87206  Biso   1.000  Hf
  Hf6      1.0000 0.36592  0.53658  0.63081  Biso   1.000  Hf
  Hf7      1.0000 0.36595  0.96686  0.88018  Biso   1.000  Hf
  O9       1.0000 0.04480  0.39918  0.67846  Biso   1.000  O
  O10      1.0000 0.03878  0.12488  0.88554  Biso   1.000  O
  O11      1.0000 0.46364  0.86990  0.69990  Biso   1.000  O
  O12      1.0000 0.45321  0.62051  0.94369  Biso   1.000  O
  O13      1.0000 0.27666  0.24575  0.75772  Biso   1.000  O
  O14      1.0000 0.26191  0.26129  0.00786  Biso   1.000  O
  O15      1.0000 0.22636  0.76145  0.01074  Biso   1.000  O
  O16      1.0000 0.22804  0.74564  0.75770  Biso   1.000  O
  Hf8      1.0000 0.63644  0.03082  0.12907  Biso   1.000  Hf
  Hf9      1.0000 0.63361  0.46709  0.37619  Biso   1.000  Hf
  Hf10     1.0000 0.86112  0.52680  0.12198  Biso   1.000  Hf
  Hf11     1.0000 0.87104  0.96967  0.37912  Biso   1.000  Hf
  O17      1.0000 0.54483  0.37406  0.19228  Biso   1.000  O
  O18      1.0000 0.53692  0.13246  0.44444  Biso   1.000  O
  O19      1.0000 0.96150  0.86232  0.18973  Biso   1.000  O
  O20      1.0000 0.96196  0.62556  0.43411  Biso   1.000  O
  O21      1.0000 0.77499  0.23226  0.24890  Biso   1.000  O
  O22      1.0000 0.76961  0.26426  0.49747  Biso   1.000  O
  O23      1.0000 0.72974  0.76473  0.49848  Biso   1.000  O
  O24      1.0000 0.73589  0.73713  0.24974  Biso   1.000  O
  Hf12     1.0000 0.63188  0.03327  0.62365  Biso   1.000  Hf
  Hf13     1.0000 0.63143  0.46176  0.87606  Biso   1.000  Hf
  Hf14     1.0000 0.86569  0.53140  0.61865  Biso   1.000  Hf
  Hf15     1.0000 0.86057  0.95939  0.86604  Biso   1.000  Hf
  O25      1.0000 0.53636  0.36877  0.69617  Biso   1.000  O
  O26      1.0000 0.53545  0.12657  0.94835  Biso   1.000  O
  O27      1.0000 0.95255  0.87486  0.67803  Biso   1.000  O
  O28      1.0000 0.96042  0.63131  0.94188  Biso   1.000  O
  O29      1.0000 0.76841  0.23606  0.74691  Biso   1.000  O
  O30      1.0000 0.77445  0.25364  0.99657  Biso   1.000  O
  O31      1.0000 0.72322  0.75151  0.00035  Biso   1.000  O
  O32      1.0000 0.72613  0.73164  0.74892  Biso   1.000  O
