data_image0
_cell_length_a       5.09662
_cell_length_b       10.1123
_cell_length_c       10.1042
_cell_angle_alpha    90.686
_cell_angle_beta     88.7563
_cell_angle_gamma    87.619

_symmetry_space_group_name_H-M    "P 1"
_symmetry_int_tables_number       1

loop_
  _symmetry_equiv_pos_as_xyz
  'x, y, z'

loop_
  _atom_site_label
  _atom_site_occupancy
  _atom_site_fract_x
  _atom_site_fract_y
  _atom_site_fract_z
  _atom_site_thermal_displace_type
  _atom_site_B_iso_or_equiv
  _atom_site_type_symbol
  Hg1      1.0000 0.23716  0.00197  0.14058  Biso   1.000  Hg
  Hf1      1.0000 0.27688  0.25480  0.38230  Biso   1.000  Hf
  Hf2      1.0000 0.70867  0.27111  0.11999  Biso   1.000  Hf
  Hf3      1.0000 0.74422  0.99247  0.37181  Biso   1.000  Hf
  O1       1.0000 0.02420  0.12456  0.02796  Biso   1.000  O
  O2       1.0000 0.08592  0.08718  0.30588  Biso   1.000  O
  O3       1.0000 0.00694  0.34175  0.24510  Biso   1.000  O
  O4       1.0000 0.93742  0.37059  0.98595  Biso   1.000  O
  O5       1.0000 0.57981  0.14992  0.26756  Biso   1.000  O
  O6       1.0000 0.54425  0.13887  0.99158  Biso   1.000  O
  O7       1.0000 0.43223  0.37599  0.01350  Biso   1.000  O
  O8       1.0000 0.48550  0.39821  0.25851  Biso   1.000  O
  Hf4      1.0000 0.26889  0.00498  0.62991  Biso   1.000  Hf
  Hf5      1.0000 0.24848  0.25094  0.88624  Biso   1.000  Hf
  Hf6      1.0000 0.75427  0.23601  0.64716  Biso   1.000  Hf
  Hf7      1.0000 0.75156  0.99443  0.88685  Biso   1.000  Hf
  O9       1.0000 0.07212  0.16310  0.53391  Biso   1.000  O
  O10      1.0000 0.98123  0.11564  0.77649  Biso   1.000  O
  O11      1.0000 0.04224  0.36489  0.73685  Biso   1.000  O
  O12      1.0000 0.05952  0.41191  0.48175  Biso   1.000  O
  O13      1.0000 0.47209  0.13631  0.75153  Biso   1.000  O
  O14      1.0000 0.56162  0.10239  0.51761  Biso   1.000  O
  O15      1.0000 0.55241  0.35368  0.51013  Biso   1.000  O
  O16      1.0000 0.53355  0.38237  0.76401  Biso   1.000  O
  Hf8      1.0000 0.19733  0.49301  0.13440  Biso   1.000  Hf
  Hf9      1.0000 0.23173  0.75524  0.38387  Biso   1.000  Hf
  Hf10     1.0000 0.69401  0.75134  0.12816  Biso   1.000  Hf
  Hf11     1.0000 0.75368  0.49255  0.38256  Biso   1.000  Hf
  O17      1.0000 0.09310  0.59779  0.96744  Biso   1.000  O
  O18      1.0000 0.85347  0.58271  0.20924  Biso   1.000  O
  O19      1.0000 0.93710  0.83760  0.26254  Biso   1.000  O
  O20      1.0000 0.93101  0.84831  0.98894  Biso   1.000  O
  O21      1.0000 0.35551  0.65984  0.20973  Biso   1.000  O
  O22      1.0000 0.58260  0.64680  0.96491  Biso   1.000  O
  O23      1.0000 0.43311  0.88674  0.00266  Biso   1.000  O
  O24      1.0000 0.46888  0.89188  0.25758  Biso   1.000  O
  Hf12     1.0000 0.29585  0.48739  0.62738  Biso   1.000  Hf
  Hf13     1.0000 0.26067  0.74497  0.87138  Biso   1.000  Hf
  Hf14     1.0000 0.78225  0.76792  0.62852  Biso   1.000  Hf
  Hf15     1.0000 0.79148  0.51386  0.85368  Biso   1.000  Hf
  O25      1.0000 0.92204  0.65976  0.46650  Biso   1.000  O
  O26      1.0000 0.01820  0.62170  0.72554  Biso   1.000  O
  O27      1.0000 0.04681  0.86871  0.74483  Biso   1.000  O
  O28      1.0000 0.00107  0.90477  0.50742  Biso   1.000  O
  O29      1.0000 0.51810  0.63364  0.72034  Biso   1.000  O
  O30      1.0000 0.43205  0.59601  0.46533  Biso   1.000  O
  O31      1.0000 0.49324  0.85662  0.50306  Biso   1.000  O
  O32      1.0000 0.54033  0.88732  0.75606  Biso   1.000  O
