data_image0
_cell_length_a       10.2138
_cell_length_b       10.0502
_cell_length_c       5.07522
_cell_angle_alpha    87.9357
_cell_angle_beta     88.9971
_cell_angle_gamma    89.4417

_symmetry_space_group_name_H-M    "P 1"
_symmetry_int_tables_number       1

loop_
  _symmetry_equiv_pos_as_xyz
  'x, y, z'

loop_
  _atom_site_label
  _atom_site_occupancy
  _atom_site_fract_x
  _atom_site_fract_y
  _atom_site_fract_z
  _atom_site_thermal_displace_type
  _atom_site_B_iso_or_equiv
  _atom_site_type_symbol
  Hg1      1.0000 0.15275  0.00785  0.25035  Biso   1.000  Hg
  Hf1      1.0000 0.11317  0.26900  0.74083  Biso   1.000  Hf
  Hf2      1.0000 0.36944  0.25367  0.30283  Biso   1.000  Hf
  Hf3      1.0000 0.38727  0.99558  0.75785  Biso   1.000  Hf
  O1       1.0000 0.04605  0.14846  0.06505  Biso   1.000  O
  O2       1.0000 0.97756  0.15519  0.55866  Biso   1.000  O
  O3       1.0000 0.00992  0.40460  0.49730  Biso   1.000  O
  O4       1.0000 0.98193  0.38385  0.99166  Biso   1.000  O
  O5       1.0000 0.25508  0.14505  0.60554  Biso   1.000  O
  O6       1.0000 0.30861  0.09526  0.08808  Biso   1.000  O
  O7       1.0000 0.24015  0.35721  0.01362  Biso   1.000  O
  O8       1.0000 0.25690  0.39273  0.50393  Biso   1.000  O
  Hf4      1.0000 0.12513  0.49385  0.21306  Biso   1.000  Hf
  Hf5      1.0000 0.11621  0.75110  0.72170  Biso   1.000  Hf
  Hf6      1.0000 0.35381  0.72822  0.19740  Biso   1.000  Hf
  Hf7      1.0000 0.38844  0.47706  0.76897  Biso   1.000  Hf
  O9       1.0000 0.01146  0.63234  0.00841  Biso   1.000  O
  O10      1.0000 0.94276  0.66161  0.53788  Biso   1.000  O
  O11      1.0000 0.01376  0.89912  0.43952  Biso   1.000  O
  O12      1.0000 0.98719  0.87764  0.92803  Biso   1.000  O
  O13      1.0000 0.19011  0.65214  0.40970  Biso   1.000  O
  O14      1.0000 0.25570  0.60767  0.93188  Biso   1.000  O
  O15      1.0000 0.25256  0.85474  0.92070  Biso   1.000  O
  O16      1.0000 0.27501  0.88484  0.44608  Biso   1.000  O
  Hf8      1.0000 0.61343  0.98362  0.27664  Biso   1.000  Hf
  Hf9      1.0000 0.64458  0.24687  0.77087  Biso   1.000  Hf
  Hf10     1.0000 0.87846  0.25276  0.25371  Biso   1.000  Hf
  Hf11     1.0000 0.86831  0.00079  0.71312  Biso   1.000  Hf
  O17      1.0000 0.54460  0.09515  0.94629  Biso   1.000  O
  O18      1.0000 0.48663  0.10883  0.45889  Biso   1.000  O
  O19      1.0000 0.51494  0.35725  0.52978  Biso   1.000  O
  O20      1.0000 0.49033  0.35524  0.03089  Biso   1.000  O
  O21      1.0000 0.73477  0.12131  0.47149  Biso   1.000  O
  O22      1.0000 0.79823  0.14291  0.96593  Biso   1.000  O
  O23      1.0000 0.73099  0.38243  0.00932  Biso   1.000  O
  O24      1.0000 0.76788  0.37308  0.50490  Biso   1.000  O
  Hf12     1.0000 0.61609  0.49835  0.27035  Biso   1.000  Hf
  Hf13     1.0000 0.63268  0.75633  0.79426  Biso   1.000  Hf
  Hf14     1.0000 0.88673  0.76919  0.21133  Biso   1.000  Hf
  Hf15     1.0000 0.85914  0.50929  0.74870  Biso   1.000  Hf
  O25      1.0000 0.50826  0.61112  0.96878  Biso   1.000  O
  O26      1.0000 0.44484  0.59341  0.44496  Biso   1.000  O
  O27      1.0000 0.51517  0.86489  0.55467  Biso   1.000  O
  O28      1.0000 0.49494  0.85787  0.05387  Biso   1.000  O
  O29      1.0000 0.69136  0.60190  0.56982  Biso   1.000  O
  O30      1.0000 0.75990  0.63256  0.05369  Biso   1.000  O
  O31      1.0000 0.74308  0.89020  0.99637  Biso   1.000  O
  O32      1.0000 0.76187  0.86463  0.49652  Biso   1.000  O
