data_image0
_cell_length_a       10.2549
_cell_length_b       10.3688
_cell_length_c       5.29219
_cell_angle_alpha    90.1774
_cell_angle_beta     79.2204
_cell_angle_gamma    89.6949

_symmetry_space_group_name_H-M    "P 1"
_symmetry_int_tables_number       1

loop_
  _symmetry_equiv_pos_as_xyz
  'x, y, z'

loop_
  _atom_site_label
  _atom_site_occupancy
  _atom_site_fract_x
  _atom_site_fract_y
  _atom_site_fract_z
  _atom_site_thermal_displace_type
  _atom_site_B_iso_or_equiv
  _atom_site_type_symbol
  Hf1      1.0000 0.13020  0.02044  0.27757  Biso   1.000  Hf
  Hf2      1.0000 0.13306  0.22734  0.77291  Biso   1.000  Hf
  Hf3      1.0000 0.36048  0.28872  0.20750  Biso   1.000  Hf
  Hf4      1.0000 0.36241  0.48004  0.71358  Biso   1.000  Hf
  O1       1.0000 0.02965  0.16433  0.14085  Biso   1.000  O
  O2       1.0000 0.02371  0.08499  0.64699  Biso   1.000  O
  O3       1.0000 0.46239  0.43341  0.35179  Biso   1.000  O
  O4       1.0000 0.49181  0.37860  0.90500  Biso   1.000  O
  O5       1.0000 0.24924  0.13764  0.43554  Biso   1.000  O
  O6       1.0000 0.26051  0.10525  0.95066  Biso   1.000  O
  O7       1.0000 0.22382  0.37660  0.01444  Biso   1.000  O
  O8       1.0000 0.21515  0.38319  0.51569  Biso   1.000  O
  Hf5      1.0000 0.13737  0.52322  0.29322  Biso   1.000  Hf
  Hf6      1.0000 0.13487  0.72713  0.79614  Biso   1.000  Hf
  Hf7      1.0000 0.35861  0.76781  0.21576  Biso   1.000  Hf
  Hf8      1.0000 0.35996  0.95914  0.71583  Biso   1.000  Hf
  O9       1.0000 0.02907  0.66429  0.15178  Biso   1.000  O
  O10      1.0000 0.03018  0.58874  0.65041  Biso   1.000  O
  O11      1.0000 0.46245  0.91787  0.34353  Biso   1.000  O
  O12      1.0000 0.46011  0.82231  0.84946  Biso   1.000  O
  O13      1.0000 0.27298  0.63055  0.48701  Biso   1.000  O
  O14      1.0000 0.27272  0.61981  0.98731  Biso   1.000  O
  O15      1.0000 0.22162  0.86919  0.02778  Biso   1.000  O
  O16      1.0000 0.22218  0.87057  0.52581  Biso   1.000  O
  Hf9      1.0000 0.63769  0.01797  0.29705  Biso   1.000  Hf
  Hf10     1.0000 0.65595  0.23633  0.82157  Biso   1.000  Hf
  Hf11     1.0000 0.86448  0.27314  0.22005  Biso   1.000  Hf
  Hf12     1.0000 0.86305  0.48095  0.70983  Biso   1.000  Hf
  O17      1.0000 0.53029  0.16573  0.14809  Biso   1.000  O
  O18      1.0000 0.55411  0.04798  0.69090  Biso   1.000  O
  O19      1.0000 0.96731  0.41672  0.34680  Biso   1.000  O
  O20      1.0000 0.96348  0.33518  0.84463  Biso   1.000  O
  O21      1.0000 0.77261  0.13262  0.48867  Biso   1.000  O
  O22      1.0000 0.77803  0.12093  0.99372  Biso   1.000  O
  O23      1.0000 0.73036  0.37861  0.03776  Biso   1.000  O
  O24      1.0000 0.72636  0.37487  0.53408  Biso   1.000  O
  Hf13     1.0000 0.63726  0.52691  0.29645  Biso   1.000  Hf
  Hf14     1.0000 0.63902  0.72727  0.79244  Biso   1.000  Hf
  Hf15     1.0000 0.85896  0.77102  0.20755  Biso   1.000  Hf
  Hf16     1.0000 0.85779  0.97713  0.70813  Biso   1.000  Hf
  O25      1.0000 0.53559  0.67050  0.15779  Biso   1.000  O
  O26      1.0000 0.53267  0.59324  0.64957  Biso   1.000  O
  O27      1.0000 0.95981  0.91355  0.34738  Biso   1.000  O
  O28      1.0000 0.96417  0.83587  0.84693  Biso   1.000  O
  O29      1.0000 0.77606  0.62860  0.48005  Biso   1.000  O
  O30      1.0000 0.77366  0.62139  0.97951  Biso   1.000  O
  O31      1.0000 0.72198  0.87938  0.02305  Biso   1.000  O
  O32      1.0000 0.72326  0.86795  0.51761  Biso   1.000  O
  Hg1      1.0000 0.43282  0.21496  0.63378  Biso   1.000  Hg
