data_image0
_cell_length_a       10.1048
_cell_length_b       10.289
_cell_length_c       5.23154
_cell_angle_alpha    89.5329
_cell_angle_beta     81.3084
_cell_angle_gamma    89.9849

_symmetry_space_group_name_H-M    "P 1"
_symmetry_int_tables_number       1

loop_
  _symmetry_equiv_pos_as_xyz
  'x, y, z'

loop_
  _atom_site_label
  _atom_site_occupancy
  _atom_site_fract_x
  _atom_site_fract_y
  _atom_site_fract_z
  _atom_site_thermal_displace_type
  _atom_site_B_iso_or_equiv
  _atom_site_type_symbol
  Hg1      1.0000 0.12593  0.01722  0.31294  Biso   1.000  Hg
  Hf1      1.0000 0.13903  0.22784  0.79355  Biso   1.000  Hf
  Hf2      1.0000 0.35962  0.27061  0.19830  Biso   1.000  Hf
  Hf3      1.0000 0.36096  0.47955  0.70418  Biso   1.000  Hf
  O1       1.0000 0.04818  0.18365  0.19029  Biso   1.000  O
  O2       1.0000 0.02529  0.07852  0.73577  Biso   1.000  O
  O3       1.0000 0.46333  0.41824  0.33859  Biso   1.000  O
  O4       1.0000 0.46763  0.33612  0.84157  Biso   1.000  O
  O5       1.0000 0.27086  0.12358  0.46240  Biso   1.000  O
  O6       1.0000 0.29185  0.13279  0.93889  Biso   1.000  O
  O7       1.0000 0.22336  0.38203  0.01492  Biso   1.000  O
  O8       1.0000 0.22553  0.36777  0.51543  Biso   1.000  O
  Hf4      1.0000 0.14007  0.52061  0.29069  Biso   1.000  Hf
  Hf5      1.0000 0.13748  0.72922  0.78760  Biso   1.000  Hf
  Hf6      1.0000 0.36303  0.77189  0.18948  Biso   1.000  Hf
  Hf7      1.0000 0.36136  0.97930  0.69946  Biso   1.000  Hf
  O9       1.0000 0.03922  0.67386  0.16450  Biso   1.000  O
  O10      1.0000 0.03963  0.57464  0.66321  Biso   1.000  O
  O11      1.0000 0.46389  0.91703  0.33833  Biso   1.000  O
  O12      1.0000 0.47209  0.83385  0.83263  Biso   1.000  O
  O13      1.0000 0.27740  0.63207  0.47641  Biso   1.000  O
  O14      1.0000 0.27664  0.61889  0.97682  Biso   1.000  O
  O15      1.0000 0.23403  0.87237  0.97852  Biso   1.000  O
  O16      1.0000 0.21740  0.86740  0.49080  Biso   1.000  O
  Hf8      1.0000 0.63828  0.02019  0.29635  Biso   1.000  Hf
  Hf9      1.0000 0.63710  0.22899  0.79715  Biso   1.000  Hf
  Hf10     1.0000 0.85924  0.27121  0.21965  Biso   1.000  Hf
  Hf11     1.0000 0.86312  0.47738  0.71283  Biso   1.000  Hf
  O17      1.0000 0.53411  0.16844  0.16125  Biso   1.000  O
  O18      1.0000 0.53781  0.08030  0.65844  Biso   1.000  O
  O19      1.0000 0.96310  0.42096  0.34369  Biso   1.000  O
  O20      1.0000 0.96335  0.33025  0.85619  Biso   1.000  O
  O21      1.0000 0.77680  0.12990  0.49225  Biso   1.000  O
  O22      1.0000 0.77286  0.12179  0.99562  Biso   1.000  O
  O23      1.0000 0.72375  0.37842  0.02469  Biso   1.000  O
  O24      1.0000 0.72447  0.37016  0.52337  Biso   1.000  O
  Hf12     1.0000 0.63707  0.51981  0.29162  Biso   1.000  Hf
  Hf13     1.0000 0.64072  0.72746  0.78694  Biso   1.000  Hf
  Hf14     1.0000 0.86054  0.76648  0.20493  Biso   1.000  Hf
  Hf15     1.0000 0.85795  0.98200  0.72797  Biso   1.000  Hf
  O25      1.0000 0.53722  0.66723  0.15057  Biso   1.000  O
  O26      1.0000 0.53616  0.58204  0.65323  Biso   1.000  O
  O27      1.0000 0.94754  0.92993  0.33548  Biso   1.000  O
  O28      1.0000 0.95934  0.82328  0.83241  Biso   1.000  O
  O29      1.0000 0.77759  0.62730  0.48054  Biso   1.000  O
  O30      1.0000 0.77813  0.61913  0.98206  Biso   1.000  O
  O31      1.0000 0.72251  0.87882  0.02134  Biso   1.000  O
  O32      1.0000 0.72740  0.86950  0.51614  Biso   1.000  O
