data_image0
_cell_length_a       5.02408
_cell_length_b       10.4781
_cell_length_c       10.1844
_cell_angle_alpha    88.192
_cell_angle_beta     90.9869
_cell_angle_gamma    90.8256

_symmetry_space_group_name_H-M    "P 1"
_symmetry_int_tables_number       1

loop_
  _symmetry_equiv_pos_as_xyz
  'x, y, z'

loop_
  _atom_site_label
  _atom_site_occupancy
  _atom_site_fract_x
  _atom_site_fract_y
  _atom_site_fract_z
  _atom_site_thermal_displace_type
  _atom_site_B_iso_or_equiv
  _atom_site_type_symbol
  Hf1      1.0000 0.27921  0.99736  0.10809  Biso   1.000  Hf
  Hf2      1.0000 0.24270  0.22880  0.40686  Biso   1.000  Hf
  Hf3      1.0000 0.64045  0.25523  0.15891  Biso   1.000  Hf
  Hf4      1.0000 0.74264  0.48486  0.38816  Biso   1.000  Hf
  O1       1.0000 0.91747  0.17648  0.27414  Biso   1.000  O
  O2       1.0000 0.08517  0.05095  0.45641  Biso   1.000  O
  O3       1.0000 0.92622  0.43960  0.21446  Biso   1.000  O
  O4       1.0000 0.93847  0.32873  0.46679  Biso   1.000  O
  O5       1.0000 0.42847  0.11031  0.25508  Biso   1.000  O
  O6       1.0000 0.56356  0.13455  0.50152  Biso   1.000  O
  O7       1.0000 0.46626  0.38274  0.51429  Biso   1.000  O
  O8       1.0000 0.42819  0.36891  0.27430  Biso   1.000  O
  Hf5      1.0000 0.29671  0.00229  0.62012  Biso   1.000  Hf
  Hf6      1.0000 0.26943  0.21511  0.83837  Biso   1.000  Hf
  Hf7      1.0000 0.75066  0.27568  0.63840  Biso   1.000  Hf
  Hf8      1.0000 0.74586  0.48208  0.86658  Biso   1.000  Hf
  O9       1.0000 0.11210  0.17843  0.65876  Biso   1.000  O
  O10      1.0000 0.09277  0.05465  0.92929  Biso   1.000  O
  O11      1.0000 0.90731  0.45844  0.67184  Biso   1.000  O
  O12      1.0000 0.89740  0.29683  0.83939  Biso   1.000  O
  O13      1.0000 0.55604  0.10821  0.74738  Biso   1.000  O
  O14      1.0000 0.56152  0.12583  0.00523  Biso   1.000  O
  O15      1.0000 0.54901  0.40001  0.02220  Biso   1.000  O
  O16      1.0000 0.43805  0.37472  0.75723  Biso   1.000  O
  Hf9      1.0000 0.27732  0.52724  0.13800  Biso   1.000  Hf
  Hf10     1.0000 0.28021  0.74018  0.37737  Biso   1.000  Hf
  Hf11     1.0000 0.74132  0.76373  0.12815  Biso   1.000  Hf
  Hf12     1.0000 0.75124  0.99963  0.36334  Biso   1.000  Hf
  O17      1.0000 0.08697  0.68924  0.19586  Biso   1.000  O
  O18      1.0000 0.08233  0.57563  0.44408  Biso   1.000  O
  O19      1.0000 0.92966  0.94149  0.18451  Biso   1.000  O
  O20      1.0000 0.94270  0.82055  0.44086  Biso   1.000  O
  O21      1.0000 0.55298  0.62049  0.25718  Biso   1.000  O
  O22      1.0000 0.54660  0.63655  0.50366  Biso   1.000  O
  O23      1.0000 0.48466  0.88453  0.49405  Biso   1.000  O
  O24      1.0000 0.47532  0.86635  0.24318  Biso   1.000  O
  Hf13     1.0000 0.27435  0.52027  0.62444  Biso   1.000  Hf
  Hf14     1.0000 0.27724  0.72972  0.87449  Biso   1.000  Hf
  Hf15     1.0000 0.75328  0.76706  0.62136  Biso   1.000  Hf
  Hf16     1.0000 0.74893  0.97509  0.87225  Biso   1.000  Hf
  O25      1.0000 0.08421  0.68572  0.69802  Biso   1.000  O
  O26      1.0000 0.07973  0.55524  0.95155  Biso   1.000  O
  O27      1.0000 0.95374  0.92907  0.70001  Biso   1.000  O
  O28      1.0000 0.95042  0.81114  0.95154  Biso   1.000  O
  O29      1.0000 0.54640  0.61781  0.75441  Biso   1.000  O
  O30      1.0000 0.53641  0.64037  0.00639  Biso   1.000  O
  O31      1.0000 0.47783  0.87753  0.99359  Biso   1.000  O
  O32      1.0000 0.48665  0.85936  0.74784  Biso   1.000  O
  Hg1      1.0000 0.11438  0.28639  0.06681  Biso   1.000  Hg
