data_image0
_cell_length_a       10.1382
_cell_length_b       10.3373
_cell_length_c       10.5764
_cell_angle_alpha    89.8922
_cell_angle_beta     90.5595
_cell_angle_gamma    89.9238

_symmetry_space_group_name_H-M    "P 1"
_symmetry_int_tables_number       1

loop_
  _symmetry_equiv_pos_as_xyz
  'x, y, z'

loop_
  _atom_site_label
  _atom_site_occupancy
  _atom_site_fract_x
  _atom_site_fract_y
  _atom_site_fract_z
  _atom_site_thermal_displace_type
  _atom_site_B_iso_or_equiv
  _atom_site_type_symbol
  Zr1      1.0000 0.13647  0.01936  0.17170  Biso   1.000  Zr
  Zr2      1.0000 0.13426  0.22730  0.42706  Biso   1.000  Zr
  Zr3      1.0000 0.34501  0.26554  0.18775  Biso   1.000  Zr
  Zr4      1.0000 0.36276  0.47933  0.42214  Biso   1.000  Zr
  Zr5      1.0000 0.63788  0.01981  0.07329  Biso   1.000  Zr
  Zr6      1.0000 0.63586  0.22219  0.33262  Biso   1.000  Zr
  Zr7      1.0000 0.86401  0.27147  0.07559  Biso   1.000  Zr
  Zr8      1.0000 0.86103  0.47844  0.32906  Biso   1.000  Zr
  O1       1.0000 0.03466  0.16464  0.08297  Biso   1.000  O
  O2       1.0000 0.02783  0.08709  0.33207  Biso   1.000  O
  O3       1.0000 0.45264  0.44112  0.10201  Biso   1.000  O
  O4       1.0000 0.46643  0.33463  0.33266  Biso   1.000  O
  O5       1.0000 0.26480  0.12491  0.30205  Biso   1.000  O
  O6       1.0000 0.27782  0.12315  0.04787  Biso   1.000  O
  O7       1.0000 0.21957  0.37472  0.30057  Biso   1.000  O
  O8       1.0000 0.22485  0.37395  0.04849  Biso   1.000  O
  O9       1.0000 0.50789  0.12596  0.20617  Biso   1.000  O
  O10      1.0000 0.52839  0.09163  0.43536  Biso   1.000  O
  O11      1.0000 0.96789  0.41309  0.16919  Biso   1.000  O
  O12      1.0000 0.96729  0.33708  0.42004  Biso   1.000  O
  O13      1.0000 0.77425  0.12306  0.45395  Biso   1.000  O
  O14      1.0000 0.77070  0.12840  0.20372  Biso   1.000  O
  O15      1.0000 0.72471  0.37353  0.45551  Biso   1.000  O
  O16      1.0000 0.72359  0.38064  0.20793  Biso   1.000  O
  Zr9      1.0000 0.14071  0.02001  0.67283  Biso   1.000  Zr
  Zr10     1.0000 0.14189  0.22783  0.92203  Biso   1.000  Zr
  Zr11     1.0000 0.36255  0.27200  0.67310  Biso   1.000  Zr
  Zr12     1.0000 0.36008  0.48307  0.92303  Biso   1.000  Zr
  Zr13     1.0000 0.64032  0.01875  0.58122  Biso   1.000  Zr
  Zr14     1.0000 0.64555  0.22558  0.81760  Biso   1.000  Zr
  Zr15     1.0000 0.86166  0.27178  0.57806  Biso   1.000  Zr
  Zr16     1.0000 0.86812  0.48205  0.82661  Biso   1.000  Zr
  O17      1.0000 0.03068  0.16221  0.58346  Biso   1.000  O
  O18      1.0000 0.03740  0.08318  0.83248  Biso   1.000  O
  O19      1.0000 0.47024  0.41280  0.57984  Biso   1.000  O
  O20      1.0000 0.47173  0.34170  0.82820  Biso   1.000  O
  O21      1.0000 0.27878  0.12459  0.79597  Biso   1.000  O
  O22      1.0000 0.27430  0.12472  0.54816  Biso   1.000  O
  O23      1.0000 0.22714  0.37427  0.79708  Biso   1.000  O
  O24      1.0000 0.22632  0.37509  0.54746  Biso   1.000  O
  O25      1.0000 0.53325  0.16380  0.66860  Biso   1.000  O
  O26      1.0000 0.53962  0.06292  0.89803  Biso   1.000  O
  O27      1.0000 0.97120  0.41321  0.66727  Biso   1.000  O
  O28      1.0000 0.97529  0.33504  0.91611  Biso   1.000  O
  O29      1.0000 0.78806  0.12171  0.94661  Biso   1.000  O
  O30      1.0000 0.77991  0.12252  0.69978  Biso   1.000  O
  O31      1.0000 0.74599  0.39132  0.95325  Biso   1.000  O
  O32      1.0000 0.72844  0.37430  0.70330  Biso   1.000  O
  Zr17     1.0000 0.13743  0.52214  0.17090  Biso   1.000  Zr
  Zr18     1.0000 0.13872  0.72872  0.42059  Biso   1.000  Zr
  Zr19     1.0000 0.36125  0.77348  0.17236  Biso   1.000  Zr
  Zr20     1.0000 0.36310  0.97877  0.42493  Biso   1.000  Zr
  Zr21     1.0000 0.64337  0.53317  0.08075  Biso   1.000  Zr
  Zr22     1.0000 0.63987  0.73203  0.32970  Biso   1.000  Zr
  Zr23     1.0000 0.86247  0.77347  0.07882  Biso   1.000  Zr
  Zr24     1.0000 0.86074  0.97958  0.32852  Biso   1.000  Zr
  O33      1.0000 0.03209  0.66359  0.08141  Biso   1.000  O
  O34      1.0000 0.03233  0.58622  0.33121  Biso   1.000  O
  O35      1.0000 0.46894  0.91010  0.07780  Biso   1.000  O
  O36      1.0000 0.46928  0.83898  0.33321  Biso   1.000  O
  O37      1.0000 0.27525  0.62475  0.29428  Biso   1.000  O
  O38      1.0000 0.27420  0.62781  0.04428  Biso   1.000  O
  O39      1.0000 0.22573  0.87522  0.29616  Biso   1.000  O
  O40      1.0000 0.22379  0.87543  0.04692  Biso   1.000  O
  O41      1.0000 0.53650  0.67327  0.16725  Biso   1.000  O
  O42      1.0000 0.53220  0.58720  0.41644  Biso   1.000  O
  O43      1.0000 0.96780  0.91541  0.16822  Biso   1.000  O
  O44      1.0000 0.96763  0.83519  0.41687  Biso   1.000  O
  O45      1.0000 0.77581  0.62410  0.45427  Biso   1.000  O
  O46      1.0000 0.77810  0.62936  0.20538  Biso   1.000  O
  O47      1.0000 0.72561  0.87487  0.45638  Biso   1.000  O
  O48      1.0000 0.72610  0.87728  0.20548  Biso   1.000  O
  Zr25     1.0000 0.14097  0.52019  0.67084  Biso   1.000  Zr
  Zr26     1.0000 0.14025  0.73051  0.92181  Biso   1.000  Zr
  Zr27     1.0000 0.36280  0.76836  0.67128  Biso   1.000  Zr
  Zr28     1.0000 0.36369  0.97607  0.91949  Biso   1.000  Zr
  Zr29     1.0000 0.64006  0.52065  0.57700  Biso   1.000  Zr
  Zr30     1.0000 0.63989  0.72866  0.82743  Biso   1.000  Zr
  Zr31     1.0000 0.86384  0.77040  0.57881  Biso   1.000  Zr
  Zr32     1.0000 0.86520  0.97755  0.82885  Biso   1.000  Zr
  O49      1.0000 0.03394  0.66307  0.58107  Biso   1.000  O
  O50      1.0000 0.03635  0.58771  0.83129  Biso   1.000  O
  O51      1.0000 0.46996  0.91041  0.58426  Biso   1.000  O
  O52      1.0000 0.46549  0.82609  0.83322  Biso   1.000  O
  O53      1.0000 0.27699  0.62313  0.79524  Biso   1.000  O
  O54      1.0000 0.27587  0.62419  0.54453  Biso   1.000  O
  O55      1.0000 0.22626  0.87316  0.79490  Biso   1.000  O
  O56      1.0000 0.22667  0.87483  0.54494  Biso   1.000  O
  O57      1.0000 0.53340  0.66137  0.66722  Biso   1.000  O
  O58      1.0000 0.53478  0.58345  0.91891  Biso   1.000  O
  O59      1.0000 0.97100  0.91214  0.66691  Biso   1.000  O
  O60      1.0000 0.97067  0.83686  0.91961  Biso   1.000  O
  O61      1.0000 0.77659  0.63195  0.95419  Biso   1.000  O
  O62      1.0000 0.77707  0.62449  0.70345  Biso   1.000  O
  O63      1.0000 0.72719  0.87508  0.95584  Biso   1.000  O
  O64      1.0000 0.72785  0.87282  0.70648  Biso   1.000  O
  Hg1      1.0000 0.56381  0.27137  0.04568  Biso   1.000  Hg
