data_image0
_cell_length_a       5.15875
_cell_length_b       10.399
_cell_length_c       10.6459
_cell_angle_alpha    90.194
_cell_angle_beta     79.2398
_cell_angle_gamma    89.749

_symmetry_space_group_name_H-M    "P 1"
_symmetry_int_tables_number       1

loop_
  _symmetry_equiv_pos_as_xyz
  'x, y, z'

loop_
  _atom_site_label
  _atom_site_occupancy
  _atom_site_fract_x
  _atom_site_fract_y
  _atom_site_fract_z
  _atom_site_thermal_displace_type
  _atom_site_B_iso_or_equiv
  _atom_site_type_symbol
  Zr1      1.0000 0.26343  0.01714  0.14411  Biso   1.000  Zr
  Zr2      1.0000 0.31690  0.23891  0.40731  Biso   1.000  Zr
  Zr3      1.0000 0.69828  0.27670  0.09777  Biso   1.000  Zr
  Zr4      1.0000 0.73221  0.47973  0.34882  Biso   1.000  Zr
  O1       1.0000 0.04975  0.16080  0.07211  Biso   1.000  O
  O2       1.0000 0.08291  0.05217  0.34550  Biso   1.000  O
  O3       1.0000 0.91539  0.43615  0.15633  Biso   1.000  O
  O4       1.0000 0.99597  0.37444  0.45759  Biso   1.000  O
  O5       1.0000 0.49807  0.13109  0.23258  Biso   1.000  O
  O6       1.0000 0.55637  0.11072  0.49397  Biso   1.000  O
  O7       1.0000 0.43389  0.38244  0.00723  Biso   1.000  O
  O8       1.0000 0.42238  0.38155  0.25727  Biso   1.000  O
  Zr5      1.0000 0.27548  0.01966  0.64585  Biso   1.000  Zr
  Zr6      1.0000 0.26779  0.22835  0.89383  Biso   1.000  Zr
  Zr7      1.0000 0.74418  0.27744  0.61404  Biso   1.000  Zr
  Zr8      1.0000 0.71762  0.48097  0.85903  Biso   1.000  Zr
  O9       1.0000 0.07718  0.16618  0.57591  Biso   1.000  O
  O10      1.0000 0.05826  0.08750  0.82257  Biso   1.000  O
  O11      1.0000 0.94737  0.40857  0.69235  Biso   1.000  O
  O12      1.0000 0.92412  0.33582  0.92470  Biso   1.000  O
  O13      1.0000 0.54502  0.12924  0.73961  Biso   1.000  O
  O14      1.0000 0.53831  0.12510  0.98574  Biso   1.000  O
  O15      1.0000 0.48458  0.37377  0.51418  Biso   1.000  O
  O16      1.0000 0.45568  0.37347  0.76224  Biso   1.000  O
  Zr9      1.0000 0.26947  0.52629  0.14362  Biso   1.000  Zr
  Zr10     1.0000 0.27579  0.72220  0.39660  Biso   1.000  Zr
  Zr11     1.0000 0.71397  0.77185  0.10415  Biso   1.000  Zr
  Zr12     1.0000 0.71319  0.96098  0.36041  Biso   1.000  Zr
  O17      1.0000 0.06561  0.67628  0.07631  Biso   1.000  O
  O18      1.0000 0.05908  0.59123  0.32066  Biso   1.000  O
  O19      1.0000 0.91397  0.91749  0.17569  Biso   1.000  O
  O20      1.0000 0.91907  0.82179  0.42495  Biso   1.000  O
  O21      1.0000 0.54816  0.62958  0.24136  Biso   1.000  O
  O22      1.0000 0.54158  0.61591  0.49038  Biso   1.000  O
  O23      1.0000 0.44651  0.88120  0.01011  Biso   1.000  O
  O24      1.0000 0.44081  0.86606  0.26128  Biso   1.000  O
  Zr13     1.0000 0.27567  0.52060  0.64754  Biso   1.000  Zr
  Zr14     1.0000 0.26816  0.73150  0.89610  Biso   1.000  Zr
  Zr15     1.0000 0.72006  0.76774  0.60759  Biso   1.000  Zr
  Zr16     1.0000 0.71732  0.98058  0.85332  Biso   1.000  Zr
  O25      1.0000 0.05858  0.65851  0.57812  Biso   1.000  O
  O26      1.0000 0.06114  0.58966  0.82767  Biso   1.000  O
  O27      1.0000 0.93004  0.91346  0.67166  Biso   1.000  O
  O28      1.0000 0.92900  0.83995  0.92307  Biso   1.000  O
  O29      1.0000 0.54465  0.62684  0.74030  Biso   1.000  O
  O30      1.0000 0.54427  0.62595  0.99083  Biso   1.000  O
  O31      1.0000 0.44067  0.87015  0.51355  Biso   1.000  O
  O32      1.0000 0.44743  0.87256  0.76127  Biso   1.000  O
  Hg1      1.0000 0.87731  0.22381  0.30786  Biso   1.000  Hg
