data_image0
_cell_length_a       10.1899
_cell_length_b       10.4056
_cell_length_c       5.31531
_cell_angle_alpha    89.6948
_cell_angle_beta     91.1486
_cell_angle_gamma    89.7754

_symmetry_space_group_name_H-M    "P 1"
_symmetry_int_tables_number       1

loop_
  _symmetry_equiv_pos_as_xyz
  'x, y, z'

loop_
  _atom_site_label
  _atom_site_occupancy
  _atom_site_fract_x
  _atom_site_fract_y
  _atom_site_fract_z
  _atom_site_thermal_displace_type
  _atom_site_B_iso_or_equiv
  _atom_site_type_symbol
  Zr1      1.0000 0.13820  0.01800  0.34757  Biso   1.000  Zr
  Zr2      1.0000 0.13737  0.22567  0.85388  Biso   1.000  Zr
  Zr3      1.0000 0.34547  0.26644  0.37534  Biso   1.000  Zr
  Zr4      1.0000 0.36160  0.48407  0.84711  Biso   1.000  Zr
  Zr5      1.0000 0.63986  0.01759  0.14589  Biso   1.000  Zr
  Zr6      1.0000 0.64092  0.21633  0.63123  Biso   1.000  Zr
  Zr7      1.0000 0.86525  0.27270  0.15371  Biso   1.000  Zr
  Zr8      1.0000 0.86868  0.48248  0.65865  Biso   1.000  Zr
  O1       1.0000 0.03356  0.16189  0.16714  Biso   1.000  O
  O2       1.0000 0.03404  0.08324  0.66424  Biso   1.000  O
  O3       1.0000 0.45366  0.44143  0.20070  Biso   1.000  O
  O4       1.0000 0.46914  0.33645  0.65686  Biso   1.000  O
  O5       1.0000 0.26936  0.12444  0.60414  Biso   1.000  O
  O6       1.0000 0.27620  0.12135  0.10152  Biso   1.000  O
  O7       1.0000 0.22304  0.37445  0.60435  Biso   1.000  O
  O8       1.0000 0.22585  0.37247  0.10110  Biso   1.000  O
  O9       1.0000 0.51008  0.12851  0.39413  Biso   1.000  O
  O10      1.0000 0.53332  0.06559  0.82894  Biso   1.000  O
  O11      1.0000 0.97222  0.41119  0.34136  Biso   1.000  O
  O12      1.0000 0.97533  0.33459  0.83627  Biso   1.000  O
  O13      1.0000 0.78572  0.12286  0.88211  Biso   1.000  O
  O14      1.0000 0.77641  0.12239  0.39031  Biso   1.000  O
  O15      1.0000 0.75567  0.40158  0.92935  Biso   1.000  O
  O16      1.0000 0.72869  0.37716  0.42784  Biso   1.000  O
  Zr9      1.0000 0.13929  0.52055  0.34095  Biso   1.000  Zr
  Zr10     1.0000 0.13925  0.72959  0.84354  Biso   1.000  Zr
  Zr11     1.0000 0.36255  0.77023  0.34761  Biso   1.000  Zr
  Zr12     1.0000 0.36158  0.97354  0.85204  Biso   1.000  Zr
  Zr13     1.0000 0.64512  0.53330  0.16073  Biso   1.000  Zr
  Zr14     1.0000 0.64058  0.73315  0.65650  Biso   1.000  Zr
  Zr15     1.0000 0.86450  0.77287  0.15746  Biso   1.000  Zr
  Zr16     1.0000 0.86503  0.97823  0.65576  Biso   1.000  Zr
  O17      1.0000 0.03269  0.66139  0.16006  Biso   1.000  O
  O18      1.0000 0.03691  0.58821  0.65989  Biso   1.000  O
  O19      1.0000 0.46976  0.90624  0.16350  Biso   1.000  O
  O20      1.0000 0.46609  0.82941  0.67030  Biso   1.000  O
  O21      1.0000 0.27679  0.62287  0.58961  Biso   1.000  O
  O22      1.0000 0.27382  0.62545  0.08723  Biso   1.000  O
  O23      1.0000 0.22634  0.87313  0.59559  Biso   1.000  O
  O24      1.0000 0.22453  0.87294  0.09773  Biso   1.000  O
  O25      1.0000 0.53731  0.67125  0.33563  Biso   1.000  O
  O26      1.0000 0.53523  0.58346  0.83547  Biso   1.000  O
  O27      1.0000 0.97106  0.91277  0.33592  Biso   1.000  O
  O28      1.0000 0.97050  0.83643  0.83905  Biso   1.000  O
  O29      1.0000 0.77508  0.63672  0.90718  Biso   1.000  O
  O30      1.0000 0.77990  0.62767  0.40838  Biso   1.000  O
  O31      1.0000 0.72868  0.87769  0.91152  Biso   1.000  O
  O32      1.0000 0.72849  0.87431  0.41159  Biso   1.000  O
  Hg1      1.0000 0.56799  0.27596  0.08358  Biso   1.000  Hg
