data_image0
_cell_length_a       10.1057
_cell_length_b       10.4428
_cell_length_c       10.1444
_cell_angle_alpha    89.725
_cell_angle_beta     90.0378
_cell_angle_gamma    90.583

_symmetry_space_group_name_H-M    "P 1"
_symmetry_int_tables_number       1

loop_
  _symmetry_equiv_pos_as_xyz
  'x, y, z'

loop_
  _atom_site_label
  _atom_site_occupancy
  _atom_site_fract_x
  _atom_site_fract_y
  _atom_site_fract_z
  _atom_site_thermal_displace_type
  _atom_site_B_iso_or_equiv
  _atom_site_type_symbol
  Zr1      1.0000 0.14855  0.99358  0.10838  Biso   1.000  Zr
  Zr2      1.0000 0.13015  0.23431  0.40028  Biso   1.000  Zr
  Zr3      1.0000 0.36752  0.26548  0.12167  Biso   1.000  Zr
  Zr4      1.0000 0.36921  0.48630  0.37436  Biso   1.000  Zr
  O1       1.0000 0.94856  0.19485  0.29523  Biso   1.000  O
  O2       1.0000 0.04205  0.06281  0.46315  Biso   1.000  O
  O3       1.0000 0.46096  0.43502  0.19252  Biso   1.000  O
  O4       1.0000 0.46785  0.31984  0.44658  Biso   1.000  O
  O5       1.0000 0.25370  0.10975  0.25125  Biso   1.000  O
  O6       1.0000 0.27517  0.13334  0.50258  Biso   1.000  O
  O7       1.0000 0.24094  0.38518  0.50128  Biso   1.000  O
  O8       1.0000 0.22769  0.36525  0.25462  Biso   1.000  O
  Zr5      1.0000 0.13970  0.01191  0.63179  Biso   1.000  Zr
  Zr6      1.0000 0.13622  0.23081  0.86780  Biso   1.000  Zr
  Zr7      1.0000 0.37168  0.26688  0.62761  Biso   1.000  Zr
  Zr8      1.0000 0.36830  0.48646  0.87071  Biso   1.000  Zr
  O9       1.0000 0.03920  0.18236  0.69226  Biso   1.000  O
  O10      1.0000 0.05145  0.05039  0.92274  Biso   1.000  O
  O11      1.0000 0.46980  0.43311  0.69581  Biso   1.000  O
  O12      1.0000 0.46428  0.31448  0.94085  Biso   1.000  O
  O13      1.0000 0.27528  0.11672  0.74858  Biso   1.000  O
  O14      1.0000 0.28734  0.12050  0.99422  Biso   1.000  O
  O15      1.0000 0.23617  0.39130  0.99502  Biso   1.000  O
  O16      1.0000 0.23299  0.36439  0.74612  Biso   1.000  O
  Zr9      1.0000 0.13459  0.52313  0.12324  Biso   1.000  Zr
  Zr10     1.0000 0.13394  0.73788  0.37521  Biso   1.000  Zr
  Zr11     1.0000 0.37117  0.75955  0.12269  Biso   1.000  Zr
  Zr12     1.0000 0.36546  0.98596  0.37373  Biso   1.000  Zr
  O17      1.0000 0.03774  0.68726  0.19225  Biso   1.000  O
  O18      1.0000 0.03344  0.57398  0.43905  Biso   1.000  O
  O19      1.0000 0.46139  0.93226  0.19487  Biso   1.000  O
  O20      1.0000 0.46823  0.81739  0.44265  Biso   1.000  O
  O21      1.0000 0.27113  0.61595  0.24573  Biso   1.000  O
  O22      1.0000 0.26890  0.63358  0.49430  Biso   1.000  O
  O23      1.0000 0.23431  0.88388  0.49645  Biso   1.000  O
  O24      1.0000 0.23494  0.86022  0.24322  Biso   1.000  O
  Zr13     1.0000 0.12721  0.50945  0.61746  Biso   1.000  Zr
  Zr14     1.0000 0.13302  0.72949  0.86674  Biso   1.000  Zr
  Zr15     1.0000 0.37023  0.76172  0.61953  Biso   1.000  Zr
  Zr16     1.0000 0.37454  0.97996  0.86856  Biso   1.000  Zr
  O25      1.0000 0.03719  0.68368  0.68686  Biso   1.000  O
  O26      1.0000 0.03441  0.56688  0.94669  Biso   1.000  O
  O27      1.0000 0.47162  0.93018  0.69185  Biso   1.000  O
  O28      1.0000 0.47721  0.81920  0.95072  Biso   1.000  O
  O29      1.0000 0.26637  0.61106  0.74310  Biso   1.000  O
  O30      1.0000 0.26918  0.63388  0.99438  Biso   1.000  O
  O31      1.0000 0.24120  0.87187  0.98906  Biso   1.000  O
  O32      1.0000 0.23871  0.86164  0.74453  Biso   1.000  O
  Zr17     1.0000 0.62698  0.00594  0.11739  Biso   1.000  Zr
  Zr18     1.0000 0.62900  0.23130  0.38121  Biso   1.000  Zr
  Zr19     1.0000 0.82800  0.26469  0.13123  Biso   1.000  Zr
  Zr20     1.0000 0.86704  0.48468  0.37505  Biso   1.000  Zr
  O33      1.0000 0.52454  0.18128  0.19464  Biso   1.000  O
  O34      1.0000 0.53272  0.06662  0.44836  Biso   1.000  O
  O35      1.0000 0.95821  0.43303  0.18868  Biso   1.000  O
  O36      1.0000 0.98789  0.34400  0.48182  Biso   1.000  O
  O37      1.0000 0.73980  0.11035  0.24656  Biso   1.000  O
  O38      1.0000 0.77214  0.14003  0.49955  Biso   1.000  O
  O39      1.0000 0.73762  0.38407  0.50039  Biso   1.000  O
  O40      1.0000 0.71636  0.37263  0.25532  Biso   1.000  O
  Zr21     1.0000 0.64059  0.01459  0.62304  Biso   1.000  Zr
  Zr22     1.0000 0.63239  0.23355  0.87152  Biso   1.000  Zr
  Zr23     1.0000 0.86862  0.27115  0.63445  Biso   1.000  Zr
  Zr24     1.0000 0.86487  0.48287  0.87960  Biso   1.000  Zr
  O41      1.0000 0.54037  0.18282  0.69187  Biso   1.000  O
  O42      1.0000 0.54164  0.06392  0.93721  Biso   1.000  O
  O43      1.0000 0.96395  0.44043  0.70566  Biso   1.000  O
  O44      1.0000 0.94906  0.31030  0.92275  Biso   1.000  O
  O45      1.0000 0.77293  0.11643  0.74937  Biso   1.000  O
  O46      1.0000 0.76816  0.13053  0.99893  Biso   1.000  O
  O47      1.0000 0.71979  0.38295  0.00272  Biso   1.000  O
  O48      1.0000 0.72817  0.36977  0.74982  Biso   1.000  O
  Zr25     1.0000 0.63035  0.52125  0.12798  Biso   1.000  Zr
  Zr26     1.0000 0.63964  0.73981  0.37575  Biso   1.000  Zr
  Zr27     1.0000 0.86825  0.76752  0.12437  Biso   1.000  Zr
  Zr28     1.0000 0.87679  0.00435  0.36399  Biso   1.000  Zr
  O49      1.0000 0.53778  0.68542  0.19889  Biso   1.000  O
  O50      1.0000 0.53688  0.56952  0.44605  Biso   1.000  O
  O51      1.0000 0.96959  0.94726  0.18530  Biso   1.000  O
  O52      1.0000 0.96711  0.82405  0.43706  Biso   1.000  O
  O53      1.0000 0.77190  0.61847  0.24979  Biso   1.000  O
  O54      1.0000 0.77157  0.63481  0.49705  Biso   1.000  O
  O55      1.0000 0.73599  0.88942  0.49414  Biso   1.000  O
  O56      1.0000 0.73592  0.86711  0.24427  Biso   1.000  O
  Zr29     1.0000 0.63723  0.51705  0.62425  Biso   1.000  Zr
  Zr30     1.0000 0.63926  0.73367  0.87303  Biso   1.000  Zr
  Zr31     1.0000 0.87032  0.76943  0.61826  Biso   1.000  Zr
  Zr32     1.0000 0.87179  0.98310  0.87175  Biso   1.000  Zr
  O57      1.0000 0.53523  0.68123  0.69726  Biso   1.000  O
  O58      1.0000 0.53329  0.57021  0.94917  Biso   1.000  O
  O59      1.0000 0.96942  0.92924  0.69603  Biso   1.000  O
  O60      1.0000 0.97080  0.81443  0.94661  Biso   1.000  O
  O61      1.0000 0.77097  0.61764  0.74834  Biso   1.000  O
  O62      1.0000 0.76897  0.63394  0.00116  Biso   1.000  O
  O63      1.0000 0.73732  0.88169  0.99532  Biso   1.000  O
  O64      1.0000 0.73586  0.86640  0.74536  Biso   1.000  O
  Hg1      1.0000 0.08031  0.23815  0.12350  Biso   1.000  Hg
