data_image0
_cell_length_a       10.0869
_cell_length_b       10.2449
_cell_length_c       10.0868
_cell_angle_alpha    89.5214
_cell_angle_beta     89.6388
_cell_angle_gamma    90.4788

_symmetry_space_group_name_H-M    "P 1"
_symmetry_int_tables_number       1

loop_
  _symmetry_equiv_pos_as_xyz
  'x, y, z'

loop_
  _atom_site_label
  _atom_site_occupancy
  _atom_site_fract_x
  _atom_site_fract_y
  _atom_site_fract_z
  _atom_site_thermal_displace_type
  _atom_site_B_iso_or_equiv
  _atom_site_type_symbol
  Hg1      1.0000 0.12211  0.97741  0.12873  Biso   1.000  Hg
  Zr1      1.0000 0.12216  0.25503  0.37402  Biso   1.000  Zr
  Zr2      1.0000 0.37165  0.24824  0.13179  Biso   1.000  Zr
  Zr3      1.0000 0.37587  0.00707  0.38360  Biso   1.000  Zr
  O1       1.0000 0.97563  0.15566  0.98707  Biso   1.000  O
  O2       1.0000 0.99775  0.11964  0.25310  Biso   1.000  O
  O3       1.0000 0.99863  0.36332  0.25220  Biso   1.000  O
  O4       1.0000 0.00042  0.40103  0.00248  Biso   1.000  O
  O5       1.0000 0.26378  0.15565  0.27522  Biso   1.000  O
  O6       1.0000 0.23583  0.09238  0.01502  Biso   1.000  O
  O7       1.0000 0.24907  0.34417  0.00177  Biso   1.000  O
  O8       1.0000 0.24835  0.40103  0.25042  Biso   1.000  O
  Zr4      1.0000 0.11952  0.99720  0.62569  Biso   1.000  Zr
  Zr5      1.0000 0.11905  0.24824  0.87918  Biso   1.000  Zr
  Zr6      1.0000 0.37171  0.24776  0.63034  Biso   1.000  Zr
  Zr7      1.0000 0.37247  0.99516  0.87837  Biso   1.000  Zr
  O9       1.0000 0.00127  0.14726  0.50173  Biso   1.000  O
  O10      1.0000 0.99943  0.10303  0.74663  Biso   1.000  O
  O11      1.0000 0.99900  0.35346  0.75173  Biso   1.000  O
  O12      1.0000 0.99907  0.39819  0.50152  Biso   1.000  O
  O13      1.0000 0.25461  0.14562  0.76847  Biso   1.000  O
  O14      1.0000 0.25520  0.10211  0.51747  Biso   1.000  O
  O15      1.0000 0.25005  0.35358  0.50304  Biso   1.000  O
  O16      1.0000 0.24934  0.39437  0.75091  Biso   1.000  O
  Zr8      1.0000 0.12413  0.50524  0.12671  Biso   1.000  Zr
  Zr9      1.0000 0.13038  0.74687  0.37868  Biso   1.000  Zr
  Zr10     1.0000 0.38319  0.74786  0.12303  Biso   1.000  Zr
  Zr11     1.0000 0.37593  0.49860  0.37619  Biso   1.000  Zr
  O17      1.0000 0.00467  0.65011  0.00120  Biso   1.000  O
  O18      1.0000 0.99905  0.61066  0.25179  Biso   1.000  O
  O19      1.0000 0.01026  0.85778  0.24057  Biso   1.000  O
  O20      1.0000 0.00357  0.89780  0.98244  Biso   1.000  O
  O21      1.0000 0.24964  0.65011  0.24616  Biso   1.000  O
  O22      1.0000 0.25297  0.59521  0.99787  Biso   1.000  O
  O23      1.0000 0.26920  0.83729  0.98165  Biso   1.000  O
  O24      1.0000 0.26839  0.89780  0.24729  Biso   1.000  O
  Zr12     1.0000 0.12630  0.49841  0.62653  Biso   1.000  Zr
  Zr13     1.0000 0.12782  0.74786  0.86765  Biso   1.000  Zr
  Zr14     1.0000 0.37725  0.75162  0.62472  Biso   1.000  Zr
  Zr15     1.0000 0.37634  0.49557  0.87450  Biso   1.000  Zr
  O25      1.0000 0.99990  0.64704  0.50091  Biso   1.000  O
  O26      1.0000 0.00199  0.60182  0.75110  Biso   1.000  O
  O27      1.0000 0.00006  0.85081  0.74311  Biso   1.000  O
  O28      1.0000 0.00432  0.89672  0.49054  Biso   1.000  O
  O29      1.0000 0.25170  0.64295  0.74500  Biso   1.000  O
  O30      1.0000 0.24741  0.60402  0.49552  Biso   1.000  O
  O31      1.0000 0.25522  0.85332  0.49531  Biso   1.000  O
  O32      1.0000 0.24932  0.89582  0.74317  Biso   1.000  O
  Zr16     1.0000 0.62514  0.99721  0.13132  Biso   1.000  Zr
  Zr17     1.0000 0.62543  0.25168  0.37527  Biso   1.000  Zr
  Zr18     1.0000 0.87682  0.25503  0.12867  Biso   1.000  Zr
  Zr19     1.0000 0.87659  0.00864  0.37425  Biso   1.000  Zr
  O33      1.0000 0.48239  0.14561  0.99625  Biso   1.000  O
  O34      1.0000 0.50422  0.10303  0.25143  Biso   1.000  O
  O35      1.0000 0.49910  0.35346  0.25184  Biso   1.000  O
  O36      1.0000 0.49993  0.39437  0.00150  Biso   1.000  O
  O37      1.0000 0.74912  0.14727  0.24958  Biso   1.000  O
  O38      1.0000 0.73338  0.10212  0.99565  Biso   1.000  O
  O39      1.0000 0.74780  0.35358  0.00080  Biso   1.000  O
  O40      1.0000 0.74931  0.39820  0.25178  Biso   1.000  O
  Zr20     1.0000 0.62452  0.00258  0.62632  Biso   1.000  Zr
  Zr21     1.0000 0.62050  0.24776  0.87913  Biso   1.000  Zr
  Zr22     1.0000 0.87558  0.25168  0.62541  Biso   1.000  Zr
  Zr23     1.0000 0.86724  0.00708  0.87498  Biso   1.000  Zr
  O41      1.0000 0.50067  0.14871  0.50171  Biso   1.000  O
  O42      1.0000 0.50077  0.10183  0.75009  Biso   1.000  O
  O43      1.0000 0.49936  0.35313  0.75148  Biso   1.000  O
  O44      1.0000 0.50038  0.39713  0.50103  Biso   1.000  O
  O45      1.0000 0.74914  0.14871  0.75017  Biso   1.000  O
  O46      1.0000 0.75121  0.10591  0.49964  Biso   1.000  O
  O47      1.0000 0.75018  0.35460  0.50068  Biso   1.000  O
  O48      1.0000 0.74981  0.39713  0.75047  Biso   1.000  O
  Zr24     1.0000 0.62431  0.49841  0.12454  Biso   1.000  Zr
  Zr25     1.0000 0.62766  0.74997  0.37782  Biso   1.000  Zr
  Zr26     1.0000 0.87216  0.74687  0.12046  Biso   1.000  Zr
  Zr27     1.0000 0.87433  0.50220  0.37650  Biso   1.000  Zr
  O49      1.0000 0.50584  0.64296  0.99914  Biso   1.000  O
  O50      1.0000 0.49974  0.60182  0.24885  Biso   1.000  O
  O51      1.0000 0.50772  0.85082  0.25078  Biso   1.000  O
  O52      1.0000 0.50768  0.89582  0.00152  Biso   1.000  O
  O53      1.0000 0.74992  0.64704  0.25093  Biso   1.000  O
  O54      1.0000 0.75532  0.60402  0.00342  Biso   1.000  O
  O55      1.0000 0.75553  0.85332  0.99561  Biso   1.000  O
  O56      1.0000 0.76029  0.89672  0.24652  Biso   1.000  O
  Zr28     1.0000 0.62391  0.49821  0.62694  Biso   1.000  Zr
  Zr29     1.0000 0.62612  0.75163  0.87359  Biso   1.000  Zr
  Zr30     1.0000 0.87301  0.74997  0.62317  Biso   1.000  Zr
  Zr31     1.0000 0.87466  0.49860  0.87491  Biso   1.000  Zr
  O57      1.0000 0.49879  0.64644  0.49905  Biso   1.000  O
  O58      1.0000 0.50111  0.60396  0.74972  Biso   1.000  O
  O59      1.0000 0.49721  0.85346  0.75363  Biso   1.000  O
  O60      1.0000 0.50385  0.89702  0.50253  Biso   1.000  O
  O61      1.0000 0.75178  0.64644  0.75204  Biso   1.000  O
  O62      1.0000 0.74919  0.60466  0.50164  Biso   1.000  O
  O63      1.0000 0.75323  0.85519  0.49761  Biso   1.000  O
  O64      1.0000 0.74832  0.89703  0.74700  Biso   1.000  O
