data_image0
_cell_length_a       10.082
_cell_length_b       10.3528
_cell_length_c       10.4676
_cell_angle_alpha    89.7126
_cell_angle_beta     90.7024
_cell_angle_gamma    89.9641

_symmetry_space_group_name_H-M    "P 1"
_symmetry_int_tables_number       1

loop_
  _symmetry_equiv_pos_as_xyz
  'x, y, z'

loop_
  _atom_site_label
  _atom_site_occupancy
  _atom_site_fract_x
  _atom_site_fract_y
  _atom_site_fract_z
  _atom_site_thermal_displace_type
  _atom_site_B_iso_or_equiv
  _atom_site_type_symbol
  Hg1      1.0000 0.12720  0.01846  0.18378  Biso   1.000  Hg
  Zr1      1.0000 0.13526  0.23241  0.42263  Biso   1.000  Zr
  Zr2      1.0000 0.36013  0.27054  0.16497  Biso   1.000  Zr
  Zr3      1.0000 0.36007  0.47981  0.41898  Biso   1.000  Zr
  Zr4      1.0000 0.64107  0.02076  0.08000  Biso   1.000  Zr
  Zr5      1.0000 0.63646  0.23067  0.33053  Biso   1.000  Zr
  Zr6      1.0000 0.86114  0.26954  0.08273  Biso   1.000  Zr
  Zr7      1.0000 0.85954  0.47965  0.33076  Biso   1.000  Zr
  O1       1.0000 0.04429  0.17144  0.09304  Biso   1.000  O
  O2       1.0000 0.02469  0.07731  0.37938  Biso   1.000  O
  O3       1.0000 0.46687  0.41790  0.08491  Biso   1.000  O
  O4       1.0000 0.46245  0.32939  0.33608  Biso   1.000  O
  O5       1.0000 0.27069  0.12267  0.28815  Biso   1.000  O
  O6       1.0000 0.29192  0.13617  0.03001  Biso   1.000  O
  O7       1.0000 0.22310  0.37390  0.29269  Biso   1.000  O
  O8       1.0000 0.22247  0.37736  0.04239  Biso   1.000  O
  O9       1.0000 0.53642  0.16938  0.16269  Biso   1.000  O
  O10      1.0000 0.53212  0.08083  0.41280  Biso   1.000  O
  O11      1.0000 0.96335  0.42033  0.16292  Biso   1.000  O
  O12      1.0000 0.96204  0.33130  0.41580  Biso   1.000  O
  O13      1.0000 0.77037  0.12678  0.46143  Biso   1.000  O
  O14      1.0000 0.77772  0.12733  0.21113  Biso   1.000  O
  O15      1.0000 0.72258  0.37618  0.45669  Biso   1.000  O
  O16      1.0000 0.72372  0.37508  0.20668  Biso   1.000  O
  Zr8      1.0000 0.13706  0.02139  0.66514  Biso   1.000  Zr
  Zr9      1.0000 0.14470  0.22535  0.91759  Biso   1.000  Zr
  Zr10     1.0000 0.36090  0.27065  0.66893  Biso   1.000  Zr
  Zr11     1.0000 0.36109  0.47846  0.91919  Biso   1.000  Zr
  Zr12     1.0000 0.63669  0.02120  0.58232  Biso   1.000  Zr
  Zr13     1.0000 0.63940  0.22887  0.83075  Biso   1.000  Zr
  Zr14     1.0000 0.86098  0.27143  0.58352  Biso   1.000  Zr
  Zr15     1.0000 0.86438  0.47772  0.83194  Biso   1.000  Zr
  O17      1.0000 0.04068  0.18430  0.60262  Biso   1.000  O
  O18      1.0000 0.03857  0.07532  0.83953  Biso   1.000  O
  O19      1.0000 0.46567  0.41878  0.58469  Biso   1.000  O
  O20      1.0000 0.46687  0.33148  0.83482  Biso   1.000  O
  O21      1.0000 0.27648  0.12236  0.78682  Biso   1.000  O
  O22      1.0000 0.27657  0.12668  0.53860  Biso   1.000  O
  O23      1.0000 0.22501  0.37278  0.79291  Biso   1.000  O
  O24      1.0000 0.22335  0.37754  0.54348  Biso   1.000  O
  O25      1.0000 0.53419  0.16909  0.66323  Biso   1.000  O
  O26      1.0000 0.53952  0.07896  0.91145  Biso   1.000  O
  O27      1.0000 0.96272  0.42405  0.66392  Biso   1.000  O
  O28      1.0000 0.96707  0.32577  0.91764  Biso   1.000  O
  O29      1.0000 0.77973  0.12393  0.95873  Biso   1.000  O
  O30      1.0000 0.77624  0.12598  0.70883  Biso   1.000  O
  O31      1.0000 0.72614  0.37339  0.95797  Biso   1.000  O
  O32      1.0000 0.72485  0.37530  0.70742  Biso   1.000  O
  Zr16     1.0000 0.13849  0.51981  0.16902  Biso   1.000  Zr
  Zr17     1.0000 0.13441  0.72726  0.41940  Biso   1.000  Zr
  Zr18     1.0000 0.36237  0.76958  0.16323  Biso   1.000  Zr
  Zr19     1.0000 0.36134  0.97872  0.41844  Biso   1.000  Zr
  Zr20     1.0000 0.63930  0.52007  0.07879  Biso   1.000  Zr
  Zr21     1.0000 0.63814  0.72945  0.32845  Biso   1.000  Zr
  Zr22     1.0000 0.86208  0.76750  0.07777  Biso   1.000  Zr
  Zr23     1.0000 0.85793  0.98336  0.34038  Biso   1.000  Zr
  O33      1.0000 0.03835  0.67504  0.09030  Biso   1.000  O
  O34      1.0000 0.03513  0.57654  0.33848  Biso   1.000  O
  O35      1.0000 0.47123  0.91804  0.08529  Biso   1.000  O
  O36      1.0000 0.46196  0.83028  0.33397  Biso   1.000  O
  O37      1.0000 0.27415  0.62704  0.29242  Biso   1.000  O
  O38      1.0000 0.27623  0.62085  0.04283  Biso   1.000  O
  O39      1.0000 0.21992  0.87362  0.28533  Biso   1.000  O
  O40      1.0000 0.23801  0.86585  0.03167  Biso   1.000  O
  O41      1.0000 0.53581  0.66848  0.16169  Biso   1.000  O
  O42      1.0000 0.53350  0.58152  0.41164  Biso   1.000  O
  O43      1.0000 0.95212  0.93051  0.16066  Biso   1.000  O
  O44      1.0000 0.95972  0.82420  0.40933  Biso   1.000  O
  O45      1.0000 0.77455  0.62500  0.45637  Biso   1.000  O
  O46      1.0000 0.77580  0.62525  0.20613  Biso   1.000  O
  O47      1.0000 0.72097  0.87547  0.45761  Biso   1.000  O
  O48      1.0000 0.72896  0.87459  0.20603  Biso   1.000  O
  Zr24     1.0000 0.13851  0.52034  0.67062  Biso   1.000  Zr
  Zr25     1.0000 0.14197  0.73086  0.91795  Biso   1.000  Zr
  Zr26     1.0000 0.36008  0.77058  0.66792  Biso   1.000  Zr
  Zr27     1.0000 0.36221  0.97957  0.91823  Biso   1.000  Zr
  Zr28     1.0000 0.63853  0.52070  0.57987  Biso   1.000  Zr
  Zr29     1.0000 0.63868  0.72958  0.82858  Biso   1.000  Zr
  Zr30     1.0000 0.85996  0.77007  0.58084  Biso   1.000  Zr
  Zr31     1.0000 0.86311  0.97967  0.83103  Biso   1.000  Zr
  O49      1.0000 0.03506  0.67146  0.58860  Biso   1.000  O
  O50      1.0000 0.03777  0.57632  0.84015  Biso   1.000  O
  O51      1.0000 0.46434  0.91840  0.58431  Biso   1.000  O
  O52      1.0000 0.46688  0.83184  0.83254  Biso   1.000  O
  O53      1.0000 0.27686  0.62420  0.79228  Biso   1.000  O
  O54      1.0000 0.27420  0.62484  0.54258  Biso   1.000  O
  O55      1.0000 0.22314  0.87370  0.78696  Biso   1.000  O
  O56      1.0000 0.22319  0.87564  0.53794  Biso   1.000  O
  O57      1.0000 0.53423  0.66861  0.66195  Biso   1.000  O
  O58      1.0000 0.53478  0.58126  0.91292  Biso   1.000  O
  O59      1.0000 0.96218  0.92332  0.65871  Biso   1.000  O
  O60      1.0000 0.96526  0.82699  0.91100  Biso   1.000  O
  O61      1.0000 0.77740  0.62325  0.95693  Biso   1.000  O
  O62      1.0000 0.77646  0.62547  0.70737  Biso   1.000  O
  O63      1.0000 0.72576  0.87384  0.95582  Biso   1.000  O
  O64      1.0000 0.72441  0.87548  0.70649  Biso   1.000  O
