data_image0
_cell_length_a       5.00268
_cell_length_b       10.4465
_cell_length_c       10.1132
_cell_angle_alpha    90.0764
_cell_angle_beta     88.6288
_cell_angle_gamma    89.881

_symmetry_space_group_name_H-M    "P 1"
_symmetry_int_tables_number       1

loop_
  _symmetry_equiv_pos_as_xyz
  'x, y, z'

loop_
  _atom_site_label
  _atom_site_occupancy
  _atom_site_fract_x
  _atom_site_fract_y
  _atom_site_fract_z
  _atom_site_thermal_displace_type
  _atom_site_B_iso_or_equiv
  _atom_site_type_symbol
  Hg1      1.0000 0.24558  0.02215  0.10904  Biso   1.000  Hg
  Zr1      1.0000 0.27978  0.22909  0.38178  Biso   1.000  Zr
  Zr2      1.0000 0.72041  0.26754  0.13097  Biso   1.000  Zr
  Zr3      1.0000 0.73506  0.48405  0.37757  Biso   1.000  Zr
  O1       1.0000 0.09325  0.18656  0.18596  Biso   1.000  O
  O2       1.0000 0.07804  0.06416  0.44354  Biso   1.000  O
  O3       1.0000 0.92781  0.42853  0.19415  Biso   1.000  O
  O4       1.0000 0.92834  0.31615  0.43896  Biso   1.000  O
  O5       1.0000 0.57879  0.13124  0.26235  Biso   1.000  O
  O6       1.0000 0.54107  0.12980  0.50676  Biso   1.000  O
  O7       1.0000 0.46322  0.38188  0.50176  Biso   1.000  O
  O8       1.0000 0.45111  0.37110  0.25315  Biso   1.000  O
  Zr4      1.0000 0.26170  0.01876  0.63510  Biso   1.000  Zr
  Zr5      1.0000 0.26214  0.23760  0.86937  Biso   1.000  Zr
  Zr6      1.0000 0.73547  0.26744  0.62356  Biso   1.000  Zr
  Zr7      1.0000 0.72751  0.48362  0.87646  Biso   1.000  Zr
  O9       1.0000 0.09382  0.19833  0.67493  Biso   1.000  O
  O10      1.0000 0.08116  0.06250  0.88416  Biso   1.000  O
  O11      1.0000 0.92548  0.43616  0.69621  Biso   1.000  O
  O12      1.0000 0.91512  0.30959  0.94180  Biso   1.000  O
  O13      1.0000 0.55391  0.12333  0.75158  Biso   1.000  O
  O14      1.0000 0.52989  0.12662  0.00314  Biso   1.000  O
  O15      1.0000 0.45537  0.37996  0.00216  Biso   1.000  O
  O16      1.0000 0.45838  0.37104  0.75044  Biso   1.000  O
  Zr8      1.0000 0.27005  0.51532  0.13033  Biso   1.000  Zr
  Zr9      1.0000 0.27391  0.73653  0.37863  Biso   1.000  Zr
  Zr10     1.0000 0.73677  0.76054  0.12760  Biso   1.000  Zr
  Zr11     1.0000 0.73218  0.98562  0.38131  Biso   1.000  Zr
  O17      1.0000 0.07753  0.68425  0.19722  Biso   1.000  O
  O18      1.0000 0.07245  0.56538  0.44672  Biso   1.000  O
  O19      1.0000 0.93005  0.93544  0.19099  Biso   1.000  O
  O20      1.0000 0.92984  0.81442  0.44556  Biso   1.000  O
  O21      1.0000 0.54413  0.61285  0.24956  Biso   1.000  O
  O22      1.0000 0.53826  0.63266  0.50043  Biso   1.000  O
  O23      1.0000 0.45331  0.88331  0.50705  Biso   1.000  O
  O24      1.0000 0.50451  0.85787  0.26142  Biso   1.000  O
  Zr12     1.0000 0.26637  0.51720  0.62678  Biso   1.000  Zr
  Zr13     1.0000 0.25895  0.73067  0.87879  Biso   1.000  Zr
  Zr14     1.0000 0.72864  0.76500  0.62501  Biso   1.000  Zr
  Zr15     1.0000 0.72515  0.98140  0.86999  Biso   1.000  Zr
  O25      1.0000 0.06650  0.68461  0.69883  Biso   1.000  O
  O26      1.0000 0.06347  0.56375  0.94933  Biso   1.000  O
  O27      1.0000 0.90894  0.93458  0.68202  Biso   1.000  O
  O28      1.0000 0.91321  0.81619  0.94227  Biso   1.000  O
  O29      1.0000 0.53323  0.61712  0.75162  Biso   1.000  O
  O30      1.0000 0.53393  0.63170  0.00060  Biso   1.000  O
  O31      1.0000 0.44337  0.87826  0.00956  Biso   1.000  O
  O32      1.0000 0.45337  0.86725  0.75584  Biso   1.000  O
