data_image0
_cell_length_a       10.2503
_cell_length_b       5.19282
_cell_length_c       10.5225
_cell_angle_alpha    90.7335
_cell_angle_beta     80.1658
_cell_angle_gamma    89.8894

_symmetry_space_group_name_H-M    "P 1"
_symmetry_int_tables_number       1

loop_
  _symmetry_equiv_pos_as_xyz
  'x, y, z'

loop_
  _atom_site_label
  _atom_site_occupancy
  _atom_site_fract_x
  _atom_site_fract_y
  _atom_site_fract_z
  _atom_site_thermal_displace_type
  _atom_site_B_iso_or_equiv
  _atom_site_type_symbol
  Hg1      1.0000 0.12500  0.01256  0.16359  Biso   1.000  Hg
  Zr1      1.0000 0.14093  0.45011  0.39778  Biso   1.000  Zr
  Zr2      1.0000 0.36241  0.53372  0.10217  Biso   1.000  Zr
  Zr3      1.0000 0.36559  0.94369  0.35503  Biso   1.000  Zr
  O1       1.0000 0.03832  0.38209  0.07975  Biso   1.000  O
  O2       1.0000 0.02878  0.16034  0.33280  Biso   1.000  O
  O3       1.0000 0.47078  0.82810  0.17182  Biso   1.000  O
  O4       1.0000 0.46865  0.66413  0.42559  Biso   1.000  O
  O5       1.0000 0.27205  0.21907  0.23349  Biso   1.000  O
  O6       1.0000 0.27629  0.23789  0.48718  Biso   1.000  O
  O7       1.0000 0.22779  0.78896  0.01681  Biso   1.000  O
  O8       1.0000 0.24404  0.69308  0.26927  Biso   1.000  O
  Zr4      1.0000 0.13969  0.04057  0.64571  Biso   1.000  Zr
  Zr5      1.0000 0.13648  0.46141  0.89651  Biso   1.000  Zr
  Zr6      1.0000 0.36225  0.54399  0.60810  Biso   1.000  Zr
  Zr7      1.0000 0.36175  0.97440  0.85709  Biso   1.000  Zr
  O9       1.0000 0.03327  0.32924  0.57775  Biso   1.000  O
  O10      1.0000 0.03526  0.16473  0.82936  Biso   1.000  O
  O11      1.0000 0.46594  0.83747  0.67289  Biso   1.000  O
  O12      1.0000 0.46603  0.67857  0.92282  Biso   1.000  O
  O13      1.0000 0.27414  0.25808  0.73555  Biso   1.000  O
  O14      1.0000 0.28768  0.28278  0.97480  Biso   1.000  O
  O15      1.0000 0.22500  0.75089  0.51391  Biso   1.000  O
  O16      1.0000 0.22613  0.74752  0.76438  Biso   1.000  O
  Zr8      1.0000 0.63776  0.04112  0.14359  Biso   1.000  Zr
  Zr9      1.0000 0.63814  0.45275  0.39539  Biso   1.000  Zr
  Zr10     1.0000 0.86121  0.52987  0.09935  Biso   1.000  Zr
  Zr11     1.0000 0.85194  0.94988  0.35787  Biso   1.000  Zr
  O17      1.0000 0.53586  0.33444  0.07726  Biso   1.000  O
  O18      1.0000 0.53309  0.16521  0.32820  Biso   1.000  O
  O19      1.0000 0.94645  0.85994  0.16469  Biso   1.000  O
  O20      1.0000 0.96658  0.66206  0.41697  Biso   1.000  O
  O21      1.0000 0.77294  0.25491  0.24091  Biso   1.000  O
  O22      1.0000 0.77454  0.23916  0.49015  Biso   1.000  O
  O23      1.0000 0.72391  0.76064  0.00753  Biso   1.000  O
  O24      1.0000 0.72473  0.73939  0.25982  Biso   1.000  O
  Zr12     1.0000 0.63791  0.04459  0.64668  Biso   1.000  Zr
  Zr13     1.0000 0.63862  0.46688  0.89447  Biso   1.000  Zr
  Zr14     1.0000 0.86185  0.54303  0.60409  Biso   1.000  Zr
  Zr15     1.0000 0.86186  0.95917  0.85351  Biso   1.000  Zr
  O25      1.0000 0.53481  0.33317  0.57883  Biso   1.000  O
  O26      1.0000 0.53682  0.17250  0.82746  Biso   1.000  O
  O27      1.0000 0.96577  0.83549  0.66862  Biso   1.000  O
  O28      1.0000 0.96123  0.66386  0.91484  Biso   1.000  O
  O29      1.0000 0.77610  0.26299  0.73889  Biso   1.000  O
  O30      1.0000 0.77459  0.24539  0.98833  Biso   1.000  O
  O31      1.0000 0.72412  0.75303  0.51019  Biso   1.000  O
  O32      1.0000 0.72490  0.74715  0.75816  Biso   1.000  O
