data_image0
_cell_length_a       10.1414
_cell_length_b       10.2677
_cell_length_c       10.4571
_cell_angle_alpha    89.9981
_cell_angle_beta     80.2906
_cell_angle_gamma    90.0038

_symmetry_space_group_name_H-M    "P 1"
_symmetry_int_tables_number       1

loop_
  _symmetry_equiv_pos_as_xyz
  'x, y, z'

loop_
  _atom_site_label
  _atom_site_occupancy
  _atom_site_fract_x
  _atom_site_fract_y
  _atom_site_fract_z
  _atom_site_thermal_displace_type
  _atom_site_B_iso_or_equiv
  _atom_site_type_symbol
  In1      1.0000 0.13675  0.01660  0.14685  Biso   1.000  In
  Hf1      1.0000 0.13905  0.22785  0.39521  Biso   1.000  Hf
  Hf2      1.0000 0.35888  0.26851  0.10423  Biso   1.000  Hf
  Hf3      1.0000 0.36021  0.47811  0.35341  Biso   1.000  Hf
  O1       1.0000 0.03591  0.17328  0.07760  Biso   1.000  O
  O2       1.0000 0.03048  0.08313  0.33766  Biso   1.000  O
  O3       1.0000 0.46478  0.41640  0.17075  Biso   1.000  O
  O4       1.0000 0.46486  0.33207  0.42070  Biso   1.000  O
  O5       1.0000 0.27981  0.13022  0.24351  Biso   1.000  O
  O6       1.0000 0.27605  0.12115  0.49110  Biso   1.000  O
  O7       1.0000 0.22418  0.37990  0.00902  Biso   1.000  O
  O8       1.0000 0.22243  0.37101  0.25908  Biso   1.000  O
  Hf4      1.0000 0.13916  0.02146  0.64543  Biso   1.000  Hf
  Hf5      1.0000 0.13971  0.22797  0.89617  Biso   1.000  Hf
  Hf6      1.0000 0.36041  0.27125  0.60406  Biso   1.000  Hf
  Hf7      1.0000 0.36114  0.47851  0.85442  Biso   1.000  Hf
  O9       1.0000 0.03574  0.17044  0.58172  Biso   1.000  O
  O10      1.0000 0.03538  0.08110  0.82957  Biso   1.000  O
  O11      1.0000 0.46526  0.41781  0.67053  Biso   1.000  O
  O12      1.0000 0.46645  0.33335  0.92072  Biso   1.000  O
  O13      1.0000 0.27620  0.12860  0.73901  Biso   1.000  O
  O14      1.0000 0.28247  0.12544  0.98437  Biso   1.000  O
  O15      1.0000 0.22378  0.37936  0.50939  Biso   1.000  O
  O16      1.0000 0.22426  0.37149  0.75925  Biso   1.000  O
  Hf8      1.0000 0.13947  0.52116  0.14514  Biso   1.000  Hf
  Hf9      1.0000 0.13973  0.72836  0.39554  Biso   1.000  Hf
  Hf10     1.0000 0.36137  0.77163  0.10383  Biso   1.000  Hf
  Hf11     1.0000 0.35997  0.97946  0.35329  Biso   1.000  Hf
  O17      1.0000 0.03518  0.66835  0.07938  Biso   1.000  O
  O18      1.0000 0.03476  0.58228  0.32928  Biso   1.000  O
  O19      1.0000 0.46611  0.91783  0.17028  Biso   1.000  O
  O20      1.0000 0.46451  0.83190  0.42087  Biso   1.000  O
  O21      1.0000 0.27665  0.62679  0.23970  Biso   1.000  O
  O22      1.0000 0.27632  0.62108  0.49034  Biso   1.000  O
  O23      1.0000 0.22798  0.87651  0.00563  Biso   1.000  O
  O24      1.0000 0.22756  0.86618  0.26087  Biso   1.000  O
  Hf12     1.0000 0.13943  0.52143  0.64614  Biso   1.000  Hf
  Hf13     1.0000 0.14006  0.73009  0.89599  Biso   1.000  Hf
  Hf14     1.0000 0.36082  0.77192  0.60397  Biso   1.000  Hf
  Hf15     1.0000 0.36116  0.97970  0.85434  Biso   1.000  Hf
  O25      1.0000 0.03526  0.66839  0.58028  Biso   1.000  O
  O26      1.0000 0.03544  0.58178  0.82988  Biso   1.000  O
  O27      1.0000 0.46561  0.91802  0.67020  Biso   1.000  O
  O28      1.0000 0.46721  0.83291  0.92025  Biso   1.000  O
  O29      1.0000 0.27649  0.62943  0.74049  Biso   1.000  O
  O30      1.0000 0.27670  0.62091  0.99016  Biso   1.000  O
  O31      1.0000 0.22337  0.87908  0.50963  Biso   1.000  O
  O32      1.0000 0.22385  0.87160  0.75837  Biso   1.000  O
  Hf16     1.0000 0.63947  0.02097  0.14618  Biso   1.000  Hf
  Hf17     1.0000 0.63877  0.22884  0.39594  Biso   1.000  Hf
  Hf18     1.0000 0.86254  0.27026  0.10377  Biso   1.000  Hf
  Hf19     1.0000 0.86051  0.47906  0.35399  Biso   1.000  Hf
  O33      1.0000 0.53564  0.16808  0.07954  Biso   1.000  O
  O34      1.0000 0.53520  0.08182  0.32990  Biso   1.000  O
  O35      1.0000 0.96395  0.41986  0.17010  Biso   1.000  O
  O36      1.0000 0.96484  0.33316  0.42079  Biso   1.000  O
  O37      1.0000 0.77561  0.12927  0.24119  Biso   1.000  O
  O38      1.0000 0.77503  0.12190  0.49165  Biso   1.000  O
  O39      1.0000 0.72399  0.37854  0.00941  Biso   1.000  O
  O40      1.0000 0.72357  0.37115  0.26000  Biso   1.000  O
  Hf20     1.0000 0.63923  0.02166  0.64617  Biso   1.000  Hf
  Hf21     1.0000 0.63927  0.22914  0.89644  Biso   1.000  Hf
  Hf22     1.0000 0.86104  0.27158  0.60421  Biso   1.000  Hf
  Hf23     1.0000 0.86124  0.47879  0.85414  Biso   1.000  Hf
  O41      1.0000 0.53445  0.16808  0.57976  Biso   1.000  O
  O42      1.0000 0.53643  0.08210  0.82916  Biso   1.000  O
  O43      1.0000 0.96483  0.41924  0.66983  Biso   1.000  O
  O44      1.0000 0.96479  0.33213  0.91916  Biso   1.000  O
  O45      1.0000 0.77706  0.12924  0.74073  Biso   1.000  O
  O46      1.0000 0.77649  0.12077  0.99060  Biso   1.000  O
  O47      1.0000 0.72338  0.37927  0.50959  Biso   1.000  O
  O48      1.0000 0.72402  0.37132  0.75928  Biso   1.000  O
  Hf24     1.0000 0.63851  0.51989  0.14566  Biso   1.000  Hf
  Hf25     1.0000 0.63802  0.72856  0.39575  Biso   1.000  Hf
  Hf26     1.0000 0.85974  0.77067  0.10435  Biso   1.000  Hf
  Hf27     1.0000 0.85957  0.97864  0.35501  Biso   1.000  Hf
  O49      1.0000 0.53520  0.66700  0.07893  Biso   1.000  O
  O50      1.0000 0.53420  0.58168  0.32918  Biso   1.000  O
  O51      1.0000 0.95590  0.91641  0.17277  Biso   1.000  O
  O52      1.0000 0.96500  0.83125  0.42063  Biso   1.000  O
  O53      1.0000 0.77528  0.62844  0.24052  Biso   1.000  O
  O54      1.0000 0.77602  0.62133  0.49040  Biso   1.000  O
  O55      1.0000 0.72363  0.87862  0.00921  Biso   1.000  O
  O56      1.0000 0.71959  0.87032  0.26060  Biso   1.000  O
  Hf28     1.0000 0.63901  0.52135  0.64578  Biso   1.000  Hf
  Hf29     1.0000 0.63941  0.72874  0.89568  Biso   1.000  Hf
  Hf30     1.0000 0.86114  0.77123  0.60409  Biso   1.000  Hf
  Hf31     1.0000 0.86119  0.97879  0.85446  Biso   1.000  Hf
  O57      1.0000 0.53456  0.66773  0.57959  Biso   1.000  O
  O58      1.0000 0.53504  0.58241  0.82897  Biso   1.000  O
  O59      1.0000 0.96465  0.91867  0.66993  Biso   1.000  O
  O60      1.0000 0.96477  0.83133  0.92002  Biso   1.000  O
  O61      1.0000 0.77632  0.62902  0.74006  Biso   1.000  O
  O62      1.0000 0.77568  0.62000  0.98993  Biso   1.000  O
  O63      1.0000 0.72351  0.87872  0.50998  Biso   1.000  O
  O64      1.0000 0.72434  0.87119  0.75937  Biso   1.000  O
