data_image0
_cell_length_a       10.1693
_cell_length_b       10.2645
_cell_length_c       5.23157
_cell_angle_alpha    90.0123
_cell_angle_beta     80.2921
_cell_angle_gamma    90.0095

_symmetry_space_group_name_H-M    "P 1"
_symmetry_int_tables_number       1

loop_
  _symmetry_equiv_pos_as_xyz
  'x, y, z'

loop_
  _atom_site_label
  _atom_site_occupancy
  _atom_site_fract_x
  _atom_site_fract_y
  _atom_site_fract_z
  _atom_site_thermal_displace_type
  _atom_site_B_iso_or_equiv
  _atom_site_type_symbol
  In1      1.0000 0.13691  0.01628  0.29320  Biso   1.000  In
  Hf1      1.0000 0.14029  0.22773  0.79084  Biso   1.000  Hf
  Hf2      1.0000 0.35865  0.26858  0.20818  Biso   1.000  Hf
  Hf3      1.0000 0.36057  0.47812  0.70740  Biso   1.000  Hf
  O1       1.0000 0.03562  0.17409  0.15757  Biso   1.000  O
  O2       1.0000 0.03003  0.08341  0.67497  Biso   1.000  O
  O3       1.0000 0.46546  0.41578  0.34214  Biso   1.000  O
  O4       1.0000 0.46659  0.33399  0.84244  Biso   1.000  O
  O5       1.0000 0.27897  0.12947  0.48335  Biso   1.000  O
  O6       1.0000 0.28210  0.12588  0.96963  Biso   1.000  O
  O7       1.0000 0.22435  0.38015  0.01803  Biso   1.000  O
  O8       1.0000 0.22338  0.37148  0.51779  Biso   1.000  O
  Hf4      1.0000 0.14010  0.52135  0.29094  Biso   1.000  Hf
  Hf5      1.0000 0.14105  0.72983  0.79147  Biso   1.000  Hf
  Hf6      1.0000 0.36140  0.77208  0.20765  Biso   1.000  Hf
  Hf7      1.0000 0.36027  0.98024  0.70728  Biso   1.000  Hf
  O9       1.0000 0.03487  0.66801  0.15995  Biso   1.000  O
  O10      1.0000 0.03471  0.58291  0.65866  Biso   1.000  O
  O11      1.0000 0.46711  0.91721  0.34064  Biso   1.000  O
  O12      1.0000 0.46701  0.83321  0.84170  Biso   1.000  O
  O13      1.0000 0.27669  0.62712  0.47957  Biso   1.000  O
  O14      1.0000 0.27648  0.62097  0.98018  Biso   1.000  O
  O15      1.0000 0.22794  0.87657  0.01228  Biso   1.000  O
  O16      1.0000 0.22806  0.86669  0.52005  Biso   1.000  O
  Hf8      1.0000 0.63940  0.02130  0.29287  Biso   1.000  Hf
  Hf9      1.0000 0.63886  0.22933  0.79281  Biso   1.000  Hf
  Hf10     1.0000 0.86172  0.27063  0.20760  Biso   1.000  Hf
  Hf11     1.0000 0.86075  0.47921  0.70792  Biso   1.000  Hf
  O17      1.0000 0.53485  0.16771  0.15882  Biso   1.000  O
  O18      1.0000 0.53602  0.08261  0.65833  Biso   1.000  O
  O19      1.0000 0.96464  0.41969  0.33965  Biso   1.000  O
  O20      1.0000 0.96524  0.33399  0.83980  Biso   1.000  O
  O21      1.0000 0.77601  0.12948  0.48271  Biso   1.000  O
  O22      1.0000 0.77491  0.12172  0.98331  Biso   1.000  O
  O23      1.0000 0.72400  0.37891  0.01871  Biso   1.000  O
  O24      1.0000 0.72420  0.37146  0.51926  Biso   1.000  O
  Hf12     1.0000 0.63847  0.52005  0.29119  Biso   1.000  Hf
  Hf13     1.0000 0.63837  0.72857  0.79122  Biso   1.000  Hf
  Hf14     1.0000 0.85980  0.77045  0.20847  Biso   1.000  Hf
  Hf15     1.0000 0.85907  0.97875  0.71080  Biso   1.000  Hf
  O25      1.0000 0.53458  0.66623  0.15751  Biso   1.000  O
  O26      1.0000 0.53400  0.58260  0.65684  Biso   1.000  O
  O27      1.0000 0.95615  0.91665  0.34527  Biso   1.000  O
  O28      1.0000 0.96545  0.83180  0.84118  Biso   1.000  O
  O29      1.0000 0.77524  0.62840  0.48017  Biso   1.000  O
  O30      1.0000 0.77536  0.62046  0.97972  Biso   1.000  O
  O31      1.0000 0.72369  0.87835  0.01921  Biso   1.000  O
  O32      1.0000 0.72062  0.87049  0.52072  Biso   1.000  O
