data_image0
_cell_length_a       10.2396
_cell_length_b       5.17911
_cell_length_c       10.5937
_cell_angle_alpha    90.1077
_cell_angle_beta     78.662
_cell_angle_gamma    90.0018

_symmetry_space_group_name_H-M    "P 1"
_symmetry_int_tables_number       1

loop_
  _symmetry_equiv_pos_as_xyz
  'x, y, z'

loop_
  _atom_site_label
  _atom_site_occupancy
  _atom_site_fract_x
  _atom_site_fract_y
  _atom_site_fract_z
  _atom_site_thermal_displace_type
  _atom_site_B_iso_or_equiv
  _atom_site_type_symbol
  Hf1      1.0000 0.12950  0.04642  0.14130  Biso   1.000  Hf
  Hf2      1.0000 0.14000  0.45559  0.39202  Biso   1.000  Hf
  Hf3      1.0000 0.34487  0.55379  0.09253  Biso   1.000  Hf
  Hf4      1.0000 0.34896  0.93573  0.34768  Biso   1.000  Hf
  O1       1.0000 0.02759  0.33952  0.07534  Biso   1.000  O
  O2       1.0000 0.02903  0.17416  0.32661  Biso   1.000  O
  O3       1.0000 0.45452  0.87124  0.15270  Biso   1.000  O
  O4       1.0000 0.48286  0.70124  0.45277  Biso   1.000  O
  O5       1.0000 0.26329  0.23524  0.23311  Biso   1.000  O
  O6       1.0000 0.27903  0.23535  0.48603  Biso   1.000  O
  O7       1.0000 0.21515  0.76902  0.00157  Biso   1.000  O
  O8       1.0000 0.20219  0.74476  0.24942  Biso   1.000  O
  Hf5      1.0000 0.14075  0.04355  0.64378  Biso   1.000  Hf
  Hf6      1.0000 0.13164  0.45929  0.89277  Biso   1.000  Hf
  Hf7      1.0000 0.36411  0.54771  0.61049  Biso   1.000  Hf
  Hf8      1.0000 0.35856  0.96184  0.85409  Biso   1.000  Hf
  O9       1.0000 0.03771  0.33128  0.57720  Biso   1.000  O
  O10      1.0000 0.03129  0.17040  0.82569  Biso   1.000  O
  O11      1.0000 0.46961  0.82494  0.68404  Biso   1.000  O
  O12      1.0000 0.46145  0.66759  0.92038  Biso   1.000  O
  O13      1.0000 0.27425  0.25339  0.73876  Biso   1.000  O
  O14      1.0000 0.26830  0.25474  0.98569  Biso   1.000  O
  O15      1.0000 0.22453  0.74759  0.50895  Biso   1.000  O
  O16      1.0000 0.22355  0.74385  0.75752  Biso   1.000  O
  Hf9      1.0000 0.63639  0.03612  0.14729  Biso   1.000  Hf
  Hf10     1.0000 0.65978  0.46570  0.41408  Biso   1.000  Hf
  Hf11     1.0000 0.85520  0.54361  0.10924  Biso   1.000  Hf
  Hf12     1.0000 0.86313  0.95796  0.35681  Biso   1.000  Hf
  O17      1.0000 0.52836  0.34105  0.07950  Biso   1.000  O
  O18      1.0000 0.53349  0.11743  0.33545  Biso   1.000  O
  O19      1.0000 0.95863  0.83718  0.17144  Biso   1.000  O
  O20      1.0000 0.96577  0.66594  0.42474  Biso   1.000  O
  O21      1.0000 0.77437  0.26002  0.24824  Biso   1.000  O
  O22      1.0000 0.78407  0.23508  0.50068  Biso   1.000  O
  O23      1.0000 0.71957  0.75377  0.01572  Biso   1.000  O
  O24      1.0000 0.72524  0.74743  0.26707  Biso   1.000  O
  Hf13     1.0000 0.63949  0.04340  0.65409  Biso   1.000  Hf
  Hf14     1.0000 0.63542  0.45967  0.90028  Biso   1.000  Hf
  Hf15     1.0000 0.86782  0.54389  0.61023  Biso   1.000  Hf
  Hf16     1.0000 0.85957  0.95865  0.85754  Biso   1.000  Hf
  O25      1.0000 0.53599  0.32248  0.58193  Biso   1.000  O
  O26      1.0000 0.53140  0.17208  0.83245  Biso   1.000  O
  O27      1.0000 0.96827  0.83320  0.67530  Biso   1.000  O
  O28      1.0000 0.96023  0.66933  0.92342  Biso   1.000  O
  O29      1.0000 0.77467  0.26048  0.74632  Biso   1.000  O
  O30      1.0000 0.77049  0.24069  0.99540  Biso   1.000  O
  O31      1.0000 0.73056  0.75623  0.51978  Biso   1.000  O
  O32      1.0000 0.72559  0.74574  0.76669  Biso   1.000  O
  In1      1.0000 0.45379  0.46433  0.29167  Biso   1.000  In
