data_image0
_cell_length_a       10.0494
_cell_length_b       10.2247
_cell_length_c       10.4626
_cell_angle_alpha    89.9477
_cell_angle_beta     90.0609
_cell_angle_gamma    89.9914

_symmetry_space_group_name_H-M    "P 1"
_symmetry_int_tables_number       1

loop_
  _symmetry_equiv_pos_as_xyz
  'x, y, z'

loop_
  _atom_site_label
  _atom_site_occupancy
  _atom_site_fract_x
  _atom_site_fract_y
  _atom_site_fract_z
  _atom_site_thermal_displace_type
  _atom_site_B_iso_or_equiv
  _atom_site_type_symbol
  In1      1.0000 0.13667  0.01656  0.17193  Biso   1.000  In
  Hf1      1.0000 0.13892  0.22806  0.42121  Biso   1.000  Hf
  Hf2      1.0000 0.35865  0.26850  0.17166  Biso   1.000  Hf
  Hf3      1.0000 0.36063  0.47856  0.42143  Biso   1.000  Hf
  Hf4      1.0000 0.63954  0.02093  0.07857  Biso   1.000  Hf
  Hf5      1.0000 0.63857  0.22954  0.32795  Biso   1.000  Hf
  Hf6      1.0000 0.86287  0.27004  0.07819  Biso   1.000  Hf
  Hf7      1.0000 0.86106  0.47942  0.32800  Biso   1.000  Hf
  O1       1.0000 0.03329  0.16906  0.08144  Biso   1.000  O
  O2       1.0000 0.02781  0.08700  0.34132  Biso   1.000  O
  O3       1.0000 0.46762  0.41288  0.08284  Biso   1.000  O
  O4       1.0000 0.46789  0.33636  0.33289  Biso   1.000  O
  O5       1.0000 0.28004  0.12588  0.29945  Biso   1.000  O
  O6       1.0000 0.28209  0.13013  0.04045  Biso   1.000  O
  O7       1.0000 0.22305  0.37377  0.29542  Biso   1.000  O
  O8       1.0000 0.22312  0.37730  0.04549  Biso   1.000  O
  O9       1.0000 0.53268  0.16451  0.16681  Biso   1.000  O
  O10      1.0000 0.53278  0.08542  0.41696  Biso   1.000  O
  O11      1.0000 0.96667  0.41635  0.16638  Biso   1.000  O
  O12      1.0000 0.96747  0.33690  0.41736  Biso   1.000  O
  O13      1.0000 0.77475  0.12515  0.45570  Biso   1.000  O
  O14      1.0000 0.77557  0.12652  0.20513  Biso   1.000  O
  O15      1.0000 0.72369  0.37477  0.45437  Biso   1.000  O
  O16      1.0000 0.72400  0.37623  0.20482  Biso   1.000  O
  Hf8      1.0000 0.13917  0.02110  0.67146  Biso   1.000  Hf
  Hf9      1.0000 0.13962  0.22826  0.92233  Biso   1.000  Hf
  Hf10     1.0000 0.36062  0.27091  0.67185  Biso   1.000  Hf
  Hf11     1.0000 0.36064  0.47854  0.92238  Biso   1.000  Hf
  Hf12     1.0000 0.63884  0.02112  0.57842  Biso   1.000  Hf
  Hf13     1.0000 0.63940  0.22905  0.82839  Biso   1.000  Hf
  Hf14     1.0000 0.86109  0.27133  0.57805  Biso   1.000  Hf
  Hf15     1.0000 0.86113  0.47903  0.82823  Biso   1.000  Hf
  O17      1.0000 0.03317  0.16716  0.58605  Biso   1.000  O
  O18      1.0000 0.03295  0.08454  0.83333  Biso   1.000  O
  O19      1.0000 0.46803  0.41407  0.58294  Biso   1.000  O
  O20      1.0000 0.46808  0.33575  0.83275  Biso   1.000  O
  O21      1.0000 0.27607  0.12367  0.79402  Biso   1.000  O
  O22      1.0000 0.27600  0.12588  0.54615  Biso   1.000  O
  O23      1.0000 0.22455  0.37423  0.79539  Biso   1.000  O
  O24      1.0000 0.22426  0.37648  0.54572  Biso   1.000  O
  O25      1.0000 0.53240  0.16466  0.66676  Biso   1.000  O
  O26      1.0000 0.53381  0.08501  0.91606  Biso   1.000  O
  O27      1.0000 0.96723  0.41573  0.66618  Biso   1.000  O
  O28      1.0000 0.96735  0.33557  0.91559  Biso   1.000  O
  O29      1.0000 0.77664  0.12373  0.95461  Biso   1.000  O
  O30      1.0000 0.77615  0.12616  0.70498  Biso   1.000  O
  O31      1.0000 0.72375  0.37352  0.95430  Biso   1.000  O
  O32      1.0000 0.72411  0.37607  0.70426  Biso   1.000  O
  Hf16     1.0000 0.13924  0.52098  0.17164  Biso   1.000  Hf
  Hf17     1.0000 0.13949  0.72941  0.42125  Biso   1.000  Hf
  Hf18     1.0000 0.36123  0.77130  0.17135  Biso   1.000  Hf
  Hf19     1.0000 0.36037  0.97966  0.42084  Biso   1.000  Hf
  Hf20     1.0000 0.63867  0.51980  0.07811  Biso   1.000  Hf
  Hf21     1.0000 0.63894  0.72937  0.32788  Biso   1.000  Hf
  Hf22     1.0000 0.86028  0.77062  0.07826  Biso   1.000  Hf
  Hf23     1.0000 0.86018  0.97950  0.32886  Biso   1.000  Hf
  O33      1.0000 0.03270  0.66470  0.08289  Biso   1.000  O
  O34      1.0000 0.03246  0.58592  0.33329  Biso   1.000  O
  O35      1.0000 0.46927  0.91409  0.08272  Biso   1.000  O
  O36      1.0000 0.46864  0.83612  0.33302  Biso   1.000  O
  O37      1.0000 0.27660  0.62269  0.29522  Biso   1.000  O
  O38      1.0000 0.27633  0.62479  0.04571  Biso   1.000  O
  O39      1.0000 0.22658  0.87034  0.29658  Biso   1.000  O
  O40      1.0000 0.22902  0.87209  0.04167  Biso   1.000  O
  O41      1.0000 0.53208  0.66289  0.16735  Biso   1.000  O
  O42      1.0000 0.53185  0.58594  0.41730  Biso   1.000  O
  O43      1.0000 0.95855  0.91300  0.16714  Biso   1.000  O
  O44      1.0000 0.96733  0.83470  0.41694  Biso   1.000  O
  O45      1.0000 0.77600  0.62424  0.45444  Biso   1.000  O
  O46      1.0000 0.77573  0.62610  0.20429  Biso   1.000  O
  O47      1.0000 0.72389  0.87406  0.45535  Biso   1.000  O
  O48      1.0000 0.71982  0.87573  0.20504  Biso   1.000  O
  Hf24     1.0000 0.13910  0.52104  0.67193  Biso   1.000  Hf
  Hf25     1.0000 0.13985  0.72956  0.92200  Biso   1.000  Hf
  Hf26     1.0000 0.36084  0.77127  0.67156  Biso   1.000  Hf
  Hf27     1.0000 0.36097  0.97972  0.92185  Biso   1.000  Hf
  Hf28     1.0000 0.63898  0.52100  0.57781  Biso   1.000  Hf
  Hf29     1.0000 0.63891  0.72893  0.82805  Biso   1.000  Hf
  Hf30     1.0000 0.86133  0.77103  0.57828  Biso   1.000  Hf
  Hf31     1.0000 0.86136  0.97905  0.82864  Biso   1.000  Hf
  O49      1.0000 0.03281  0.66514  0.58392  Biso   1.000  O
  O50      1.0000 0.03264  0.58486  0.83332  Biso   1.000  O
  O51      1.0000 0.46778  0.91443  0.58335  Biso   1.000  O
  O52      1.0000 0.46801  0.83559  0.83255  Biso   1.000  O
  O53      1.0000 0.27617  0.62417  0.79551  Biso   1.000  O
  O54      1.0000 0.27618  0.62621  0.54534  Biso   1.000  O
  O55      1.0000 0.22405  0.87398  0.79406  Biso   1.000  O
  O56      1.0000 0.22387  0.87627  0.54530  Biso   1.000  O
  O57      1.0000 0.53215  0.66399  0.66698  Biso   1.000  O
  O58      1.0000 0.53159  0.58580  0.91722  Biso   1.000  O
  O59      1.0000 0.96708  0.91537  0.66618  Biso   1.000  O
  O60      1.0000 0.96757  0.83462  0.91598  Biso   1.000  O
  O61      1.0000 0.77508  0.62275  0.95373  Biso   1.000  O
  O62      1.0000 0.77586  0.62618  0.70415  Biso   1.000  O
  O63      1.0000 0.72396  0.87363  0.95433  Biso   1.000  O
  O64      1.0000 0.72414  0.87597  0.70487  Biso   1.000  O
