data_image0
_cell_length_a       9.99618
_cell_length_b       10.417
_cell_length_c       10.0861
_cell_angle_alpha    89.5364
_cell_angle_beta     90.496
_cell_angle_gamma    90.6614

_symmetry_space_group_name_H-M    "P 1"
_symmetry_int_tables_number       1

loop_
  _symmetry_equiv_pos_as_xyz
  'x, y, z'

loop_
  _atom_site_label
  _atom_site_occupancy
  _atom_site_fract_x
  _atom_site_fract_y
  _atom_site_fract_z
  _atom_site_thermal_displace_type
  _atom_site_B_iso_or_equiv
  _atom_site_type_symbol
  Hf1      1.0000 0.14595  0.00237  0.11066  Biso   1.000  Hf
  Hf2      1.0000 0.12861  0.22977  0.40156  Biso   1.000  Hf
  Hf3      1.0000 0.36792  0.26443  0.12053  Biso   1.000  Hf
  Hf4      1.0000 0.36862  0.48444  0.37451  Biso   1.000  Hf
  O1       1.0000 0.96929  0.18200  0.27121  Biso   1.000  O
  O2       1.0000 0.04669  0.05416  0.45539  Biso   1.000  O
  O3       1.0000 0.45627  0.43562  0.19271  Biso   1.000  O
  O4       1.0000 0.46281  0.31766  0.44600  Biso   1.000  O
  O5       1.0000 0.25309  0.11361  0.25127  Biso   1.000  O
  O6       1.0000 0.27944  0.12996  0.50209  Biso   1.000  O
  O7       1.0000 0.23519  0.38456  0.49956  Biso   1.000  O
  O8       1.0000 0.21343  0.36105  0.24799  Biso   1.000  O
  Hf5      1.0000 0.14173  0.00775  0.62864  Biso   1.000  Hf
  Hf6      1.0000 0.13776  0.22563  0.85469  Biso   1.000  Hf
  Hf7      1.0000 0.37199  0.26734  0.62691  Biso   1.000  Hf
  Hf8      1.0000 0.36892  0.48452  0.87303  Biso   1.000  Hf
  O9       1.0000 0.05352  0.18199  0.66930  Biso   1.000  O
  O10      1.0000 0.05002  0.05207  0.92378  Biso   1.000  O
  O11      1.0000 0.46542  0.43518  0.69456  Biso   1.000  O
  O12      1.0000 0.46929  0.31517  0.94324  Biso   1.000  O
  O13      1.0000 0.27894  0.11513  0.74753  Biso   1.000  O
  O14      1.0000 0.29124  0.11990  0.99394  Biso   1.000  O
  O15      1.0000 0.23621  0.38859  0.99614  Biso   1.000  O
  O16      1.0000 0.23162  0.36785  0.74490  Biso   1.000  O
  Hf9      1.0000 0.13088  0.52779  0.12608  Biso   1.000  Hf
  Hf10     1.0000 0.13481  0.73655  0.37639  Biso   1.000  Hf
  Hf11     1.0000 0.36841  0.76246  0.12588  Biso   1.000  Hf
  Hf12     1.0000 0.36483  0.98541  0.37484  Biso   1.000  Hf
  O17      1.0000 0.03732  0.68799  0.19280  Biso   1.000  O
  O18      1.0000 0.03817  0.57177  0.43944  Biso   1.000  O
  O19      1.0000 0.46052  0.93402  0.19546  Biso   1.000  O
  O20      1.0000 0.46749  0.81724  0.44315  Biso   1.000  O
  O21      1.0000 0.27074  0.61728  0.24978  Biso   1.000  O
  O22      1.0000 0.27213  0.63352  0.49797  Biso   1.000  O
  O23      1.0000 0.23483  0.88090  0.49822  Biso   1.000  O
  O24      1.0000 0.23234  0.86342  0.24607  Biso   1.000  O
  Hf13     1.0000 0.13423  0.51737  0.61964  Biso   1.000  Hf
  Hf14     1.0000 0.13398  0.73141  0.87030  Biso   1.000  Hf
  Hf15     1.0000 0.37229  0.76429  0.62307  Biso   1.000  Hf
  Hf16     1.0000 0.37532  0.97906  0.87214  Biso   1.000  Hf
  O25      1.0000 0.04237  0.69013  0.68824  Biso   1.000  O
  O26      1.0000 0.03535  0.56227  0.94464  Biso   1.000  O
  O27      1.0000 0.47235  0.93116  0.69386  Biso   1.000  O
  O28      1.0000 0.47300  0.81625  0.95122  Biso   1.000  O
  O29      1.0000 0.27063  0.61519  0.74835  Biso   1.000  O
  O30      1.0000 0.26934  0.63354  0.99873  Biso   1.000  O
  O31      1.0000 0.23713  0.87466  0.99436  Biso   1.000  O
  O32      1.0000 0.23923  0.86269  0.74867  Biso   1.000  O
  Hf17     1.0000 0.62797  0.00865  0.12233  Biso   1.000  Hf
  Hf18     1.0000 0.62940  0.23035  0.39138  Biso   1.000  Hf
  Hf19     1.0000 0.81819  0.26195  0.15029  Biso   1.000  Hf
  Hf20     1.0000 0.86594  0.48448  0.38459  Biso   1.000  Hf
  O33      1.0000 0.53002  0.18288  0.19444  Biso   1.000  O
  O34      1.0000 0.53392  0.06537  0.45124  Biso   1.000  O
  O35      1.0000 0.95151  0.43748  0.20148  Biso   1.000  O
  O36      1.0000 0.97315  0.33066  0.46774  Biso   1.000  O
  O37      1.0000 0.74060  0.10845  0.26014  Biso   1.000  O
  O38      1.0000 0.77828  0.13783  0.50549  Biso   1.000  O
  O39      1.0000 0.73062  0.38084  0.50844  Biso   1.000  O
  O40      1.0000 0.70893  0.37645  0.26568  Biso   1.000  O
  Hf21     1.0000 0.64295  0.01618  0.62611  Biso   1.000  Hf
  Hf22     1.0000 0.63819  0.23266  0.87540  Biso   1.000  Hf
  Hf23     1.0000 0.87485  0.27525  0.64262  Biso   1.000  Hf
  Hf24     1.0000 0.86572  0.48271  0.87175  Biso   1.000  Hf
  O41      1.0000 0.54257  0.18482  0.69250  Biso   1.000  O
  O42      1.0000 0.54546  0.06295  0.93874  Biso   1.000  O
  O43      1.0000 0.95394  0.45866  0.67959  Biso   1.000  O
  O44      1.0000 0.95140  0.30362  0.85569  Biso   1.000  O
  O45      1.0000 0.77468  0.11733  0.75505  Biso   1.000  O
  O46      1.0000 0.77388  0.13156  0.00737  Biso   1.000  O
  O47      1.0000 0.73448  0.38180  0.00664  Biso   1.000  O
  O48      1.0000 0.72137  0.37463  0.75414  Biso   1.000  O
  Hf25     1.0000 0.63170  0.52119  0.12934  Biso   1.000  Hf
  Hf26     1.0000 0.63863  0.73781  0.37724  Biso   1.000  Hf
  Hf27     1.0000 0.86526  0.76723  0.12657  Biso   1.000  Hf
  Hf28     1.0000 0.87761  0.99644  0.36750  Biso   1.000  Hf
  O49      1.0000 0.53714  0.68425  0.19800  Biso   1.000  O
  O50      1.0000 0.53522  0.56784  0.44617  Biso   1.000  O
  O51      1.0000 0.96712  0.94216  0.18411  Biso   1.000  O
  O52      1.0000 0.96504  0.81899  0.43854  Biso   1.000  O
  O53      1.0000 0.77102  0.62028  0.25354  Biso   1.000  O
  O54      1.0000 0.77020  0.63479  0.50190  Biso   1.000  O
  O55      1.0000 0.73594  0.88815  0.49724  Biso   1.000  O
  O56      1.0000 0.73309  0.86715  0.24733  Biso   1.000  O
  Hf29     1.0000 0.63652  0.51753  0.62740  Biso   1.000  Hf
  Hf30     1.0000 0.63857  0.73339  0.87628  Biso   1.000  Hf
  Hf31     1.0000 0.87002  0.77019  0.62241  Biso   1.000  Hf
  Hf32     1.0000 0.86988  0.98116  0.87571  Biso   1.000  Hf
  O57      1.0000 0.53779  0.68249  0.69807  Biso   1.000  O
  O58      1.0000 0.53589  0.56765  0.94854  Biso   1.000  O
  O59      1.0000 0.96802  0.93302  0.69656  Biso   1.000  O
  O60      1.0000 0.96706  0.81131  0.94497  Biso   1.000  O
  O61      1.0000 0.77285  0.62106  0.75258  Biso   1.000  O
  O62      1.0000 0.76942  0.63260  0.00347  Biso   1.000  O
  O63      1.0000 0.73371  0.88111  0.99925  Biso   1.000  O
  O64      1.0000 0.73492  0.86717  0.74892  Biso   1.000  O
  In1      1.0000 0.07429  0.26261  0.10751  Biso   1.000  In
