data_image0
_cell_length_a       10.1497
_cell_length_b       10.3731
_cell_length_c       10.1053
_cell_angle_alpha    87.5427
_cell_angle_beta     89.5322
_cell_angle_gamma    93.0461

_symmetry_space_group_name_H-M    "P 1"
_symmetry_int_tables_number       1

loop_
  _symmetry_equiv_pos_as_xyz
  'x, y, z'

loop_
  _atom_site_label
  _atom_site_occupancy
  _atom_site_fract_x
  _atom_site_fract_y
  _atom_site_fract_z
  _atom_site_thermal_displace_type
  _atom_site_B_iso_or_equiv
  _atom_site_type_symbol
  Hf1      1.0000 0.14233  0.88582  0.09575  Biso   1.000  Hf
  Hf2      1.0000 0.12660  0.27200  0.36914  Biso   1.000  Hf
  Hf3      1.0000 0.37514  0.26274  0.13970  Biso   1.000  Hf
  Hf4      1.0000 0.39273  0.99899  0.37684  Biso   1.000  Hf
  O1       1.0000 0.96287  0.18831  0.99034  Biso   1.000  O
  O2       1.0000 0.96105  0.15357  0.28537  Biso   1.000  O
  O3       1.0000 0.00585  0.39089  0.25346  Biso   1.000  O
  O4       1.0000 0.98033  0.44631  0.00974  Biso   1.000  O
  O5       1.0000 0.30620  0.18779  0.33811  Biso   1.000  O
  O6       1.0000 0.19410  0.03594  0.95010  Biso   1.000  O
  O7       1.0000 0.24958  0.31711  0.98550  Biso   1.000  O
  O8       1.0000 0.25486  0.42140  0.23411  Biso   1.000  O
  Hf5      1.0000 0.13190  0.00371  0.65421  Biso   1.000  Hf
  Hf6      1.0000 0.11594  0.24704  0.85270  Biso   1.000  Hf
  Hf7      1.0000 0.38793  0.22245  0.59849  Biso   1.000  Hf
  Hf8      1.0000 0.37789  0.99967  0.88597  Biso   1.000  Hf
  O9       1.0000 0.04673  0.13544  0.51352  Biso   1.000  O
  O10      1.0000 0.99207  0.10106  0.75565  Biso   1.000  O
  O11      1.0000 0.97136  0.35187  0.74676  Biso   1.000  O
  O12      1.0000 0.00214  0.38050  0.49679  Biso   1.000  O
  O13      1.0000 0.24464  0.15718  0.73892  Biso   1.000  O
  O14      1.0000 0.29845  0.04926  0.54159  Biso   1.000  O
  O15      1.0000 0.25197  0.34956  0.51808  Biso   1.000  O
  O16      1.0000 0.21238  0.40355  0.76217  Biso   1.000  O
  Hf9      1.0000 0.10842  0.53743  0.13360  Biso   1.000  Hf
  Hf10     1.0000 0.12351  0.73858  0.39164  Biso   1.000  Hf
  Hf11     1.0000 0.40561  0.77101  0.14211  Biso   1.000  Hf
  Hf12     1.0000 0.37411  0.48522  0.38639  Biso   1.000  Hf
  O17      1.0000 0.03571  0.71587  0.02434  Biso   1.000  O
  O18      1.0000 0.96960  0.62143  0.25533  Biso   1.000  O
  O19      1.0000 0.01696  0.85680  0.26511  Biso   1.000  O
  O20      1.0000 0.95939  0.93981  0.03513  Biso   1.000  O
  O21      1.0000 0.21705  0.70098  0.20844  Biso   1.000  O
  O22      1.0000 0.23036  0.57611  0.96729  Biso   1.000  O
  O23      1.0000 0.28496  0.81702  0.97506  Biso   1.000  O
  O24      1.0000 0.29247  0.93233  0.21944  Biso   1.000  O
  Hf13     1.0000 0.11404  0.49383  0.62123  Biso   1.000  Hf
  Hf14     1.0000 0.15298  0.72543  0.84602  Biso   1.000  Hf
  Hf15     1.0000 0.39611  0.76749  0.63142  Biso   1.000  Hf
  Hf16     1.0000 0.35953  0.47221  0.87500  Biso   1.000  Hf
  O25      1.0000 0.98197  0.63091  0.51522  Biso   1.000  O
  O26      1.0000 0.00035  0.60383  0.76405  Biso   1.000  O
  O27      1.0000 0.02063  0.85323  0.76789  Biso   1.000  O
  O28      1.0000 0.03639  0.88174  0.51613  Biso   1.000  O
  O29      1.0000 0.24468  0.63983  0.69475  Biso   1.000  O
  O30      1.0000 0.20801  0.57022  0.44524  Biso   1.000  O
  O31      1.0000 0.29175  0.81879  0.46290  Biso   1.000  O
  O32      1.0000 0.26787  0.87979  0.73803  Biso   1.000  O
  Hf17     1.0000 0.63723  0.00783  0.14351  Biso   1.000  Hf
  Hf18     1.0000 0.62429  0.26074  0.35313  Biso   1.000  Hf
  Hf19     1.0000 0.87439  0.29400  0.13255  Biso   1.000  Hf
  Hf20     1.0000 0.90988  0.98298  0.38737  Biso   1.000  Hf
  O33      1.0000 0.44835  0.16596  0.97958  Biso   1.000  O
  O34      1.0000 0.50071  0.11770  0.23429  Biso   1.000  O
  O35      1.0000 0.50315  0.37683  0.25018  Biso   1.000  O
  O36      1.0000 0.49393  0.40863  0.00568  Biso   1.000  O
  O37      1.0000 0.73085  0.17423  0.21894  Biso   1.000  O
  O38      1.0000 0.70192  0.10040  0.97383  Biso   1.000  O
  O39      1.0000 0.74156  0.35108  0.98931  Biso   1.000  O
  O40      1.0000 0.75220  0.42286  0.23984  Biso   1.000  O
  Hf21     1.0000 0.63378  0.00740  0.64071  Biso   1.000  Hf
  Hf22     1.0000 0.60941  0.24992  0.86980  Biso   1.000  Hf
  Hf23     1.0000 0.88973  0.22467  0.60558  Biso   1.000  Hf
  Hf24     1.0000 0.85410  0.01710  0.89188  Biso   1.000  Hf
  O41      1.0000 0.53809  0.13160  0.49194  Biso   1.000  O
  O42      1.0000 0.49829  0.10701  0.74241  Biso   1.000  O
  O43      1.0000 0.46643  0.35322  0.74445  Biso   1.000  O
  O44      1.0000 0.50637  0.37832  0.49672  Biso   1.000  O
  O45      1.0000 0.74467  0.15457  0.74173  Biso   1.000  O
  O46      1.0000 0.79230  0.06451  0.51787  Biso   1.000  O
  O47      1.0000 0.76880  0.31811  0.47670  Biso   1.000  O
  O48      1.0000 0.71395  0.39629  0.74736  Biso   1.000  O
  Hf25     1.0000 0.61233  0.52678  0.13026  Biso   1.000  Hf
  Hf26     1.0000 0.62863  0.73809  0.39694  Biso   1.000  Hf
  Hf27     1.0000 0.86601  0.77048  0.13050  Biso   1.000  Hf
  Hf28     1.0000 0.87220  0.49247  0.38967  Biso   1.000  Hf
  O49      1.0000 0.51616  0.66835  0.01597  Biso   1.000  O
  O50      1.0000 0.47549  0.61519  0.25829  Biso   1.000  O
  O51      1.0000 0.52722  0.86566  0.27187  Biso   1.000  O
  O52      1.0000 0.49183  0.92596  0.02940  Biso   1.000  O
  O53      1.0000 0.71492  0.67496  0.23291  Biso   1.000  O
  O54      1.0000 0.76188  0.61061  0.99212  Biso   1.000  O
  O55      1.0000 0.73278  0.85873  0.00205  Biso   1.000  O
  O56      1.0000 0.78209  0.92117  0.24652  Biso   1.000  O
  Hf29     1.0000 0.59412  0.50014  0.63617  Biso   1.000  Hf
  Hf30     1.0000 0.64060  0.74315  0.86991  Biso   1.000  Hf
  Hf31     1.0000 0.89580  0.75668  0.64551  Biso   1.000  Hf
  Hf32     1.0000 0.85066  0.48748  0.86253  Biso   1.000  Hf
  O57      1.0000 0.47798  0.63051  0.51083  Biso   1.000  O
  O58      1.0000 0.49256  0.61016  0.76568  Biso   1.000  O
  O59      1.0000 0.51598  0.86423  0.76918  Biso   1.000  O
  O60      1.0000 0.53458  0.88282  0.51537  Biso   1.000  O
  O61      1.0000 0.74663  0.64007  0.73594  Biso   1.000  O
  O62      1.0000 0.71434  0.56739  0.47934  Biso   1.000  O
  O63      1.0000 0.78953  0.81576  0.48580  Biso   1.000  O
  O64      1.0000 0.76882  0.89244  0.74757  Biso   1.000  O
  In1      1.0000 0.11792  0.13663  0.13554  Biso   1.000  In
