data_image0
_cell_length_a       10.0888
_cell_length_b       5.1685
_cell_length_c       10.5916
_cell_angle_alpha    89.6869
_cell_angle_beta     92.1071
_cell_angle_gamma    90.1024

_symmetry_space_group_name_H-M    "P 1"
_symmetry_int_tables_number       1

loop_
  _symmetry_equiv_pos_as_xyz
  'x, y, z'

loop_
  _atom_site_label
  _atom_site_occupancy
  _atom_site_fract_x
  _atom_site_fract_y
  _atom_site_fract_z
  _atom_site_thermal_displace_type
  _atom_site_B_iso_or_equiv
  _atom_site_type_symbol
  Hf1      1.0000 0.13157  0.03702  0.17394  Biso   1.000  Hf
  Hf2      1.0000 0.13313  0.45306  0.42775  Biso   1.000  Hf
  Hf3      1.0000 0.34087  0.53389  0.19353  Biso   1.000  Hf
  Hf4      1.0000 0.36065  0.95711  0.43036  Biso   1.000  Hf
  Hf5      1.0000 0.65356  0.05735  0.06850  Biso   1.000  Hf
  Hf6      1.0000 0.63589  0.45842  0.33395  Biso   1.000  Hf
  Hf7      1.0000 0.86013  0.54048  0.07588  Biso   1.000  Hf
  Hf8      1.0000 0.85798  0.95825  0.32809  Biso   1.000  Hf
  O1       1.0000 0.03369  0.33495  0.08660  Biso   1.000  O
  O2       1.0000 0.02752  0.16973  0.33501  Biso   1.000  O
  O3       1.0000 0.47081  0.87996  0.09057  Biso   1.000  O
  O4       1.0000 0.46422  0.68157  0.33743  Biso   1.000  O
  O5       1.0000 0.26518  0.24637  0.30304  Biso   1.000  O
  O6       1.0000 0.26895  0.23464  0.05043  Biso   1.000  O
  O7       1.0000 0.21499  0.75079  0.30653  Biso   1.000  O
  O8       1.0000 0.22216  0.74856  0.05650  Biso   1.000  O
  O9       1.0000 0.51410  0.30428  0.19883  Biso   1.000  O
  O10      1.0000 0.52808  0.17908  0.42810  Biso   1.000  O
  O11      1.0000 0.96015  0.83297  0.16810  Biso   1.000  O
  O12      1.0000 0.96498  0.66932  0.41829  Biso   1.000  O
  O13      1.0000 0.77504  0.24860  0.45227  Biso   1.000  O
  O14      1.0000 0.77511  0.25875  0.20394  Biso   1.000  O
  O15      1.0000 0.72471  0.75273  0.45614  Biso   1.000  O
  O16      1.0000 0.71931  0.75258  0.20500  Biso   1.000  O
  Hf9      1.0000 0.14441  0.03995  0.67507  Biso   1.000  Hf
  Hf10     1.0000 0.14368  0.46042  0.92712  Biso   1.000  Hf
  Hf11     1.0000 0.36620  0.53874  0.67554  Biso   1.000  Hf
  Hf12     1.0000 0.36302  0.96731  0.92382  Biso   1.000  Hf
  Hf13     1.0000 0.64174  0.03931  0.57735  Biso   1.000  Hf
  Hf14     1.0000 0.65568  0.44645  0.81356  Biso   1.000  Hf
  Hf15     1.0000 0.86586  0.54308  0.57715  Biso   1.000  Hf
  Hf16     1.0000 0.87468  0.95730  0.82630  Biso   1.000  Hf
  O17      1.0000 0.03458  0.32578  0.58501  Biso   1.000  O
  O18      1.0000 0.04500  0.16751  0.83403  Biso   1.000  O
  O19      1.0000 0.47168  0.82484  0.58622  Biso   1.000  O
  O20      1.0000 0.47716  0.66277  0.83101  Biso   1.000  O
  O21      1.0000 0.28309  0.25289  0.79869  Biso   1.000  O
  O22      1.0000 0.27612  0.24769  0.55008  Biso   1.000  O
  O23      1.0000 0.23186  0.74899  0.80159  Biso   1.000  O
  O24      1.0000 0.22690  0.74775  0.55200  Biso   1.000  O
  O25      1.0000 0.53810  0.32994  0.66332  Biso   1.000  O
  O26      1.0000 0.54398  0.12655  0.89361  Biso   1.000  O
  O27      1.0000 0.97602  0.82464  0.66666  Biso   1.000  O
  O28      1.0000 0.97538  0.66841  0.91843  Biso   1.000  O
  O29      1.0000 0.79707  0.24982  0.94184  Biso   1.000  O
  O30      1.0000 0.78561  0.24244  0.69645  Biso   1.000  O
  O31      1.0000 0.74330  0.77888  0.95086  Biso   1.000  O
  O32      1.0000 0.73475  0.74342  0.70255  Biso   1.000  O
  In1      1.0000 0.54022  0.52526  0.02823  Biso   1.000  In
