data_image0
_cell_length_a       5.08424
_cell_length_b       10.2655
_cell_length_c       10.4635
_cell_angle_alpha    90.013
_cell_angle_beta     80.2843
_cell_angle_gamma    90.0064

_symmetry_space_group_name_H-M    "P 1"
_symmetry_int_tables_number       1

loop_
  _symmetry_equiv_pos_as_xyz
  'x, y, z'

loop_
  _atom_site_label
  _atom_site_occupancy
  _atom_site_fract_x
  _atom_site_fract_y
  _atom_site_fract_z
  _atom_site_thermal_displace_type
  _atom_site_B_iso_or_equiv
  _atom_site_type_symbol
  In1      1.0000 0.27460  0.01653  0.14715  Biso   1.000  In
  Hf1      1.0000 0.27784  0.22832  0.39537  Biso   1.000  Hf
  Hf2      1.0000 0.72050  0.26754  0.10383  Biso   1.000  Hf
  Hf3      1.0000 0.71952  0.47851  0.35327  Biso   1.000  Hf
  O1       1.0000 0.07211  0.17299  0.07732  Biso   1.000  O
  O2       1.0000 0.06022  0.08341  0.33834  Biso   1.000  O
  O3       1.0000 0.92838  0.41767  0.17041  Biso   1.000  O
  O4       1.0000 0.93006  0.33363  0.42110  Biso   1.000  O
  O5       1.0000 0.55753  0.13035  0.24409  Biso   1.000  O
  O6       1.0000 0.54893  0.12202  0.49221  Biso   1.000  O
  O7       1.0000 0.44954  0.37948  0.00884  Biso   1.000  O
  O8       1.0000 0.44516  0.37114  0.25948  Biso   1.000  O
  Hf4      1.0000 0.27893  0.02156  0.64574  Biso   1.000  Hf
  Hf5      1.0000 0.28034  0.22861  0.89657  Biso   1.000  Hf
  Hf6      1.0000 0.72048  0.27144  0.60403  Biso   1.000  Hf
  Hf7      1.0000 0.72262  0.47876  0.85434  Biso   1.000  Hf
  O9       1.0000 0.06914  0.16963  0.58160  Biso   1.000  O
  O10      1.0000 0.07244  0.08209  0.82887  Biso   1.000  O
  O11      1.0000 0.93124  0.41820  0.67013  Biso   1.000  O
  O12      1.0000 0.93344  0.33417  0.91956  Biso   1.000  O
  O13      1.0000 0.55325  0.12885  0.73921  Biso   1.000  O
  O14      1.0000 0.56458  0.12528  0.98442  Biso   1.000  O
  O15      1.0000 0.44725  0.37956  0.50942  Biso   1.000  O
  O16      1.0000 0.44964  0.37189  0.75893  Biso   1.000  O
  Hf8      1.0000 0.27818  0.51980  0.14496  Biso   1.000  Hf
  Hf9      1.0000 0.27742  0.72813  0.39549  Biso   1.000  Hf
  Hf10     1.0000 0.72013  0.77091  0.10418  Biso   1.000  Hf
  Hf11     1.0000 0.71641  0.97921  0.35420  Biso   1.000  Hf
  O17      1.0000 0.06995  0.66679  0.07861  Biso   1.000  O
  O18      1.0000 0.06728  0.58239  0.32875  Biso   1.000  O
  O19      1.0000 0.91608  0.91547  0.17308  Biso   1.000  O
  O20      1.0000 0.92974  0.83171  0.42118  Biso   1.000  O
  O21      1.0000 0.55104  0.62617  0.23976  Biso   1.000  O
  O22      1.0000 0.55159  0.62134  0.49032  Biso   1.000  O
  O23      1.0000 0.45651  0.87618  0.00534  Biso   1.000  O
  O24      1.0000 0.44795  0.86543  0.26177  Biso   1.000  O
  Hf12     1.0000 0.27901  0.52146  0.64606  Biso   1.000  Hf
  Hf13     1.0000 0.28123  0.73024  0.89593  Biso   1.000  Hf
  Hf14     1.0000 0.72169  0.77172  0.60392  Biso   1.000  Hf
  Hf15     1.0000 0.72245  0.97983  0.85457  Biso   1.000  Hf
  O25      1.0000 0.06868  0.66746  0.58018  Biso   1.000  O
  O26      1.0000 0.06988  0.58301  0.82908  Biso   1.000  O
  O27      1.0000 0.93138  0.91794  0.66999  Biso   1.000  O
  O28      1.0000 0.93515  0.83321  0.92027  Biso   1.000  O
  O29      1.0000 0.55253  0.62945  0.74014  Biso   1.000  O
  O30      1.0000 0.55183  0.62002  0.98969  Biso   1.000  O
  O31      1.0000 0.44679  0.87870  0.51007  Biso   1.000  O
  O32      1.0000 0.44936  0.87183  0.75822  Biso   1.000  O
