data_image0
_cell_length_a       9.99433
_cell_length_b       5.17405
_cell_length_c       10.0394
_cell_angle_alpha    90.0939
_cell_angle_beta     89.9902
_cell_angle_gamma    89.9986

_symmetry_space_group_name_H-M    "P 1"
_symmetry_int_tables_number       1

loop_
  _symmetry_equiv_pos_as_xyz
  'x, y, z'

loop_
  _atom_site_label
  _atom_site_occupancy
  _atom_site_fract_x
  _atom_site_fract_y
  _atom_site_fract_z
  _atom_site_thermal_displace_type
  _atom_site_B_iso_or_equiv
  _atom_site_type_symbol
  In1      1.0000 0.13088  0.03067  0.12164  Biso   1.000  In
  Hf1      1.0000 0.13606  0.46644  0.37586  Biso   1.000  Hf
  Hf2      1.0000 0.36432  0.52951  0.12707  Biso   1.000  Hf
  Hf3      1.0000 0.36337  0.96755  0.37494  Biso   1.000  Hf
  O1       1.0000 0.03127  0.37393  0.20034  Biso   1.000  O
  O2       1.0000 0.03480  0.13170  0.44748  Biso   1.000  O
  O3       1.0000 0.46601  0.86608  0.19552  Biso   1.000  O
  O4       1.0000 0.46493  0.63263  0.44668  Biso   1.000  O
  O5       1.0000 0.27395  0.23826  0.25169  Biso   1.000  O
  O6       1.0000 0.27035  0.26476  0.50075  Biso   1.000  O
  O7       1.0000 0.22949  0.76645  0.50138  Biso   1.000  O
  O8       1.0000 0.23508  0.72552  0.25398  Biso   1.000  O
  Hf4      1.0000 0.13408  0.03472  0.62735  Biso   1.000  Hf
  Hf5      1.0000 0.13551  0.46958  0.87646  Biso   1.000  Hf
  Hf6      1.0000 0.36576  0.53408  0.62623  Biso   1.000  Hf
  Hf7      1.0000 0.36540  0.96753  0.87706  Biso   1.000  Hf
  O9       1.0000 0.03727  0.37393  0.69229  Biso   1.000  O
  O10      1.0000 0.03417  0.13768  0.93241  Biso   1.000  O
  O11      1.0000 0.46467  0.86827  0.69531  Biso   1.000  O
  O12      1.0000 0.46594  0.63268  0.94436  Biso   1.000  O
  O13      1.0000 0.27158  0.23685  0.74907  Biso   1.000  O
  O14      1.0000 0.27449  0.26692  0.99612  Biso   1.000  O
  O15      1.0000 0.23233  0.75883  0.99933  Biso   1.000  O
  O16      1.0000 0.22992  0.73753  0.74977  Biso   1.000  O
  Hf8      1.0000 0.63401  0.03112  0.12573  Biso   1.000  Hf
  Hf9      1.0000 0.63315  0.46702  0.37568  Biso   1.000  Hf
  Hf10     1.0000 0.86436  0.53268  0.12597  Biso   1.000  Hf
  Hf11     1.0000 0.86645  0.96785  0.37607  Biso   1.000  Hf
  O17      1.0000 0.53671  0.36742  0.19426  Biso   1.000  O
  O18      1.0000 0.53497  0.13168  0.44481  Biso   1.000  O
  O19      1.0000 0.95983  0.86343  0.19840  Biso   1.000  O
  O20      1.0000 0.96483  0.63261  0.44587  Biso   1.000  O
  O21      1.0000 0.76880  0.23266  0.24968  Biso   1.000  O
  O22      1.0000 0.76926  0.26705  0.49904  Biso   1.000  O
  O23      1.0000 0.72983  0.76611  0.49907  Biso   1.000  O
  O24      1.0000 0.72804  0.73307  0.24968  Biso   1.000  O
  Hf12     1.0000 0.63352  0.03250  0.62501  Biso   1.000  Hf
  Hf13     1.0000 0.63460  0.46664  0.87545  Biso   1.000  Hf
  Hf14     1.0000 0.86604  0.53261  0.62483  Biso   1.000  Hf
  Hf15     1.0000 0.86494  0.96654  0.87469  Biso   1.000  Hf
  O25      1.0000 0.53582  0.36798  0.69466  Biso   1.000  O
  O26      1.0000 0.53700  0.13121  0.94413  Biso   1.000  O
  O27      1.0000 0.96324  0.86898  0.69361  Biso   1.000  O
  O28      1.0000 0.96484  0.63530  0.94603  Biso   1.000  O
  O29      1.0000 0.77042  0.23464  0.74831  Biso   1.000  O
  O30      1.0000 0.77092  0.26331  0.99894  Biso   1.000  O
  O31      1.0000 0.72883  0.76346  0.99911  Biso   1.000  O
  O32      1.0000 0.72928  0.73412  0.74865  Biso   1.000  O
