data_image0
_cell_length_a       10.1699
_cell_length_b       5.13198
_cell_length_c       10.4621
_cell_angle_alpha    90.0122
_cell_angle_beta     80.2978
_cell_angle_gamma    90.0178

_symmetry_space_group_name_H-M    "P 1"
_symmetry_int_tables_number       1

loop_
  _symmetry_equiv_pos_as_xyz
  'x, y, z'

loop_
  _atom_site_label
  _atom_site_occupancy
  _atom_site_fract_x
  _atom_site_fract_y
  _atom_site_fract_z
  _atom_site_thermal_displace_type
  _atom_site_B_iso_or_equiv
  _atom_site_type_symbol
  In1      1.0000 0.13681  0.03246  0.14641  Biso   1.000  In
  Hf1      1.0000 0.14013  0.45531  0.39482  Biso   1.000  Hf
  Hf2      1.0000 0.35934  0.53737  0.10393  Biso   1.000  Hf
  Hf3      1.0000 0.35940  0.95750  0.35258  Biso   1.000  Hf
  O1       1.0000 0.03591  0.34744  0.07756  Biso   1.000  O
  O2       1.0000 0.02953  0.16760  0.33770  Biso   1.000  O
  O3       1.0000 0.46639  0.83140  0.17060  Biso   1.000  O
  O4       1.0000 0.46458  0.66461  0.42127  Biso   1.000  O
  O5       1.0000 0.27953  0.25534  0.24248  Biso   1.000  O
  O6       1.0000 0.27580  0.24226  0.49092  Biso   1.000  O
  O7       1.0000 0.22881  0.75541  0.00531  Biso   1.000  O
  O8       1.0000 0.22673  0.73211  0.26047  Biso   1.000  O
  Hf4      1.0000 0.13991  0.04271  0.64570  Biso   1.000  Hf
  Hf5      1.0000 0.14123  0.45915  0.89641  Biso   1.000  Hf
  Hf6      1.0000 0.36034  0.54352  0.60390  Biso   1.000  Hf
  Hf7      1.0000 0.36145  0.95930  0.85456  Biso   1.000  Hf
  O9       1.0000 0.03523  0.33928  0.58191  Biso   1.000  O
  O10      1.0000 0.03525  0.16397  0.82951  Biso   1.000  O
  O11      1.0000 0.46624  0.83438  0.67056  Biso   1.000  O
  O12      1.0000 0.46892  0.66921  0.92060  Biso   1.000  O
  O13      1.0000 0.27613  0.25803  0.73900  Biso   1.000  O
  O14      1.0000 0.28299  0.25116  0.98382  Biso   1.000  O
  O15      1.0000 0.22356  0.75836  0.50956  Biso   1.000  O
  O16      1.0000 0.22465  0.74427  0.75816  Biso   1.000  O
  Hf8      1.0000 0.63895  0.03928  0.14595  Biso   1.000  Hf
  Hf9      1.0000 0.63752  0.45742  0.39589  Biso   1.000  Hf
  Hf10     1.0000 0.86112  0.53904  0.10400  Biso   1.000  Hf
  Hf11     1.0000 0.85846  0.95800  0.35509  Biso   1.000  Hf
  O17      1.0000 0.53573  0.33356  0.07880  Biso   1.000  O
  O18      1.0000 0.53408  0.16381  0.32933  Biso   1.000  O
  O19      1.0000 0.95470  0.83732  0.17218  Biso   1.000  O
  O20      1.0000 0.96520  0.66569  0.42080  Biso   1.000  O
  O21      1.0000 0.77439  0.25769  0.24133  Biso   1.000  O
  O22      1.0000 0.77435  0.24429  0.49164  Biso   1.000  O
  O23      1.0000 0.72437  0.75648  0.00905  Biso   1.000  O
  O24      1.0000 0.71967  0.74106  0.26108  Biso   1.000  O
  Hf12     1.0000 0.63915  0.04317  0.64615  Biso   1.000  Hf
  Hf13     1.0000 0.63977  0.45852  0.89628  Biso   1.000  Hf
  Hf14     1.0000 0.86084  0.54269  0.60407  Biso   1.000  Hf
  Hf15     1.0000 0.86131  0.95805  0.85443  Biso   1.000  Hf
  O25      1.0000 0.53362  0.33438  0.57967  Biso   1.000  O
  O26      1.0000 0.53626  0.16600  0.82847  Biso   1.000  O
  O27      1.0000 0.96520  0.83768  0.66958  Biso   1.000  O
  O28      1.0000 0.96524  0.66461  0.91894  Biso   1.000  O
  O29      1.0000 0.77692  0.25842  0.74030  Biso   1.000  O
  O30      1.0000 0.77584  0.23988  0.99009  Biso   1.000  O
  O31      1.0000 0.72341  0.75780  0.51007  Biso   1.000  O
  O32      1.0000 0.72502  0.74301  0.75909  Biso   1.000  O
