data_image0
_cell_length_a       10.1087
_cell_length_b       5.21053
_cell_length_c       10.2523
_cell_angle_alpha    92.1852
_cell_angle_beta     95.9336
_cell_angle_gamma    87.8774

_symmetry_space_group_name_H-M    "P 1"
_symmetry_int_tables_number       1

loop_
  _symmetry_equiv_pos_as_xyz
  'x, y, z'

loop_
  _atom_site_label
  _atom_site_occupancy
  _atom_site_fract_x
  _atom_site_fract_y
  _atom_site_fract_z
  _atom_site_thermal_displace_type
  _atom_site_B_iso_or_equiv
  _atom_site_type_symbol
  Hf1      1.0000 0.17127  0.12027  0.08930  Biso   1.000  Hf
  Hf2      1.0000 0.09871  0.44825  0.37524  Biso   1.000  Hf
  Hf3      1.0000 0.37549  0.56752  0.12340  Biso   1.000  Hf
  Hf4      1.0000 0.35204  0.97453  0.37232  Biso   1.000  Hf
  O1       1.0000 0.01824  0.28280  0.19278  Biso   1.000  O
  O2       1.0000 0.03232  0.11157  0.42812  Biso   1.000  O
  O3       1.0000 0.46610  0.88865  0.20904  Biso   1.000  O
  O4       1.0000 0.45426  0.63783  0.44104  Biso   1.000  O
  O5       1.0000 0.28308  0.30344  0.24645  Biso   1.000  O
  O6       1.0000 0.25808  0.25083  0.49176  Biso   1.000  O
  O7       1.0000 0.21902  0.74684  0.47644  Biso   1.000  O
  O8       1.0000 0.23026  0.80689  0.21782  Biso   1.000  O
  Hf5      1.0000 0.13544  0.02231  0.60622  Biso   1.000  Hf
  Hf6      1.0000 0.15346  0.47618  0.84271  Biso   1.000  Hf
  Hf7      1.0000 0.37131  0.52372  0.60886  Biso   1.000  Hf
  Hf8      1.0000 0.38599  0.97531  0.86046  Biso   1.000  Hf
  O9       1.0000 0.04855  0.35641  0.66800  Biso   1.000  O
  O10      1.0000 0.04693  0.16813  0.91857  Biso   1.000  O
  O11      1.0000 0.46764  0.86135  0.68899  Biso   1.000  O
  O12      1.0000 0.50363  0.67731  0.97484  Biso   1.000  O
  O13      1.0000 0.28057  0.23245  0.73629  Biso   1.000  O
  O14      1.0000 0.30627  0.28488  0.97956  Biso   1.000  O
  O15      1.0000 0.25912  0.79898  0.97240  Biso   1.000  O
  O16      1.0000 0.24070  0.73083  0.72650  Biso   1.000  O
  Hf9      1.0000 0.62386  0.00471  0.12812  Biso   1.000  Hf
  Hf10     1.0000 0.62262  0.44616  0.39596  Biso   1.000  Hf
  Hf11     1.0000 0.82929  0.47731  0.18552  Biso   1.000  Hf
  Hf12     1.0000 0.85959  0.92197  0.41896  Biso   1.000  Hf
  O17      1.0000 0.54303  0.36262  0.19382  Biso   1.000  O
  O18      1.0000 0.51744  0.14876  0.46442  Biso   1.000  O
  O19      1.0000 0.96759  0.73715  0.26226  Biso   1.000  O
  O20      1.0000 0.92678  0.54632  0.45265  Biso   1.000  O
  O21      1.0000 0.75842  0.18318  0.27954  Biso   1.000  O
  O22      1.0000 0.75793  0.24200  0.52756  Biso   1.000  O
  O23      1.0000 0.71033  0.73727  0.52558  Biso   1.000  O
  O24      1.0000 0.70987  0.71910  0.28039  Biso   1.000  O
  Hf13     1.0000 0.63523  0.03633  0.64252  Biso   1.000  Hf
  Hf14     1.0000 0.65076  0.47386  0.89157  Biso   1.000  Hf
  Hf15     1.0000 0.86712  0.53455  0.64924  Biso   1.000  Hf
  Hf16     1.0000 0.87116  0.97229  0.89988  Biso   1.000  Hf
  O25      1.0000 0.53780  0.37296  0.71211  Biso   1.000  O
  O26      1.0000 0.55376  0.14310  0.94224  Biso   1.000  O
  O27      1.0000 0.95103  0.88713  0.61921  Biso   1.000  O
  O28      1.0000 0.97067  0.65907  0.83453  Biso   1.000  O
  O29      1.0000 0.78220  0.24329  0.77467  Biso   1.000  O
  O30      1.0000 0.77866  0.24894  0.02532  Biso   1.000  O
  O31      1.0000 0.76488  0.74324  0.03211  Biso   1.000  O
  O32      1.0000 0.72783  0.76065  0.77569  Biso   1.000  O
  In1      1.0000 0.05897  0.65310  0.08578  Biso   1.000  In
