data_image0
_cell_length_a       10.103
_cell_length_b       10.5627
_cell_length_c       5.13392
_cell_angle_alpha    90.2186
_cell_angle_beta     87.5729
_cell_angle_gamma    90.7606

_symmetry_space_group_name_H-M    "P 1"
_symmetry_int_tables_number       1

loop_
  _symmetry_equiv_pos_as_xyz
  'x, y, z'

loop_
  _atom_site_label
  _atom_site_occupancy
  _atom_site_fract_x
  _atom_site_fract_y
  _atom_site_fract_z
  _atom_site_thermal_displace_type
  _atom_site_B_iso_or_equiv
  _atom_site_type_symbol
  Zr1      1.0000 0.14691  0.00802  0.27902  Biso   1.000  Zr
  Zr2      1.0000 0.14224  0.21626  0.83845  Biso   1.000  Zr
  Zr3      1.0000 0.36795  0.26691  0.25840  Biso   1.000  Zr
  Zr4      1.0000 0.36840  0.48599  0.74865  Biso   1.000  Zr
  O1       1.0000 0.03519  0.10943  0.57231  Biso   1.000  O
  O2       1.0000 0.01906  0.06865  0.01270  Biso   1.000  O
  O3       1.0000 0.46374  0.43239  0.39043  Biso   1.000  O
  O4       1.0000 0.46191  0.31517  0.87625  Biso   1.000  O
  O5       1.0000 0.28105  0.12114  0.52510  Biso   1.000  O
  O6       1.0000 0.28990  0.11494  0.01957  Biso   1.000  O
  O7       1.0000 0.23992  0.39017  0.01976  Biso   1.000  O
  O8       1.0000 0.22487  0.36459  0.53055  Biso   1.000  O
  Zr5      1.0000 0.13676  0.53756  0.24057  Biso   1.000  Zr
  Zr6      1.0000 0.13548  0.73750  0.74849  Biso   1.000  Zr
  Zr7      1.0000 0.37498  0.76491  0.24086  Biso   1.000  Zr
  Zr8      1.0000 0.37224  0.97938  0.74923  Biso   1.000  Zr
  O9       1.0000 0.03462  0.68441  0.39715  Biso   1.000  O
  O10      1.0000 0.03331  0.57415  0.89200  Biso   1.000  O
  O11      1.0000 0.47019  0.93181  0.37649  Biso   1.000  O
  O12      1.0000 0.47347  0.81828  0.88850  Biso   1.000  O
  O13      1.0000 0.27309  0.61764  0.49041  Biso   1.000  O
  O14      1.0000 0.26982  0.63850  0.98698  Biso   1.000  O
  O15      1.0000 0.23345  0.87780  0.99892  Biso   1.000  O
  O16      1.0000 0.24146  0.86270  0.50001  Biso   1.000  O
  Zr9      1.0000 0.63692  0.01264  0.22286  Biso   1.000  Zr
  Zr10     1.0000 0.62396  0.23280  0.71014  Biso   1.000  Zr
  Zr11     1.0000 0.82575  0.26959  0.17912  Biso   1.000  Zr
  Zr12     1.0000 0.86994  0.48954  0.72916  Biso   1.000  Zr
  O17      1.0000 0.53999  0.18440  0.35621  Biso   1.000  O
  O18      1.0000 0.53878  0.06399  0.86245  Biso   1.000  O
  O19      1.0000 0.95979  0.44795  0.36478  Biso   1.000  O
  O20      1.0000 0.96212  0.32440  0.85110  Biso   1.000  O
  O21      1.0000 0.77213  0.11698  0.44426  Biso   1.000  O
  O22      1.0000 0.76035  0.13611  0.93726  Biso   1.000  O
  O23      1.0000 0.71886  0.39076  0.95503  Biso   1.000  O
  O24      1.0000 0.72174  0.37315  0.46374  Biso   1.000  O
  Zr13     1.0000 0.63203  0.52264  0.24014  Biso   1.000  Zr
  Zr14     1.0000 0.64167  0.73690  0.74301  Biso   1.000  Zr
  Zr15     1.0000 0.86680  0.76833  0.23749  Biso   1.000  Zr
  Zr16     1.0000 0.88413  0.98963  0.72174  Biso   1.000  Zr
  O25      1.0000 0.53636  0.68368  0.39277  Biso   1.000  O
  O26      1.0000 0.52954  0.57172  0.89663  Biso   1.000  O
  O27      1.0000 0.97492  0.91020  0.39536  Biso   1.000  O
  O28      1.0000 0.97048  0.82379  0.88496  Biso   1.000  O
  O29      1.0000 0.76838  0.61976  0.48377  Biso   1.000  O
  O30      1.0000 0.76863  0.63524  0.98269  Biso   1.000  O
  O31      1.0000 0.73757  0.88344  0.98839  Biso   1.000  O
  O32      1.0000 0.73375  0.86982  0.48876  Biso   1.000  O
  In1      1.0000 0.06939  0.27335  0.34291  Biso   1.000  In
