data_image0
_cell_length_a       10.2168
_cell_length_b       10.3402
_cell_length_c       10.5117
_cell_angle_alpha    89.9994
_cell_angle_beta     80.3173
_cell_angle_gamma    89.9936

_symmetry_space_group_name_H-M    "P 1"
_symmetry_int_tables_number       1

loop_
  _symmetry_equiv_pos_as_xyz
  'x, y, z'

loop_
  _atom_site_label
  _atom_site_occupancy
  _atom_site_fract_x
  _atom_site_fract_y
  _atom_site_fract_z
  _atom_site_thermal_displace_type
  _atom_site_B_iso_or_equiv
  _atom_site_type_symbol
  In1      1.0000 0.13690  0.01651  0.14685  Biso   1.000  In
  Zr1      1.0000 0.13903  0.02143  0.64487  Biso   1.000  Zr
  Zr2      1.0000 0.13938  0.52122  0.14475  Biso   1.000  Zr
  Zr3      1.0000 0.13941  0.52141  0.64569  Biso   1.000  Zr
  Zr4      1.0000 0.63936  0.02101  0.14569  Biso   1.000  Zr
  Zr5      1.0000 0.63921  0.02161  0.64574  Biso   1.000  Zr
  Zr6      1.0000 0.63865  0.51984  0.14518  Biso   1.000  Zr
  Zr7      1.0000 0.63903  0.52132  0.64539  Biso   1.000  Zr
  Zr8      1.0000 0.13877  0.22784  0.39450  Biso   1.000  Zr
  Zr9      1.0000 0.13979  0.22782  0.89575  Biso   1.000  Zr
  Zr10     1.0000 0.13955  0.72853  0.39503  Biso   1.000  Zr
  Zr11     1.0000 0.14005  0.73027  0.89563  Biso   1.000  Zr
  Zr12     1.0000 0.63879  0.22893  0.39543  Biso   1.000  Zr
  Zr13     1.0000 0.63938  0.22927  0.89603  Biso   1.000  Zr
  Zr14     1.0000 0.63809  0.72863  0.39528  Biso   1.000  Zr
  Zr15     1.0000 0.63933  0.72881  0.89536  Biso   1.000  Zr
  Zr16     1.0000 0.35879  0.26854  0.10466  Biso   1.000  Zr
  Zr17     1.0000 0.36039  0.27128  0.60444  Biso   1.000  Zr
  Zr18     1.0000 0.36119  0.77168  0.10423  Biso   1.000  Zr
  Zr19     1.0000 0.36083  0.77187  0.60445  Biso   1.000  Zr
  Zr20     1.0000 0.86317  0.26986  0.10427  Biso   1.000  Zr
  Zr21     1.0000 0.86103  0.27161  0.60470  Biso   1.000  Zr
  Zr22     1.0000 0.86010  0.77101  0.10498  Biso   1.000  Zr
  Zr23     1.0000 0.86111  0.77114  0.60458  Biso   1.000  Zr
  Zr24     1.0000 0.36026  0.47826  0.35388  Biso   1.000  Zr
  Zr25     1.0000 0.36114  0.47859  0.85486  Biso   1.000  Zr
  Zr26     1.0000 0.35986  0.97950  0.35371  Biso   1.000  Zr
  Zr27     1.0000 0.36107  0.97994  0.85484  Biso   1.000  Zr
  Zr28     1.0000 0.86056  0.47909  0.35444  Biso   1.000  Zr
  Zr29     1.0000 0.86139  0.47883  0.85481  Biso   1.000  Zr
  Zr30     1.0000 0.85962  0.97874  0.35543  Biso   1.000  Zr
  Zr31     1.0000 0.86119  0.97883  0.85491  Biso   1.000  Zr
  O1       1.0000 0.03566  0.17215  0.07763  Biso   1.000  O
  O2       1.0000 0.03513  0.16992  0.58129  Biso   1.000  O
  O3       1.0000 0.03482  0.66788  0.07912  Biso   1.000  O
  O4       1.0000 0.03475  0.66799  0.58010  Biso   1.000  O
  O5       1.0000 0.53510  0.16763  0.07934  Biso   1.000  O
  O6       1.0000 0.53394  0.16765  0.57948  Biso   1.000  O
  O7       1.0000 0.53454  0.66651  0.07876  Biso   1.000  O
  O8       1.0000 0.53408  0.66734  0.57938  Biso   1.000  O
  O9       1.0000 0.03057  0.08297  0.33692  Biso   1.000  O
  O10      1.0000 0.03476  0.08159  0.82906  Biso   1.000  O
  O11      1.0000 0.03438  0.58253  0.32917  Biso   1.000  O
  O12      1.0000 0.03502  0.58225  0.82972  Biso   1.000  O
  O13      1.0000 0.53441  0.08249  0.32961  Biso   1.000  O
  O14      1.0000 0.53590  0.08259  0.82901  Biso   1.000  O
  O15      1.0000 0.53377  0.58209  0.32900  Biso   1.000  O
  O16      1.0000 0.53448  0.58286  0.82881  Biso   1.000  O
  O17      1.0000 0.46538  0.41598  0.17096  Biso   1.000  O
  O18      1.0000 0.46580  0.41738  0.67077  Biso   1.000  O
  O19      1.0000 0.46662  0.91719  0.17068  Biso   1.000  O
  O20      1.0000 0.46610  0.91766  0.67042  Biso   1.000  O
  O21      1.0000 0.96463  0.41945  0.17032  Biso   1.000  O
  O22      1.0000 0.96537  0.41877  0.67015  Biso   1.000  O
  O23      1.0000 0.95733  0.91608  0.17249  Biso   1.000  O
  O24      1.0000 0.96512  0.91824  0.67006  Biso   1.000  O
  O25      1.0000 0.46546  0.33265  0.42097  Biso   1.000  O
  O26      1.0000 0.46683  0.33364  0.92090  Biso   1.000  O
  O27      1.0000 0.46503  0.83235  0.42100  Biso   1.000  O
  O28      1.0000 0.46730  0.83321  0.92053  Biso   1.000  O
  O29      1.0000 0.96509  0.33336  0.42091  Biso   1.000  O
  O30      1.0000 0.96550  0.33245  0.91952  Biso   1.000  O
  O31      1.0000 0.96527  0.83146  0.42084  Biso   1.000  O
  O32      1.0000 0.96522  0.83171  0.92005  Biso   1.000  O
  O33      1.0000 0.27849  0.12934  0.24270  Biso   1.000  O
  O34      1.0000 0.27543  0.12839  0.73894  Biso   1.000  O
  O35      1.0000 0.27593  0.62678  0.23980  Biso   1.000  O
  O36      1.0000 0.27578  0.62921  0.74051  Biso   1.000  O
  O37      1.0000 0.77481  0.12881  0.24117  Biso   1.000  O
  O38      1.0000 0.77627  0.12905  0.74071  Biso   1.000  O
  O39      1.0000 0.77461  0.62823  0.24057  Biso   1.000  O
  O40      1.0000 0.77557  0.62877  0.74021  Biso   1.000  O
  O41      1.0000 0.27535  0.12152  0.49078  Biso   1.000  O
  O42      1.0000 0.28155  0.12545  0.98455  Biso   1.000  O
  O43      1.0000 0.27558  0.62140  0.49038  Biso   1.000  O
  O44      1.0000 0.27603  0.62135  0.99014  Biso   1.000  O
  O45      1.0000 0.77445  0.12209  0.49154  Biso   1.000  O
  O46      1.0000 0.77577  0.12099  0.99059  Biso   1.000  O
  O47      1.0000 0.77525  0.62153  0.49049  Biso   1.000  O
  O48      1.0000 0.77496  0.62034  0.99002  Biso   1.000  O
  O49      1.0000 0.22490  0.37968  0.00906  Biso   1.000  O
  O50      1.0000 0.22447  0.37912  0.50933  Biso   1.000  O
  O51      1.0000 0.22789  0.87701  0.00623  Biso   1.000  O
  O52      1.0000 0.22416  0.87885  0.50955  Biso   1.000  O
  O53      1.0000 0.72492  0.37819  0.00951  Biso   1.000  O
  O54      1.0000 0.72404  0.37901  0.50968  Biso   1.000  O
  O55      1.0000 0.72426  0.87841  0.00930  Biso   1.000  O
  O56      1.0000 0.72416  0.87853  0.51001  Biso   1.000  O
  O57      1.0000 0.22343  0.37110  0.25907  Biso   1.000  O
  O58      1.0000 0.22503  0.37171  0.75925  Biso   1.000  O
  O59      1.0000 0.22746  0.86690  0.26070  Biso   1.000  O
  O60      1.0000 0.22462  0.87188  0.75843  Biso   1.000  O
  O61      1.0000 0.72450  0.37127  0.25997  Biso   1.000  O
  O62      1.0000 0.72477  0.37166  0.75940  Biso   1.000  O
  O63      1.0000 0.72081  0.87069  0.26063  Biso   1.000  O
  O64      1.0000 0.72497  0.87147  0.75945  Biso   1.000  O
