data_image0
_cell_length_a       5.16905
_cell_length_b       10.4068
_cell_length_c       10.6423
_cell_angle_alpha    90.1376
_cell_angle_beta     78.4387
_cell_angle_gamma    90.2179

_symmetry_space_group_name_H-M    "P 1"
_symmetry_int_tables_number       1

loop_
  _symmetry_equiv_pos_as_xyz
  'x, y, z'

loop_
  _atom_site_label
  _atom_site_occupancy
  _atom_site_fract_x
  _atom_site_fract_y
  _atom_site_fract_z
  _atom_site_thermal_displace_type
  _atom_site_B_iso_or_equiv
  _atom_site_type_symbol
  Zr1      1.0000 0.26940  0.01542  0.14577  Biso   1.000  Zr
  Zr2      1.0000 0.33737  0.23313  0.40765  Biso   1.000  Zr
  Zr3      1.0000 0.68145  0.27446  0.09719  Biso   1.000  Zr
  Zr4      1.0000 0.71112  0.48597  0.34788  Biso   1.000  Zr
  O1       1.0000 0.04779  0.16766  0.08374  Biso   1.000  O
  O2       1.0000 0.06640  0.06660  0.33699  Biso   1.000  O
  O3       1.0000 0.91070  0.43463  0.15620  Biso   1.000  O
  O4       1.0000 0.98844  0.35624  0.44930  Biso   1.000  O
  O5       1.0000 0.53445  0.11560  0.23767  Biso   1.000  O
  O6       1.0000 0.58826  0.11448  0.49678  Biso   1.000  O
  O7       1.0000 0.42545  0.38201  0.00552  Biso   1.000  O
  O8       1.0000 0.41315  0.37833  0.25330  Biso   1.000  O
  Zr5      1.0000 0.28168  0.02021  0.64817  Biso   1.000  Zr
  Zr6      1.0000 0.26361  0.22947  0.89520  Biso   1.000  Zr
  Zr7      1.0000 0.74440  0.27374  0.61198  Biso   1.000  Zr
  Zr8      1.0000 0.71604  0.47997  0.85655  Biso   1.000  Zr
  O9       1.0000 0.09325  0.16718  0.58110  Biso   1.000  O
  O10      1.0000 0.05969  0.08441  0.82926  Biso   1.000  O
  O11      1.0000 0.94597  0.41095  0.68693  Biso   1.000  O
  O12      1.0000 0.91507  0.33194  0.92355  Biso   1.000  O
  O13      1.0000 0.54778  0.12834  0.74373  Biso   1.000  O
  O14      1.0000 0.52887  0.12383  0.98940  Biso   1.000  O
  O15      1.0000 0.48221  0.38003  0.51330  Biso   1.000  O
  O16      1.0000 0.45244  0.37156  0.76070  Biso   1.000  O
  Zr9      1.0000 0.26413  0.52619  0.14328  Biso   1.000  Zr
  Zr10     1.0000 0.26643  0.72449  0.39813  Biso   1.000  Zr
  Zr11     1.0000 0.71353  0.77196  0.10338  Biso   1.000  Zr
  Zr12     1.0000 0.70724  0.96465  0.35723  Biso   1.000  Zr
  O17      1.0000 0.06119  0.67393  0.07696  Biso   1.000  O
  O18      1.0000 0.05218  0.58845  0.32395  Biso   1.000  O
  O19      1.0000 0.92189  0.91259  0.17510  Biso   1.000  O
  O20      1.0000 0.92263  0.82765  0.42594  Biso   1.000  O
  O21      1.0000 0.54043  0.62899  0.24216  Biso   1.000  O
  O22      1.0000 0.53878  0.62195  0.49067  Biso   1.000  O
  O23      1.0000 0.44588  0.87927  0.00927  Biso   1.000  O
  O24      1.0000 0.43390  0.86648  0.25976  Biso   1.000  O
  Zr13     1.0000 0.27831  0.52205  0.64807  Biso   1.000  Zr
  Zr14     1.0000 0.26846  0.72970  0.89669  Biso   1.000  Zr
  Zr15     1.0000 0.72045  0.77082  0.60699  Biso   1.000  Zr
  Zr16     1.0000 0.71729  0.97888  0.85411  Biso   1.000  Zr
  O25      1.0000 0.05497  0.65980  0.57956  Biso   1.000  O
  O26      1.0000 0.06050  0.58731  0.82920  Biso   1.000  O
  O27      1.0000 0.93279  0.91477  0.67390  Biso   1.000  O
  O28      1.0000 0.92882  0.83733  0.92268  Biso   1.000  O
  O29      1.0000 0.54561  0.62687  0.74101  Biso   1.000  O
  O30      1.0000 0.54262  0.62423  0.99107  Biso   1.000  O
  O31      1.0000 0.43869  0.87331  0.51301  Biso   1.000  O
  O32      1.0000 0.44811  0.87172  0.76134  Biso   1.000  O
  In1      1.0000 0.91283  0.24052  0.29369  Biso   1.000  In
