data_image0
_cell_length_a       10.167
_cell_length_b       10.417
_cell_length_c       5.32087
_cell_angle_alpha    89.8028
_cell_angle_beta     92.1579
_cell_angle_gamma    90.0379

_symmetry_space_group_name_H-M    "P 1"
_symmetry_int_tables_number       1

loop_
  _symmetry_equiv_pos_as_xyz
  'x, y, z'

loop_
  _atom_site_label
  _atom_site_occupancy
  _atom_site_fract_x
  _atom_site_fract_y
  _atom_site_fract_z
  _atom_site_thermal_displace_type
  _atom_site_B_iso_or_equiv
  _atom_site_type_symbol
  Zr1      1.0000 0.13862  0.01958  0.35045  Biso   1.000  Zr
  Zr2      1.0000 0.13668  0.22658  0.86090  Biso   1.000  Zr
  Zr3      1.0000 0.34323  0.26857  0.38769  Biso   1.000  Zr
  Zr4      1.0000 0.35858  0.48508  0.85586  Biso   1.000  Zr
  Zr5      1.0000 0.64598  0.01320  0.14316  Biso   1.000  Zr
  Zr6      1.0000 0.65378  0.22349  0.63511  Biso   1.000  Zr
  Zr7      1.0000 0.85961  0.27089  0.14357  Biso   1.000  Zr
  Zr8      1.0000 0.86760  0.48101  0.65064  Biso   1.000  Zr
  O1       1.0000 0.03234  0.16466  0.17213  Biso   1.000  O
  O2       1.0000 0.03594  0.08299  0.66749  Biso   1.000  O
  O3       1.0000 0.46807  0.43361  0.19217  Biso   1.000  O
  O4       1.0000 0.47024  0.33646  0.67905  Biso   1.000  O
  O5       1.0000 0.27145  0.12455  0.61214  Biso   1.000  O
  O6       1.0000 0.27316  0.12009  0.10867  Biso   1.000  O
  O7       1.0000 0.22000  0.37659  0.61829  Biso   1.000  O
  O8       1.0000 0.22212  0.37596  0.11442  Biso   1.000  O
  O9       1.0000 0.51647  0.14689  0.37993  Biso   1.000  O
  O10      1.0000 0.53323  0.06825  0.82583  Biso   1.000  O
  O11      1.0000 0.96683  0.41416  0.33426  Biso   1.000  O
  O12      1.0000 0.96982  0.33339  0.83370  Biso   1.000  O
  O13      1.0000 0.79114  0.11877  0.88189  Biso   1.000  O
  O14      1.0000 0.78013  0.12139  0.39072  Biso   1.000  O
  O15      1.0000 0.73765  0.39202  0.89069  Biso   1.000  O
  O16      1.0000 0.72362  0.37519  0.39767  Biso   1.000  O
  Zr9      1.0000 0.13848  0.52056  0.34657  Biso   1.000  Zr
  Zr10     1.0000 0.14069  0.72933  0.84628  Biso   1.000  Zr
  Zr11     1.0000 0.36278  0.77162  0.35252  Biso   1.000  Zr
  Zr12     1.0000 0.36161  0.97460  0.85669  Biso   1.000  Zr
  Zr13     1.0000 0.64639  0.53596  0.15194  Biso   1.000  Zr
  Zr14     1.0000 0.64049  0.73135  0.65479  Biso   1.000  Zr
  Zr15     1.0000 0.86722  0.77099  0.15703  Biso   1.000  Zr
  Zr16     1.0000 0.86709  0.97623  0.65390  Biso   1.000  Zr
  O17      1.0000 0.03517  0.66345  0.16535  Biso   1.000  O
  O18      1.0000 0.03633  0.58582  0.66770  Biso   1.000  O
  O19      1.0000 0.47220  0.91032  0.17088  Biso   1.000  O
  O20      1.0000 0.46846  0.83186  0.67232  Biso   1.000  O
  O21      1.0000 0.27629  0.62504  0.59488  Biso   1.000  O
  O22      1.0000 0.27563  0.62466  0.09544  Biso   1.000  O
  O23      1.0000 0.22623  0.87357  0.59969  Biso   1.000  O
  O24      1.0000 0.22583  0.87276  0.10156  Biso   1.000  O
  O25      1.0000 0.53564  0.66941  0.33564  Biso   1.000  O
  O26      1.0000 0.53219  0.58890  0.83683  Biso   1.000  O
  O27      1.0000 0.97124  0.91364  0.33314  Biso   1.000  O
  O28      1.0000 0.97114  0.83397  0.83683  Biso   1.000  O
  O29      1.0000 0.77865  0.63165  0.90280  Biso   1.000  O
  O30      1.0000 0.78062  0.62813  0.40606  Biso   1.000  O
  O31      1.0000 0.73026  0.87548  0.90996  Biso   1.000  O
  O32      1.0000 0.72996  0.87249  0.40895  Biso   1.000  O
  In1      1.0000 0.55183  0.26504  0.06635  Biso   1.000  In
