data_image0
_cell_length_a       10.0502
_cell_length_b       10.4213
_cell_length_c       10.0788
_cell_angle_alpha    90.052
_cell_angle_beta     89.9815
_cell_angle_gamma    90.0033

_symmetry_space_group_name_H-M    "P 1"
_symmetry_int_tables_number       1

loop_
  _symmetry_equiv_pos_as_xyz
  'x, y, z'

loop_
  _atom_site_label
  _atom_site_occupancy
  _atom_site_fract_x
  _atom_site_fract_y
  _atom_site_fract_z
  _atom_site_thermal_displace_type
  _atom_site_B_iso_or_equiv
  _atom_site_type_symbol
  In1      1.0000 0.13054  0.01564  0.12091  Biso   1.000  In
  Zr1      1.0000 0.13400  0.01632  0.62689  Biso   1.000  Zr
  Zr2      1.0000 0.13421  0.51508  0.12577  Biso   1.000  Zr
  Zr3      1.0000 0.13426  0.51625  0.62568  Biso   1.000  Zr
  Zr4      1.0000 0.63382  0.01528  0.12518  Biso   1.000  Zr
  Zr5      1.0000 0.63338  0.01561  0.62440  Biso   1.000  Zr
  Zr6      1.0000 0.63400  0.51545  0.12588  Biso   1.000  Zr
  Zr7      1.0000 0.63392  0.51569  0.62553  Biso   1.000  Zr
  Zr8      1.0000 0.13455  0.23286  0.37520  Biso   1.000  Zr
  Zr9      1.0000 0.13469  0.23478  0.87503  Biso   1.000  Zr
  Zr10     1.0000 0.13496  0.73530  0.37531  Biso   1.000  Zr
  Zr11     1.0000 0.13479  0.73516  0.87711  Biso   1.000  Zr
  Zr12     1.0000 0.63352  0.23414  0.37485  Biso   1.000  Zr
  Zr13     1.0000 0.63417  0.23417  0.87531  Biso   1.000  Zr
  Zr14     1.0000 0.63358  0.73489  0.37574  Biso   1.000  Zr
  Zr15     1.0000 0.63403  0.73446  0.87564  Biso   1.000  Zr
  Zr16     1.0000 0.36478  0.26468  0.12614  Biso   1.000  Zr
  Zr17     1.0000 0.36605  0.26568  0.62532  Biso   1.000  Zr
  Zr18     1.0000 0.36588  0.76505  0.12598  Biso   1.000  Zr
  Zr19     1.0000 0.36613  0.76658  0.62598  Biso   1.000  Zr
  Zr20     1.0000 0.86562  0.26518  0.12583  Biso   1.000  Zr
  Zr21     1.0000 0.86595  0.26583  0.62445  Biso   1.000  Zr
  Zr22     1.0000 0.86613  0.76620  0.12574  Biso   1.000  Zr
  Zr23     1.0000 0.86612  0.76557  0.62528  Biso   1.000  Zr
  Zr24     1.0000 0.36569  0.48435  0.37555  Biso   1.000  Zr
  Zr25     1.0000 0.36612  0.48435  0.87575  Biso   1.000  Zr
  Zr26     1.0000 0.36385  0.98488  0.37422  Biso   1.000  Zr
  Zr27     1.0000 0.36525  0.98463  0.87697  Biso   1.000  Zr
  Zr28     1.0000 0.86611  0.48474  0.37558  Biso   1.000  Zr
  Zr29     1.0000 0.86580  0.48449  0.87594  Biso   1.000  Zr
  Zr30     1.0000 0.86705  0.98433  0.37441  Biso   1.000  Zr
  Zr31     1.0000 0.86505  0.98395  0.87436  Biso   1.000  Zr
  O1       1.0000 0.03120  0.18603  0.19930  Biso   1.000  O
  O2       1.0000 0.03668  0.18622  0.69173  Biso   1.000  O
  O3       1.0000 0.03540  0.68279  0.19494  Biso   1.000  O
  O4       1.0000 0.03535  0.68401  0.69511  Biso   1.000  O
  O5       1.0000 0.53610  0.18414  0.19318  Biso   1.000  O
  O6       1.0000 0.53567  0.18404  0.69400  Biso   1.000  O
  O7       1.0000 0.53523  0.68251  0.19591  Biso   1.000  O
  O8       1.0000 0.53497  0.68322  0.69517  Biso   1.000  O
  O9       1.0000 0.03456  0.06658  0.44687  Biso   1.000  O
  O10      1.0000 0.03408  0.06815  0.93255  Biso   1.000  O
  O11      1.0000 0.03504  0.56634  0.44556  Biso   1.000  O
  O12      1.0000 0.03505  0.56702  0.94502  Biso   1.000  O
  O13      1.0000 0.53463  0.06665  0.44415  Biso   1.000  O
  O14      1.0000 0.53658  0.06621  0.94341  Biso   1.000  O
  O15      1.0000 0.53488  0.56660  0.44527  Biso   1.000  O
  O16      1.0000 0.53485  0.56698  0.94544  Biso   1.000  O
  O17      1.0000 0.46512  0.43290  0.19534  Biso   1.000  O
  O18      1.0000 0.46501  0.43363  0.69480  Biso   1.000  O
  O19      1.0000 0.46602  0.93326  0.19460  Biso   1.000  O
  O20      1.0000 0.46488  0.93382  0.69521  Biso   1.000  O
  O21      1.0000 0.96405  0.43466  0.19473  Biso   1.000  O
  O22      1.0000 0.96500  0.43412  0.69522  Biso   1.000  O
  O23      1.0000 0.96121  0.93021  0.19731  Biso   1.000  O
  O24      1.0000 0.96376  0.93360  0.69306  Biso   1.000  O
  O25      1.0000 0.46465  0.31652  0.44475  Biso   1.000  O
  O26      1.0000 0.46543  0.31699  0.94410  Biso   1.000  O
  O27      1.0000 0.46562  0.81724  0.44656  Biso   1.000  O
  O28      1.0000 0.46522  0.81678  0.94469  Biso   1.000  O
  O29      1.0000 0.96481  0.31745  0.44475  Biso   1.000  O
  O30      1.0000 0.96556  0.31776  0.94584  Biso   1.000  O
  O31      1.0000 0.96518  0.81588  0.44564  Biso   1.000  O
  O32      1.0000 0.96401  0.81630  0.94411  Biso   1.000  O
  O33      1.0000 0.27285  0.12030  0.25065  Biso   1.000  O
  O34      1.0000 0.27075  0.11761  0.74809  Biso   1.000  O
  O35      1.0000 0.26925  0.61500  0.24892  Biso   1.000  O
  O36      1.0000 0.26960  0.61759  0.74931  Biso   1.000  O
  O37      1.0000 0.76776  0.11650  0.24899  Biso   1.000  O
  O38      1.0000 0.76952  0.11700  0.74770  Biso   1.000  O
  O39      1.0000 0.76956  0.61700  0.24889  Biso   1.000  O
  O40      1.0000 0.76947  0.61683  0.74874  Biso   1.000  O
  O41      1.0000 0.26936  0.13268  0.49971  Biso   1.000  O
  O42      1.0000 0.27265  0.13494  0.99544  Biso   1.000  O
  O43      1.0000 0.26964  0.63362  0.49908  Biso   1.000  O
  O44      1.0000 0.26989  0.63184  0.99927  Biso   1.000  O
  O45      1.0000 0.76883  0.13395  0.49820  Biso   1.000  O
  O46      1.0000 0.77038  0.13291  0.99847  Biso   1.000  O
  O47      1.0000 0.76901  0.63335  0.49881  Biso   1.000  O
  O48      1.0000 0.76910  0.63246  0.99861  Biso   1.000  O
  O49      1.0000 0.23076  0.38332  0.49901  Biso   1.000  O
  O50      1.0000 0.23091  0.38311  0.99889  Biso   1.000  O
  O51      1.0000 0.23012  0.88374  0.50037  Biso   1.000  O
  O52      1.0000 0.23174  0.88001  0.99915  Biso   1.000  O
  O53      1.0000 0.73031  0.38352  0.49864  Biso   1.000  O
  O54      1.0000 0.73001  0.38312  0.99848  Biso   1.000  O
  O55      1.0000 0.73121  0.88349  0.49840  Biso   1.000  O
  O56      1.0000 0.72993  0.88224  0.99885  Biso   1.000  O
  O57      1.0000 0.22973  0.36762  0.24906  Biso   1.000  O
  O58      1.0000 0.23094  0.36779  0.74857  Biso   1.000  O
  O59      1.0000 0.23645  0.86151  0.25284  Biso   1.000  O
  O60      1.0000 0.23045  0.86757  0.74953  Biso   1.000  O
  O61      1.0000 0.73052  0.36710  0.24899  Biso   1.000  O
  O62      1.0000 0.73090  0.36706  0.74868  Biso   1.000  O
  O63      1.0000 0.72897  0.86651  0.24886  Biso   1.000  O
  O64      1.0000 0.72973  0.86661  0.74806  Biso   1.000  O
