data_image0
_cell_length_a       5.02552
_cell_length_b       10.2453
_cell_length_c       10.0937
_cell_angle_alpha    90.0036
_cell_angle_beta     90
_cell_angle_gamma    89.9994

_symmetry_space_group_name_H-M    "P 1"
_symmetry_int_tables_number       1

loop_
  _symmetry_equiv_pos_as_xyz
  'x, y, z'

loop_
  _atom_site_label
  _atom_site_occupancy
  _atom_site_fract_x
  _atom_site_fract_y
  _atom_site_fract_z
  _atom_site_thermal_displace_type
  _atom_site_B_iso_or_equiv
  _atom_site_type_symbol
  In1      1.0000 0.25078  0.99995  0.12519  Biso   1.000  In
  Zr1      1.0000 0.25077  0.99995  0.62518  Biso   1.000  Zr
  Zr2      1.0000 0.25077  0.49995  0.12518  Biso   1.000  Zr
  Zr3      1.0000 0.25077  0.49995  0.62518  Biso   1.000  Zr
  Zr4      1.0000 0.24983  0.25042  0.37575  Biso   1.000  Zr
  Zr5      1.0000 0.25166  0.25042  0.87463  Biso   1.000  Zr
  Zr6      1.0000 0.25167  0.74948  0.37575  Biso   1.000  Zr
  Zr7      1.0000 0.24983  0.74948  0.87463  Biso   1.000  Zr
  Zr8      1.0000 0.75075  0.25173  0.12519  Biso   1.000  Zr
  Zr9      1.0000 0.75075  0.24925  0.62519  Biso   1.000  Zr
  Zr10     1.0000 0.75075  0.74817  0.12519  Biso   1.000  Zr
  Zr11     1.0000 0.75075  0.75065  0.62519  Biso   1.000  Zr
  Zr12     1.0000 0.75077  0.99995  0.37482  Biso   1.000  Zr
  Zr13     1.0000 0.75076  0.99995  0.87555  Biso   1.000  Zr
  Zr14     1.0000 0.75077  0.49995  0.37546  Biso   1.000  Zr
  Zr15     1.0000 0.75077  0.49995  0.87489  Biso   1.000  Zr
  O1       1.0000 0.98318  0.14834  0.99232  Biso   1.000  O
  O2       1.0000 0.99819  0.14656  0.49888  Biso   1.000  O
  O3       1.0000 0.00061  0.64461  0.99923  Biso   1.000  O
  O4       1.0000 0.99692  0.64572  0.49983  Biso   1.000  O
  O5       1.0000 0.00569  0.10821  0.25095  Biso   1.000  O
  O6       1.0000 0.00168  0.10339  0.74774  Biso   1.000  O
  O7       1.0000 0.00091  0.60348  0.24935  Biso   1.000  O
  O8       1.0000 0.00406  0.60378  0.75037  Biso   1.000  O
  O9       1.0000 0.00061  0.35529  0.25114  Biso   1.000  O
  O10      1.0000 0.99692  0.35418  0.75054  Biso   1.000  O
  O11      1.0000 0.98320  0.85156  0.25804  Biso   1.000  O
  O12      1.0000 0.99819  0.85333  0.75149  Biso   1.000  O
  O13      1.0000 0.00090  0.39641  0.00102  Biso   1.000  O
  O14      1.0000 0.00405  0.39611  0.49999  Biso   1.000  O
  O15      1.0000 0.00570  0.89169  0.99942  Biso   1.000  O
  O16      1.0000 0.00169  0.89650  0.50263  Biso   1.000  O
  O17      1.0000 0.51833  0.14834  0.25804  Biso   1.000  O
  O18      1.0000 0.50333  0.14656  0.75148  Biso   1.000  O
  O19      1.0000 0.50092  0.64461  0.25115  Biso   1.000  O
  O20      1.0000 0.50462  0.64572  0.75054  Biso   1.000  O
  O21      1.0000 0.49581  0.10821  0.99942  Biso   1.000  O
  O22      1.0000 0.49983  0.10340  0.50263  Biso   1.000  O
  O23      1.0000 0.50062  0.60349  0.00102  Biso   1.000  O
  O24      1.0000 0.49747  0.60378  0.50000  Biso   1.000  O
  O25      1.0000 0.50091  0.35529  0.99923  Biso   1.000  O
  O26      1.0000 0.50461  0.35418  0.49983  Biso   1.000  O
  O27      1.0000 0.51834  0.85156  0.99233  Biso   1.000  O
  O28      1.0000 0.50333  0.85333  0.49888  Biso   1.000  O
  O29      1.0000 0.50062  0.39641  0.24935  Biso   1.000  O
  O30      1.0000 0.49747  0.39612  0.75037  Biso   1.000  O
  O31      1.0000 0.49583  0.89168  0.25095  Biso   1.000  O
  O32      1.0000 0.49983  0.89650  0.74774  Biso   1.000  O
