data_image0
_cell_length_a       10.2488
_cell_length_b       10.3898
_cell_length_c       10.5774
_cell_angle_alpha    90.1123
_cell_angle_beta     79.4985
_cell_angle_gamma    90.037

_symmetry_space_group_name_H-M    "P 1"
_symmetry_int_tables_number       1

loop_
  _symmetry_equiv_pos_as_xyz
  'x, y, z'

loop_
  _atom_site_label
  _atom_site_occupancy
  _atom_site_fract_x
  _atom_site_fract_y
  _atom_site_fract_z
  _atom_site_thermal_displace_type
  _atom_site_B_iso_or_equiv
  _atom_site_type_symbol
  Zr1      1.0000 0.13158  0.02081  0.14207  Biso   1.000  Zr
  Zr2      1.0000 0.13959  0.22887  0.39039  Biso   1.000  Zr
  Zr3      1.0000 0.34712  0.27508  0.09360  Biso   1.000  Zr
  Zr4      1.0000 0.35687  0.48260  0.34780  Biso   1.000  Zr
  O1       1.0000 0.03103  0.16852  0.07651  Biso   1.000  O
  O2       1.0000 0.03049  0.08242  0.32870  Biso   1.000  O
  O3       1.0000 0.45708  0.43594  0.15549  Biso   1.000  O
  O4       1.0000 0.48820  0.35725  0.44734  Biso   1.000  O
  O5       1.0000 0.26500  0.11681  0.23205  Biso   1.000  O
  O6       1.0000 0.28541  0.12001  0.48408  Biso   1.000  O
  O7       1.0000 0.21620  0.38341  0.00188  Biso   1.000  O
  O8       1.0000 0.20575  0.37600  0.25064  Biso   1.000  O
  Zr5      1.0000 0.13970  0.02170  0.64360  Biso   1.000  Zr
  Zr6      1.0000 0.13418  0.22923  0.89129  Biso   1.000  Zr
  Zr7      1.0000 0.36445  0.27560  0.60916  Biso   1.000  Zr
  Zr8      1.0000 0.35986  0.48056  0.85526  Biso   1.000  Zr
  O9       1.0000 0.04241  0.17010  0.57772  Biso   1.000  O
  O10      1.0000 0.03281  0.08304  0.82624  Biso   1.000  O
  O11      1.0000 0.46947  0.41393  0.68290  Biso   1.000  O
  O12      1.0000 0.46283  0.33218  0.92108  Biso   1.000  O
  O13      1.0000 0.27499  0.12848  0.73741  Biso   1.000  O
  O14      1.0000 0.27019  0.12432  0.98432  Biso   1.000  O
  O15      1.0000 0.22979  0.37732  0.50654  Biso   1.000  O
  O16      1.0000 0.22485  0.37222  0.75701  Biso   1.000  O
  Zr9      1.0000 0.13566  0.52380  0.14288  Biso   1.000  Zr
  Zr10     1.0000 0.13565  0.72612  0.39635  Biso   1.000  Zr
  Zr11     1.0000 0.35931  0.77216  0.10294  Biso   1.000  Zr
  Zr12     1.0000 0.35558  0.96321  0.35571  Biso   1.000  Zr
  O17      1.0000 0.03122  0.67007  0.07732  Biso   1.000  O
  O18      1.0000 0.03163  0.58487  0.32701  Biso   1.000  O
  O19      1.0000 0.46417  0.91616  0.17296  Biso   1.000  O
  O20      1.0000 0.46223  0.82493  0.42295  Biso   1.000  O
  O21      1.0000 0.27277  0.62878  0.24027  Biso   1.000  O
  O22      1.0000 0.27272  0.62073  0.48978  Biso   1.000  O
  O23      1.0000 0.22336  0.88031  0.00844  Biso   1.000  O
  O24      1.0000 0.22008  0.86636  0.25882  Biso   1.000  O
  Zr13     1.0000 0.13965  0.52151  0.64444  Biso   1.000  Zr
  Zr14     1.0000 0.13637  0.72947  0.89534  Biso   1.000  Zr
  Zr15     1.0000 0.36126  0.76965  0.60639  Biso   1.000  Zr
  Zr16     1.0000 0.35978  0.97897  0.85352  Biso   1.000  Zr
  O25      1.0000 0.03145  0.66493  0.57917  Biso   1.000  O
  O26      1.0000 0.03383  0.58353  0.82832  Biso   1.000  O
  O27      1.0000 0.46588  0.91590  0.67179  Biso   1.000  O
  O28      1.0000 0.46459  0.83482  0.92116  Biso   1.000  O
  O29      1.0000 0.27520  0.62755  0.74010  Biso   1.000  O
  O30      1.0000 0.27385  0.62471  0.99036  Biso   1.000  O
  O31      1.0000 0.22198  0.87545  0.51125  Biso   1.000  O
  O32      1.0000 0.22388  0.87129  0.75942  Biso   1.000  O
  Zr17     1.0000 0.64042  0.01750  0.14727  Biso   1.000  Zr
  Zr18     1.0000 0.66405  0.23182  0.41200  Biso   1.000  Zr
  Zr19     1.0000 0.85795  0.27278  0.10767  Biso   1.000  Zr
  Zr20     1.0000 0.86251  0.48021  0.35457  Biso   1.000  Zr
  O33      1.0000 0.52902  0.16598  0.08339  Biso   1.000  O
  O34      1.0000 0.53864  0.06585  0.33979  Biso   1.000  O
  O35      1.0000 0.96078  0.42184  0.16838  Biso   1.000  O
  O36      1.0000 0.96472  0.33124  0.42079  Biso   1.000  O
  O37      1.0000 0.77617  0.12847  0.24512  Biso   1.000  O
  O38      1.0000 0.78799  0.11547  0.50041  Biso   1.000  O
  O39      1.0000 0.72104  0.37810  0.01379  Biso   1.000  O
  O40      1.0000 0.72413  0.37182  0.26471  Biso   1.000  O
  Zr21     1.0000 0.63942  0.02033  0.64912  Biso   1.000  Zr
  Zr22     1.0000 0.63731  0.22866  0.89923  Biso   1.000  Zr
  Zr23     1.0000 0.86726  0.27103  0.61009  Biso   1.000  Zr
  Zr24     1.0000 0.86033  0.47895  0.85690  Biso   1.000  Zr
  O41      1.0000 0.53951  0.16687  0.58116  Biso   1.000  O
  O42      1.0000 0.53286  0.08315  0.83066  Biso   1.000  O
  O43      1.0000 0.96864  0.41673  0.67377  Biso   1.000  O
  O44      1.0000 0.96122  0.33195  0.92121  Biso   1.000  O
  O45      1.0000 0.77519  0.12948  0.74549  Biso   1.000  O
  O46      1.0000 0.77233  0.12111  0.99396  Biso   1.000  O
  O47      1.0000 0.73301  0.38047  0.51757  Biso   1.000  O
  O48      1.0000 0.72576  0.37154  0.76465  Biso   1.000  O
  Zr25     1.0000 0.63499  0.52406  0.14508  Biso   1.000  Zr
  Zr26     1.0000 0.63829  0.72552  0.39681  Biso   1.000  Zr
  Zr27     1.0000 0.85794  0.77061  0.10501  Biso   1.000  Zr
  Zr28     1.0000 0.86009  0.97545  0.35603  Biso   1.000  Zr
  O49      1.0000 0.53576  0.67473  0.07944  Biso   1.000  O
  O50      1.0000 0.53107  0.58430  0.32643  Biso   1.000  O
  O51      1.0000 0.96103  0.91509  0.17298  Biso   1.000  O
  O52      1.0000 0.96437  0.83162  0.42307  Biso   1.000  O
  O53      1.0000 0.77386  0.62916  0.24161  Biso   1.000  O
  O54      1.0000 0.77425  0.62110  0.49117  Biso   1.000  O
  O55      1.0000 0.72348  0.87900  0.01039  Biso   1.000  O
  O56      1.0000 0.72087  0.87021  0.26095  Biso   1.000  O
  Zr29     1.0000 0.63922  0.52245  0.64941  Biso   1.000  Zr
  Zr30     1.0000 0.63720  0.72991  0.89670  Biso   1.000  Zr
  Zr31     1.0000 0.86059  0.77197  0.60547  Biso   1.000  Zr
  Zr32     1.0000 0.86033  0.97898  0.85524  Biso   1.000  Zr
  O57      1.0000 0.53257  0.66362  0.58028  Biso   1.000  O
  O58      1.0000 0.53278  0.58542  0.83134  Biso   1.000  O
  O59      1.0000 0.96560  0.91774  0.67138  Biso   1.000  O
  O60      1.0000 0.96447  0.83439  0.92153  Biso   1.000  O
  O61      1.0000 0.77475  0.62896  0.74135  Biso   1.000  O
  O62      1.0000 0.77370  0.62148  0.99072  Biso   1.000  O
  O63      1.0000 0.72198  0.87637  0.51169  Biso   1.000  O
  O64      1.0000 0.72472  0.87217  0.76142  Biso   1.000  O
  In1      1.0000 0.44287  0.23172  0.30144  Biso   1.000  In
