data_image0
_cell_length_a       5.0898
_cell_length_b       10.4515
_cell_length_c       10.2113
_cell_angle_alpha    89.5698
_cell_angle_beta     91.9017
_cell_angle_gamma    91.1344

_symmetry_space_group_name_H-M    "P 1"
_symmetry_int_tables_number       1

loop_
  _symmetry_equiv_pos_as_xyz
  'x, y, z'

loop_
  _atom_site_label
  _atom_site_occupancy
  _atom_site_fract_x
  _atom_site_fract_y
  _atom_site_fract_z
  _atom_site_thermal_displace_type
  _atom_site_B_iso_or_equiv
  _atom_site_type_symbol
  Zr1      1.0000 0.26801  0.98430  0.09668  Biso   1.000  Zr
  Zr2      1.0000 0.23994  0.22816  0.40821  Biso   1.000  Zr
  Zr3      1.0000 0.58736  0.25076  0.15226  Biso   1.000  Zr
  Zr4      1.0000 0.73532  0.48472  0.37814  Biso   1.000  Zr
  O1       1.0000 0.87745  0.18372  0.28475  Biso   1.000  O
  O2       1.0000 0.07210  0.05810  0.46528  Biso   1.000  O
  O3       1.0000 0.90862  0.43053  0.18488  Biso   1.000  O
  O4       1.0000 0.96256  0.34064  0.47324  Biso   1.000  O
  O5       1.0000 0.40803  0.10015  0.25847  Biso   1.000  O
  O6       1.0000 0.55713  0.13877  0.50479  Biso   1.000  O
  O7       1.0000 0.48764  0.38482  0.50537  Biso   1.000  O
  O8       1.0000 0.40012  0.37804  0.26799  Biso   1.000  O
  Zr5      1.0000 0.29746  0.01026  0.62714  Biso   1.000  Zr
  Zr6      1.0000 0.30604  0.22938  0.85856  Biso   1.000  Zr
  Zr7      1.0000 0.76340  0.27541  0.63843  Biso   1.000  Zr
  Zr8      1.0000 0.74039  0.48433  0.87402  Biso   1.000  Zr
  O9       1.0000 0.11903  0.18651  0.67454  Biso   1.000  O
  O10      1.0000 0.11309  0.05671  0.91526  Biso   1.000  O
  O11      1.0000 0.93035  0.45393  0.69029  Biso   1.000  O
  O12      1.0000 0.93949  0.30974  0.87931  Biso   1.000  O
  O13      1.0000 0.57499  0.11695  0.75120  Biso   1.000  O
  O14      1.0000 0.57426  0.11513  0.00362  Biso   1.000  O
  O15      1.0000 0.47294  0.38186  0.99968  Biso   1.000  O
  O16      1.0000 0.46984  0.37226  0.74677  Biso   1.000  O
  Zr9      1.0000 0.26740  0.52686  0.12874  Biso   1.000  Zr
  Zr10     1.0000 0.27694  0.74247  0.37646  Biso   1.000  Zr
  Zr11     1.0000 0.74558  0.76350  0.12807  Biso   1.000  Zr
  Zr12     1.0000 0.74110  0.00157  0.36302  Biso   1.000  Zr
  O17      1.0000 0.08376  0.68483  0.19677  Biso   1.000  O
  O18      1.0000 0.07191  0.57699  0.44069  Biso   1.000  O
  O19      1.0000 0.93282  0.94246  0.19079  Biso   1.000  O
  O20      1.0000 0.93966  0.82167  0.43807  Biso   1.000  O
  O21      1.0000 0.55311  0.61932  0.24918  Biso   1.000  O
  O22      1.0000 0.54351  0.63523  0.49605  Biso   1.000  O
  O23      1.0000 0.48013  0.88880  0.49325  Biso   1.000  O
  O24      1.0000 0.47678  0.86192  0.23950  Biso   1.000  O
  Zr13     1.0000 0.27167  0.51491  0.61759  Biso   1.000  Zr
  Zr14     1.0000 0.28684  0.72982  0.86814  Biso   1.000  Zr
  Zr15     1.0000 0.75620  0.76772  0.61563  Biso   1.000  Zr
  Zr16     1.0000 0.76051  0.97764  0.86976  Biso   1.000  Zr
  O25      1.0000 0.08906  0.68743  0.69105  Biso   1.000  O
  O26      1.0000 0.07611  0.56956  0.94758  Biso   1.000  O
  O27      1.0000 0.95928  0.92818  0.69838  Biso   1.000  O
  O28      1.0000 0.99139  0.82483  0.96572  Biso   1.000  O
  O29      1.0000 0.54843  0.61614  0.74832  Biso   1.000  O
  O30      1.0000 0.54823  0.63082  0.00014  Biso   1.000  O
  O31      1.0000 0.50389  0.86993  0.98857  Biso   1.000  O
  O32      1.0000 0.49507  0.86293  0.74406  Biso   1.000  O
  In1      1.0000 0.06297  0.24838  0.09336  Biso   1.000  In
