data_image0
_cell_length_a       10.1231
_cell_length_b       10.2973
_cell_length_c       10.5168
_cell_angle_alpha    89.9491
_cell_angle_beta     90.0649
_cell_angle_gamma    89.9894

_symmetry_space_group_name_H-M    "P 1"
_symmetry_int_tables_number       1

loop_
  _symmetry_equiv_pos_as_xyz
  'x, y, z'

loop_
  _atom_site_label
  _atom_site_occupancy
  _atom_site_fract_x
  _atom_site_fract_y
  _atom_site_fract_z
  _atom_site_thermal_displace_type
  _atom_site_B_iso_or_equiv
  _atom_site_type_symbol
  In1      1.0000 0.13697  0.01658  0.17197  Biso   1.000  In
  Zr1      1.0000 0.13910  0.02110  0.67116  Biso   1.000  Zr
  Zr2      1.0000 0.13925  0.52103  0.17136  Biso   1.000  Zr
  Zr3      1.0000 0.13909  0.52105  0.67165  Biso   1.000  Zr
  Zr4      1.0000 0.13877  0.22803  0.42075  Biso   1.000  Zr
  Zr5      1.0000 0.13965  0.22808  0.92221  Biso   1.000  Zr
  Zr6      1.0000 0.13943  0.72958  0.42085  Biso   1.000  Zr
  Zr7      1.0000 0.13987  0.72970  0.92175  Biso   1.000  Zr
  Zr8      1.0000 0.35858  0.26853  0.17143  Biso   1.000  Zr
  Zr9      1.0000 0.36062  0.27096  0.67158  Biso   1.000  Zr
  Zr10     1.0000 0.36109  0.77144  0.17106  Biso   1.000  Zr
  Zr11     1.0000 0.36092  0.77125  0.67124  Biso   1.000  Zr
  Zr12     1.0000 0.36060  0.47862  0.42118  Biso   1.000  Zr
  Zr13     1.0000 0.36072  0.47861  0.92210  Biso   1.000  Zr
  Zr14     1.0000 0.36035  0.97984  0.42054  Biso   1.000  Zr
  Zr15     1.0000 0.36080  0.97974  0.92162  Biso   1.000  Zr
  Zr16     1.0000 0.63944  0.02095  0.07876  Biso   1.000  Zr
  Zr17     1.0000 0.63885  0.02111  0.57867  Biso   1.000  Zr
  Zr18     1.0000 0.63881  0.51984  0.07842  Biso   1.000  Zr
  Zr19     1.0000 0.63898  0.52098  0.57817  Biso   1.000  Zr
  Zr20     1.0000 0.63859  0.22959  0.32814  Biso   1.000  Zr
  Zr21     1.0000 0.63940  0.22913  0.82872  Biso   1.000  Zr
  Zr22     1.0000 0.63886  0.72934  0.32815  Biso   1.000  Zr
  Zr23     1.0000 0.63897  0.72897  0.82843  Biso   1.000  Zr
  Zr24     1.0000 0.86326  0.26975  0.07857  Biso   1.000  Zr
  Zr25     1.0000 0.86104  0.27132  0.57835  Biso   1.000  Zr
  Zr26     1.0000 0.86062  0.77099  0.07877  Biso   1.000  Zr
  Zr27     1.0000 0.86129  0.77096  0.57853  Biso   1.000  Zr
  Zr28     1.0000 0.86106  0.47941  0.32829  Biso   1.000  Zr
  Zr29     1.0000 0.86123  0.47904  0.82870  Biso   1.000  Zr
  Zr30     1.0000 0.86018  0.97959  0.32901  Biso   1.000  Zr
  Zr31     1.0000 0.86134  0.97903  0.82889  Biso   1.000  Zr
  O1       1.0000 0.03273  0.16789  0.08135  Biso   1.000  O
  O2       1.0000 0.03250  0.16651  0.58539  Biso   1.000  O
  O3       1.0000 0.03224  0.66408  0.08240  Biso   1.000  O
  O4       1.0000 0.03222  0.66462  0.58341  Biso   1.000  O
  O5       1.0000 0.02788  0.08706  0.34034  Biso   1.000  O
  O6       1.0000 0.03226  0.08509  0.83269  Biso   1.000  O
  O7       1.0000 0.03194  0.58640  0.33283  Biso   1.000  O
  O8       1.0000 0.03214  0.58538  0.83292  Biso   1.000  O
  O9       1.0000 0.46829  0.41236  0.08234  Biso   1.000  O
  O10      1.0000 0.46859  0.41351  0.58243  Biso   1.000  O
  O11      1.0000 0.46980  0.91334  0.08209  Biso   1.000  O
  O12      1.0000 0.46840  0.91391  0.58287  Biso   1.000  O
  O13      1.0000 0.46836  0.33680  0.33244  Biso   1.000  O
  O14      1.0000 0.46873  0.33645  0.83220  Biso   1.000  O
  O15      1.0000 0.46895  0.83665  0.33249  Biso   1.000  O
  O16      1.0000 0.46858  0.83613  0.83215  Biso   1.000  O
  O17      1.0000 0.27896  0.12596  0.29908  Biso   1.000  O
  O18      1.0000 0.27520  0.12416  0.79421  Biso   1.000  O
  O19      1.0000 0.27569  0.62330  0.29519  Biso   1.000  O
  O20      1.0000 0.27532  0.62459  0.79544  Biso   1.000  O
  O21      1.0000 0.28052  0.12906  0.04117  Biso   1.000  O
  O22      1.0000 0.27515  0.12554  0.54607  Biso   1.000  O
  O23      1.0000 0.27558  0.62469  0.04556  Biso   1.000  O
  O24      1.0000 0.27531  0.62585  0.54527  Biso   1.000  O
  O25      1.0000 0.22396  0.37416  0.29540  Biso   1.000  O
  O26      1.0000 0.22541  0.37457  0.79541  Biso   1.000  O
  O27      1.0000 0.22677  0.87122  0.29612  Biso   1.000  O
  O28      1.0000 0.22500  0.87441  0.79406  Biso   1.000  O
  O29      1.0000 0.22415  0.37682  0.04549  Biso   1.000  O
  O30      1.0000 0.22507  0.37610  0.54567  Biso   1.000  O
  O31      1.0000 0.22882  0.87240  0.04199  Biso   1.000  O
  O32      1.0000 0.22478  0.87590  0.54514  Biso   1.000  O
  O33      1.0000 0.53206  0.16394  0.16725  Biso   1.000  O
  O34      1.0000 0.53176  0.16407  0.66729  Biso   1.000  O
  O35      1.0000 0.53142  0.66238  0.16788  Biso   1.000  O
  O36      1.0000 0.53158  0.66343  0.66753  Biso   1.000  O
  O37      1.0000 0.53221  0.08605  0.41742  Biso   1.000  O
  O38      1.0000 0.53287  0.08587  0.91670  Biso   1.000  O
  O39      1.0000 0.53125  0.58652  0.41784  Biso   1.000  O
  O40      1.0000 0.53108  0.58638  0.91775  Biso   1.000  O
  O41      1.0000 0.96742  0.41579  0.16688  Biso   1.000  O
  O42      1.0000 0.96783  0.41512  0.66671  Biso   1.000  O
  O43      1.0000 0.96007  0.91267  0.16708  Biso   1.000  O
  O44      1.0000 0.96768  0.91483  0.66649  Biso   1.000  O
  O45      1.0000 0.96786  0.33726  0.41768  Biso   1.000  O
  O46      1.0000 0.96809  0.33593  0.91619  Biso   1.000  O
  O47      1.0000 0.96777  0.83511  0.41725  Biso   1.000  O
  O48      1.0000 0.96807  0.83505  0.91616  Biso   1.000  O
  O49      1.0000 0.77566  0.12405  0.95462  Biso   1.000  O
  O50      1.0000 0.77414  0.12540  0.45558  Biso   1.000  O
  O51      1.0000 0.77435  0.62323  0.95390  Biso   1.000  O
  O52      1.0000 0.77507  0.62457  0.45451  Biso   1.000  O
  O53      1.0000 0.77464  0.12602  0.20510  Biso   1.000  O
  O54      1.0000 0.77524  0.12580  0.70497  Biso   1.000  O
  O55      1.0000 0.77485  0.62575  0.20441  Biso   1.000  O
  O56      1.0000 0.77505  0.62576  0.70428  Biso   1.000  O
  O57      1.0000 0.72477  0.37388  0.95442  Biso   1.000  O
  O58      1.0000 0.72446  0.37509  0.45447  Biso   1.000  O
  O59      1.0000 0.72480  0.87410  0.95441  Biso   1.000  O
  O60      1.0000 0.72469  0.87447  0.45533  Biso   1.000  O
  O61      1.0000 0.72505  0.37575  0.20484  Biso   1.000  O
  O62      1.0000 0.72498  0.37571  0.70439  Biso   1.000  O
  O63      1.0000 0.72119  0.87539  0.20512  Biso   1.000  O
  O64      1.0000 0.72499  0.87558  0.70489  Biso   1.000  O
