data_image0
_cell_length_a       10.1277
_cell_length_b       10.3566
_cell_length_c       10.5735
_cell_angle_alpha    89.8372
_cell_angle_beta     91.0372
_cell_angle_gamma    90.0494

_symmetry_space_group_name_H-M    "P 1"
_symmetry_int_tables_number       1

loop_
  _symmetry_equiv_pos_as_xyz
  'x, y, z'

loop_
  _atom_site_label
  _atom_site_occupancy
  _atom_site_fract_x
  _atom_site_fract_y
  _atom_site_fract_z
  _atom_site_thermal_displace_type
  _atom_site_B_iso_or_equiv
  _atom_site_type_symbol
  Zr1      1.0000 0.13591  0.01958  0.17205  Biso   1.000  Zr
  Zr2      1.0000 0.13531  0.22703  0.42735  Biso   1.000  Zr
  Zr3      1.0000 0.33900  0.26926  0.18955  Biso   1.000  Zr
  Zr4      1.0000 0.36076  0.48004  0.42508  Biso   1.000  Zr
  Zr5      1.0000 0.64379  0.01606  0.07124  Biso   1.000  Zr
  Zr6      1.0000 0.63514  0.22610  0.33392  Biso   1.000  Zr
  Zr7      1.0000 0.85968  0.27009  0.07438  Biso   1.000  Zr
  Zr8      1.0000 0.86014  0.47791  0.32731  Biso   1.000  Zr
  O1       1.0000 0.03381  0.16717  0.08532  Biso   1.000  O
  O2       1.0000 0.02895  0.08559  0.33362  Biso   1.000  O
  O3       1.0000 0.46424  0.43207  0.09578  Biso   1.000  O
  O4       1.0000 0.46255  0.33517  0.33728  Biso   1.000  O
  O5       1.0000 0.26662  0.12332  0.30233  Biso   1.000  O
  O6       1.0000 0.27380  0.12222  0.04905  Biso   1.000  O
  O7       1.0000 0.21398  0.37725  0.30489  Biso   1.000  O
  O8       1.0000 0.22036  0.37756  0.05092  Biso   1.000  O
  O9       1.0000 0.51119  0.14556  0.19308  Biso   1.000  O
  O10      1.0000 0.52904  0.08742  0.42691  Biso   1.000  O
  O11      1.0000 0.96274  0.41534  0.16713  Biso   1.000  O
  O12      1.0000 0.96631  0.33536  0.41806  Biso   1.000  O
  O13      1.0000 0.77439  0.12425  0.45288  Biso   1.000  O
  O14      1.0000 0.77020  0.12677  0.20360  Biso   1.000  O
  O15      1.0000 0.72392  0.37484  0.45331  Biso   1.000  O
  O16      1.0000 0.71646  0.37696  0.20266  Biso   1.000  O
  Zr9      1.0000 0.14209  0.02060  0.67347  Biso   1.000  Zr
  Zr10     1.0000 0.14081  0.22838  0.92341  Biso   1.000  Zr
  Zr11     1.0000 0.36439  0.27098  0.67534  Biso   1.000  Zr
  Zr12     1.0000 0.35931  0.48307  0.92401  Biso   1.000  Zr
  Zr13     1.0000 0.64060  0.01857  0.57870  Biso   1.000  Zr
  Zr14     1.0000 0.65385  0.22392  0.81481  Biso   1.000  Zr
  Zr15     1.0000 0.86341  0.27204  0.57663  Biso   1.000  Zr
  Zr16     1.0000 0.86782  0.48190  0.82645  Biso   1.000  Zr
  O17      1.0000 0.03291  0.16389  0.58480  Biso   1.000  O
  O18      1.0000 0.03946  0.08228  0.83334  Biso   1.000  O
  O19      1.0000 0.46990  0.41514  0.58525  Biso   1.000  O
  O20      1.0000 0.47507  0.33572  0.83725  Biso   1.000  O
  O21      1.0000 0.28001  0.12529  0.79756  Biso   1.000  O
  O22      1.0000 0.27670  0.12497  0.54945  Biso   1.000  O
  O23      1.0000 0.22936  0.37435  0.79871  Biso   1.000  O
  O24      1.0000 0.22667  0.37453  0.55028  Biso   1.000  O
  O25      1.0000 0.53628  0.16537  0.66540  Biso   1.000  O
  O26      1.0000 0.53881  0.06572  0.90015  Biso   1.000  O
  O27      1.0000 0.97144  0.41451  0.66661  Biso   1.000  O
  O28      1.0000 0.97092  0.33282  0.91475  Biso   1.000  O
  O29      1.0000 0.79292  0.11807  0.94440  Biso   1.000  O
  O30      1.0000 0.78393  0.12144  0.69702  Biso   1.000  O
  O31      1.0000 0.73794  0.39065  0.94870  Biso   1.000  O
  O32      1.0000 0.72994  0.37391  0.70042  Biso   1.000  O
  Zr17     1.0000 0.13628  0.52212  0.17254  Biso   1.000  Zr
  Zr18     1.0000 0.13751  0.72856  0.42130  Biso   1.000  Zr
  Zr19     1.0000 0.36107  0.77352  0.17403  Biso   1.000  Zr
  Zr20     1.0000 0.36080  0.97760  0.42598  Biso   1.000  Zr
  Zr21     1.0000 0.64512  0.53627  0.07834  Biso   1.000  Zr
  Zr22     1.0000 0.63908  0.73131  0.32985  Biso   1.000  Zr
  Zr23     1.0000 0.86449  0.77248  0.07899  Biso   1.000  Zr
  Zr24     1.0000 0.85992  0.98039  0.32834  Biso   1.000  Zr
  O33      1.0000 0.03404  0.66579  0.08345  Biso   1.000  O
  O34      1.0000 0.03037  0.58526  0.33343  Biso   1.000  O
  O35      1.0000 0.47018  0.91343  0.08180  Biso   1.000  O
  O36      1.0000 0.46857  0.83795  0.33474  Biso   1.000  O
  O37      1.0000 0.27395  0.62531  0.29624  Biso   1.000  O
  O38      1.0000 0.27639  0.62598  0.04616  Biso   1.000  O
  O39      1.0000 0.22423  0.87462  0.29725  Biso   1.000  O
  O40      1.0000 0.22468  0.87459  0.04805  Biso   1.000  O
  O41      1.0000 0.53427  0.67132  0.16835  Biso   1.000  O
  O42      1.0000 0.53136  0.58687  0.41740  Biso   1.000  O
  O43      1.0000 0.96576  0.91774  0.16639  Biso   1.000  O
  O44      1.0000 0.96654  0.83428  0.41567  Biso   1.000  O
  O45      1.0000 0.77563  0.62428  0.45364  Biso   1.000  O
  O46      1.0000 0.77844  0.62930  0.20536  Biso   1.000  O
  O47      1.0000 0.72541  0.87542  0.45534  Biso   1.000  O
  O48      1.0000 0.72593  0.87532  0.20466  Biso   1.000  O
  Zr25     1.0000 0.14144  0.52012  0.67183  Biso   1.000  Zr
  Zr26     1.0000 0.14186  0.72980  0.92246  Biso   1.000  Zr
  Zr27     1.0000 0.36275  0.76944  0.67271  Biso   1.000  Zr
  Zr28     1.0000 0.36346  0.97678  0.92174  Biso   1.000  Zr
  Zr29     1.0000 0.64025  0.52159  0.57705  Biso   1.000  Zr
  Zr30     1.0000 0.64019  0.72891  0.82617  Biso   1.000  Zr
  Zr31     1.0000 0.86409  0.77033  0.57803  Biso   1.000  Zr
  Zr32     1.0000 0.86777  0.97551  0.82708  Biso   1.000  Zr
  O49      1.0000 0.03415  0.66395  0.58287  Biso   1.000  O
  O50      1.0000 0.03833  0.58498  0.83403  Biso   1.000  O
  O51      1.0000 0.46984  0.91189  0.58509  Biso   1.000  O
  O52      1.0000 0.46688  0.82845  0.83424  Biso   1.000  O
  O53      1.0000 0.27804  0.62402  0.79595  Biso   1.000  O
  O54      1.0000 0.27526  0.62466  0.54613  Biso   1.000  O
  O55      1.0000 0.22669  0.87351  0.79648  Biso   1.000  O
  O56      1.0000 0.22576  0.87484  0.54654  Biso   1.000  O
  O57      1.0000 0.53361  0.66327  0.66644  Biso   1.000  O
  O58      1.0000 0.53354  0.58646  0.91823  Biso   1.000  O
  O59      1.0000 0.97230  0.91268  0.66545  Biso   1.000  O
  O60      1.0000 0.97160  0.83439  0.91833  Biso   1.000  O
  O61      1.0000 0.77909  0.63127  0.95235  Biso   1.000  O
  O62      1.0000 0.77757  0.62462  0.70269  Biso   1.000  O
  O63      1.0000 0.72865  0.87421  0.95470  Biso   1.000  O
  O64      1.0000 0.72845  0.87299  0.70472  Biso   1.000  O
  In1      1.0000 0.55678  0.26651  0.03690  Biso   1.000  In
