data_image0
_cell_length_a       10.3079
_cell_length_b       5.21943
_cell_length_c       10.6433
_cell_angle_alpha    90.1163
_cell_angle_beta     78.6323
_cell_angle_gamma    90.0657

_symmetry_space_group_name_H-M    "P 1"
_symmetry_int_tables_number       1

loop_
  _symmetry_equiv_pos_as_xyz
  'x, y, z'

loop_
  _atom_site_label
  _atom_site_occupancy
  _atom_site_fract_x
  _atom_site_fract_y
  _atom_site_fract_z
  _atom_site_thermal_displace_type
  _atom_site_B_iso_or_equiv
  _atom_site_type_symbol
  Zr1      1.0000 0.12952  0.04664  0.14078  Biso   1.000  Zr
  Zr2      1.0000 0.13873  0.45547  0.39185  Biso   1.000  Zr
  Zr3      1.0000 0.34483  0.55402  0.09196  Biso   1.000  Zr
  Zr4      1.0000 0.34848  0.93521  0.34792  Biso   1.000  Zr
  O1       1.0000 0.02773  0.34050  0.07531  Biso   1.000  O
  O2       1.0000 0.02837  0.17309  0.32679  Biso   1.000  O
  O3       1.0000 0.45691  0.86764  0.15574  Biso   1.000  O
  O4       1.0000 0.48279  0.69681  0.44962  Biso   1.000  O
  O5       1.0000 0.26338  0.23445  0.23304  Biso   1.000  O
  O6       1.0000 0.27967  0.23772  0.48556  Biso   1.000  O
  O7       1.0000 0.21559  0.76930  0.00072  Biso   1.000  O
  O8       1.0000 0.20274  0.74533  0.24892  Biso   1.000  O
  Zr5      1.0000 0.14075  0.04409  0.64289  Biso   1.000  Zr
  Zr6      1.0000 0.13190  0.45955  0.89181  Biso   1.000  Zr
  Zr7      1.0000 0.36424  0.54772  0.61047  Biso   1.000  Zr
  Zr8      1.0000 0.35863  0.96230  0.85363  Biso   1.000  Zr
  O9       1.0000 0.03771  0.33272  0.57751  Biso   1.000  O
  O10      1.0000 0.03129  0.17003  0.82573  Biso   1.000  O
  O11      1.0000 0.47027  0.82597  0.68301  Biso   1.000  O
  O12      1.0000 0.46204  0.66864  0.92069  Biso   1.000  O
  O13      1.0000 0.27395  0.25409  0.73826  Biso   1.000  O
  O14      1.0000 0.26814  0.25512  0.98519  Biso   1.000  O
  O15      1.0000 0.22485  0.74821  0.50850  Biso   1.000  O
  O16      1.0000 0.22446  0.74436  0.75667  Biso   1.000  O
  Zr9      1.0000 0.63785  0.03548  0.14751  Biso   1.000  Zr
  Zr10     1.0000 0.65995  0.46221  0.41376  Biso   1.000  Zr
  Zr11     1.0000 0.85549  0.54333  0.10916  Biso   1.000  Zr
  Zr12     1.0000 0.86227  0.95711  0.35695  Biso   1.000  Zr
  O17      1.0000 0.52927  0.34425  0.08305  Biso   1.000  O
  O18      1.0000 0.53373  0.12574  0.33646  Biso   1.000  O
  O19      1.0000 0.95833  0.83811  0.17120  Biso   1.000  O
  O20      1.0000 0.96530  0.66506  0.42418  Biso   1.000  O
  O21      1.0000 0.77425  0.25901  0.24773  Biso   1.000  O
  O22      1.0000 0.78464  0.23511  0.50141  Biso   1.000  O
  O23      1.0000 0.72041  0.75386  0.01511  Biso   1.000  O
  O24      1.0000 0.72359  0.74493  0.26630  Biso   1.000  O
  Zr13     1.0000 0.64025  0.04379  0.65397  Biso   1.000  Zr
  Zr14     1.0000 0.63583  0.45948  0.90075  Biso   1.000  Zr
  Zr15     1.0000 0.86716  0.54428  0.61079  Biso   1.000  Zr
  Zr16     1.0000 0.85974  0.95843  0.85791  Biso   1.000  Zr
  O25      1.0000 0.53641  0.32381  0.58299  Biso   1.000  O
  O26      1.0000 0.53113  0.17247  0.83324  Biso   1.000  O
  O27      1.0000 0.96866  0.83351  0.67484  Biso   1.000  O
  O28      1.0000 0.96079  0.66893  0.92273  Biso   1.000  O
  O29      1.0000 0.77434  0.26024  0.74704  Biso   1.000  O
  O30      1.0000 0.77008  0.24066  0.99539  Biso   1.000  O
  O31      1.0000 0.73049  0.75586  0.51964  Biso   1.000  O
  O32      1.0000 0.72608  0.74553  0.76680  Biso   1.000  O
  In1      1.0000 0.44831  0.46001  0.29353  Biso   1.000  In
