data_image0
_cell_length_a       10.089
_cell_length_b       10.458
_cell_length_c       10.1514
_cell_angle_alpha    89.6185
_cell_angle_beta     89.8573
_cell_angle_gamma    90.5683

_symmetry_space_group_name_H-M    "P 1"
_symmetry_int_tables_number       1

loop_
  _symmetry_equiv_pos_as_xyz
  'x, y, z'

loop_
  _atom_site_label
  _atom_site_occupancy
  _atom_site_fract_x
  _atom_site_fract_y
  _atom_site_fract_z
  _atom_site_thermal_displace_type
  _atom_site_B_iso_or_equiv
  _atom_site_type_symbol
  Zr1      1.0000 0.14611  0.99956  0.10812  Biso   1.000  Zr
  Zr2      1.0000 0.13001  0.22973  0.40581  Biso   1.000  Zr
  Zr3      1.0000 0.36861  0.26410  0.12028  Biso   1.000  Zr
  Zr4      1.0000 0.36892  0.48530  0.37465  Biso   1.000  Zr
  O1       1.0000 0.96669  0.18560  0.28121  Biso   1.000  O
  O2       1.0000 0.03965  0.06051  0.46664  Biso   1.000  O
  O3       1.0000 0.45752  0.43486  0.19325  Biso   1.000  O
  O4       1.0000 0.46709  0.31977  0.44738  Biso   1.000  O
  O5       1.0000 0.24826  0.11226  0.25406  Biso   1.000  O
  O6       1.0000 0.27715  0.13065  0.50462  Biso   1.000  O
  O7       1.0000 0.23888  0.38413  0.50181  Biso   1.000  O
  O8       1.0000 0.21680  0.36560  0.25225  Biso   1.000  O
  Zr5      1.0000 0.14046  0.01009  0.63319  Biso   1.000  Zr
  Zr6      1.0000 0.13725  0.22799  0.86674  Biso   1.000  Zr
  Zr7      1.0000 0.37228  0.26694  0.62820  Biso   1.000  Zr
  Zr8      1.0000 0.36748  0.48549  0.87208  Biso   1.000  Zr
  O9       1.0000 0.04067  0.18291  0.69029  Biso   1.000  O
  O10      1.0000 0.04932  0.05224  0.92475  Biso   1.000  O
  O11      1.0000 0.46992  0.43300  0.69717  Biso   1.000  O
  O12      1.0000 0.46404  0.31425  0.94127  Biso   1.000  O
  O13      1.0000 0.27556  0.11589  0.74872  Biso   1.000  O
  O14      1.0000 0.29018  0.11974  0.99268  Biso   1.000  O
  O15      1.0000 0.23138  0.38997  0.99691  Biso   1.000  O
  O16      1.0000 0.23389  0.36454  0.74733  Biso   1.000  O
  Zr9      1.0000 0.13502  0.53223  0.12368  Biso   1.000  Zr
  Zr10     1.0000 0.13489  0.73801  0.37680  Biso   1.000  Zr
  Zr11     1.0000 0.37096  0.76254  0.12373  Biso   1.000  Zr
  Zr12     1.0000 0.36514  0.98680  0.37292  Biso   1.000  Zr
  O17      1.0000 0.03585  0.68805  0.19447  Biso   1.000  O
  O18      1.0000 0.03466  0.57218  0.43989  Biso   1.000  O
  O19      1.0000 0.46104  0.93335  0.19380  Biso   1.000  O
  O20      1.0000 0.46808  0.81816  0.44196  Biso   1.000  O
  O21      1.0000 0.27198  0.61886  0.24768  Biso   1.000  O
  O22      1.0000 0.26968  0.63334  0.49590  Biso   1.000  O
  O23      1.0000 0.23428  0.88348  0.49707  Biso   1.000  O
  O24      1.0000 0.23330  0.86273  0.24413  Biso   1.000  O
  Zr13     1.0000 0.13027  0.51176  0.61996  Biso   1.000  Zr
  Zr14     1.0000 0.13252  0.73159  0.86703  Biso   1.000  Zr
  Zr15     1.0000 0.37178  0.76216  0.61956  Biso   1.000  Zr
  Zr16     1.0000 0.37508  0.97916  0.86946  Biso   1.000  Zr
  O25      1.0000 0.03778  0.68396  0.68710  Biso   1.000  O
  O26      1.0000 0.03427  0.56904  0.94626  Biso   1.000  O
  O27      1.0000 0.47243  0.93021  0.69145  Biso   1.000  O
  O28      1.0000 0.47531  0.81777  0.94933  Biso   1.000  O
  O29      1.0000 0.26731  0.61160  0.74478  Biso   1.000  O
  O30      1.0000 0.26941  0.63517  0.99525  Biso   1.000  O
  O31      1.0000 0.23886  0.87373  0.99101  Biso   1.000  O
  O32      1.0000 0.23976  0.86137  0.74517  Biso   1.000  O
  Zr17     1.0000 0.62833  0.00891  0.11843  Biso   1.000  Zr
  Zr18     1.0000 0.62937  0.23201  0.37992  Biso   1.000  Zr
  Zr19     1.0000 0.82711  0.26228  0.12640  Biso   1.000  Zr
  Zr20     1.0000 0.86720  0.48379  0.37389  Biso   1.000  Zr
  O33      1.0000 0.52287  0.17924  0.19877  Biso   1.000  O
  O34      1.0000 0.53337  0.06671  0.44771  Biso   1.000  O
  O35      1.0000 0.95974  0.43122  0.18630  Biso   1.000  O
  O36      1.0000 0.98016  0.33818  0.47368  Biso   1.000  O
  O37      1.0000 0.74412  0.11189  0.24696  Biso   1.000  O
  O38      1.0000 0.77354  0.14018  0.49612  Biso   1.000  O
  O39      1.0000 0.73468  0.38431  0.49981  Biso   1.000  O
  O40      1.0000 0.71706  0.37420  0.25395  Biso   1.000  O
  Zr21     1.0000 0.64082  0.01438  0.62121  Biso   1.000  Zr
  Zr22     1.0000 0.63273  0.23236  0.87042  Biso   1.000  Zr
  Zr23     1.0000 0.86807  0.27023  0.63173  Biso   1.000  Zr
  Zr24     1.0000 0.86590  0.48201  0.87864  Biso   1.000  Zr
  O41      1.0000 0.54055  0.18261  0.69168  Biso   1.000  O
  O42      1.0000 0.54186  0.06410  0.93857  Biso   1.000  O
  O43      1.0000 0.96582  0.43832  0.70379  Biso   1.000  O
  O44      1.0000 0.95279  0.31109  0.92702  Biso   1.000  O
  O45      1.0000 0.77330  0.11556  0.74681  Biso   1.000  O
  O46      1.0000 0.77108  0.12714  0.99499  Biso   1.000  O
  O47      1.0000 0.71887  0.38249  0.99982  Biso   1.000  O
  O48      1.0000 0.72967  0.36891  0.74906  Biso   1.000  O
  Zr25     1.0000 0.63043  0.52025  0.12770  Biso   1.000  Zr
  Zr26     1.0000 0.63925  0.73905  0.37523  Biso   1.000  Zr
  Zr27     1.0000 0.86564  0.76744  0.12398  Biso   1.000  Zr
  Zr28     1.0000 0.87834  0.00187  0.36238  Biso   1.000  Zr
  O49      1.0000 0.53744  0.68498  0.19805  Biso   1.000  O
  O50      1.0000 0.53467  0.56940  0.44613  Biso   1.000  O
  O51      1.0000 0.96791  0.94379  0.18321  Biso   1.000  O
  O52      1.0000 0.96700  0.82300  0.43720  Biso   1.000  O
  O53      1.0000 0.77129  0.61940  0.24925  Biso   1.000  O
  O54      1.0000 0.77062  0.63458  0.49693  Biso   1.000  O
  O55      1.0000 0.73670  0.88887  0.49392  Biso   1.000  O
  O56      1.0000 0.73464  0.86798  0.24482  Biso   1.000  O
  Zr29     1.0000 0.63768  0.51650  0.62436  Biso   1.000  Zr
  Zr30     1.0000 0.63867  0.73241  0.87319  Biso   1.000  Zr
  Zr31     1.0000 0.86977  0.76865  0.61829  Biso   1.000  Zr
  Zr32     1.0000 0.86986  0.98130  0.87181  Biso   1.000  Zr
  O57      1.0000 0.53614  0.68120  0.69645  Biso   1.000  O
  O58      1.0000 0.53263  0.56907  0.94862  Biso   1.000  O
  O59      1.0000 0.97030  0.92761  0.69756  Biso   1.000  O
  O60      1.0000 0.96884  0.81408  0.94577  Biso   1.000  O
  O61      1.0000 0.77160  0.61681  0.74807  Biso   1.000  O
  O62      1.0000 0.76870  0.63224  0.00059  Biso   1.000  O
  O63      1.0000 0.73476  0.87969  0.99595  Biso   1.000  O
  O64      1.0000 0.73536  0.86560  0.74528  Biso   1.000  O
  In1      1.0000 0.08545  0.25764  0.12571  Biso   1.000  In
