data_image0
_cell_length_a       10.0689
_cell_length_b       10.4181
_cell_length_c       5.04553
_cell_angle_alpha    90.1049
_cell_angle_beta     89.9992
_cell_angle_gamma    90.0475

_symmetry_space_group_name_H-M    "P 1"
_symmetry_int_tables_number       1

loop_
  _symmetry_equiv_pos_as_xyz
  'x, y, z'

loop_
  _atom_site_label
  _atom_site_occupancy
  _atom_site_fract_x
  _atom_site_fract_y
  _atom_site_fract_z
  _atom_site_thermal_displace_type
  _atom_site_B_iso_or_equiv
  _atom_site_type_symbol
  In1      1.0000 0.13036  0.01530  0.24471  Biso   1.000  In
  Zr1      1.0000 0.13444  0.51556  0.25197  Biso   1.000  Zr
  Zr2      1.0000 0.63336  0.01507  0.24878  Biso   1.000  Zr
  Zr3      1.0000 0.63414  0.51533  0.25211  Biso   1.000  Zr
  Zr4      1.0000 0.13426  0.23358  0.75004  Biso   1.000  Zr
  Zr5      1.0000 0.13545  0.73587  0.75446  Biso   1.000  Zr
  Zr6      1.0000 0.63375  0.23357  0.74974  Biso   1.000  Zr
  Zr7      1.0000 0.63402  0.73445  0.75183  Biso   1.000  Zr
  Zr8      1.0000 0.36514  0.26521  0.25258  Biso   1.000  Zr
  Zr9      1.0000 0.36585  0.76547  0.25316  Biso   1.000  Zr
  Zr10     1.0000 0.86512  0.26517  0.25014  Biso   1.000  Zr
  Zr11     1.0000 0.86634  0.76587  0.25151  Biso   1.000  Zr
  Zr12     1.0000 0.36534  0.48414  0.75195  Biso   1.000  Zr
  Zr13     1.0000 0.36373  0.98376  0.75116  Biso   1.000  Zr
  Zr14     1.0000 0.86588  0.48474  0.75277  Biso   1.000  Zr
  Zr15     1.0000 0.86574  0.98385  0.74843  Biso   1.000  Zr
  O1       1.0000 0.03192  0.18823  0.39573  Biso   1.000  O
  O2       1.0000 0.03500  0.68271  0.39228  Biso   1.000  O
  O3       1.0000 0.53616  0.18433  0.38609  Biso   1.000  O
  O4       1.0000 0.53497  0.68204  0.39317  Biso   1.000  O
  O5       1.0000 0.03229  0.06923  0.87486  Biso   1.000  O
  O6       1.0000 0.03450  0.56702  0.89304  Biso   1.000  O
  O7       1.0000 0.53586  0.06589  0.88649  Biso   1.000  O
  O8       1.0000 0.53428  0.56660  0.89258  Biso   1.000  O
  O9       1.0000 0.46556  0.43298  0.39191  Biso   1.000  O
  O10      1.0000 0.46629  0.93312  0.39082  Biso   1.000  O
  O11      1.0000 0.96479  0.43457  0.39239  Biso   1.000  O
  O12      1.0000 0.96081  0.93021  0.39437  Biso   1.000  O
  O13      1.0000 0.46517  0.31655  0.88930  Biso   1.000  O
  O14      1.0000 0.46638  0.81685  0.89333  Biso   1.000  O
  O15      1.0000 0.96559  0.31873  0.89334  Biso   1.000  O
  O16      1.0000 0.96497  0.81618  0.89252  Biso   1.000  O
  O17      1.0000 0.27369  0.12061  0.50059  Biso   1.000  O
  O18      1.0000 0.26924  0.61529  0.49887  Biso   1.000  O
  O19      1.0000 0.76773  0.11619  0.49660  Biso   1.000  O
  O20      1.0000 0.76954  0.61639  0.49807  Biso   1.000  O
  O21      1.0000 0.27302  0.13401  0.99317  Biso   1.000  O
  O22      1.0000 0.26990  0.63219  0.99903  Biso   1.000  O
  O23      1.0000 0.76918  0.13366  0.99658  Biso   1.000  O
  O24      1.0000 0.76863  0.63262  0.99777  Biso   1.000  O
  O25      1.0000 0.23102  0.38304  0.99850  Biso   1.000  O
  O26      1.0000 0.23194  0.88043  0.00112  Biso   1.000  O
  O27      1.0000 0.72978  0.38343  0.99689  Biso   1.000  O
  O28      1.0000 0.73062  0.88250  0.99734  Biso   1.000  O
  O29      1.0000 0.23019  0.36806  0.49792  Biso   1.000  O
  O30      1.0000 0.23614  0.86169  0.50635  Biso   1.000  O
  O31      1.0000 0.73090  0.36675  0.49790  Biso   1.000  O
  O32      1.0000 0.72864  0.86570  0.49650  Biso   1.000  O
