data_image0
_cell_length_a       10.0689
_cell_length_b       5.20326
_cell_length_c       10.1028
_cell_angle_alpha    90.0891
_cell_angle_beta     89.9539
_cell_angle_gamma    90.0033

_symmetry_space_group_name_H-M    "P 1"
_symmetry_int_tables_number       1

loop_
  _symmetry_equiv_pos_as_xyz
  'x, y, z'

loop_
  _atom_site_label
  _atom_site_occupancy
  _atom_site_fract_x
  _atom_site_fract_y
  _atom_site_fract_z
  _atom_site_thermal_displace_type
  _atom_site_B_iso_or_equiv
  _atom_site_type_symbol
  In1      1.0000 0.13132  0.03049  0.12095  Biso   1.000  In
  Zr1      1.0000 0.13406  0.03355  0.62678  Biso   1.000  Zr
  Zr2      1.0000 0.63369  0.02985  0.12516  Biso   1.000  Zr
  Zr3      1.0000 0.63334  0.03108  0.62431  Biso   1.000  Zr
  Zr4      1.0000 0.13590  0.46822  0.37506  Biso   1.000  Zr
  Zr5      1.0000 0.13527  0.47121  0.87634  Biso   1.000  Zr
  Zr6      1.0000 0.63325  0.46876  0.37489  Biso   1.000  Zr
  Zr7      1.0000 0.63416  0.46830  0.87489  Biso   1.000  Zr
  Zr8      1.0000 0.36438  0.52808  0.12648  Biso   1.000  Zr
  Zr9      1.0000 0.36590  0.53285  0.62574  Biso   1.000  Zr
  Zr10     1.0000 0.86471  0.53114  0.12512  Biso   1.000  Zr
  Zr11     1.0000 0.86602  0.53119  0.62416  Biso   1.000  Zr
  Zr12     1.0000 0.36339  0.96939  0.37430  Biso   1.000  Zr
  Zr13     1.0000 0.36525  0.96908  0.87670  Biso   1.000  Zr
  Zr14     1.0000 0.86701  0.96949  0.37502  Biso   1.000  Zr
  Zr15     1.0000 0.86502  0.96822  0.87424  Biso   1.000  Zr
  O1       1.0000 0.03027  0.37030  0.20011  Biso   1.000  O
  O2       1.0000 0.03611  0.37225  0.69297  Biso   1.000  O
  O3       1.0000 0.53571  0.36601  0.19467  Biso   1.000  O
  O4       1.0000 0.53491  0.36688  0.69476  Biso   1.000  O
  O5       1.0000 0.03394  0.13313  0.44796  Biso   1.000  O
  O6       1.0000 0.03341  0.13801  0.93414  Biso   1.000  O
  O7       1.0000 0.53397  0.13350  0.44502  Biso   1.000  O
  O8       1.0000 0.53586  0.13295  0.94436  Biso   1.000  O
  O9       1.0000 0.46685  0.86466  0.19578  Biso   1.000  O
  O10      1.0000 0.46538  0.86723  0.69558  Biso   1.000  O
  O11      1.0000 0.96250  0.86039  0.19849  Biso   1.000  O
  O12      1.0000 0.96424  0.86761  0.69385  Biso   1.000  O
  O13      1.0000 0.46593  0.63434  0.44689  Biso   1.000  O
  O14      1.0000 0.46612  0.63413  0.94450  Biso   1.000  O
  O15      1.0000 0.96567  0.63369  0.44598  Biso   1.000  O
  O16      1.0000 0.96497  0.63583  0.94557  Biso   1.000  O
  O17      1.0000 0.27205  0.23541  0.25029  Biso   1.000  O
  O18      1.0000 0.27043  0.23581  0.74819  Biso   1.000  O
  O19      1.0000 0.76787  0.23131  0.24850  Biso   1.000  O
  O20      1.0000 0.76923  0.23346  0.74728  Biso   1.000  O
  O21      1.0000 0.26932  0.26675  0.49964  Biso   1.000  O
  O22      1.0000 0.27310  0.26824  0.99535  Biso   1.000  O
  O23      1.0000 0.76824  0.26839  0.49790  Biso   1.000  O
  O24      1.0000 0.76963  0.26476  0.99787  Biso   1.000  O
  O25      1.0000 0.23057  0.76795  0.50040  Biso   1.000  O
  O26      1.0000 0.23229  0.76087  0.99895  Biso   1.000  O
  O27      1.0000 0.73105  0.76782  0.49789  Biso   1.000  O
  O28      1.0000 0.72963  0.76495  0.99804  Biso   1.000  O
  O29      1.0000 0.23587  0.72411  0.25286  Biso   1.000  O
  O30      1.0000 0.23081  0.73622  0.74903  Biso   1.000  O
  O31      1.0000 0.72960  0.73212  0.24848  Biso   1.000  O
  O32      1.0000 0.73018  0.73301  0.74755  Biso   1.000  O
