data_image0
_cell_length_a       5.09492
_cell_length_b       10.3497
_cell_length_c       10.1465
_cell_angle_alpha    91.8067
_cell_angle_beta     87.0384
_cell_angle_gamma    88.3367

_symmetry_space_group_name_H-M    "P 1"
_symmetry_int_tables_number       1

loop_
  _symmetry_equiv_pos_as_xyz
  'x, y, z'

loop_
  _atom_site_label
  _atom_site_occupancy
  _atom_site_fract_x
  _atom_site_fract_y
  _atom_site_fract_z
  _atom_site_thermal_displace_type
  _atom_site_B_iso_or_equiv
  _atom_site_type_symbol
  Hf1      1.0000 0.23011  0.94549  0.12135  Biso   1.000  Hf
  Hf2      1.0000 0.31667  0.27016  0.39263  Biso   1.000  Hf
  Hf3      1.0000 0.75465  0.28296  0.13242  Biso   1.000  Hf
  Hf4      1.0000 0.76873  0.99593  0.36251  Biso   1.000  Hf
  O1       1.0000 0.82243  0.15581  0.97163  Biso   1.000  O
  O2       1.0000 0.12043  0.06850  0.28339  Biso   1.000  O
  O3       1.0000 0.02880  0.35705  0.26347  Biso   1.000  O
  O4       1.0000 0.96603  0.39953  0.99742  Biso   1.000  O
  O5       1.0000 0.64561  0.16235  0.27983  Biso   1.000  O
  O6       1.0000 0.34349  0.06197  0.96684  Biso   1.000  O
  O7       1.0000 0.41769  0.32281  0.02594  Biso   1.000  O
  O8       1.0000 0.51741  0.41749  0.26094  Biso   1.000  O
  Hf5      1.0000 0.26648  0.02535  0.61121  Biso   1.000  Hf
  Hf6      1.0000 0.16657  0.22923  0.88926  Biso   1.000  Hf
  Hf7      1.0000 0.75472  0.24515  0.64648  Biso   1.000  Hf
  Hf8      1.0000 0.69991  0.99587  0.87183  Biso   1.000  Hf
  O9       1.0000 0.06931  0.18141  0.52222  Biso   1.000  O
  O10      1.0000 0.97024  0.09865  0.74738  Biso   1.000  O
  O11      1.0000 0.04031  0.35941  0.74578  Biso   1.000  O
  O12      1.0000 0.09813  0.43033  0.48961  Biso   1.000  O
  O13      1.0000 0.46798  0.15162  0.75157  Biso   1.000  O
  O14      1.0000 0.56004  0.11484  0.50965  Biso   1.000  O
  O15      1.0000 0.58504  0.36601  0.50908  Biso   1.000  O
  O16      1.0000 0.54988  0.39955  0.75824  Biso   1.000  O
  Hf9      1.0000 0.25143  0.50223  0.12463  Biso   1.000  Hf
  Hf10     1.0000 0.26034  0.76475  0.38418  Biso   1.000  Hf
  Hf11     1.0000 0.73144  0.73139  0.11736  Biso   1.000  Hf
  Hf12     1.0000 0.79535  0.50345  0.38690  Biso   1.000  Hf
  O17      1.0000 0.03221  0.64347  0.98248  Biso   1.000  O
  O18      1.0000 0.91743  0.58673  0.21925  Biso   1.000  O
  O19      1.0000 0.99509  0.83363  0.24947  Biso   1.000  O
  O20      1.0000 0.93740  0.88999  0.00194  Biso   1.000  O
  O21      1.0000 0.41058  0.65973  0.22911  Biso   1.000  O
  O22      1.0000 0.54802  0.57191  0.00762  Biso   1.000  O
  O23      1.0000 0.46706  0.82424  0.98927  Biso   1.000  O
  O24      1.0000 0.52870  0.89224  0.23940  Biso   1.000  O
  Hf13     1.0000 0.31435  0.49618  0.63674  Biso   1.000  Hf
  Hf14     1.0000 0.21250  0.76130  0.85085  Biso   1.000  Hf
  Hf15     1.0000 0.72924  0.76150  0.61615  Biso   1.000  Hf
  Hf16     1.0000 0.79912  0.51220  0.85880  Biso   1.000  Hf
  O25      1.0000 0.96052  0.67061  0.46982  Biso   1.000  O
  O26      1.0000 0.02537  0.61568  0.72564  Biso   1.000  O
  O27      1.0000 0.92877  0.85395  0.75564  Biso   1.000  O
  O28      1.0000 0.01463  0.91515  0.50236  Biso   1.000  O
  O29      1.0000 0.51957  0.64857  0.75193  Biso   1.000  O
  O30      1.0000 0.48539  0.61995  0.49855  Biso   1.000  O
  O31      1.0000 0.51571  0.87197  0.49021  Biso   1.000  O
  O32      1.0000 0.44201  0.89809  0.73890  Biso   1.000  O
  Ir1      1.0000 0.25744  0.18987  0.14816  Biso   1.000  Ir
