data_image0
_cell_length_a       5.02578
_cell_length_b       10.5397
_cell_length_c       10.07
_cell_angle_alpha    88.871
_cell_angle_beta     89.6628
_cell_angle_gamma    89.7154

_symmetry_space_group_name_H-M    "P 1"
_symmetry_int_tables_number       1

loop_
  _symmetry_equiv_pos_as_xyz
  'x, y, z'

loop_
  _atom_site_label
  _atom_site_occupancy
  _atom_site_fract_x
  _atom_site_fract_y
  _atom_site_fract_z
  _atom_site_thermal_displace_type
  _atom_site_B_iso_or_equiv
  _atom_site_type_symbol
  Hf1      1.0000 0.26307  0.01239  0.11728  Biso   1.000  Hf
  Hf2      1.0000 0.26559  0.23315  0.38214  Biso   1.000  Hf
  Hf3      1.0000 0.68759  0.24635  0.11469  Biso   1.000  Hf
  Hf4      1.0000 0.74413  0.48473  0.38129  Biso   1.000  Hf
  O1       1.0000 0.00371  0.17429  0.22324  Biso   1.000  O
  O2       1.0000 0.07118  0.06397  0.44887  Biso   1.000  O
  O3       1.0000 0.95114  0.45366  0.21249  Biso   1.000  O
  O4       1.0000 0.94047  0.32071  0.45588  Biso   1.000  O
  O5       1.0000 0.50501  0.10825  0.24798  Biso   1.000  O
  O6       1.0000 0.54616  0.13526  0.49590  Biso   1.000  O
  O7       1.0000 0.46224  0.38362  0.50603  Biso   1.000  O
  O8       1.0000 0.49103  0.36185  0.26142  Biso   1.000  O
  Hf5      1.0000 0.26998  0.01132  0.62042  Biso   1.000  Hf
  Hf6      1.0000 0.26726  0.21475  0.86236  Biso   1.000  Hf
  Hf7      1.0000 0.73009  0.26715  0.62759  Biso   1.000  Hf
  Hf8      1.0000 0.74213  0.48644  0.87422  Biso   1.000  Hf
  O9       1.0000 0.06568  0.17568  0.68961  Biso   1.000  O
  O10      1.0000 0.08067  0.05351  0.93451  Biso   1.000  O
  O11      1.0000 0.92913  0.43243  0.69594  Biso   1.000  O
  O12      1.0000 0.92081  0.31017  0.92956  Biso   1.000  O
  O13      1.0000 0.53974  0.10879  0.74136  Biso   1.000  O
  O14      1.0000 0.57075  0.11480  0.98517  Biso   1.000  O
  O15      1.0000 0.48320  0.40199  0.01115  Biso   1.000  O
  O16      1.0000 0.46154  0.36217  0.75688  Biso   1.000  O
  Hf9      1.0000 0.27409  0.53844  0.12952  Biso   1.000  Hf
  Hf10     1.0000 0.27395  0.73728  0.37819  Biso   1.000  Hf
  Hf11     1.0000 0.73197  0.76922  0.12703  Biso   1.000  Hf
  Hf12     1.0000 0.73703  0.98687  0.37142  Biso   1.000  Hf
  O17      1.0000 0.07776  0.69708  0.19867  Biso   1.000  O
  O18      1.0000 0.07217  0.57288  0.45270  Biso   1.000  O
  O19      1.0000 0.92465  0.93677  0.19088  Biso   1.000  O
  O20      1.0000 0.93370  0.81930  0.44363  Biso   1.000  O
  O21      1.0000 0.54876  0.62245  0.25460  Biso   1.000  O
  O22      1.0000 0.54036  0.63420  0.50236  Biso   1.000  O
  O23      1.0000 0.46856  0.88456  0.49649  Biso   1.000  O
  O24      1.0000 0.46284  0.86779  0.24826  Biso   1.000  O
  Hf13     1.0000 0.26907  0.51459  0.62785  Biso   1.000  Hf
  Hf14     1.0000 0.26985  0.73386  0.87352  Biso   1.000  Hf
  Hf15     1.0000 0.74077  0.76240  0.62167  Biso   1.000  Hf
  Hf16     1.0000 0.73895  0.97282  0.86855  Biso   1.000  Hf
  O25      1.0000 0.06819  0.67951  0.69948  Biso   1.000  O
  O26      1.0000 0.07180  0.56876  0.94960  Biso   1.000  O
  O27      1.0000 0.94097  0.92542  0.69226  Biso   1.000  O
  O28      1.0000 0.93484  0.81406  0.94708  Biso   1.000  O
  O29      1.0000 0.53671  0.61218  0.75040  Biso   1.000  O
  O30      1.0000 0.54408  0.64310  0.99850  Biso   1.000  O
  O31      1.0000 0.45955  0.88088  0.99779  Biso   1.000  O
  O32      1.0000 0.47158  0.86002  0.74585  Biso   1.000  O
  Ir1      1.0000 0.18607  0.29929  0.10443  Biso   1.000  Ir
