data_image0
_cell_length_a       9.95378
_cell_length_b       5.16086
_cell_length_c       9.98754
_cell_angle_alpha    89.6349
_cell_angle_beta     89.7546
_cell_angle_gamma    89.6782

_symmetry_space_group_name_H-M    "P 1"
_symmetry_int_tables_number       1

loop_
  _symmetry_equiv_pos_as_xyz
  'x, y, z'

loop_
  _atom_site_label
  _atom_site_occupancy
  _atom_site_fract_x
  _atom_site_fract_y
  _atom_site_fract_z
  _atom_site_thermal_displace_type
  _atom_site_B_iso_or_equiv
  _atom_site_type_symbol
  Ir1      1.0000 0.12916  0.02974  0.11221  Biso   1.000  Ir
  Hf1      1.0000 0.13620  0.46805  0.37392  Biso   1.000  Hf
  Hf2      1.0000 0.36557  0.54315  0.12984  Biso   1.000  Hf
  Hf3      1.0000 0.36352  0.97605  0.37636  Biso   1.000  Hf
  O1       1.0000 0.04078  0.34690  0.19323  Biso   1.000  O
  O2       1.0000 0.03600  0.13780  0.44823  Biso   1.000  O
  O3       1.0000 0.46443  0.87261  0.19599  Biso   1.000  O
  O4       1.0000 0.46432  0.63693  0.44464  Biso   1.000  O
  O5       1.0000 0.28745  0.27818  0.26100  Biso   1.000  O
  O6       1.0000 0.26829  0.26470  0.50515  Biso   1.000  O
  O7       1.0000 0.22906  0.76463  0.49979  Biso   1.000  O
  O8       1.0000 0.22191  0.76900  0.24780  Biso   1.000  O
  Hf4      1.0000 0.13327  0.03327  0.62811  Biso   1.000  Hf
  Hf5      1.0000 0.13512  0.46484  0.87855  Biso   1.000  Hf
  Hf6      1.0000 0.36584  0.53463  0.62604  Biso   1.000  Hf
  Hf7      1.0000 0.36612  0.96464  0.87726  Biso   1.000  Hf
  O9       1.0000 0.03373  0.36344  0.70100  Biso   1.000  O
  O10      1.0000 0.03418  0.12598  0.94926  Biso   1.000  O
  O11      1.0000 0.46183  0.87138  0.69344  Biso   1.000  O
  O12      1.0000 0.45668  0.62022  0.94106  Biso   1.000  O
  O13      1.0000 0.26999  0.23604  0.75412  Biso   1.000  O
  O14      1.0000 0.26892  0.24744  0.00824  Biso   1.000  O
  O15      1.0000 0.22399  0.75737  0.00244  Biso   1.000  O
  O16      1.0000 0.22829  0.73436  0.75174  Biso   1.000  O
  Hf8      1.0000 0.63576  0.03388  0.12686  Biso   1.000  Hf
  Hf9      1.0000 0.63446  0.47225  0.37350  Biso   1.000  Hf
  Hf10     1.0000 0.86929  0.52722  0.12429  Biso   1.000  Hf
  Hf11     1.0000 0.87065  0.96937  0.37427  Biso   1.000  Hf
  O17      1.0000 0.54301  0.37791  0.18768  Biso   1.000  O
  O18      1.0000 0.53581  0.13714  0.44205  Biso   1.000  O
  O19      1.0000 0.96841  0.85563  0.19078  Biso   1.000  O
  O20      1.0000 0.96503  0.63299  0.44484  Biso   1.000  O
  O21      1.0000 0.77275  0.23564  0.24880  Biso   1.000  O
  O22      1.0000 0.77007  0.26730  0.49804  Biso   1.000  O
  O23      1.0000 0.73050  0.76798  0.49756  Biso   1.000  O
  O24      1.0000 0.73520  0.73775  0.24814  Biso   1.000  O
  Hf12     1.0000 0.63266  0.03304  0.62306  Biso   1.000  Hf
  Hf13     1.0000 0.63226  0.46212  0.87585  Biso   1.000  Hf
  Hf14     1.0000 0.86588  0.53044  0.62464  Biso   1.000  Hf
  Hf15     1.0000 0.86127  0.95972  0.87427  Biso   1.000  Hf
  O25      1.0000 0.53576  0.36915  0.69376  Biso   1.000  O
  O26      1.0000 0.53729  0.12290  0.94279  Biso   1.000  O
  O27      1.0000 0.96231  0.86594  0.69418  Biso   1.000  O
  O28      1.0000 0.96158  0.62510  0.94114  Biso   1.000  O
  O29      1.0000 0.76825  0.23193  0.74831  Biso   1.000  O
  O30      1.0000 0.77152  0.25784  0.99811  Biso   1.000  O
  O31      1.0000 0.72659  0.75670  0.99891  Biso   1.000  O
  O32      1.0000 0.72772  0.73230  0.74863  Biso   1.000  O
