data_image0
_cell_length_a       10.0656
_cell_length_b       5.23631
_cell_length_c       10.1188
_cell_angle_alpha    91.8059
_cell_angle_beta     89.101
_cell_angle_gamma    90.166

_symmetry_space_group_name_H-M    "P 1"
_symmetry_int_tables_number       1

loop_
  _symmetry_equiv_pos_as_xyz
  'x, y, z'

loop_
  _atom_site_label
  _atom_site_occupancy
  _atom_site_fract_x
  _atom_site_fract_y
  _atom_site_fract_z
  _atom_site_thermal_displace_type
  _atom_site_B_iso_or_equiv
  _atom_site_type_symbol
  Hf1      1.0000 0.11918  0.10469  0.10907  Biso   1.000  Hf
  Hf2      1.0000 0.13939  0.43536  0.39291  Biso   1.000  Hf
  Hf3      1.0000 0.39270  0.52170  0.10501  Biso   1.000  Hf
  Hf4      1.0000 0.36989  0.94110  0.37632  Biso   1.000  Hf
  O1       1.0000 0.00035  0.35857  0.23185  Biso   1.000  O
  O2       1.0000 0.03252  0.12368  0.46077  Biso   1.000  O
  O3       1.0000 0.46851  0.86818  0.19001  Biso   1.000  O
  O4       1.0000 0.47701  0.63421  0.46045  Biso   1.000  O
  O5       1.0000 0.23578  0.12892  0.26600  Biso   1.000  O
  O6       1.0000 0.27954  0.24898  0.50628  Biso   1.000  O
  O7       1.0000 0.23172  0.75380  0.50667  Biso   1.000  O
  O8       1.0000 0.28970  0.60618  0.27706  Biso   1.000  O
  Hf5      1.0000 0.13644  0.02982  0.63053  Biso   1.000  Hf
  Hf6      1.0000 0.12941  0.48174  0.87278  Biso   1.000  Hf
  Hf7      1.0000 0.36819  0.53343  0.62943  Biso   1.000  Hf
  Hf8      1.0000 0.36743  0.98140  0.87478  Biso   1.000  Hf
  O9       1.0000 0.03978  0.37795  0.69018  Biso   1.000  O
  O10      1.0000 0.02915  0.14513  0.92796  Biso   1.000  O
  O11      1.0000 0.46485  0.87572  0.69656  Biso   1.000  O
  O12      1.0000 0.47175  0.65954  0.93244  Biso   1.000  O
  O13      1.0000 0.26844  0.24224  0.75171  Biso   1.000  O
  O14      1.0000 0.27403  0.27575  0.99002  Biso   1.000  O
  O15      1.0000 0.23524  0.79284  0.01115  Biso   1.000  O
  O16      1.0000 0.23140  0.74328  0.75675  Biso   1.000  O
  Hf9      1.0000 0.63416  0.03325  0.12535  Biso   1.000  Hf
  Hf10     1.0000 0.63816  0.46291  0.37690  Biso   1.000  Hf
  Hf11     1.0000 0.85510  0.53569  0.11302  Biso   1.000  Hf
  Hf12     1.0000 0.86967  0.96945  0.37384  Biso   1.000  Hf
  O17      1.0000 0.53684  0.36311  0.20284  Biso   1.000  O
  O18      1.0000 0.53878  0.12673  0.44098  Biso   1.000  O
  O19      1.0000 0.95631  0.88027  0.17776  Biso   1.000  O
  O20      1.0000 0.97044  0.63976  0.44695  Biso   1.000  O
  O21      1.0000 0.76530  0.22189  0.24703  Biso   1.000  O
  O22      1.0000 0.77134  0.26801  0.49536  Biso   1.000  O
  O23      1.0000 0.73827  0.76965  0.49457  Biso   1.000  O
  O24      1.0000 0.73043  0.72723  0.24710  Biso   1.000  O
  Hf13     1.0000 0.63090  0.02829  0.61645  Biso   1.000  Hf
  Hf14     1.0000 0.63807  0.46702  0.86575  Biso   1.000  Hf
  Hf15     1.0000 0.87321  0.53595  0.61864  Biso   1.000  Hf
  Hf16     1.0000 0.85924  0.96686  0.86607  Biso   1.000  Hf
  O25      1.0000 0.53362  0.36309  0.69568  Biso   1.000  O
  O26      1.0000 0.52633  0.16902  0.95687  Biso   1.000  O
  O27      1.0000 0.96541  0.87075  0.69358  Biso   1.000  O
  O28      1.0000 0.94812  0.63537  0.92435  Biso   1.000  O
  O29      1.0000 0.76680  0.22941  0.74215  Biso   1.000  O
  O30      1.0000 0.76568  0.26252  0.99307  Biso   1.000  O
  O31      1.0000 0.72255  0.76536  0.99446  Biso   1.000  O
  O32      1.0000 0.72851  0.73294  0.74106  Biso   1.000  O
  Ir1      1.0000 0.11961  0.61355  0.15021  Biso   1.000  Ir
