data_image0
_cell_length_a       10.1524
_cell_length_b       10.4566
_cell_length_c       5.04001
_cell_angle_alpha    89.6713
_cell_angle_beta     88.6474
_cell_angle_gamma    90.815

_symmetry_space_group_name_H-M    "P 1"
_symmetry_int_tables_number       1

loop_
  _symmetry_equiv_pos_as_xyz
  'x, y, z'

loop_
  _atom_site_label
  _atom_site_occupancy
  _atom_site_fract_x
  _atom_site_fract_y
  _atom_site_fract_z
  _atom_site_thermal_displace_type
  _atom_site_B_iso_or_equiv
  _atom_site_type_symbol
  Hf1      1.0000 0.11000  0.94414  0.23553  Biso   1.000  Hf
  Hf2      1.0000 0.13816  0.28571  0.79515  Biso   1.000  Hf
  Hf3      1.0000 0.37485  0.24593  0.30791  Biso   1.000  Hf
  Hf4      1.0000 0.36003  0.99213  0.77050  Biso   1.000  Hf
  O1       1.0000 0.98162  0.15987  0.90210  Biso   1.000  O
  O2       1.0000 0.94977  0.04964  0.39259  Biso   1.000  O
  O3       1.0000 0.01820  0.31835  0.46873  Biso   1.000  O
  O4       1.0000 0.01330  0.41210  0.99214  Biso   1.000  O
  O5       1.0000 0.26191  0.15207  0.62857  Biso   1.000  O
  O6       1.0000 0.26710  0.07220  0.11903  Biso   1.000  O
  O7       1.0000 0.29774  0.36926  0.01017  Biso   1.000  O
  O8       1.0000 0.26290  0.40194  0.52486  Biso   1.000  O
  Hf5      1.0000 0.14539  0.49134  0.26123  Biso   1.000  Hf
  Hf6      1.0000 0.12272  0.72829  0.72880  Biso   1.000  Hf
  Hf7      1.0000 0.38542  0.76527  0.25996  Biso   1.000  Hf
  Hf8      1.0000 0.38743  0.51480  0.75777  Biso   1.000  Hf
  O9       1.0000 0.97745  0.65421  0.98646  Biso   1.000  O
  O10      1.0000 0.02328  0.56510  0.53249  Biso   1.000  O
  O11      1.0000 0.00494  0.80452  0.43688  Biso   1.000  O
  O12      1.0000 0.99081  0.89399  0.93064  Biso   1.000  O
  O13      1.0000 0.25890  0.64417  0.45954  Biso   1.000  O
  O14      1.0000 0.22627  0.59050  0.94836  Biso   1.000  O
  O15      1.0000 0.24130  0.83253  0.00308  Biso   1.000  O
  O16      1.0000 0.24040  0.88832  0.52257  Biso   1.000  O
  Hf9      1.0000 0.61333  0.01994  0.27299  Biso   1.000  Hf
  Hf10     1.0000 0.62575  0.26648  0.77107  Biso   1.000  Hf
  Hf11     1.0000 0.87055  0.23819  0.23682  Biso   1.000  Hf
  Hf12     1.0000 0.85726  0.00934  0.74375  Biso   1.000  Hf
  O17      1.0000 0.51211  0.17869  0.05084  Biso   1.000  O
  O18      1.0000 0.49466  0.10905  0.54618  Biso   1.000  O
  O19      1.0000 0.51268  0.36319  0.48782  Biso   1.000  O
  O20      1.0000 0.54005  0.43521  0.95408  Biso   1.000  O
  O21      1.0000 0.73937  0.15460  0.51031  Biso   1.000  O
  O22      1.0000 0.74238  0.11223  0.00760  Biso   1.000  O
  O23      1.0000 0.76531  0.36160  0.00642  Biso   1.000  O
  O24      1.0000 0.76950  0.39718  0.50508  Biso   1.000  O
  Hf13     1.0000 0.64242  0.49351  0.27323  Biso   1.000  Hf
  Hf14     1.0000 0.62920  0.74939  0.71725  Biso   1.000  Hf
  Hf15     1.0000 0.85174  0.76128  0.20268  Biso   1.000  Hf
  Hf16     1.0000 0.87359  0.51033  0.77698  Biso   1.000  Hf
  O25      1.0000 0.47307  0.67868  0.94624  Biso   1.000  O
  O26      1.0000 0.51460  0.61773  0.45896  Biso   1.000  O
  O27      1.0000 0.49120  0.86420  0.54067  Biso   1.000  O
  O28      1.0000 0.48090  0.92498  0.05533  Biso   1.000  O
  O29      1.0000 0.76591  0.64460  0.49709  Biso   1.000  O
  O30      1.0000 0.73283  0.61850  0.99558  Biso   1.000  O
  O31      1.0000 0.73462  0.86712  0.96544  Biso   1.000  O
  O32      1.0000 0.74003  0.89459  0.47212  Biso   1.000  O
  Ir1      1.0000 0.12925  0.18432  0.29068  Biso   1.000  Ir
