data_image0
_cell_length_a       10.1459
_cell_length_b       10.2993
_cell_length_c       10.4965
_cell_angle_alpha    90.1677
_cell_angle_beta     80.1325
_cell_angle_gamma    90.2108

_symmetry_space_group_name_H-M    "P 1"
_symmetry_int_tables_number       1

loop_
  _symmetry_equiv_pos_as_xyz
  'x, y, z'

loop_
  _atom_site_label
  _atom_site_occupancy
  _atom_site_fract_x
  _atom_site_fract_y
  _atom_site_fract_z
  _atom_site_thermal_displace_type
  _atom_site_B_iso_or_equiv
  _atom_site_type_symbol
  Hf1      1.0000 0.13676  0.02239  0.14643  Biso   1.000  Hf
  Hf2      1.0000 0.13894  0.23285  0.39664  Biso   1.000  Hf
  Hf3      1.0000 0.35730  0.27387  0.09620  Biso   1.000  Hf
  Hf4      1.0000 0.35422  0.48063  0.35017  Biso   1.000  Hf
  O1       1.0000 0.03536  0.16993  0.07892  Biso   1.000  O
  O2       1.0000 0.03690  0.08332  0.32808  Biso   1.000  O
  O3       1.0000 0.46260  0.42049  0.16844  Biso   1.000  O
  O4       1.0000 0.48676  0.35899  0.43648  Biso   1.000  O
  O5       1.0000 0.28249  0.12607  0.23816  Biso   1.000  O
  O6       1.0000 0.27207  0.11274  0.49271  Biso   1.000  O
  O7       1.0000 0.22131  0.38202  0.00438  Biso   1.000  O
  O8       1.0000 0.20631  0.37675  0.25210  Biso   1.000  O
  Hf5      1.0000 0.13668  0.01989  0.64752  Biso   1.000  Hf
  Hf6      1.0000 0.13663  0.22910  0.89417  Biso   1.000  Hf
  Hf7      1.0000 0.36112  0.27425  0.60541  Biso   1.000  Hf
  Hf8      1.0000 0.35975  0.47992  0.85408  Biso   1.000  Hf
  O9       1.0000 0.03659  0.16937  0.58037  Biso   1.000  O
  O10      1.0000 0.03345  0.08159  0.82927  Biso   1.000  O
  O11      1.0000 0.46575  0.41565  0.67690  Biso   1.000  O
  O12      1.0000 0.46598  0.33512  0.92112  Biso   1.000  O
  O13      1.0000 0.27553  0.12989  0.74012  Biso   1.000  O
  O14      1.0000 0.27362  0.12228  0.98854  Biso   1.000  O
  O15      1.0000 0.22256  0.38048  0.51282  Biso   1.000  O
  O16      1.0000 0.22308  0.37157  0.75854  Biso   1.000  O
  Hf9      1.0000 0.13663  0.52321  0.14351  Biso   1.000  Hf
  Hf10     1.0000 0.13629  0.72818  0.39718  Biso   1.000  Hf
  Hf11     1.0000 0.36007  0.77186  0.10377  Biso   1.000  Hf
  Hf12     1.0000 0.36217  0.96650  0.35847  Biso   1.000  Hf
  O17      1.0000 0.03328  0.67207  0.07914  Biso   1.000  O
  O18      1.0000 0.03283  0.58511  0.32735  Biso   1.000  O
  O19      1.0000 0.46491  0.91605  0.17386  Biso   1.000  O
  O20      1.0000 0.46221  0.82261  0.42306  Biso   1.000  O
  O21      1.0000 0.27460  0.62990  0.24042  Biso   1.000  O
  O22      1.0000 0.27193  0.62039  0.49186  Biso   1.000  O
  O23      1.0000 0.22318  0.88049  0.01076  Biso   1.000  O
  O24      1.0000 0.22237  0.86990  0.26079  Biso   1.000  O
  Hf13     1.0000 0.13689  0.52307  0.64695  Biso   1.000  Hf
  Hf14     1.0000 0.13652  0.73023  0.89713  Biso   1.000  Hf
  Hf15     1.0000 0.36085  0.76822  0.60624  Biso   1.000  Hf
  Hf16     1.0000 0.36030  0.97931  0.85381  Biso   1.000  Hf
  O25      1.0000 0.03142  0.66749  0.57954  Biso   1.000  O
  O26      1.0000 0.03391  0.58296  0.83073  Biso   1.000  O
  O27      1.0000 0.46378  0.91685  0.67066  Biso   1.000  O
  O28      1.0000 0.46435  0.83449  0.92189  Biso   1.000  O
  O29      1.0000 0.27507  0.62865  0.74160  Biso   1.000  O
  O30      1.0000 0.27498  0.62343  0.99028  Biso   1.000  O
  O31      1.0000 0.22274  0.87466  0.51251  Biso   1.000  O
  O32      1.0000 0.22257  0.87130  0.76100  Biso   1.000  O
  Hf17     1.0000 0.63887  0.02064  0.14671  Biso   1.000  Hf
  Hf18     1.0000 0.65045  0.22982  0.40083  Biso   1.000  Hf
  Hf19     1.0000 0.86072  0.27270  0.10429  Biso   1.000  Hf
  Hf20     1.0000 0.86231  0.47921  0.35404  Biso   1.000  Hf
  O33      1.0000 0.53155  0.16195  0.07369  Biso   1.000  O
  O34      1.0000 0.55142  0.05778  0.34162  Biso   1.000  O
  O35      1.0000 0.96155  0.42229  0.16780  Biso   1.000  O
  O36      1.0000 0.96510  0.33396  0.42234  Biso   1.000  O
  O37      1.0000 0.77856  0.12997  0.23988  Biso   1.000  O
  O38      1.0000 0.78126  0.11921  0.49298  Biso   1.000  O
  O39      1.0000 0.72233  0.37909  0.01131  Biso   1.000  O
  O40      1.0000 0.72559  0.37205  0.26096  Biso   1.000  O
  Hf21     1.0000 0.63729  0.02165  0.64519  Biso   1.000  Hf
  Hf22     1.0000 0.63834  0.22783  0.89631  Biso   1.000  Hf
  Hf23     1.0000 0.86349  0.27157  0.60735  Biso   1.000  Hf
  Hf24     1.0000 0.85981  0.47909  0.85591  Biso   1.000  Hf
  O41      1.0000 0.53515  0.16855  0.57852  Biso   1.000  O
  O42      1.0000 0.53322  0.08392  0.82624  Biso   1.000  O
  O43      1.0000 0.96424  0.41914  0.67305  Biso   1.000  O
  O44      1.0000 0.96293  0.33161  0.91980  Biso   1.000  O
  O45      1.0000 0.77518  0.12898  0.74145  Biso   1.000  O
  O46      1.0000 0.77555  0.12174  0.99088  Biso   1.000  O
  O47      1.0000 0.72845  0.37802  0.51343  Biso   1.000  O
  O48      1.0000 0.72369  0.37145  0.76184  Biso   1.000  O
  Hf25     1.0000 0.63828  0.52294  0.14644  Biso   1.000  Hf
  Hf26     1.0000 0.63890  0.72558  0.39568  Biso   1.000  Hf
  Hf27     1.0000 0.85973  0.77188  0.10422  Biso   1.000  Hf
  Hf28     1.0000 0.86147  0.97817  0.35409  Biso   1.000  Hf
  O49      1.0000 0.53343  0.66768  0.07759  Biso   1.000  O
  O50      1.0000 0.53169  0.58523  0.32479  Biso   1.000  O
  O51      1.0000 0.96493  0.91969  0.16999  Biso   1.000  O
  O52      1.0000 0.96404  0.83345  0.42196  Biso   1.000  O
  O53      1.0000 0.77559  0.62867  0.24048  Biso   1.000  O
  O54      1.0000 0.77514  0.62018  0.49034  Biso   1.000  O
  O55      1.0000 0.72213  0.88007  0.01085  Biso   1.000  O
  O56      1.0000 0.72606  0.86864  0.25933  Biso   1.000  O
  Hf29     1.0000 0.63892  0.52071  0.64742  Biso   1.000  Hf
  Hf30     1.0000 0.63703  0.72909  0.89623  Biso   1.000  Hf
  Hf31     1.0000 0.85875  0.77191  0.60450  Biso   1.000  Hf
  Hf32     1.0000 0.85896  0.97891  0.85475  Biso   1.000  Hf
  O57      1.0000 0.53443  0.66439  0.57935  Biso   1.000  O
  O58      1.0000 0.53363  0.58434  0.82875  Biso   1.000  O
  O59      1.0000 0.96267  0.91801  0.67142  Biso   1.000  O
  O60      1.0000 0.96281  0.83319  0.92075  Biso   1.000  O
  O61      1.0000 0.77527  0.62933  0.74099  Biso   1.000  O
  O62      1.0000 0.77467  0.62231  0.99086  Biso   1.000  O
  O63      1.0000 0.72221  0.87814  0.50969  Biso   1.000  O
  O64      1.0000 0.72165  0.87164  0.76017  Biso   1.000  O
  Ir1      1.0000 0.41629  0.22750  0.32788  Biso   1.000  Ir
