data_image0
_cell_length_a       10.126
_cell_length_b       10.207
_cell_length_c       5.2389
_cell_angle_alpha    90.0492
_cell_angle_beta     80.6637
_cell_angle_gamma    89.2166

_symmetry_space_group_name_H-M    "P 1"
_symmetry_int_tables_number       1

loop_
  _symmetry_equiv_pos_as_xyz
  'x, y, z'

loop_
  _atom_site_label
  _atom_site_occupancy
  _atom_site_fract_x
  _atom_site_fract_y
  _atom_site_fract_z
  _atom_site_thermal_displace_type
  _atom_site_B_iso_or_equiv
  _atom_site_type_symbol
  Ir1      1.0000 0.12343  0.00881  0.33420  Biso   1.000  Ir
  Hf1      1.0000 0.14457  0.22769  0.78429  Biso   1.000  Hf
  Hf2      1.0000 0.35980  0.26982  0.19984  Biso   1.000  Hf
  Hf3      1.0000 0.36196  0.48026  0.70731  Biso   1.000  Hf
  O1       1.0000 0.04397  0.15057  0.14955  Biso   1.000  O
  O2       1.0000 0.02894  0.08703  0.65198  Biso   1.000  O
  O3       1.0000 0.46529  0.41646  0.34422  Biso   1.000  O
  O4       1.0000 0.47203  0.34120  0.84746  Biso   1.000  O
  O5       1.0000 0.27075  0.12127  0.44969  Biso   1.000  O
  O6       1.0000 0.29815  0.14225  0.92798  Biso   1.000  O
  O7       1.0000 0.22336  0.38357  0.01630  Biso   1.000  O
  O8       1.0000 0.22759  0.36973  0.51767  Biso   1.000  O
  Hf4      1.0000 0.14039  0.52269  0.29457  Biso   1.000  Hf
  Hf5      1.0000 0.13666  0.73000  0.79787  Biso   1.000  Hf
  Hf6      1.0000 0.35906  0.77714  0.20747  Biso   1.000  Hf
  Hf7      1.0000 0.36202  0.98505  0.70575  Biso   1.000  Hf
  O9       1.0000 0.03279  0.66546  0.15813  Biso   1.000  O
  O10      1.0000 0.03547  0.58315  0.66057  Biso   1.000  O
  O11      1.0000 0.46437  0.91877  0.34390  Biso   1.000  O
  O12      1.0000 0.46025  0.83298  0.84212  Biso   1.000  O
  O13      1.0000 0.27522  0.63278  0.48228  Biso   1.000  O
  O14      1.0000 0.27608  0.62582  0.98326  Biso   1.000  O
  O15      1.0000 0.22035  0.89432  0.02594  Biso   1.000  O
  O16      1.0000 0.21582  0.87293  0.52478  Biso   1.000  O
  Hf8      1.0000 0.63831  0.02200  0.29173  Biso   1.000  Hf
  Hf9      1.0000 0.64059  0.23023  0.79340  Biso   1.000  Hf
  Hf10     1.0000 0.86804  0.26649  0.21307  Biso   1.000  Hf
  Hf11     1.0000 0.86387  0.47613  0.71209  Biso   1.000  Hf
  O17      1.0000 0.53655  0.16844  0.15541  Biso   1.000  O
  O18      1.0000 0.53898  0.08290  0.65593  Biso   1.000  O
  O19      1.0000 0.97161  0.41027  0.35380  Biso   1.000  O
  O20      1.0000 0.96964  0.33192  0.85811  Biso   1.000  O
  O21      1.0000 0.77776  0.12694  0.48053  Biso   1.000  O
  O22      1.0000 0.77829  0.11970  0.98250  Biso   1.000  O
  O23      1.0000 0.72870  0.37617  0.02411  Biso   1.000  O
  O24      1.0000 0.72822  0.36990  0.52128  Biso   1.000  O
  Hf12     1.0000 0.63712  0.51915  0.29144  Biso   1.000  Hf
  Hf13     1.0000 0.63539  0.72736  0.79133  Biso   1.000  Hf
  Hf14     1.0000 0.85660  0.76743  0.20826  Biso   1.000  Hf
  Hf15     1.0000 0.85473  0.97559  0.71251  Biso   1.000  Hf
  O25      1.0000 0.53302  0.66788  0.15561  Biso   1.000  O
  O26      1.0000 0.53397  0.58396  0.65287  Biso   1.000  O
  O27      1.0000 0.95725  0.91285  0.34277  Biso   1.000  O
  O28      1.0000 0.96234  0.83285  0.84587  Biso   1.000  O
  O29      1.0000 0.77580  0.62582  0.48116  Biso   1.000  O
  O30      1.0000 0.77466  0.61942  0.97995  Biso   1.000  O
  O31      1.0000 0.71925  0.87782  0.01862  Biso   1.000  O
  O32      1.0000 0.72100  0.86903  0.52051  Biso   1.000  O
