data_image0
_cell_length_a       10.1165
_cell_length_b       5.10662
_cell_length_c       10.4868
_cell_angle_alpha    89.9937
_cell_angle_beta     80.7353
_cell_angle_gamma    89.2896

_symmetry_space_group_name_H-M    "P 1"
_symmetry_int_tables_number       1

loop_
  _symmetry_equiv_pos_as_xyz
  'x, y, z'

loop_
  _atom_site_label
  _atom_site_occupancy
  _atom_site_fract_x
  _atom_site_fract_y
  _atom_site_fract_z
  _atom_site_thermal_displace_type
  _atom_site_B_iso_or_equiv
  _atom_site_type_symbol
  Ir1      1.0000 0.12534  0.02182  0.16794  Biso   1.000  Ir
  Hf1      1.0000 0.13733  0.45763  0.39564  Biso   1.000  Hf
  Hf2      1.0000 0.35734  0.54727  0.09898  Biso   1.000  Hf
  Hf3      1.0000 0.36110  0.95834  0.35125  Biso   1.000  Hf
  O1       1.0000 0.04369  0.31090  0.08116  Biso   1.000  O
  O2       1.0000 0.02664  0.17540  0.32839  Biso   1.000  O
  O3       1.0000 0.46427  0.83069  0.17342  Biso   1.000  O
  O4       1.0000 0.46400  0.66607  0.42112  Biso   1.000  O
  O5       1.0000 0.27043  0.24986  0.23183  Biso   1.000  O
  O6       1.0000 0.27643  0.24406  0.48530  Biso   1.000  O
  O7       1.0000 0.22264  0.79484  0.01346  Biso   1.000  O
  O8       1.0000 0.21767  0.73902  0.25906  Biso   1.000  O
  Hf4      1.0000 0.13844  0.04059  0.64464  Biso   1.000  Hf
  Hf5      1.0000 0.14242  0.45629  0.89420  Biso   1.000  Hf
  Hf6      1.0000 0.36152  0.54593  0.60422  Biso   1.000  Hf
  Hf7      1.0000 0.36140  0.97093  0.85508  Biso   1.000  Hf
  O9       1.0000 0.03281  0.32631  0.57450  Biso   1.000  O
  O10      1.0000 0.03603  0.16772  0.82745  Biso   1.000  O
  O11      1.0000 0.46605  0.83521  0.67196  Biso   1.000  O
  O12      1.0000 0.47014  0.68672  0.92449  Biso   1.000  O
  O13      1.0000 0.27446  0.25634  0.73231  Biso   1.000  O
  O14      1.0000 0.29538  0.28863  0.96905  Biso   1.000  O
  O15      1.0000 0.22276  0.75749  0.50820  Biso   1.000  O
  O16      1.0000 0.22620  0.74276  0.76081  Biso   1.000  O
  Hf8      1.0000 0.63617  0.03852  0.14411  Biso   1.000  Hf
  Hf9      1.0000 0.63693  0.45401  0.39534  Biso   1.000  Hf
  Hf10     1.0000 0.86445  0.52644  0.10498  Biso   1.000  Hf
  Hf11     1.0000 0.85444  0.95182  0.35717  Biso   1.000  Hf
  O17      1.0000 0.53472  0.33476  0.07694  Biso   1.000  O
  O18      1.0000 0.53361  0.16377  0.32758  Biso   1.000  O
  O19      1.0000 0.96608  0.81788  0.17377  Biso   1.000  O
  O20      1.0000 0.96521  0.67348  0.42587  Biso   1.000  O
  O21      1.0000 0.77450  0.24707  0.24000  Biso   1.000  O
  O22      1.0000 0.77596  0.24032  0.49077  Biso   1.000  O
  O23      1.0000 0.72623  0.75428  0.01165  Biso   1.000  O
  O24      1.0000 0.72569  0.73365  0.25991  Biso   1.000  O
  Hf12     1.0000 0.63827  0.04387  0.64770  Biso   1.000  Hf
  Hf13     1.0000 0.63892  0.46152  0.89690  Biso   1.000  Hf
  Hf14     1.0000 0.86029  0.54189  0.60636  Biso   1.000  Hf
  Hf15     1.0000 0.86459  0.95413  0.85648  Biso   1.000  Hf
  O25      1.0000 0.53468  0.33402  0.57649  Biso   1.000  O
  O26      1.0000 0.53682  0.17509  0.82529  Biso   1.000  O
  O27      1.0000 0.96766  0.82395  0.67617  Biso   1.000  O
  O28      1.0000 0.96701  0.66179  0.92864  Biso   1.000  O
  O29      1.0000 0.77842  0.25755  0.74069  Biso   1.000  O
  O30      1.0000 0.77775  0.23971  0.99077  Biso   1.000  O
  O31      1.0000 0.72154  0.75493  0.51062  Biso   1.000  O
  O32      1.0000 0.72558  0.74472  0.76130  Biso   1.000  O
