data_image0
_cell_length_a       9.95395
_cell_length_b       10.3268
_cell_length_c       4.99089
_cell_angle_alpha    89.711
_cell_angle_beta     89.7255
_cell_angle_gamma    89.7685

_symmetry_space_group_name_H-M    "P 1"
_symmetry_int_tables_number       1

loop_
  _symmetry_equiv_pos_as_xyz
  'x, y, z'

loop_
  _atom_site_label
  _atom_site_occupancy
  _atom_site_fract_x
  _atom_site_fract_y
  _atom_site_fract_z
  _atom_site_thermal_displace_type
  _atom_site_B_iso_or_equiv
  _atom_site_type_symbol
  Ir1      1.0000 0.12848  0.01693  0.23105  Biso   1.000  Ir
  Hf1      1.0000 0.13915  0.23295  0.75501  Biso   1.000  Hf
  Hf2      1.0000 0.36666  0.26828  0.25889  Biso   1.000  Hf
  Hf3      1.0000 0.36581  0.48530  0.75397  Biso   1.000  Hf
  O1       1.0000 0.03752  0.17316  0.40264  Biso   1.000  O
  O2       1.0000 0.03375  0.06657  0.90965  Biso   1.000  O
  O3       1.0000 0.46329  0.43608  0.38949  Biso   1.000  O
  O4       1.0000 0.46133  0.31430  0.88571  Biso   1.000  O
  O5       1.0000 0.28404  0.13082  0.52255  Biso   1.000  O
  O6       1.0000 0.26720  0.12505  0.02060  Biso   1.000  O
  O7       1.0000 0.22987  0.38081  0.00297  Biso   1.000  O
  O8       1.0000 0.22756  0.37244  0.50349  Biso   1.000  O
  Hf4      1.0000 0.13452  0.51775  0.25282  Biso   1.000  Hf
  Hf5      1.0000 0.13246  0.73515  0.74989  Biso   1.000  Hf
  Hf6      1.0000 0.36422  0.76946  0.25394  Biso   1.000  Hf
  Hf7      1.0000 0.36402  0.98454  0.75329  Biso   1.000  Hf
  O9       1.0000 0.03586  0.68296  0.38750  Biso   1.000  O
  O10      1.0000 0.03666  0.56520  0.88691  Biso   1.000  O
  O11      1.0000 0.46349  0.93508  0.38800  Biso   1.000  O
  O12      1.0000 0.45960  0.81430  0.88485  Biso   1.000  O
  O13      1.0000 0.27133  0.62197  0.50021  Biso   1.000  O
  O14      1.0000 0.27019  0.63303  0.00003  Biso   1.000  O
  O15      1.0000 0.22341  0.88198  0.00531  Biso   1.000  O
  O16      1.0000 0.22521  0.87609  0.49925  Biso   1.000  O
  Hf8      1.0000 0.63328  0.01693  0.24852  Biso   1.000  Hf
  Hf9      1.0000 0.63349  0.23379  0.75021  Biso   1.000  Hf
  Hf10     1.0000 0.86774  0.26327  0.25109  Biso   1.000  Hf
  Hf11     1.0000 0.86679  0.48216  0.75081  Biso   1.000  Hf
  O17      1.0000 0.54110  0.18756  0.37942  Biso   1.000  O
  O18      1.0000 0.53588  0.06531  0.88410  Biso   1.000  O
  O19      1.0000 0.96553  0.42965  0.38666  Biso   1.000  O
  O20      1.0000 0.96515  0.31350  0.88781  Biso   1.000  O
  O21      1.0000 0.76982  0.11713  0.49661  Biso   1.000  O
  O22      1.0000 0.77104  0.13166  0.99563  Biso   1.000  O
  O23      1.0000 0.73007  0.38080  0.99971  Biso   1.000  O
  O24      1.0000 0.73121  0.36734  0.49871  Biso   1.000  O
  Hf12     1.0000 0.63510  0.51662  0.25159  Biso   1.000  Hf
  Hf13     1.0000 0.63332  0.73361  0.74894  Biso   1.000  Hf
  Hf14     1.0000 0.86690  0.76655  0.24695  Biso   1.000  Hf
  Hf15     1.0000 0.86585  0.98357  0.74607  Biso   1.000  Hf
  O25      1.0000 0.53697  0.68574  0.38483  Biso   1.000  O
  O26      1.0000 0.53734  0.56483  0.88615  Biso   1.000  O
  O27      1.0000 0.96591  0.93213  0.38336  Biso   1.000  O
  O28      1.0000 0.96090  0.81504  0.88205  Biso   1.000  O
  O29      1.0000 0.77103  0.61717  0.49784  Biso   1.000  O
  O30      1.0000 0.77058  0.63152  0.99688  Biso   1.000  O
  O31      1.0000 0.72733  0.88214  0.99314  Biso   1.000  O
  O32      1.0000 0.73182  0.86832  0.49505  Biso   1.000  O
