data_image0
_cell_length_a       10.1622
_cell_length_b       5.17594
_cell_length_c       10.5324
_cell_angle_alpha    90.6112
_cell_angle_beta     80.5277
_cell_angle_gamma    89.8751

_symmetry_space_group_name_H-M    "P 1"
_symmetry_int_tables_number       1

loop_
  _symmetry_equiv_pos_as_xyz
  'x, y, z'

loop_
  _atom_site_label
  _atom_site_occupancy
  _atom_site_fract_x
  _atom_site_fract_y
  _atom_site_fract_z
  _atom_site_thermal_displace_type
  _atom_site_B_iso_or_equiv
  _atom_site_type_symbol
  Hf1      1.0000 0.13607  0.04658  0.14482  Biso   1.000  Hf
  Hf2      1.0000 0.13565  0.45526  0.40219  Biso   1.000  Hf
  Hf3      1.0000 0.36260  0.55558  0.09625  Biso   1.000  Hf
  Hf4      1.0000 0.35397  0.94216  0.35600  Biso   1.000  Hf
  O1       1.0000 0.03350  0.34136  0.07877  Biso   1.000  O
  O2       1.0000 0.03410  0.16765  0.32719  Biso   1.000  O
  O3       1.0000 0.45787  0.87213  0.16275  Biso   1.000  O
  O4       1.0000 0.48371  0.70087  0.43568  Biso   1.000  O
  O5       1.0000 0.27562  0.25363  0.23840  Biso   1.000  O
  O6       1.0000 0.25913  0.20683  0.50145  Biso   1.000  O
  O7       1.0000 0.22163  0.76761  0.00718  Biso   1.000  O
  O8       1.0000 0.21178  0.74452  0.25807  Biso   1.000  O
  Hf5      1.0000 0.13376  0.03564  0.65164  Biso   1.000  Hf
  Hf6      1.0000 0.13626  0.46015  0.89696  Biso   1.000  Hf
  Hf7      1.0000 0.35953  0.53685  0.60740  Biso   1.000  Hf
  Hf8      1.0000 0.35958  0.96228  0.85433  Biso   1.000  Hf
  O9       1.0000 0.02977  0.33299  0.58283  Biso   1.000  O
  O10      1.0000 0.03227  0.16570  0.83199  Biso   1.000  O
  O11      1.0000 0.46348  0.82935  0.67501  Biso   1.000  O
  O12      1.0000 0.46637  0.67475  0.91971  Biso   1.000  O
  O13      1.0000 0.27399  0.25925  0.74280  Biso   1.000  O
  O14      1.0000 0.27420  0.25018  0.98995  Biso   1.000  O
  O15      1.0000 0.22205  0.74114  0.51640  Biso   1.000  O
  O16      1.0000 0.22282  0.74179  0.76173  Biso   1.000  O
  Hf9      1.0000 0.63787  0.04676  0.14279  Biso   1.000  Hf
  Hf10     1.0000 0.65187  0.46232  0.39905  Biso   1.000  Hf
  Hf11     1.0000 0.85989  0.54611  0.10431  Biso   1.000  Hf
  Hf12     1.0000 0.86387  0.95743  0.35393  Biso   1.000  Hf
  O17      1.0000 0.53601  0.33804  0.07034  Biso   1.000  O
  O18      1.0000 0.54437  0.13615  0.33680  Biso   1.000  O
  O19      1.0000 0.96377  0.84135  0.16936  Biso   1.000  O
  O20      1.0000 0.96379  0.66686  0.42426  Biso   1.000  O
  O21      1.0000 0.77649  0.26338  0.23926  Biso   1.000  O
  O22      1.0000 0.77907  0.23749  0.49192  Biso   1.000  O
  O23      1.0000 0.72215  0.76282  0.01094  Biso   1.000  O
  O24      1.0000 0.72665  0.74693  0.25996  Biso   1.000  O
  Hf13     1.0000 0.63571  0.04197  0.64599  Biso   1.000  Hf
  Hf14     1.0000 0.63831  0.45891  0.89361  Biso   1.000  Hf
  Hf15     1.0000 0.86015  0.54145  0.60787  Biso   1.000  Hf
  Hf16     1.0000 0.85905  0.95854  0.85608  Biso   1.000  Hf
  O25      1.0000 0.53444  0.33006  0.57548  Biso   1.000  O
  O26      1.0000 0.53199  0.17274  0.82512  Biso   1.000  O
  O27      1.0000 0.96134  0.83443  0.67435  Biso   1.000  O
  O28      1.0000 0.96213  0.66656  0.92165  Biso   1.000  O
  O29      1.0000 0.77316  0.25758  0.74072  Biso   1.000  O
  O30      1.0000 0.77543  0.24661  0.98960  Biso   1.000  O
  O31      1.0000 0.72633  0.75617  0.51236  Biso   1.000  O
  O32      1.0000 0.72211  0.74449  0.76146  Biso   1.000  O
  Ir1      1.0000 0.41489  0.44003  0.32418  Biso   1.000  Ir
