data_image0
_cell_length_a       10.0485
_cell_length_b       10.2553
_cell_length_c       10.5011
_cell_angle_alpha    89.8861
_cell_angle_beta     90.2347
_cell_angle_gamma    90.1333

_symmetry_space_group_name_H-M    "P 1"
_symmetry_int_tables_number       1

loop_
  _symmetry_equiv_pos_as_xyz
  'x, y, z'

loop_
  _atom_site_label
  _atom_site_occupancy
  _atom_site_fract_x
  _atom_site_fract_y
  _atom_site_fract_z
  _atom_site_thermal_displace_type
  _atom_site_B_iso_or_equiv
  _atom_site_type_symbol
  Hf1      1.0000 0.13739  0.02062  0.17267  Biso   1.000  Hf
  Hf2      1.0000 0.13757  0.22816  0.42457  Biso   1.000  Hf
  Hf3      1.0000 0.35040  0.27010  0.17783  Biso   1.000  Hf
  Hf4      1.0000 0.36302  0.47853  0.42094  Biso   1.000  Hf
  Hf5      1.0000 0.64543  0.01788  0.07473  Biso   1.000  Hf
  Hf6      1.0000 0.63919  0.22681  0.32940  Biso   1.000  Hf
  Hf7      1.0000 0.86029  0.26751  0.07864  Biso   1.000  Hf
  Hf8      1.0000 0.86434  0.47970  0.33013  Biso   1.000  Hf
  O1       1.0000 0.03220  0.16386  0.08373  Biso   1.000  O
  O2       1.0000 0.03203  0.08500  0.33439  Biso   1.000  O
  O3       1.0000 0.45124  0.44118  0.09976  Biso   1.000  O
  O4       1.0000 0.46703  0.33330  0.33255  Biso   1.000  O
  O5       1.0000 0.27145  0.12510  0.29873  Biso   1.000  O
  O6       1.0000 0.27295  0.12430  0.04586  Biso   1.000  O
  O7       1.0000 0.22055  0.37542  0.29834  Biso   1.000  O
  O8       1.0000 0.22113  0.37551  0.04468  Biso   1.000  O
  O9       1.0000 0.51287  0.14008  0.18350  Biso   1.000  O
  O10      1.0000 0.53242  0.08706  0.42232  Biso   1.000  O
  O11      1.0000 0.96788  0.41355  0.16807  Biso   1.000  O
  O12      1.0000 0.96814  0.33586  0.41920  Biso   1.000  O
  O13      1.0000 0.77651  0.12357  0.45503  Biso   1.000  O
  O14      1.0000 0.77785  0.12347  0.20917  Biso   1.000  O
  O15      1.0000 0.72423  0.37264  0.45594  Biso   1.000  O
  O16      1.0000 0.72782  0.38258  0.20961  Biso   1.000  O
  Hf9      1.0000 0.14118  0.02071  0.67225  Biso   1.000  Hf
  Hf10     1.0000 0.13790  0.22790  0.92193  Biso   1.000  Hf
  Hf11     1.0000 0.36194  0.27186  0.67267  Biso   1.000  Hf
  Hf12     1.0000 0.36078  0.48060  0.92221  Biso   1.000  Hf
  Hf13     1.0000 0.64017  0.01980  0.57852  Biso   1.000  Hf
  Hf14     1.0000 0.64234  0.22610  0.82075  Biso   1.000  Hf
  Hf15     1.0000 0.86243  0.27090  0.57842  Biso   1.000  Hf
  Hf16     1.0000 0.86368  0.47984  0.82823  Biso   1.000  Hf
  O17      1.0000 0.03337  0.16427  0.58447  Biso   1.000  O
  O18      1.0000 0.03621  0.08321  0.83197  Biso   1.000  O
  O19      1.0000 0.46955  0.41253  0.57974  Biso   1.000  O
  O20      1.0000 0.47077  0.34176  0.82679  Biso   1.000  O
  O21      1.0000 0.27832  0.12427  0.79618  Biso   1.000  O
  O22      1.0000 0.27658  0.12545  0.54650  Biso   1.000  O
  O23      1.0000 0.22386  0.37289  0.79619  Biso   1.000  O
  O24      1.0000 0.22522  0.37588  0.54651  Biso   1.000  O
  O25      1.0000 0.53171  0.16149  0.66796  Biso   1.000  O
  O26      1.0000 0.53380  0.08305  0.91563  Biso   1.000  O
  O27      1.0000 0.96848  0.41493  0.66786  Biso   1.000  O
  O28      1.0000 0.96449  0.33410  0.91721  Biso   1.000  O
  O29      1.0000 0.79007  0.11706  0.94733  Biso   1.000  O
  O30      1.0000 0.77847  0.12343  0.70116  Biso   1.000  O
  O31      1.0000 0.71830  0.37643  0.95509  Biso   1.000  O
  O32      1.0000 0.72689  0.37522  0.70418  Biso   1.000  O
  Hf17     1.0000 0.13877  0.52124  0.17127  Biso   1.000  Hf
  Hf18     1.0000 0.14078  0.72856  0.42179  Biso   1.000  Hf
  Hf19     1.0000 0.36154  0.77360  0.17218  Biso   1.000  Hf
  Hf20     1.0000 0.36202  0.97916  0.42339  Biso   1.000  Hf
  Hf21     1.0000 0.63839  0.53199  0.08288  Biso   1.000  Hf
  Hf22     1.0000 0.63991  0.73180  0.33031  Biso   1.000  Hf
  Hf23     1.0000 0.86347  0.77113  0.07940  Biso   1.000  Hf
  Hf24     1.0000 0.86224  0.97814  0.33023  Biso   1.000  Hf
  O33      1.0000 0.03307  0.66392  0.08262  Biso   1.000  O
  O34      1.0000 0.03470  0.58611  0.33225  Biso   1.000  O
  O35      1.0000 0.46940  0.91179  0.07886  Biso   1.000  O
  O36      1.0000 0.46844  0.83814  0.33343  Biso   1.000  O
  O37      1.0000 0.27759  0.62460  0.29466  Biso   1.000  O
  O38      1.0000 0.27535  0.62835  0.04416  Biso   1.000  O
  O39      1.0000 0.22499  0.87478  0.29606  Biso   1.000  O
  O40      1.0000 0.22324  0.87627  0.04616  Biso   1.000  O
  O41      1.0000 0.53604  0.67412  0.16829  Biso   1.000  O
  O42      1.0000 0.53391  0.58577  0.41629  Biso   1.000  O
  O43      1.0000 0.96813  0.91414  0.16826  Biso   1.000  O
  O44      1.0000 0.96866  0.83311  0.41725  Biso   1.000  O
  O45      1.0000 0.77725  0.62356  0.45569  Biso   1.000  O
  O46      1.0000 0.77803  0.62913  0.20678  Biso   1.000  O
  O47      1.0000 0.72557  0.87402  0.45639  Biso   1.000  O
  O48      1.0000 0.72692  0.87583  0.20641  Biso   1.000  O
  Hf25     1.0000 0.14039  0.52014  0.67143  Biso   1.000  Hf
  Hf26     1.0000 0.13965  0.72869  0.92189  Biso   1.000  Hf
  Hf27     1.0000 0.36306  0.77036  0.67189  Biso   1.000  Hf
  Hf28     1.0000 0.36090  0.97746  0.92277  Biso   1.000  Hf
  Hf29     1.0000 0.63967  0.52027  0.57746  Biso   1.000  Hf
  Hf30     1.0000 0.63967  0.72819  0.82758  Biso   1.000  Hf
  Hf31     1.0000 0.86401  0.76984  0.57860  Biso   1.000  Hf
  Hf32     1.0000 0.86488  0.97588  0.82694  Biso   1.000  Hf
  O49      1.0000 0.03479  0.66333  0.58273  Biso   1.000  O
  O50      1.0000 0.03391  0.58502  0.83244  Biso   1.000  O
  O51      1.0000 0.46916  0.91220  0.58235  Biso   1.000  O
  O52      1.0000 0.46922  0.83585  0.83124  Biso   1.000  O
  O53      1.0000 0.27730  0.62276  0.79557  Biso   1.000  O
  O54      1.0000 0.27791  0.62502  0.54498  Biso   1.000  O
  O55      1.0000 0.22547  0.87269  0.79564  Biso   1.000  O
  O56      1.0000 0.22568  0.87533  0.54574  Biso   1.000  O
  O57      1.0000 0.53315  0.66225  0.66776  Biso   1.000  O
  O58      1.0000 0.53325  0.58661  0.91937  Biso   1.000  O
  O59      1.0000 0.97088  0.91308  0.66537  Biso   1.000  O
  O60      1.0000 0.96920  0.83445  0.91805  Biso   1.000  O
  O61      1.0000 0.77791  0.62427  0.95518  Biso   1.000  O
  O62      1.0000 0.77723  0.62507  0.70498  Biso   1.000  O
  O63      1.0000 0.72558  0.87144  0.95505  Biso   1.000  O
  O64      1.0000 0.72604  0.87399  0.70471  Biso   1.000  O
  Ir1      1.0000 0.58111  0.27138  0.06107  Biso   1.000  Ir
