data_image0
_cell_length_a       9.94859
_cell_length_b       10.3715
_cell_length_c       9.99849
_cell_angle_alpha    90.1363
_cell_angle_beta     89.7416
_cell_angle_gamma    90.1623

_symmetry_space_group_name_H-M    "P 1"
_symmetry_int_tables_number       1

loop_
  _symmetry_equiv_pos_as_xyz
  'x, y, z'

loop_
  _atom_site_label
  _atom_site_occupancy
  _atom_site_fract_x
  _atom_site_fract_y
  _atom_site_fract_z
  _atom_site_thermal_displace_type
  _atom_site_B_iso_or_equiv
  _atom_site_type_symbol
  Ir1      1.0000 0.12739  0.03566  0.10723  Biso   1.000  Ir
  Hf1      1.0000 0.13361  0.23109  0.37609  Biso   1.000  Hf
  Hf2      1.0000 0.36707  0.26661  0.12605  Biso   1.000  Hf
  Hf3      1.0000 0.36658  0.48291  0.37644  Biso   1.000  Hf
  O1       1.0000 0.03303  0.18546  0.19425  Biso   1.000  O
  O2       1.0000 0.03631  0.06635  0.44935  Biso   1.000  O
  O3       1.0000 0.46435  0.43329  0.19364  Biso   1.000  O
  O4       1.0000 0.46400  0.31586  0.44460  Biso   1.000  O
  O5       1.0000 0.26140  0.10883  0.24619  Biso   1.000  O
  O6       1.0000 0.27221  0.13183  0.49784  Biso   1.000  O
  O7       1.0000 0.22893  0.38160  0.50002  Biso   1.000  O
  O8       1.0000 0.23077  0.36330  0.24989  Biso   1.000  O
  Hf4      1.0000 0.13481  0.01698  0.62817  Biso   1.000  Hf
  Hf5      1.0000 0.13337  0.23813  0.87358  Biso   1.000  Hf
  Hf6      1.0000 0.36630  0.26627  0.62536  Biso   1.000  Hf
  Hf7      1.0000 0.36605  0.48525  0.87598  Biso   1.000  Hf
  O9       1.0000 0.03567  0.18517  0.69587  Biso   1.000  O
  O10      1.0000 0.03593  0.06335  0.93688  Biso   1.000  O
  O11      1.0000 0.46357  0.43430  0.69471  Biso   1.000  O
  O12      1.0000 0.46143  0.31475  0.94339  Biso   1.000  O
  O13      1.0000 0.27163  0.11918  0.75046  Biso   1.000  O
  O14      1.0000 0.26771  0.13292  0.99906  Biso   1.000  O
  O15      1.0000 0.22942  0.38344  0.99952  Biso   1.000  O
  O16      1.0000 0.22927  0.36887  0.74949  Biso   1.000  O
  Hf8      1.0000 0.13346  0.51482  0.12635  Biso   1.000  Hf
  Hf9      1.0000 0.13580  0.73254  0.37713  Biso   1.000  Hf
  Hf10     1.0000 0.36575  0.76479  0.12781  Biso   1.000  Hf
  Hf11     1.0000 0.36374  0.97972  0.37436  Biso   1.000  Hf
  O17      1.0000 0.03784  0.68386  0.19447  Biso   1.000  O
  O18      1.0000 0.03590  0.56422  0.44600  Biso   1.000  O
  O19      1.0000 0.46868  0.93186  0.19621  Biso   1.000  O
  O20      1.0000 0.46751  0.81692  0.44978  Biso   1.000  O
  O21      1.0000 0.26983  0.61040  0.24945  Biso   1.000  O
  O22      1.0000 0.27233  0.63196  0.50057  Biso   1.000  O
  O23      1.0000 0.22921  0.88193  0.50487  Biso   1.000  O
  O24      1.0000 0.24397  0.85313  0.26073  Biso   1.000  O
  Hf12     1.0000 0.13410  0.51715  0.62607  Biso   1.000  Hf
  Hf13     1.0000 0.13312  0.73504  0.87847  Biso   1.000  Hf
  Hf14     1.0000 0.36619  0.76703  0.62803  Biso   1.000  Hf
  Hf15     1.0000 0.36476  0.98281  0.87856  Biso   1.000  Hf
  O25      1.0000 0.03661  0.68515  0.69487  Biso   1.000  O
  O26      1.0000 0.03504  0.56630  0.94530  Biso   1.000  O
  O27      1.0000 0.46342  0.93460  0.69676  Biso   1.000  O
  O28      1.0000 0.46050  0.81575  0.94319  Biso   1.000  O
  O29      1.0000 0.26979  0.61828  0.75107  Biso   1.000  O
  O30      1.0000 0.26928  0.63385  0.00014  Biso   1.000  O
  O31      1.0000 0.22583  0.88802  0.00890  Biso   1.000  O
  O32      1.0000 0.22917  0.86834  0.75427  Biso   1.000  O
  Hf16     1.0000 0.63428  0.01621  0.12610  Biso   1.000  Hf
  Hf17     1.0000 0.63357  0.23265  0.37677  Biso   1.000  Hf
  Hf18     1.0000 0.86282  0.26719  0.12554  Biso   1.000  Hf
  Hf19     1.0000 0.86595  0.48372  0.37637  Biso   1.000  Hf
  O33      1.0000 0.53378  0.18314  0.19617  Biso   1.000  O
  O34      1.0000 0.53598  0.06520  0.44327  Biso   1.000  O
  O35      1.0000 0.96343  0.43289  0.19545  Biso   1.000  O
  O36      1.0000 0.96321  0.31478  0.44334  Biso   1.000  O
  O37      1.0000 0.76918  0.11818  0.24895  Biso   1.000  O
  O38      1.0000 0.77111  0.13265  0.49836  Biso   1.000  O
  O39      1.0000 0.72964  0.38237  0.50032  Biso   1.000  O
  O40      1.0000 0.72786  0.36811  0.25020  Biso   1.000  O
  Hf20     1.0000 0.63213  0.01538  0.62265  Biso   1.000  Hf
  Hf21     1.0000 0.63294  0.23333  0.87475  Biso   1.000  Hf
  Hf22     1.0000 0.86557  0.26620  0.62508  Biso   1.000  Hf
  Hf23     1.0000 0.86509  0.48437  0.87565  Biso   1.000  Hf
  O41      1.0000 0.53658  0.18470  0.69292  Biso   1.000  O
  O42      1.0000 0.53470  0.06689  0.94622  Biso   1.000  O
  O43      1.0000 0.96396  0.43396  0.69488  Biso   1.000  O
  O44      1.0000 0.96324  0.31614  0.94484  Biso   1.000  O
  O45      1.0000 0.76861  0.11676  0.74787  Biso   1.000  O
  O46      1.0000 0.77091  0.13233  0.99791  Biso   1.000  O
  O47      1.0000 0.72806  0.38243  0.99968  Biso   1.000  O
  O48      1.0000 0.72928  0.36753  0.74971  Biso   1.000  O
  Hf24     1.0000 0.63516  0.51769  0.12767  Biso   1.000  Hf
  Hf25     1.0000 0.63595  0.73517  0.37548  Biso   1.000  Hf
  Hf26     1.0000 0.87165  0.76757  0.12414  Biso   1.000  Hf
  Hf27     1.0000 0.87033  0.98627  0.37345  Biso   1.000  Hf
  O49      1.0000 0.53722  0.68424  0.19645  Biso   1.000  O
  O50      1.0000 0.53747  0.56615  0.44383  Biso   1.000  O
  O51      1.0000 0.97569  0.93966  0.18973  Biso   1.000  O
  O52      1.0000 0.96476  0.81642  0.44189  Biso   1.000  O
  O53      1.0000 0.77265  0.61788  0.25000  Biso   1.000  O
  O54      1.0000 0.77033  0.63322  0.49984  Biso   1.000  O
  O55      1.0000 0.73242  0.88394  0.49761  Biso   1.000  O
  O56      1.0000 0.73780  0.86817  0.24763  Biso   1.000  O
  Hf28     1.0000 0.63385  0.51700  0.62562  Biso   1.000  Hf
  Hf29     1.0000 0.63293  0.73317  0.87657  Biso   1.000  Hf
  Hf30     1.0000 0.86751  0.76686  0.62416  Biso   1.000  Hf
  Hf31     1.0000 0.86052  0.98189  0.87279  Biso   1.000  Hf
  O57      1.0000 0.53548  0.68331  0.69616  Biso   1.000  O
  O58      1.0000 0.53589  0.56598  0.94623  Biso   1.000  O
  O59      1.0000 0.96333  0.93454  0.69355  Biso   1.000  O
  O60      1.0000 0.96084  0.81623  0.94130  Biso   1.000  O
  O61      1.0000 0.77027  0.61775  0.74998  Biso   1.000  O
  O62      1.0000 0.77078  0.63329  0.00053  Biso   1.000  O
  O63      1.0000 0.72691  0.88211  0.99851  Biso   1.000  O
  O64      1.0000 0.72836  0.86666  0.74800  Biso   1.000  O
