data_image0
_cell_length_a       10.0731
_cell_length_b       5.14327
_cell_length_c       10.5541
_cell_angle_alpha    89.7498
_cell_angle_beta     90.3811
_cell_angle_gamma    90.1341

_symmetry_space_group_name_H-M    "P 1"
_symmetry_int_tables_number       1

loop_
  _symmetry_equiv_pos_as_xyz
  'x, y, z'

loop_
  _atom_site_label
  _atom_site_occupancy
  _atom_site_fract_x
  _atom_site_fract_y
  _atom_site_fract_z
  _atom_site_thermal_displace_type
  _atom_site_B_iso_or_equiv
  _atom_site_type_symbol
  Hf1      1.0000 0.13673  0.04103  0.17232  Biso   1.000  Hf
  Hf2      1.0000 0.13995  0.45583  0.42496  Biso   1.000  Hf
  Hf3      1.0000 0.35066  0.54199  0.17863  Biso   1.000  Hf
  Hf4      1.0000 0.36421  0.95755  0.42272  Biso   1.000  Hf
  Hf5      1.0000 0.64743  0.05119  0.08056  Biso   1.000  Hf
  Hf6      1.0000 0.64127  0.46124  0.33005  Biso   1.000  Hf
  Hf7      1.0000 0.86068  0.53647  0.08057  Biso   1.000  Hf
  Hf8      1.0000 0.86625  0.95950  0.33389  Biso   1.000  Hf
  O1       1.0000 0.03164  0.32603  0.08306  Biso   1.000  O
  O2       1.0000 0.03439  0.17491  0.33271  Biso   1.000  O
  O3       1.0000 0.45498  0.87174  0.09424  Biso   1.000  O
  O4       1.0000 0.46934  0.67602  0.33062  Biso   1.000  O
  O5       1.0000 0.27316  0.25134  0.29848  Biso   1.000  O
  O6       1.0000 0.27168  0.25006  0.04530  Biso   1.000  O
  O7       1.0000 0.22239  0.75243  0.29936  Biso   1.000  O
  O8       1.0000 0.22158  0.74985  0.04560  Biso   1.000  O
  O9       1.0000 0.51563  0.29528  0.18603  Biso   1.000  O
  O10      1.0000 0.53324  0.17787  0.42218  Biso   1.000  O
  O11      1.0000 0.96965  0.82493  0.16986  Biso   1.000  O
  O12      1.0000 0.97040  0.67004  0.42099  Biso   1.000  O
  O13      1.0000 0.77708  0.24825  0.45583  Biso   1.000  O
  O14      1.0000 0.77935  0.25233  0.21108  Biso   1.000  O
  O15      1.0000 0.72639  0.74633  0.45823  Biso   1.000  O
  O16      1.0000 0.73522  0.76497  0.21472  Biso   1.000  O
  Hf9      1.0000 0.14239  0.04009  0.67226  Biso   1.000  Hf
  Hf10     1.0000 0.13782  0.45647  0.92304  Biso   1.000  Hf
  Hf11     1.0000 0.36305  0.54274  0.67283  Biso   1.000  Hf
  Hf12     1.0000 0.35996  0.95960  0.92233  Biso   1.000  Hf
  Hf13     1.0000 0.64060  0.03847  0.57716  Biso   1.000  Hf
  Hf14     1.0000 0.64254  0.45032  0.81914  Biso   1.000  Hf
  Hf15     1.0000 0.86484  0.53994  0.57900  Biso   1.000  Hf
  Hf16     1.0000 0.86700  0.95488  0.82668  Biso   1.000  Hf
  O17      1.0000 0.03463  0.32354  0.58313  Biso   1.000  O
  O18      1.0000 0.03650  0.16890  0.83069  Biso   1.000  O
  O19      1.0000 0.47182  0.81787  0.57789  Biso   1.000  O
  O20      1.0000 0.47204  0.68636  0.82377  Biso   1.000  O
  O21      1.0000 0.27879  0.24722  0.79678  Biso   1.000  O
  O22      1.0000 0.27784  0.24871  0.54654  Biso   1.000  O
  O23      1.0000 0.22526  0.74443  0.79686  Biso   1.000  O
  O24      1.0000 0.22738  0.75055  0.54724  Biso   1.000  O
  O25      1.0000 0.53108  0.31652  0.66938  Biso   1.000  O
  O26      1.0000 0.53583  0.16547  0.91836  Biso   1.000  O
  O27      1.0000 0.97254  0.82469  0.66736  Biso   1.000  O
  O28      1.0000 0.96600  0.66906  0.91946  Biso   1.000  O
  O29      1.0000 0.79052  0.23504  0.94871  Biso   1.000  O
  O30      1.0000 0.77881  0.24435  0.70106  Biso   1.000  O
  O31      1.0000 0.72006  0.74924  0.95405  Biso   1.000  O
  O32      1.0000 0.72943  0.74608  0.70410  Biso   1.000  O
  Ir1      1.0000 0.57880  0.54289  0.05549  Biso   1.000  Ir
