data_image0
_cell_length_a       5.13522
_cell_length_b       10.3723
_cell_length_c       10.6174
_cell_angle_alpha    90.3796
_cell_angle_beta     79.8653
_cell_angle_gamma    90.2107

_symmetry_space_group_name_H-M    "P 1"
_symmetry_int_tables_number       1

loop_
  _symmetry_equiv_pos_as_xyz
  'x, y, z'

loop_
  _atom_site_label
  _atom_site_occupancy
  _atom_site_fract_x
  _atom_site_fract_y
  _atom_site_fract_z
  _atom_site_thermal_displace_type
  _atom_site_B_iso_or_equiv
  _atom_site_type_symbol
  Zr1      1.0000 0.27226  0.02144  0.14599  Biso   1.000  Zr
  Zr2      1.0000 0.31059  0.23412  0.40259  Biso   1.000  Zr
  Zr3      1.0000 0.71358  0.27474  0.09435  Biso   1.000  Zr
  Zr4      1.0000 0.71436  0.48323  0.35101  Biso   1.000  Zr
  O1       1.0000 0.05890  0.15935  0.06900  Biso   1.000  O
  O2       1.0000 0.09484  0.06746  0.33950  Biso   1.000  O
  O3       1.0000 0.92896  0.41806  0.17216  Biso   1.000  O
  O4       1.0000 0.97803  0.35769  0.43385  Biso   1.000  O
  O5       1.0000 0.57081  0.12705  0.23792  Biso   1.000  O
  O6       1.0000 0.54033  0.10807  0.50285  Biso   1.000  O
  O7       1.0000 0.44145  0.38191  0.00510  Biso   1.000  O
  O8       1.0000 0.42932  0.37895  0.25296  Biso   1.000  O
  Zr5      1.0000 0.26816  0.01926  0.64894  Biso   1.000  Zr
  Zr6      1.0000 0.27268  0.22868  0.89331  Biso   1.000  Zr
  Zr7      1.0000 0.72854  0.27069  0.60595  Biso   1.000  Zr
  Zr8      1.0000 0.71558  0.48041  0.85387  Biso   1.000  Zr
  O9       1.0000 0.06868  0.16706  0.57734  Biso   1.000  O
  O10      1.0000 0.05574  0.08763  0.82467  Biso   1.000  O
  O11      1.0000 0.93346  0.41333  0.67809  Biso   1.000  O
  O12      1.0000 0.93208  0.33935  0.92229  Biso   1.000  O
  O13      1.0000 0.54541  0.12903  0.74313  Biso   1.000  O
  O14      1.0000 0.54213  0.12350  0.98969  Biso   1.000  O
  O15      1.0000 0.46279  0.37978  0.51435  Biso   1.000  O
  O16      1.0000 0.44839  0.37196  0.75920  Biso   1.000  O
  Zr9      1.0000 0.27554  0.52423  0.14510  Biso   1.000  Zr
  Zr10     1.0000 0.27096  0.72687  0.39744  Biso   1.000  Zr
  Zr11     1.0000 0.71841  0.77348  0.10547  Biso   1.000  Zr
  Zr12     1.0000 0.71810  0.96984  0.36156  Biso   1.000  Zr
  O17      1.0000 0.05699  0.66631  0.07528  Biso   1.000  O
  O18      1.0000 0.05735  0.59142  0.32192  Biso   1.000  O
  O19      1.0000 0.93264  0.91557  0.17681  Biso   1.000  O
  O20      1.0000 0.92520  0.82993  0.42747  Biso   1.000  O
  O21      1.0000 0.54667  0.63057  0.24129  Biso   1.000  O
  O22      1.0000 0.53837  0.62075  0.49192  Biso   1.000  O
  O23      1.0000 0.44408  0.88086  0.01323  Biso   1.000  O
  O24      1.0000 0.44818  0.87048  0.26200  Biso   1.000  O
  Zr13     1.0000 0.27234  0.52175  0.64699  Biso   1.000  Zr
  Zr14     1.0000 0.26780  0.72917  0.89760  Biso   1.000  Zr
  Zr15     1.0000 0.71540  0.76886  0.60720  Biso   1.000  Zr
  Zr16     1.0000 0.71554  0.97922  0.85548  Biso   1.000  Zr
  O25      1.0000 0.05581  0.66075  0.57690  Biso   1.000  O
  O26      1.0000 0.05868  0.58869  0.82619  Biso   1.000  O
  O27      1.0000 0.92391  0.91340  0.67493  Biso   1.000  O
  O28      1.0000 0.92850  0.83904  0.92585  Biso   1.000  O
  O29      1.0000 0.54326  0.62802  0.74174  Biso   1.000  O
  O30      1.0000 0.54427  0.62492  0.99086  Biso   1.000  O
  O31      1.0000 0.44163  0.87226  0.51355  Biso   1.000  O
  O32      1.0000 0.44179  0.87175  0.76323  Biso   1.000  O
  Ir1      1.0000 0.85416  0.22918  0.31686  Biso   1.000  Ir
