data_image0
_cell_length_a       10.1009
_cell_length_b       10.2529
_cell_length_c       5.2549
_cell_angle_alpha    90.0825
_cell_angle_beta     90.4891
_cell_angle_gamma    89.2599

_symmetry_space_group_name_H-M    "P 1"
_symmetry_int_tables_number       1

loop_
  _symmetry_equiv_pos_as_xyz
  'x, y, z'

loop_
  _atom_site_label
  _atom_site_occupancy
  _atom_site_fract_x
  _atom_site_fract_y
  _atom_site_fract_z
  _atom_site_thermal_displace_type
  _atom_site_B_iso_or_equiv
  _atom_site_type_symbol
  Ir1      1.0000 0.12388  0.00921  0.37811  Biso   1.000  Ir
  Zr1      1.0000 0.13940  0.52323  0.34675  Biso   1.000  Zr
  Zr2      1.0000 0.14594  0.22940  0.83590  Biso   1.000  Zr
  Zr3      1.0000 0.13622  0.73066  0.84907  Biso   1.000  Zr
  Zr4      1.0000 0.36010  0.27106  0.33348  Biso   1.000  Zr
  Zr5      1.0000 0.35860  0.77741  0.34108  Biso   1.000  Zr
  Zr6      1.0000 0.36140  0.47997  0.84296  Biso   1.000  Zr
  Zr7      1.0000 0.36021  0.98441  0.84297  Biso   1.000  Zr
  Zr8      1.0000 0.63817  0.02186  0.15643  Biso   1.000  Zr
  Zr9      1.0000 0.63886  0.51917  0.15936  Biso   1.000  Zr
  Zr10     1.0000 0.63924  0.22978  0.65807  Biso   1.000  Zr
  Zr11     1.0000 0.63525  0.72722  0.65685  Biso   1.000  Zr
  Zr12     1.0000 0.86837  0.26554  0.16610  Biso   1.000  Zr
  Zr13     1.0000 0.85716  0.76816  0.15842  Biso   1.000  Zr
  Zr14     1.0000 0.86344  0.47599  0.66425  Biso   1.000  Zr
  Zr15     1.0000 0.85482  0.97618  0.66189  Biso   1.000  Zr
  O1       1.0000 0.04563  0.14944  0.16522  Biso   1.000  O
  O2       1.0000 0.03027  0.66347  0.16836  Biso   1.000  O
  O3       1.0000 0.03026  0.08741  0.66173  Biso   1.000  O
  O4       1.0000 0.03208  0.58531  0.67231  Biso   1.000  O
  O5       1.0000 0.46719  0.41750  0.16740  Biso   1.000  O
  O6       1.0000 0.46650  0.91752  0.16469  Biso   1.000  O
  O7       1.0000 0.46843  0.33502  0.66617  Biso   1.000  O
  O8       1.0000 0.46224  0.83437  0.66659  Biso   1.000  O
  O9       1.0000 0.27244  0.11620  0.55191  Biso   1.000  O
  O10      1.0000 0.27414  0.62703  0.59202  Biso   1.000  O
  O11      1.0000 0.30188  0.15021  0.03681  Biso   1.000  O
  O12      1.0000 0.27588  0.63276  0.09228  Biso   1.000  O
  O13      1.0000 0.22683  0.37388  0.59061  Biso   1.000  O
  O14      1.0000 0.21470  0.87498  0.59416  Biso   1.000  O
  O15      1.0000 0.22118  0.38363  0.08974  Biso   1.000  O
  O16      1.0000 0.21737  0.89075  0.09638  Biso   1.000  O
  O17      1.0000 0.53661  0.16921  0.32649  Biso   1.000  O
  O18      1.0000 0.53073  0.66714  0.32974  Biso   1.000  O
  O19      1.0000 0.53818  0.08004  0.82085  Biso   1.000  O
  O20      1.0000 0.53276  0.58348  0.83182  Biso   1.000  O
  O21      1.0000 0.97260  0.40815  0.34780  Biso   1.000  O
  O22      1.0000 0.96085  0.91244  0.32866  Biso   1.000  O
  O23      1.0000 0.97131  0.33255  0.85062  Biso   1.000  O
  O24      1.0000 0.96392  0.83482  0.83482  Biso   1.000  O
  O25      1.0000 0.77861  0.12206  0.91330  Biso   1.000  O
  O26      1.0000 0.77475  0.62196  0.91181  Biso   1.000  O
  O27      1.0000 0.77792  0.12399  0.41130  Biso   1.000  O
  O28      1.0000 0.77439  0.62331  0.41326  Biso   1.000  O
  O29      1.0000 0.72826  0.37154  0.91598  Biso   1.000  O
  O30      1.0000 0.72065  0.87174  0.90996  Biso   1.000  O
  O31      1.0000 0.72864  0.37378  0.41310  Biso   1.000  O
  O32      1.0000 0.72173  0.87506  0.41242  Biso   1.000  O
