data_image0
_cell_length_a       5.06152
_cell_length_b       10.5466
_cell_length_c       10.1903
_cell_angle_alpha    88.9207
_cell_angle_beta     90.4906
_cell_angle_gamma    90.1667

_symmetry_space_group_name_H-M    "P 1"
_symmetry_int_tables_number       1

loop_
  _symmetry_equiv_pos_as_xyz
  'x, y, z'

loop_
  _atom_site_label
  _atom_site_occupancy
  _atom_site_fract_x
  _atom_site_fract_y
  _atom_site_fract_z
  _atom_site_thermal_displace_type
  _atom_site_B_iso_or_equiv
  _atom_site_type_symbol
  Zr1      1.0000 0.24859  0.94408  0.13120  Biso   1.000  Zr
  Zr2      1.0000 0.24572  0.24608  0.38061  Biso   1.000  Zr
  Zr3      1.0000 0.73498  0.28805  0.12601  Biso   1.000  Zr
  Zr4      1.0000 0.74992  0.00812  0.39205  Biso   1.000  Zr
  O1       1.0000 0.93171  0.17012  0.99476  Biso   1.000  O
  O2       1.0000 0.06638  0.06607  0.28574  Biso   1.000  O
  O3       1.0000 0.94872  0.34506  0.28482  Biso   1.000  O
  O4       1.0000 0.99595  0.41161  0.00786  Biso   1.000  O
  O5       1.0000 0.54473  0.16113  0.25660  Biso   1.000  O
  O6       1.0000 0.42139  0.07556  0.97481  Biso   1.000  O
  O7       1.0000 0.50751  0.37289  0.97833  Biso   1.000  O
  O8       1.0000 0.47351  0.40734  0.24356  Biso   1.000  O
  Zr5      1.0000 0.24599  0.00820  0.63416  Biso   1.000  Zr
  Zr6      1.0000 0.24944  0.25213  0.87461  Biso   1.000  Zr
  Zr7      1.0000 0.74899  0.26283  0.62747  Biso   1.000  Zr
  Zr8      1.0000 0.74029  0.00926  0.87486  Biso   1.000  Zr
  O9       1.0000 0.98744  0.15292  0.51125  Biso   1.000  O
  O10      1.0000 0.00204  0.10636  0.75607  Biso   1.000  O
  O11      1.0000 0.99455  0.35841  0.75848  Biso   1.000  O
  O12      1.0000 0.99118  0.40527  0.51310  Biso   1.000  O
  O13      1.0000 0.50198  0.15800  0.74721  Biso   1.000  O
  O14      1.0000 0.48856  0.10696  0.50371  Biso   1.000  O
  O15      1.0000 0.49904  0.35801  0.49349  Biso   1.000  O
  O16      1.0000 0.50881  0.40666  0.73827  Biso   1.000  O
  Zr9      1.0000 0.26040  0.51493  0.11237  Biso   1.000  Zr
  Zr10     1.0000 0.29693  0.75572  0.38826  Biso   1.000  Zr
  Zr11     1.0000 0.75989  0.73735  0.12133  Biso   1.000  Zr
  Zr12     1.0000 0.74621  0.49830  0.37097  Biso   1.000  Zr
  O17      1.0000 0.01862  0.65586  0.98636  Biso   1.000  O
  O18      1.0000 0.95427  0.57948  0.22260  Biso   1.000  O
  O19      1.0000 0.04117  0.81523  0.24549  Biso   1.000  O
  O20      1.0000 0.93853  0.90226  0.01194  Biso   1.000  O
  O21      1.0000 0.48055  0.64902  0.24921  Biso   1.000  O
  O22      1.0000 0.52766  0.60487  0.99661  Biso   1.000  O
  O23      1.0000 0.46304  0.83163  0.01074  Biso   1.000  O
  O24      1.0000 0.54607  0.89247  0.26160  Biso   1.000  O
  Zr13     1.0000 0.26013  0.50200  0.61633  Biso   1.000  Zr
  Zr14     1.0000 0.27117  0.74856  0.85888  Biso   1.000  Zr
  Zr15     1.0000 0.79004  0.74882  0.61845  Biso   1.000  Zr
  Zr16     1.0000 0.76160  0.50478  0.86688  Biso   1.000  Zr
  O25      1.0000 0.01029  0.64993  0.48524  Biso   1.000  O
  O26      1.0000 0.03068  0.60794  0.73878  Biso   1.000  O
  O27      1.0000 0.99797  0.85662  0.75157  Biso   1.000  O
  O28      1.0000 0.02449  0.89883  0.50210  Biso   1.000  O
  O29      1.0000 0.53739  0.65498  0.74921  Biso   1.000  O
  O30      1.0000 0.51395  0.61005  0.50156  Biso   1.000  O
  O31      1.0000 0.52738  0.86064  0.51186  Biso   1.000  O
  O32      1.0000 0.48849  0.90615  0.76028  Biso   1.000  O
  Ir1      1.0000 0.23529  0.17581  0.12689  Biso   1.000  Ir
