data_image0
_cell_length_a       10.0595
_cell_length_b       5.08418
_cell_length_c       10.0595
_cell_angle_alpha    90.6935
_cell_angle_beta     89.1056
_cell_angle_gamma    90.6902

_symmetry_space_group_name_H-M    "P 1"
_symmetry_int_tables_number       1

loop_
  _symmetry_equiv_pos_as_xyz
  'x, y, z'

loop_
  _atom_site_label
  _atom_site_occupancy
  _atom_site_fract_x
  _atom_site_fract_y
  _atom_site_fract_z
  _atom_site_thermal_displace_type
  _atom_site_B_iso_or_equiv
  _atom_site_type_symbol
  Ir1      1.0000 0.13002  0.97516  0.13004  Biso   1.000  Ir
  Zr1      1.0000 0.12766  0.99171  0.62741  Biso   1.000  Zr
  Zr2      1.0000 0.62740  0.99171  0.12768  Biso   1.000  Zr
  Zr3      1.0000 0.62706  0.00131  0.62707  Biso   1.000  Zr
  Zr4      1.0000 0.13189  0.49285  0.37332  Biso   1.000  Zr
  Zr5      1.0000 0.12357  0.50806  0.87534  Biso   1.000  Zr
  Zr6      1.0000 0.62880  0.49631  0.37714  Biso   1.000  Zr
  Zr7      1.0000 0.62290  0.50321  0.87630  Biso   1.000  Zr
  Zr8      1.0000 0.37330  0.49283  0.13192  Biso   1.000  Zr
  Zr9      1.0000 0.37712  0.49630  0.62882  Biso   1.000  Zr
  Zr10     1.0000 0.87530  0.50803  0.12359  Biso   1.000  Zr
  Zr11     1.0000 0.87627  0.50320  0.62293  Biso   1.000  Zr
  Zr12     1.0000 0.38001  0.99067  0.38003  Biso   1.000  Zr
  Zr13     1.0000 0.37244  0.00341  0.88100  Biso   1.000  Zr
  Zr14     1.0000 0.88099  0.00341  0.37245  Biso   1.000  Zr
  Zr15     1.0000 0.87281  0.01497  0.87282  Biso   1.000  Zr
  O1       1.0000 0.97075  0.33497  0.97075  Biso   1.000  O
  O2       1.0000 0.99357  0.29210  0.48364  Biso   1.000  O
  O3       1.0000 0.48363  0.29210  0.99359  Biso   1.000  O
  O4       1.0000 0.49856  0.28511  0.49858  Biso   1.000  O
  O5       1.0000 0.00440  0.21152  0.22679  Biso   1.000  O
  O6       1.0000 0.00060  0.21780  0.73461  Biso   1.000  O
  O7       1.0000 0.50300  0.20821  0.24928  Biso   1.000  O
  O8       1.0000 0.50151  0.21183  0.74876  Biso   1.000  O
  O9       1.0000 0.00950  0.72145  0.24787  Biso   1.000  O
  O10      1.0000 0.99398  0.71858  0.75448  Biso   1.000  O
  O11      1.0000 0.50323  0.70385  0.25507  Biso   1.000  O
  O12      1.0000 0.49329  0.71355  0.75788  Biso   1.000  O
  O13      1.0000 0.00479  0.82823  0.00481  Biso   1.000  O
  O14      1.0000 0.00534  0.78967  0.49968  Biso   1.000  O
  O15      1.0000 0.49966  0.78968  0.00537  Biso   1.000  O
  O16      1.0000 0.50484  0.78309  0.50488  Biso   1.000  O
  O17      1.0000 0.25197  0.24997  0.25200  Biso   1.000  O
  O18      1.0000 0.25448  0.28846  0.75844  Biso   1.000  O
  O19      1.0000 0.75841  0.28845  0.25451  Biso   1.000  O
  O20      1.0000 0.75291  0.29117  0.75294  Biso   1.000  O
  O21      1.0000 0.22678  0.21153  0.00444  Biso   1.000  O
  O22      1.0000 0.24926  0.20822  0.50303  Biso   1.000  O
  O23      1.0000 0.73460  0.21781  0.00064  Biso   1.000  O
  O24      1.0000 0.74875  0.21184  0.50154  Biso   1.000  O
  O25      1.0000 0.24786  0.72145  0.00952  Biso   1.000  O
  O26      1.0000 0.25504  0.70385  0.50325  Biso   1.000  O
  O27      1.0000 0.75446  0.71859  0.99399  Biso   1.000  O
  O28      1.0000 0.75786  0.71355  0.49331  Biso   1.000  O
  O29      1.0000 0.25835  0.75687  0.25837  Biso   1.000  O
  O30      1.0000 0.24542  0.78800  0.75362  Biso   1.000  O
  O31      1.0000 0.75360  0.78798  0.24544  Biso   1.000  O
  O32      1.0000 0.74560  0.78749  0.74561  Biso   1.000  O
