data_image0
_cell_length_a       10.1817
_cell_length_b       10.3221
_cell_length_c       10.5131
_cell_angle_alpha    90.0258
_cell_angle_beta     80.5868
_cell_angle_gamma    89.6664

_symmetry_space_group_name_H-M    "P 1"
_symmetry_int_tables_number       1

loop_
  _symmetry_equiv_pos_as_xyz
  'x, y, z'

loop_
  _atom_site_label
  _atom_site_occupancy
  _atom_site_fract_x
  _atom_site_fract_y
  _atom_site_fract_z
  _atom_site_thermal_displace_type
  _atom_site_B_iso_or_equiv
  _atom_site_type_symbol
  Ir1      1.0000 0.12562  0.01012  0.16759  Biso   1.000  Ir
  Zr1      1.0000 0.13745  0.02095  0.64281  Biso   1.000  Zr
  Zr2      1.0000 0.13938  0.52295  0.14507  Biso   1.000  Zr
  Zr3      1.0000 0.13981  0.52116  0.64673  Biso   1.000  Zr
  Zr4      1.0000 0.63804  0.02170  0.14468  Biso   1.000  Zr
  Zr5      1.0000 0.63838  0.02193  0.64636  Biso   1.000  Zr
  Zr6      1.0000 0.63717  0.51934  0.14426  Biso   1.000  Zr
  Zr7      1.0000 0.63883  0.52131  0.64635  Biso   1.000  Zr
  Zr8      1.0000 0.13925  0.23094  0.39272  Biso   1.000  Zr
  Zr9      1.0000 0.14311  0.22442  0.89462  Biso   1.000  Zr
  Zr10     1.0000 0.13695  0.72678  0.39729  Biso   1.000  Zr
  Zr11     1.0000 0.13874  0.73237  0.89586  Biso   1.000  Zr
  Zr12     1.0000 0.63873  0.22891  0.39518  Biso   1.000  Zr
  Zr13     1.0000 0.64057  0.23015  0.89639  Biso   1.000  Zr
  Zr14     1.0000 0.63738  0.72699  0.39517  Biso   1.000  Zr
  Zr15     1.0000 0.63716  0.72926  0.89554  Biso   1.000  Zr
  Zr16     1.0000 0.35927  0.26920  0.10103  Biso   1.000  Zr
  Zr17     1.0000 0.36118  0.27191  0.60370  Biso   1.000  Zr
  Zr18     1.0000 0.35884  0.77560  0.10322  Biso   1.000  Zr
  Zr19     1.0000 0.36129  0.77227  0.60565  Biso   1.000  Zr
  Zr20     1.0000 0.86775  0.26665  0.10683  Biso   1.000  Zr
  Zr21     1.0000 0.86162  0.27172  0.60541  Biso   1.000  Zr
  Zr22     1.0000 0.85874  0.76851  0.10342  Biso   1.000  Zr
  Zr23     1.0000 0.85971  0.77051  0.60606  Biso   1.000  Zr
  Zr24     1.0000 0.36153  0.47891  0.35355  Biso   1.000  Zr
  Zr25     1.0000 0.36129  0.47997  0.85503  Biso   1.000  Zr
  Zr26     1.0000 0.36103  0.97894  0.35336  Biso   1.000  Zr
  Zr27     1.0000 0.36114  0.98393  0.85483  Biso   1.000  Zr
  Zr28     1.0000 0.86061  0.47834  0.35446  Biso   1.000  Zr
  Zr29     1.0000 0.86426  0.47683  0.85704  Biso   1.000  Zr
  Zr30     1.0000 0.85499  0.97625  0.35723  Biso   1.000  Zr
  Zr31     1.0000 0.86165  0.97919  0.85472  Biso   1.000  Zr
  O1       1.0000 0.04405  0.15559  0.08227  Biso   1.000  O
  O2       1.0000 0.03448  0.16636  0.57477  Biso   1.000  O
  O3       1.0000 0.03463  0.66850  0.07945  Biso   1.000  O
  O4       1.0000 0.03366  0.66630  0.57971  Biso   1.000  O
  O5       1.0000 0.53627  0.16895  0.07940  Biso   1.000  O
  O6       1.0000 0.53549  0.16915  0.57898  Biso   1.000  O
  O7       1.0000 0.53390  0.66902  0.07919  Biso   1.000  O
  O8       1.0000 0.53515  0.66836  0.57899  Biso   1.000  O
  O9       1.0000 0.02978  0.08497  0.32831  Biso   1.000  O
  O10      1.0000 0.03491  0.08227  0.82676  Biso   1.000  O
  O11      1.0000 0.03459  0.58143  0.32952  Biso   1.000  O
  O12      1.0000 0.03622  0.58301  0.83073  Biso   1.000  O
  O13      1.0000 0.53399  0.08187  0.32952  Biso   1.000  O
  O14      1.0000 0.53882  0.08206  0.82910  Biso   1.000  O
  O15      1.0000 0.53558  0.57972  0.32956  Biso   1.000  O
  O16      1.0000 0.53413  0.58435  0.82797  Biso   1.000  O
  O17      1.0000 0.46448  0.41794  0.17034  Biso   1.000  O
  O18      1.0000 0.46520  0.41836  0.67082  Biso   1.000  O
  O19      1.0000 0.46397  0.91796  0.17197  Biso   1.000  O
  O20      1.0000 0.46506  0.91966  0.66966  Biso   1.000  O
  O21      1.0000 0.96805  0.41551  0.17246  Biso   1.000  O
  O22      1.0000 0.96761  0.41508  0.67437  Biso   1.000  O
  O23      1.0000 0.96325  0.91438  0.17007  Biso   1.000  O
  O24      1.0000 0.96444  0.91670  0.67093  Biso   1.000  O
  O25      1.0000 0.46492  0.33181  0.42018  Biso   1.000  O
  O26      1.0000 0.47078  0.33867  0.92219  Biso   1.000  O
  O27      1.0000 0.46355  0.83072  0.41964  Biso   1.000  O
  O28      1.0000 0.46137  0.83259  0.92065  Biso   1.000  O
  O29      1.0000 0.96516  0.33330  0.42240  Biso   1.000  O
  O30      1.0000 0.96890  0.33022  0.92681  Biso   1.000  O
  O31      1.0000 0.96404  0.83294  0.42186  Biso   1.000  O
  O32      1.0000 0.96302  0.83116  0.92115  Biso   1.000  O
  O33      1.0000 0.27036  0.12117  0.23128  Biso   1.000  O
  O34      1.0000 0.27438  0.12732  0.73311  Biso   1.000  O
  O35      1.0000 0.27545  0.63102  0.24093  Biso   1.000  O
  O36      1.0000 0.27560  0.62973  0.74059  Biso   1.000  O
  O37      1.0000 0.77530  0.12605  0.24105  Biso   1.000  O
  O38      1.0000 0.77747  0.12965  0.74012  Biso   1.000  O
  O39      1.0000 0.77486  0.62702  0.24001  Biso   1.000  O
  O40      1.0000 0.77616  0.62828  0.74141  Biso   1.000  O
  O41      1.0000 0.27614  0.12270  0.48479  Biso   1.000  O
  O42      1.0000 0.29511  0.13843  0.97096  Biso   1.000  O
  O43      1.0000 0.27576  0.62084  0.49133  Biso   1.000  O
  O44      1.0000 0.27559  0.62612  0.99041  Biso   1.000  O
  O45      1.0000 0.77600  0.12032  0.49067  Biso   1.000  O
  O46      1.0000 0.77762  0.12077  0.99134  Biso   1.000  O
  O47      1.0000 0.77568  0.62075  0.49070  Biso   1.000  O
  O48      1.0000 0.77508  0.62057  0.99026  Biso   1.000  O
  O49      1.0000 0.22466  0.38309  0.00889  Biso   1.000  O
  O50      1.0000 0.22339  0.37897  0.50855  Biso   1.000  O
  O51      1.0000 0.22088  0.89376  0.01403  Biso   1.000  O
  O52      1.0000 0.22415  0.87870  0.50878  Biso   1.000  O
  O53      1.0000 0.72852  0.37720  0.01130  Biso   1.000  O
  O54      1.0000 0.72407  0.37825  0.51013  Biso   1.000  O
  O55      1.0000 0.72207  0.87895  0.00957  Biso   1.000  O
  O56      1.0000 0.72203  0.87787  0.50994  Biso   1.000  O
  O57      1.0000 0.22585  0.36962  0.25852  Biso   1.000  O
  O58      1.0000 0.22610  0.37044  0.75964  Biso   1.000  O
  O59      1.0000 0.21583  0.87109  0.25978  Biso   1.000  O
  O60      1.0000 0.22441  0.87198  0.76017  Biso   1.000  O
  O61      1.0000 0.72655  0.36885  0.25937  Biso   1.000  O
  O62      1.0000 0.72612  0.37237  0.76085  Biso   1.000  O
  O63      1.0000 0.72400  0.86985  0.25974  Biso   1.000  O
  O64      1.0000 0.72387  0.87132  0.75993  Biso   1.000  O
