data_image0
_cell_length_a       10.0787
_cell_length_b       10.4766
_cell_length_c       10.1045
_cell_angle_alpha    89.655
_cell_angle_beta     89.9923
_cell_angle_gamma    90.1194

_symmetry_space_group_name_H-M    "P 1"
_symmetry_int_tables_number       1

loop_
  _symmetry_equiv_pos_as_xyz
  'x, y, z'

loop_
  _atom_site_label
  _atom_site_occupancy
  _atom_site_fract_x
  _atom_site_fract_y
  _atom_site_fract_z
  _atom_site_thermal_displace_type
  _atom_site_B_iso_or_equiv
  _atom_site_type_symbol
  Zr1      1.0000 0.13617  0.01935  0.11944  Biso   1.000  Zr
  Zr2      1.0000 0.13530  0.23121  0.38337  Biso   1.000  Zr
  Zr3      1.0000 0.36843  0.26263  0.12199  Biso   1.000  Zr
  Zr4      1.0000 0.36846  0.48599  0.37578  Biso   1.000  Zr
  O1       1.0000 0.00448  0.16898  0.22567  Biso   1.000  O
  O2       1.0000 0.03574  0.06425  0.45257  Biso   1.000  O
  O3       1.0000 0.46378  0.43323  0.19379  Biso   1.000  O
  O4       1.0000 0.46549  0.31800  0.44637  Biso   1.000  O
  O5       1.0000 0.26677  0.11504  0.25098  Biso   1.000  O
  O6       1.0000 0.27181  0.13236  0.49985  Biso   1.000  O
  O7       1.0000 0.23342  0.38420  0.50099  Biso   1.000  O
  O8       1.0000 0.23542  0.36896  0.25481  Biso   1.000  O
  Zr5      1.0000 0.13475  0.01208  0.62621  Biso   1.000  Zr
  Zr6      1.0000 0.14140  0.22328  0.86651  Biso   1.000  Zr
  Zr7      1.0000 0.36877  0.26622  0.62514  Biso   1.000  Zr
  Zr8      1.0000 0.36853  0.48519  0.87363  Biso   1.000  Zr
  O9       1.0000 0.03611  0.17975  0.69221  Biso   1.000  O
  O10      1.0000 0.03997  0.05831  0.93758  Biso   1.000  O
  O11      1.0000 0.46732  0.43333  0.69597  Biso   1.000  O
  O12      1.0000 0.46485  0.31537  0.94154  Biso   1.000  O
  O13      1.0000 0.27252  0.11267  0.74461  Biso   1.000  O
  O14      1.0000 0.28966  0.12180  0.98948  Biso   1.000  O
  O15      1.0000 0.23106  0.38894  0.99935  Biso   1.000  O
  O16      1.0000 0.23401  0.36469  0.74862  Biso   1.000  O
  Zr9      1.0000 0.13242  0.53433  0.12571  Biso   1.000  Zr
  Zr10     1.0000 0.13533  0.73740  0.37836  Biso   1.000  Zr
  Zr11     1.0000 0.36571  0.76772  0.12687  Biso   1.000  Zr
  Zr12     1.0000 0.36581  0.98445  0.37564  Biso   1.000  Zr
  O17      1.0000 0.03405  0.68968  0.19949  Biso   1.000  O
  O18      1.0000 0.03574  0.56892  0.44562  Biso   1.000  O
  O19      1.0000 0.46395  0.93329  0.19580  Biso   1.000  O
  O20      1.0000 0.46569  0.81589  0.44390  Biso   1.000  O
  O21      1.0000 0.27154  0.62220  0.25076  Biso   1.000  O
  O22      1.0000 0.27048  0.63318  0.49931  Biso   1.000  O
  O23      1.0000 0.23262  0.88276  0.49947  Biso   1.000  O
  O24      1.0000 0.23060  0.86871  0.24931  Biso   1.000  O
  Zr13     1.0000 0.13419  0.51443  0.62529  Biso   1.000  Zr
  Zr14     1.0000 0.13308  0.73636  0.87274  Biso   1.000  Zr
  Zr15     1.0000 0.36972  0.76353  0.62407  Biso   1.000  Zr
  Zr16     1.0000 0.37117  0.97879  0.87331  Biso   1.000  Zr
  O25      1.0000 0.03670  0.68318  0.69289  Biso   1.000  O
  O26      1.0000 0.03431  0.56933  0.94635  Biso   1.000  O
  O27      1.0000 0.46941  0.93048  0.69214  Biso   1.000  O
  O28      1.0000 0.46894  0.81602  0.94814  Biso   1.000  O
  O29      1.0000 0.26911  0.61448  0.74870  Biso   1.000  O
  O30      1.0000 0.26935  0.63766  0.99779  Biso   1.000  O
  O31      1.0000 0.23071  0.88162  0.99881  Biso   1.000  O
  O32      1.0000 0.23561  0.86360  0.74788  Biso   1.000  O
  Zr17     1.0000 0.63068  0.01199  0.12290  Biso   1.000  Zr
  Zr18     1.0000 0.63101  0.23221  0.37824  Biso   1.000  Zr
  Zr19     1.0000 0.84317  0.26385  0.12654  Biso   1.000  Zr
  Zr20     1.0000 0.86721  0.48572  0.37691  Biso   1.000  Zr
  O33      1.0000 0.53239  0.18043  0.19547  Biso   1.000  O
  O34      1.0000 0.53434  0.06605  0.44670  Biso   1.000  O
  O35      1.0000 0.95364  0.44435  0.19495  Biso   1.000  O
  O36      1.0000 0.96941  0.32080  0.44992  Biso   1.000  O
  O37      1.0000 0.75755  0.11363  0.24934  Biso   1.000  O
  O38      1.0000 0.77147  0.13488  0.49729  Biso   1.000  O
  O39      1.0000 0.73208  0.38295  0.50045  Biso   1.000  O
  O40      1.0000 0.72325  0.36843  0.25294  Biso   1.000  O
  Zr21     1.0000 0.63707  0.01470  0.62399  Biso   1.000  Zr
  Zr22     1.0000 0.63263  0.23243  0.87197  Biso   1.000  Zr
  Zr23     1.0000 0.86769  0.26651  0.62615  Biso   1.000  Zr
  Zr24     1.0000 0.86629  0.48318  0.87683  Biso   1.000  Zr
  O41      1.0000 0.53791  0.18305  0.69212  Biso   1.000  O
  O42      1.0000 0.54190  0.06295  0.93925  Biso   1.000  O
  O43      1.0000 0.96648  0.43324  0.69780  Biso   1.000  O
  O44      1.0000 0.96125  0.31220  0.93863  Biso   1.000  O
  O45      1.0000 0.77155  0.11561  0.74775  Biso   1.000  O
  O46      1.0000 0.76899  0.13093  0.99805  Biso   1.000  O
  O47      1.0000 0.72503  0.38227  0.99975  Biso   1.000  O
  O48      1.0000 0.73202  0.36660  0.74944  Biso   1.000  O
  Zr25     1.0000 0.63175  0.51809  0.12784  Biso   1.000  Zr
  Zr26     1.0000 0.63520  0.73549  0.37547  Biso   1.000  Zr
  Zr27     1.0000 0.86446  0.76658  0.12524  Biso   1.000  Zr
  Zr28     1.0000 0.86993  0.98734  0.37071  Biso   1.000  Zr
  O49      1.0000 0.53455  0.68379  0.19621  Biso   1.000  O
  O50      1.0000 0.53666  0.56689  0.44605  Biso   1.000  O
  O51      1.0000 0.96506  0.93323  0.19058  Biso   1.000  O
  O52      1.0000 0.96614  0.81904  0.44472  Biso   1.000  O
  O53      1.0000 0.76752  0.61886  0.25089  Biso   1.000  O
  O54      1.0000 0.76954  0.63448  0.49976  Biso   1.000  O
  O55      1.0000 0.73399  0.88561  0.49656  Biso   1.000  O
  O56      1.0000 0.73089  0.86675  0.24749  Biso   1.000  O
  Zr29     1.0000 0.63644  0.51509  0.62562  Biso   1.000  Zr
  Zr30     1.0000 0.63565  0.73290  0.87519  Biso   1.000  Zr
  Zr31     1.0000 0.86806  0.76562  0.62416  Biso   1.000  Zr
  Zr32     1.0000 0.86697  0.98174  0.87410  Biso   1.000  Zr
  O57      1.0000 0.53624  0.68142  0.69657  Biso   1.000  O
  O58      1.0000 0.53434  0.56695  0.94593  Biso   1.000  O
  O59      1.0000 0.96775  0.92951  0.69771  Biso   1.000  O
  O60      1.0000 0.96378  0.81361  0.94428  Biso   1.000  O
  O61      1.0000 0.77084  0.61573  0.74943  Biso   1.000  O
  O62      1.0000 0.76845  0.63197  0.99980  Biso   1.000  O
  O63      1.0000 0.73169  0.88142  0.99802  Biso   1.000  O
  O64      1.0000 0.73287  0.86519  0.74763  Biso   1.000  O
  Ir1      1.0000 0.09570  0.29146  0.10848  Biso   1.000  Ir
