data_image0
_cell_length_a       10.1184
_cell_length_b       5.28085
_cell_length_c       10.1605
_cell_angle_alpha    90.5387
_cell_angle_beta     89.6339
_cell_angle_gamma    90.4953

_symmetry_space_group_name_H-M    "P 1"
_symmetry_int_tables_number       1

loop_
  _symmetry_equiv_pos_as_xyz
  'x, y, z'

loop_
  _atom_site_label
  _atom_site_occupancy
  _atom_site_fract_x
  _atom_site_fract_y
  _atom_site_fract_z
  _atom_site_thermal_displace_type
  _atom_site_B_iso_or_equiv
  _atom_site_type_symbol
  Zr1      1.0000 0.12187  0.10250  0.10819  Biso   1.000  Zr
  Zr2      1.0000 0.13613  0.45138  0.39086  Biso   1.000  Zr
  Zr3      1.0000 0.37626  0.51416  0.11595  Biso   1.000  Zr
  Zr4      1.0000 0.36837  0.95832  0.37382  Biso   1.000  Zr
  O1       1.0000 0.00421  0.36170  0.22975  Biso   1.000  O
  O2       1.0000 0.03441  0.12506  0.45483  Biso   1.000  O
  O3       1.0000 0.46841  0.85724  0.19376  Biso   1.000  O
  O4       1.0000 0.47086  0.63286  0.45187  Biso   1.000  O
  O5       1.0000 0.25798  0.18432  0.25018  Biso   1.000  O
  O6       1.0000 0.27502  0.25794  0.50044  Biso   1.000  O
  O7       1.0000 0.23396  0.76272  0.50406  Biso   1.000  O
  O8       1.0000 0.25987  0.66498  0.26750  Biso   1.000  O
  Zr5      1.0000 0.13592  0.02436  0.62753  Biso   1.000  Zr
  Zr6      1.0000 0.13723  0.46984  0.86621  Biso   1.000  Zr
  Zr7      1.0000 0.37118  0.52932  0.62527  Biso   1.000  Zr
  Zr8      1.0000 0.37119  0.96906  0.87286  Biso   1.000  Zr
  O9       1.0000 0.03881  0.37044  0.68791  Biso   1.000  O
  O10      1.0000 0.03349  0.13949  0.92743  Biso   1.000  O
  O11      1.0000 0.47044  0.86416  0.69592  Biso   1.000  O
  O12      1.0000 0.46975  0.63923  0.94085  Biso   1.000  O
  O13      1.0000 0.27028  0.22971  0.74498  Biso   1.000  O
  O14      1.0000 0.28166  0.26575  0.98234  Biso   1.000  O
  O15      1.0000 0.23484  0.79241  0.00503  Biso   1.000  O
  O16      1.0000 0.23726  0.73241  0.75048  Biso   1.000  O
  Zr9      1.0000 0.63104  0.02747  0.12588  Biso   1.000  Zr
  Zr10     1.0000 0.63371  0.46323  0.37798  Biso   1.000  Zr
  Zr11     1.0000 0.84811  0.53405  0.12223  Biso   1.000  Zr
  Zr12     1.0000 0.86798  0.97386  0.37341  Biso   1.000  Zr
  O17      1.0000 0.53042  0.35288  0.20257  Biso   1.000  O
  O18      1.0000 0.53620  0.12848  0.44654  Biso   1.000  O
  O19      1.0000 0.95244  0.89387  0.18733  Biso   1.000  O
  O20      1.0000 0.97008  0.64299  0.44863  Biso   1.000  O
  O21      1.0000 0.75998  0.22931  0.24913  Biso   1.000  O
  O22      1.0000 0.77065  0.26967  0.49691  Biso   1.000  O
  O23      1.0000 0.73618  0.76892  0.49743  Biso   1.000  O
  O24      1.0000 0.72591  0.73121  0.25044  Biso   1.000  O
  Zr13     1.0000 0.63579  0.02741  0.62123  Biso   1.000  Zr
  Zr14     1.0000 0.63525  0.46371  0.87034  Biso   1.000  Zr
  Zr15     1.0000 0.87051  0.53361  0.62195  Biso   1.000  Zr
  Zr16     1.0000 0.86229  0.96355  0.87122  Biso   1.000  Zr
  O25      1.0000 0.53607  0.36072  0.69549  Biso   1.000  O
  O26      1.0000 0.53580  0.14039  0.94810  Biso   1.000  O
  O27      1.0000 0.96851  0.86198  0.69902  Biso   1.000  O
  O28      1.0000 0.96152  0.63734  0.94171  Biso   1.000  O
  O29      1.0000 0.77012  0.22875  0.74585  Biso   1.000  O
  O30      1.0000 0.76841  0.26377  0.99653  Biso   1.000  O
  O31      1.0000 0.72548  0.76205  0.99709  Biso   1.000  O
  O32      1.0000 0.73261  0.72952  0.74584  Biso   1.000  O
  Ir1      1.0000 0.10949  0.61012  0.12691  Biso   1.000  Ir
