data_image0
_cell_length_a       5.09674
_cell_length_b       10.2796
_cell_length_c       10.5339
_cell_angle_alpha    90.036
_cell_angle_beta     80.7645
_cell_angle_gamma    89.3103

_symmetry_space_group_name_H-M    "P 1"
_symmetry_int_tables_number       1

loop_
  _symmetry_equiv_pos_as_xyz
  'x, y, z'

loop_
  _atom_site_label
  _atom_site_occupancy
  _atom_site_fract_x
  _atom_site_fract_y
  _atom_site_fract_z
  _atom_site_thermal_displace_type
  _atom_site_B_iso_or_equiv
  _atom_site_type_symbol
  Ir1      1.0000 0.24697  0.00911  0.16783  Biso   1.000  Ir
  Zr1      1.0000 0.27445  0.02148  0.64378  Biso   1.000  Zr
  Zr2      1.0000 0.27445  0.52110  0.14401  Biso   1.000  Zr
  Zr3      1.0000 0.27992  0.52076  0.64795  Biso   1.000  Zr
  Zr4      1.0000 0.27757  0.23112  0.39213  Biso   1.000  Zr
  Zr5      1.0000 0.28952  0.22593  0.89595  Biso   1.000  Zr
  Zr6      1.0000 0.27114  0.72484  0.39738  Biso   1.000  Zr
  Zr7      1.0000 0.27298  0.73306  0.89602  Biso   1.000  Zr
  Zr8      1.0000 0.73233  0.26427  0.10296  Biso   1.000  Zr
  Zr9      1.0000 0.72417  0.27237  0.60470  Biso   1.000  Zr
  Zr10     1.0000 0.71124  0.77313  0.10223  Biso   1.000  Zr
  Zr11     1.0000 0.72016  0.77118  0.60724  Biso   1.000  Zr
  Zr12     1.0000 0.72213  0.47843  0.35341  Biso   1.000  Zr
  Zr13     1.0000 0.72903  0.47814  0.85777  Biso   1.000  Zr
  Zr14     1.0000 0.70978  0.97634  0.35600  Biso   1.000  Zr
  Zr15     1.0000 0.72435  0.98461  0.85460  Biso   1.000  Zr
  O1       1.0000 0.08916  0.15400  0.08076  Biso   1.000  O
  O2       1.0000 0.06766  0.16460  0.57225  Biso   1.000  O
  O3       1.0000 0.06469  0.66785  0.07790  Biso   1.000  O
  O4       1.0000 0.06549  0.66399  0.57780  Biso   1.000  O
  O5       1.0000 0.05212  0.08870  0.32580  Biso   1.000  O
  O6       1.0000 0.07629  0.08450  0.82472  Biso   1.000  O
  O7       1.0000 0.06769  0.58169  0.32805  Biso   1.000  O
  O8       1.0000 0.06908  0.58727  0.82796  Biso   1.000  O
  O9       1.0000 0.93758  0.41289  0.17440  Biso   1.000  O
  O10      1.0000 0.93843  0.41274  0.67692  Biso   1.000  O
  O11      1.0000 0.92303  0.91305  0.17155  Biso   1.000  O
  O12      1.0000 0.93184  0.91583  0.67154  Biso   1.000  O
  O13      1.0000 0.93377  0.33646  0.42474  Biso   1.000  O
  O14      1.0000 0.95162  0.33904  0.93027  Biso   1.000  O
  O15      1.0000 0.92782  0.83391  0.42235  Biso   1.000  O
  O16      1.0000 0.92011  0.83347  0.92250  Biso   1.000  O
  O17      1.0000 0.53943  0.11692  0.23000  Biso   1.000  O
  O18      1.0000 0.55174  0.12772  0.73208  Biso   1.000  O
  O19      1.0000 0.54787  0.62892  0.24047  Biso   1.000  O
  O20      1.0000 0.55153  0.62867  0.74139  Biso   1.000  O
  O21      1.0000 0.55187  0.12219  0.48398  Biso   1.000  O
  O22      1.0000 0.59591  0.13928  0.97035  Biso   1.000  O
  O23      1.0000 0.55077  0.62046  0.49159  Biso   1.000  O
  O24      1.0000 0.54850  0.62624  0.98996  Biso   1.000  O
  O25      1.0000 0.45934  0.38183  0.01108  Biso   1.000  O
  O26      1.0000 0.44751  0.37793  0.50945  Biso   1.000  O
  O27      1.0000 0.43882  0.89530  0.01500  Biso   1.000  O
  O28      1.0000 0.44530  0.87751  0.50943  Biso   1.000  O
  O29      1.0000 0.45774  0.36694  0.25864  Biso   1.000  O
  O30      1.0000 0.45709  0.37171  0.76137  Biso   1.000  O
  O31      1.0000 0.43087  0.87037  0.26074  Biso   1.000  O
  O32      1.0000 0.44916  0.87215  0.76100  Biso   1.000  O
