data_image0
_cell_length_a       10.2224
_cell_length_b       10.375
_cell_length_c       10.5521
_cell_angle_alpha    90.148
_cell_angle_beta     80.1329
_cell_angle_gamma    90.2353

_symmetry_space_group_name_H-M    "P 1"
_symmetry_int_tables_number       1

loop_
  _symmetry_equiv_pos_as_xyz
  'x, y, z'

loop_
  _atom_site_label
  _atom_site_occupancy
  _atom_site_fract_x
  _atom_site_fract_y
  _atom_site_fract_z
  _atom_site_thermal_displace_type
  _atom_site_B_iso_or_equiv
  _atom_site_type_symbol
  Zr1      1.0000 0.13682  0.02234  0.14608  Biso   1.000  Zr
  Zr2      1.0000 0.13848  0.23333  0.39592  Biso   1.000  Zr
  Zr3      1.0000 0.35733  0.27400  0.09711  Biso   1.000  Zr
  Zr4      1.0000 0.35383  0.47994  0.35026  Biso   1.000  Zr
  O1       1.0000 0.03492  0.16951  0.07873  Biso   1.000  O
  O2       1.0000 0.03667  0.08358  0.32759  Biso   1.000  O
  O3       1.0000 0.46376  0.41914  0.16972  Biso   1.000  O
  O4       1.0000 0.48597  0.35712  0.43543  Biso   1.000  O
  O5       1.0000 0.28299  0.12625  0.23893  Biso   1.000  O
  O6       1.0000 0.27347  0.11473  0.49119  Biso   1.000  O
  O7       1.0000 0.22209  0.38168  0.00429  Biso   1.000  O
  O8       1.0000 0.20632  0.37776  0.25183  Biso   1.000  O
  Zr5      1.0000 0.13683  0.02021  0.64670  Biso   1.000  Zr
  Zr6      1.0000 0.13664  0.22908  0.89388  Biso   1.000  Zr
  Zr7      1.0000 0.36113  0.27456  0.60646  Biso   1.000  Zr
  Zr8      1.0000 0.35972  0.48003  0.85451  Biso   1.000  Zr
  O9       1.0000 0.03627  0.16897  0.57982  Biso   1.000  O
  O10      1.0000 0.03316  0.08197  0.82876  Biso   1.000  O
  O11      1.0000 0.46642  0.41528  0.67708  Biso   1.000  O
  O12      1.0000 0.46651  0.33592  0.92188  Biso   1.000  O
  O13      1.0000 0.27479  0.12964  0.74006  Biso   1.000  O
  O14      1.0000 0.27300  0.12243  0.98884  Biso   1.000  O
  O15      1.0000 0.22292  0.38046  0.51329  Biso   1.000  O
  O16      1.0000 0.22387  0.37188  0.75871  Biso   1.000  O
  Zr9      1.0000 0.13655  0.52326  0.14290  Biso   1.000  Zr
  Zr10     1.0000 0.13614  0.72797  0.39656  Biso   1.000  Zr
  Zr11     1.0000 0.36001  0.77160  0.10381  Biso   1.000  Zr
  Zr12     1.0000 0.36238  0.96574  0.35804  Biso   1.000  Zr
  O17      1.0000 0.03266  0.67190  0.07873  Biso   1.000  O
  O18      1.0000 0.03190  0.58577  0.32704  Biso   1.000  O
  O19      1.0000 0.46568  0.91510  0.17369  Biso   1.000  O
  O20      1.0000 0.46299  0.82324  0.42328  Biso   1.000  O
  O21      1.0000 0.27372  0.62966  0.24018  Biso   1.000  O
  O22      1.0000 0.27104  0.62094  0.49170  Biso   1.000  O
  O23      1.0000 0.22385  0.88024  0.01055  Biso   1.000  O
  O24      1.0000 0.22300  0.86984  0.26036  Biso   1.000  O
  Zr13     1.0000 0.13682  0.52313  0.64633  Biso   1.000  Zr
  Zr14     1.0000 0.13638  0.73035  0.89642  Biso   1.000  Zr
  Zr15     1.0000 0.36084  0.76830  0.60660  Biso   1.000  Zr
  Zr16     1.0000 0.36029  0.97928  0.85431  Biso   1.000  Zr
  O25      1.0000 0.03076  0.66721  0.57925  Biso   1.000  O
  O26      1.0000 0.03331  0.58335  0.83050  Biso   1.000  O
  O27      1.0000 0.46439  0.91643  0.67093  Biso   1.000  O
  O28      1.0000 0.46492  0.83485  0.92190  Biso   1.000  O
  O29      1.0000 0.27429  0.62852  0.74139  Biso   1.000  O
  O30      1.0000 0.27404  0.62361  0.98999  Biso   1.000  O
  O31      1.0000 0.22364  0.87518  0.51214  Biso   1.000  O
  O32      1.0000 0.22329  0.87163  0.76074  Biso   1.000  O
  Zr17     1.0000 0.63930  0.02062  0.14586  Biso   1.000  Zr
  Zr18     1.0000 0.65009  0.22955  0.40049  Biso   1.000  Zr
  Zr19     1.0000 0.86081  0.27266  0.10482  Biso   1.000  Zr
  Zr20     1.0000 0.86201  0.47930  0.35448  Biso   1.000  Zr
  O33      1.0000 0.53129  0.16202  0.07423  Biso   1.000  O
  O34      1.0000 0.55058  0.05936  0.34002  Biso   1.000  O
  O35      1.0000 0.96175  0.42197  0.16803  Biso   1.000  O
  O36      1.0000 0.96537  0.33487  0.42261  Biso   1.000  O
  O37      1.0000 0.77841  0.12949  0.23960  Biso   1.000  O
  O38      1.0000 0.78051  0.11951  0.49295  Biso   1.000  O
  O39      1.0000 0.72320  0.37891  0.01137  Biso   1.000  O
  O40      1.0000 0.72600  0.37188  0.26107  Biso   1.000  O
  Zr21     1.0000 0.63731  0.02165  0.64488  Biso   1.000  Zr
  Zr22     1.0000 0.63814  0.22791  0.89621  Biso   1.000  Zr
  Zr23     1.0000 0.86337  0.27169  0.60787  Biso   1.000  Zr
  Zr24     1.0000 0.85979  0.47907  0.85650  Biso   1.000  Zr
  O41      1.0000 0.53469  0.16815  0.57860  Biso   1.000  O
  O42      1.0000 0.53259  0.08439  0.82624  Biso   1.000  O
  O43      1.0000 0.96466  0.41869  0.67329  Biso   1.000  O
  O44      1.0000 0.96353  0.33191  0.91991  Biso   1.000  O
  O45      1.0000 0.77447  0.12882  0.74151  Biso   1.000  O
  O46      1.0000 0.77485  0.12187  0.99073  Biso   1.000  O
  O47      1.0000 0.72869  0.37784  0.51345  Biso   1.000  O
  O48      1.0000 0.72431  0.37170  0.76195  Biso   1.000  O
  Zr25     1.0000 0.63812  0.52274  0.14628  Biso   1.000  Zr
  Zr26     1.0000 0.63889  0.72541  0.39524  Biso   1.000  Zr
  Zr27     1.0000 0.85979  0.77179  0.10450  Biso   1.000  Zr
  Zr28     1.0000 0.86157  0.97815  0.35440  Biso   1.000  Zr
  O49      1.0000 0.53251  0.66668  0.07705  Biso   1.000  O
  O50      1.0000 0.53130  0.58540  0.32494  Biso   1.000  O
  O51      1.0000 0.96567  0.91945  0.16995  Biso   1.000  O
  O52      1.0000 0.96463  0.83404  0.42210  Biso   1.000  O
  O53      1.0000 0.77476  0.62845  0.24051  Biso   1.000  O
  O54      1.0000 0.77446  0.62056  0.49046  Biso   1.000  O
  O55      1.0000 0.72292  0.87966  0.01066  Biso   1.000  O
  O56      1.0000 0.72680  0.86900  0.25929  Biso   1.000  O
  Zr29     1.0000 0.63904  0.52092  0.64696  Biso   1.000  Zr
  Zr30     1.0000 0.63700  0.72895  0.89578  Biso   1.000  Zr
  Zr31     1.0000 0.85887  0.77209  0.60490  Biso   1.000  Zr
  Zr32     1.0000 0.85909  0.97898  0.85506  Biso   1.000  Zr
  O57      1.0000 0.53382  0.66399  0.57920  Biso   1.000  O
  O58      1.0000 0.53300  0.58496  0.82826  Biso   1.000  O
  O59      1.0000 0.96360  0.91777  0.67151  Biso   1.000  O
  O60      1.0000 0.96332  0.83363  0.92076  Biso   1.000  O
  O61      1.0000 0.77458  0.62915  0.74102  Biso   1.000  O
  O62      1.0000 0.77390  0.62252  0.99092  Biso   1.000  O
  O63      1.0000 0.72301  0.87802  0.50971  Biso   1.000  O
  O64      1.0000 0.72260  0.87191  0.76011  Biso   1.000  O
  Ir1      1.0000 0.41367  0.22549  0.33051  Biso   1.000  Ir
