data_image0
_cell_length_a       10.1903
_cell_length_b       10.5466
_cell_length_c       5.06151
_cell_angle_alpha    90.1651
_cell_angle_beta     90.4894
_cell_angle_gamma    88.9233

_symmetry_space_group_name_H-M    "P 1"
_symmetry_int_tables_number       1

loop_
  _symmetry_equiv_pos_as_xyz
  'x, y, z'

loop_
  _atom_site_label
  _atom_site_occupancy
  _atom_site_fract_x
  _atom_site_fract_y
  _atom_site_fract_z
  _atom_site_thermal_displace_type
  _atom_site_B_iso_or_equiv
  _atom_site_type_symbol
  Zr1      1.0000 0.13121  0.94404  0.24858  Biso   1.000  Zr
  Zr2      1.0000 0.12602  0.28802  0.73498  Biso   1.000  Zr
  Zr3      1.0000 0.38063  0.24604  0.24572  Biso   1.000  Zr
  Zr4      1.0000 0.39205  0.00808  0.74993  Biso   1.000  Zr
  O1       1.0000 0.99478  0.17008  0.93171  Biso   1.000  O
  O2       1.0000 0.97482  0.07552  0.42138  Biso   1.000  O
  O3       1.0000 0.97835  0.37285  0.50750  Biso   1.000  O
  O4       1.0000 0.00788  0.41158  0.99594  Biso   1.000  O
  O5       1.0000 0.25661  0.16109  0.54474  Biso   1.000  O
  O6       1.0000 0.28575  0.06604  0.06639  Biso   1.000  O
  O7       1.0000 0.28484  0.34502  0.94871  Biso   1.000  O
  O8       1.0000 0.24358  0.40731  0.47350  Biso   1.000  O
  Zr5      1.0000 0.11239  0.51490  0.26040  Biso   1.000  Zr
  Zr6      1.0000 0.12136  0.73732  0.75988  Biso   1.000  Zr
  Zr7      1.0000 0.38827  0.75568  0.29689  Biso   1.000  Zr
  Zr8      1.0000 0.37099  0.49827  0.74620  Biso   1.000  Zr
  O9       1.0000 0.98639  0.65582  0.01863  Biso   1.000  O
  O10      1.0000 0.99664  0.60484  0.52767  Biso   1.000  O
  O11      1.0000 0.01074  0.83160  0.46304  Biso   1.000  O
  O12      1.0000 0.01195  0.90222  0.93853  Biso   1.000  O
  O13      1.0000 0.24923  0.64899  0.48054  Biso   1.000  O
  O14      1.0000 0.22262  0.57945  0.95427  Biso   1.000  O
  O15      1.0000 0.24551  0.81520  0.04114  Biso   1.000  O
  O16      1.0000 0.26160  0.89244  0.54606  Biso   1.000  O
  Zr9      1.0000 0.63416  0.00817  0.24600  Biso   1.000  Zr
  Zr10     1.0000 0.62748  0.26280  0.74898  Biso   1.000  Zr
  Zr11     1.0000 0.87462  0.25209  0.24944  Biso   1.000  Zr
  Zr12     1.0000 0.87486  0.00922  0.74030  Biso   1.000  Zr
  O17      1.0000 0.51126  0.15289  0.98746  Biso   1.000  O
  O18      1.0000 0.50372  0.10693  0.48857  Biso   1.000  O
  O19      1.0000 0.49350  0.35798  0.49902  Biso   1.000  O
  O20      1.0000 0.51313  0.40525  0.99115  Biso   1.000  O
  O21      1.0000 0.74722  0.15796  0.50200  Biso   1.000  O
  O22      1.0000 0.75608  0.10632  0.00206  Biso   1.000  O
  O23      1.0000 0.75849  0.35837  0.99454  Biso   1.000  O
  O24      1.0000 0.73829  0.40662  0.50880  Biso   1.000  O
  Zr13     1.0000 0.61636  0.50197  0.26012  Biso   1.000  Zr
  Zr14     1.0000 0.61848  0.74879  0.78998  Biso   1.000  Zr
  Zr15     1.0000 0.85890  0.74853  0.27113  Biso   1.000  Zr
  Zr16     1.0000 0.86690  0.50474  0.76159  Biso   1.000  Zr
  O25      1.0000 0.48526  0.64991  0.01024  Biso   1.000  O
  O26      1.0000 0.50158  0.61002  0.51390  Biso   1.000  O
  O27      1.0000 0.51186  0.86061  0.52735  Biso   1.000  O
  O28      1.0000 0.50212  0.89881  0.02446  Biso   1.000  O
  O29      1.0000 0.74923  0.65493  0.53734  Biso   1.000  O
  O30      1.0000 0.73880  0.60791  0.03063  Biso   1.000  O
  O31      1.0000 0.75159  0.85659  0.99797  Biso   1.000  O
  O32      1.0000 0.76028  0.90610  0.48851  Biso   1.000  O
  Ir1      1.0000 0.12690  0.17578  0.23530  Biso   1.000  Ir
