data_image0
_cell_length_a       10.2737
_cell_length_b       10.3803
_cell_length_c       5.29554
_cell_angle_alpha    90.3272
_cell_angle_beta     79.821
_cell_angle_gamma    90.2931

_symmetry_space_group_name_H-M    "P 1"
_symmetry_int_tables_number       1

loop_
  _symmetry_equiv_pos_as_xyz
  'x, y, z'

loop_
  _atom_site_label
  _atom_site_occupancy
  _atom_site_fract_x
  _atom_site_fract_y
  _atom_site_fract_z
  _atom_site_thermal_displace_type
  _atom_site_B_iso_or_equiv
  _atom_site_type_symbol
  Zr1      1.0000 0.13337  0.01925  0.29912  Biso   1.000  Zr
  Zr2      1.0000 0.14029  0.23199  0.78719  Biso   1.000  Zr
  Zr3      1.0000 0.35644  0.27174  0.17232  Biso   1.000  Zr
  Zr4      1.0000 0.35107  0.48457  0.69903  Biso   1.000  Zr
  O1       1.0000 0.03467  0.17034  0.16161  Biso   1.000  O
  O2       1.0000 0.03476  0.08327  0.65738  Biso   1.000  O
  O3       1.0000 0.46556  0.40638  0.36017  Biso   1.000  O
  O4       1.0000 0.48864  0.36376  0.87029  Biso   1.000  O
  O5       1.0000 0.28421  0.12940  0.48083  Biso   1.000  O
  O6       1.0000 0.26118  0.11095  0.99532  Biso   1.000  O
  O7       1.0000 0.21923  0.38416  0.00760  Biso   1.000  O
  O8       1.0000 0.21110  0.37606  0.49737  Biso   1.000  O
  Zr5      1.0000 0.13540  0.52421  0.28893  Biso   1.000  Zr
  Zr6      1.0000 0.13408  0.73073  0.79790  Biso   1.000  Zr
  Zr7      1.0000 0.36016  0.77027  0.21289  Biso   1.000  Zr
  Zr8      1.0000 0.35907  0.97192  0.72069  Biso   1.000  Zr
  O9       1.0000 0.02768  0.66944  0.15774  Biso   1.000  O
  O10      1.0000 0.03169  0.58704  0.65675  Biso   1.000  O
  O11      1.0000 0.46496  0.91385  0.35156  Biso   1.000  O
  O12      1.0000 0.46314  0.82990  0.85301  Biso   1.000  O
  O13      1.0000 0.27178  0.63024  0.48314  Biso   1.000  O
  O14      1.0000 0.26923  0.62368  0.98481  Biso   1.000  O
  O15      1.0000 0.22261  0.87440  0.02862  Biso   1.000  O
  O16      1.0000 0.22224  0.87175  0.52626  Biso   1.000  O
  Zr9      1.0000 0.63747  0.02036  0.29276  Biso   1.000  Zr
  Zr10     1.0000 0.65227  0.23199  0.80540  Biso   1.000  Zr
  Zr11     1.0000 0.86498  0.27206  0.21732  Biso   1.000  Zr
  Zr12     1.0000 0.86302  0.47961  0.71386  Biso   1.000  Zr
  O17      1.0000 0.53041  0.16118  0.14291  Biso   1.000  O
  O18      1.0000 0.54304  0.06543  0.67597  Biso   1.000  O
  O19      1.0000 0.96312  0.42229  0.34235  Biso   1.000  O
  O20      1.0000 0.96540  0.33323  0.84232  Biso   1.000  O
  O21      1.0000 0.77576  0.12946  0.48563  Biso   1.000  O
  O22      1.0000 0.77931  0.11903  0.99043  Biso   1.000  O
  O23      1.0000 0.72929  0.37765  0.03185  Biso   1.000  O
  O24      1.0000 0.72856  0.37392  0.52827  Biso   1.000  O
  Zr13     1.0000 0.63788  0.52123  0.29598  Biso   1.000  Zr
  Zr14     1.0000 0.63519  0.72576  0.79190  Biso   1.000  Zr
  Zr15     1.0000 0.85654  0.77160  0.21063  Biso   1.000  Zr
  Zr16     1.0000 0.85910  0.97833  0.71178  Biso   1.000  Zr
  O25      1.0000 0.52898  0.65820  0.14915  Biso   1.000  O
  O26      1.0000 0.52678  0.59104  0.64112  Biso   1.000  O
  O27      1.0000 0.96215  0.91809  0.34340  Biso   1.000  O
  O28      1.0000 0.96230  0.83534  0.84631  Biso   1.000  O
  O29      1.0000 0.77179  0.62841  0.48245  Biso   1.000  O
  O30      1.0000 0.77145  0.62158  0.98247  Biso   1.000  O
  O31      1.0000 0.72061  0.87816  0.02294  Biso   1.000  O
  O32      1.0000 0.72347  0.87053  0.52192  Biso   1.000  O
  Ir1      1.0000 0.42991  0.23629  0.63036  Biso   1.000  Ir
