data_image0
_cell_length_a       10.1966
_cell_length_b       10.2762
_cell_length_c       5.2665
_cell_angle_alpha    90.0575
_cell_angle_beta     80.7174
_cell_angle_gamma    89.1725

_symmetry_space_group_name_H-M    "P 1"
_symmetry_int_tables_number       1

loop_
  _symmetry_equiv_pos_as_xyz
  'x, y, z'

loop_
  _atom_site_label
  _atom_site_occupancy
  _atom_site_fract_x
  _atom_site_fract_y
  _atom_site_fract_z
  _atom_site_thermal_displace_type
  _atom_site_B_iso_or_equiv
  _atom_site_type_symbol
  Ir1      1.0000 0.12354  0.00843  0.33394  Biso   1.000  Ir
  Zr1      1.0000 0.14033  0.52285  0.29365  Biso   1.000  Zr
  Zr2      1.0000 0.63824  0.02216  0.29071  Biso   1.000  Zr
  Zr3      1.0000 0.63723  0.51908  0.29049  Biso   1.000  Zr
  Zr4      1.0000 0.14428  0.22767  0.78246  Biso   1.000  Zr
  Zr5      1.0000 0.13631  0.73019  0.79674  Biso   1.000  Zr
  Zr6      1.0000 0.64081  0.23041  0.79233  Biso   1.000  Zr
  Zr7      1.0000 0.63511  0.72737  0.79087  Biso   1.000  Zr
  Zr8      1.0000 0.35982  0.27007  0.20079  Biso   1.000  Zr
  Zr9      1.0000 0.35865  0.77749  0.20874  Biso   1.000  Zr
  Zr10     1.0000 0.86901  0.26594  0.21448  Biso   1.000  Zr
  Zr11     1.0000 0.85675  0.76774  0.20987  Biso   1.000  Zr
  Zr12     1.0000 0.36202  0.48045  0.70849  Biso   1.000  Zr
  Zr13     1.0000 0.36186  0.98545  0.70666  Biso   1.000  Zr
  Zr14     1.0000 0.86381  0.47615  0.71349  Biso   1.000  Zr
  Zr15     1.0000 0.85469  0.97542  0.71339  Biso   1.000  Zr
  O1       1.0000 0.04427  0.14849  0.14854  Biso   1.000  O
  O2       1.0000 0.03193  0.66431  0.15677  Biso   1.000  O
  O3       1.0000 0.53602  0.16774  0.15416  Biso   1.000  O
  O4       1.0000 0.53208  0.66733  0.15511  Biso   1.000  O
  O5       1.0000 0.02922  0.08649  0.64917  Biso   1.000  O
  O6       1.0000 0.03475  0.58379  0.65973  Biso   1.000  O
  O7       1.0000 0.53840  0.08374  0.65499  Biso   1.000  O
  O8       1.0000 0.53332  0.58468  0.65225  Biso   1.000  O
  O9       1.0000 0.46630  0.41562  0.34565  Biso   1.000  O
  O10      1.0000 0.46454  0.91825  0.34493  Biso   1.000  O
  O11      1.0000 0.97267  0.40893  0.35591  Biso   1.000  O
  O12      1.0000 0.95916  0.91181  0.34188  Biso   1.000  O
  O13      1.0000 0.47285  0.34206  0.84876  Biso   1.000  O
  O14      1.0000 0.45978  0.83336  0.84291  Biso   1.000  O
  O15      1.0000 0.97051  0.33234  0.86004  Biso   1.000  O
  O16      1.0000 0.96239  0.83308  0.84636  Biso   1.000  O
  O17      1.0000 0.26945  0.12056  0.44660  Biso   1.000  O
  O18      1.0000 0.27439  0.63273  0.48245  Biso   1.000  O
  O19      1.0000 0.77729  0.12652  0.48032  Biso   1.000  O
  O20      1.0000 0.77489  0.62561  0.48178  Biso   1.000  O
  O21      1.0000 0.29790  0.14332  0.92547  Biso   1.000  O
  O22      1.0000 0.27515  0.62673  0.98337  Biso   1.000  O
  O23      1.0000 0.77780  0.11972  0.98203  Biso   1.000  O
  O24      1.0000 0.77373  0.61963  0.98045  Biso   1.000  O
  O25      1.0000 0.22440  0.38375  0.01634  Biso   1.000  O
  O26      1.0000 0.21988  0.89577  0.02823  Biso   1.000  O
  O27      1.0000 0.72988  0.37572  0.02438  Biso   1.000  O
  O28      1.0000 0.71957  0.87751  0.01909  Biso   1.000  O
  O29      1.0000 0.22863  0.37007  0.51765  Biso   1.000  O
  O30      1.0000 0.21529  0.87389  0.52503  Biso   1.000  O
  O31      1.0000 0.72937  0.37003  0.52148  Biso   1.000  O
  O32      1.0000 0.72173  0.86952  0.52106  Biso   1.000  O
