data_image0
_cell_length_a       10.1685
_cell_length_b       10.3022
_cell_length_c       10.4716
_cell_angle_alpha    89.9157
_cell_angle_beta     80.257
_cell_angle_gamma    90.219

_symmetry_space_group_name_H-M    "P 1"
_symmetry_int_tables_number       1

loop_
  _symmetry_equiv_pos_as_xyz
  'x, y, z'

loop_
  _atom_site_label
  _atom_site_occupancy
  _atom_site_fract_x
  _atom_site_fract_y
  _atom_site_fract_z
  _atom_site_thermal_displace_type
  _atom_site_B_iso_or_equiv
  _atom_site_type_symbol
  K1       1.0000 0.12933  0.00503  0.14264  Biso   1.000  K
  Hf1      1.0000 0.14010  0.02136  0.64554  Biso   1.000  Hf
  Hf2      1.0000 0.14108  0.51966  0.14364  Biso   1.000  Hf
  Hf3      1.0000 0.14045  0.52160  0.64585  Biso   1.000  Hf
  Hf4      1.0000 0.64368  0.02167  0.14569  Biso   1.000  Hf
  Hf5      1.0000 0.63872  0.02181  0.64807  Biso   1.000  Hf
  Hf6      1.0000 0.63552  0.51768  0.14628  Biso   1.000  Hf
  Hf7      1.0000 0.63929  0.52032  0.64554  Biso   1.000  Hf
  Hf8      1.0000 0.14027  0.22651  0.39527  Biso   1.000  Hf
  Hf9      1.0000 0.13856  0.22892  0.89795  Biso   1.000  Hf
  Hf10     1.0000 0.14138  0.72687  0.39434  Biso   1.000  Hf
  Hf11     1.0000 0.14462  0.72973  0.89363  Biso   1.000  Hf
  Hf12     1.0000 0.63657  0.23057  0.39715  Biso   1.000  Hf
  Hf13     1.0000 0.63949  0.22901  0.89695  Biso   1.000  Hf
  Hf14     1.0000 0.63615  0.72568  0.39786  Biso   1.000  Hf
  Hf15     1.0000 0.64075  0.72889  0.89391  Biso   1.000  Hf
  Hf16     1.0000 0.35632  0.26312  0.10472  Biso   1.000  Hf
  Hf17     1.0000 0.35922  0.27041  0.60447  Biso   1.000  Hf
  Hf18     1.0000 0.36447  0.77034  0.10348  Biso   1.000  Hf
  Hf19     1.0000 0.36064  0.77316  0.60322  Biso   1.000  Hf
  Hf20     1.0000 0.85890  0.27334  0.10320  Biso   1.000  Hf
  Hf21     1.0000 0.86139  0.27188  0.60445  Biso   1.000  Hf
  Hf22     1.0000 0.85975  0.76133  0.09782  Biso   1.000  Hf
  Hf23     1.0000 0.86286  0.77139  0.60302  Biso   1.000  Hf
  Hf24     1.0000 0.35806  0.47647  0.35217  Biso   1.000  Hf
  Hf25     1.0000 0.36188  0.47634  0.85444  Biso   1.000  Hf
  Hf26     1.0000 0.35965  0.98060  0.35142  Biso   1.000  Hf
  Hf27     1.0000 0.36057  0.98027  0.85493  Biso   1.000  Hf
  Hf28     1.0000 0.86104  0.47925  0.35401  Biso   1.000  Hf
  Hf29     1.0000 0.86150  0.47901  0.85191  Biso   1.000  Hf
  Hf30     1.0000 0.85792  0.98328  0.36282  Biso   1.000  Hf
  Hf31     1.0000 0.86163  0.97850  0.85493  Biso   1.000  Hf
  O1       1.0000 0.03525  0.19522  0.08030  Biso   1.000  O
  O2       1.0000 0.03695  0.17481  0.58768  Biso   1.000  O
  O3       1.0000 0.03968  0.67554  0.08220  Biso   1.000  O
  O4       1.0000 0.03680  0.66972  0.58110  Biso   1.000  O
  O5       1.0000 0.53659  0.16693  0.07936  Biso   1.000  O
  O6       1.0000 0.53226  0.16689  0.58072  Biso   1.000  O
  O7       1.0000 0.53649  0.66492  0.07691  Biso   1.000  O
  O8       1.0000 0.53372  0.66585  0.57901  Biso   1.000  O
  O9       1.0000 0.02413  0.08219  0.35747  Biso   1.000  O
  O10      1.0000 0.03645  0.07888  0.83318  Biso   1.000  O
  O11      1.0000 0.03546  0.58107  0.32921  Biso   1.000  O
  O12      1.0000 0.03671  0.57947  0.83045  Biso   1.000  O
  O13      1.0000 0.53764  0.08145  0.33002  Biso   1.000  O
  O14      1.0000 0.53779  0.08249  0.82904  Biso   1.000  O
  O15      1.0000 0.53189  0.58180  0.32861  Biso   1.000  O
  O16      1.0000 0.53460  0.58357  0.82742  Biso   1.000  O
  O17      1.0000 0.46384  0.41322  0.17143  Biso   1.000  O
  O18      1.0000 0.46603  0.41624  0.67064  Biso   1.000  O
  O19      1.0000 0.47161  0.91702  0.16969  Biso   1.000  O
  O20      1.0000 0.46666  0.91582  0.67259  Biso   1.000  O
  O21      1.0000 0.95907  0.42801  0.16596  Biso   1.000  O
  O22      1.0000 0.96424  0.42229  0.66678  Biso   1.000  O
  O23      1.0000 0.91042  0.92717  0.17218  Biso   1.000  O
  O24      1.0000 0.96469  0.91998  0.66902  Biso   1.000  O
  O25      1.0000 0.46347  0.33206  0.42136  Biso   1.000  O
  O26      1.0000 0.46891  0.33483  0.92119  Biso   1.000  O
  O27      1.0000 0.46843  0.83489  0.42294  Biso   1.000  O
  O28      1.0000 0.47779  0.83964  0.92150  Biso   1.000  O
  O29      1.0000 0.96431  0.33281  0.41962  Biso   1.000  O
  O30      1.0000 0.96098  0.33055  0.91235  Biso   1.000  O
  O31      1.0000 0.96558  0.82980  0.41637  Biso   1.000  O
  O32      1.0000 0.96732  0.82970  0.91826  Biso   1.000  O
  O33      1.0000 0.28694  0.13563  0.25219  Biso   1.000  O
  O34      1.0000 0.27575  0.12777  0.73853  Biso   1.000  O
  O35      1.0000 0.27729  0.62127  0.23743  Biso   1.000  O
  O36      1.0000 0.27791  0.62974  0.73941  Biso   1.000  O
  O37      1.0000 0.77413  0.13474  0.24483  Biso   1.000  O
  O38      1.0000 0.77818  0.12906  0.74183  Biso   1.000  O
  O39      1.0000 0.77337  0.62980  0.24066  Biso   1.000  O
  O40      1.0000 0.77672  0.62925  0.73825  Biso   1.000  O
  O41      1.0000 0.27494  0.12029  0.49393  Biso   1.000  O
  O42      1.0000 0.28833  0.13011  0.97754  Biso   1.000  O
  O43      1.0000 0.27686  0.62092  0.48940  Biso   1.000  O
  O44      1.0000 0.27734  0.61556  0.98957  Biso   1.000  O
  O45      1.0000 0.77098  0.12406  0.49532  Biso   1.000  O
  O46      1.0000 0.77763  0.12094  0.99111  Biso   1.000  O
  O47      1.0000 0.77588  0.62106  0.49001  Biso   1.000  O
  O48      1.0000 0.77552  0.61854  0.98843  Biso   1.000  O
  O49      1.0000 0.22476  0.37874  0.00830  Biso   1.000  O
  O50      1.0000 0.22326  0.37936  0.50902  Biso   1.000  O
  O51      1.0000 0.24371  0.86148  0.99178  Biso   1.000  O
  O52      1.0000 0.22486  0.87925  0.50945  Biso   1.000  O
  O53      1.0000 0.72210  0.37998  0.00827  Biso   1.000  O
  O54      1.0000 0.72360  0.37969  0.50968  Biso   1.000  O
  O55      1.0000 0.72515  0.87682  0.00762  Biso   1.000  O
  O56      1.0000 0.72491  0.87908  0.51196  Biso   1.000  O
  O57      1.0000 0.21876  0.37080  0.25752  Biso   1.000  O
  O58      1.0000 0.22433  0.37143  0.75895  Biso   1.000  O
  O59      1.0000 0.24239  0.85511  0.26506  Biso   1.000  O
  O60      1.0000 0.22316  0.87210  0.75486  Biso   1.000  O
  O61      1.0000 0.72173  0.37397  0.26116  Biso   1.000  O
  O62      1.0000 0.72431  0.37098  0.75805  Biso   1.000  O
  O63      1.0000 0.71076  0.87285  0.26564  Biso   1.000  O
  O64      1.0000 0.72692  0.87085  0.75840  Biso   1.000  O
