data_image0
_cell_length_a       10.1022
_cell_length_b       10.3601
_cell_length_c       5.25462
_cell_angle_alpha    89.3089
_cell_angle_beta     90.2469
_cell_angle_gamma    90.4767

_symmetry_space_group_name_H-M    "P 1"
_symmetry_int_tables_number       1

loop_
  _symmetry_equiv_pos_as_xyz
  'x, y, z'

loop_
  _atom_site_label
  _atom_site_occupancy
  _atom_site_fract_x
  _atom_site_fract_y
  _atom_site_fract_z
  _atom_site_thermal_displace_type
  _atom_site_B_iso_or_equiv
  _atom_site_type_symbol
  K1       1.0000 0.09963  0.98844  0.30552  Biso   1.000  K
  Hf1      1.0000 0.14594  0.52024  0.34351  Biso   1.000  Hf
  Hf2      1.0000 0.13859  0.22774  0.84861  Biso   1.000  Hf
  Hf3      1.0000 0.15421  0.72908  0.83225  Biso   1.000  Hf
  Hf4      1.0000 0.35378  0.26434  0.34445  Biso   1.000  Hf
  Hf5      1.0000 0.36571  0.77273  0.33422  Biso   1.000  Hf
  Hf6      1.0000 0.36014  0.47441  0.84216  Biso   1.000  Hf
  Hf7      1.0000 0.36300  0.97857  0.83111  Biso   1.000  Hf
  Hf8      1.0000 0.63329  0.03119  0.16095  Biso   1.000  Hf
  Hf9      1.0000 0.63395  0.51570  0.15779  Biso   1.000  Hf
  Hf10     1.0000 0.63832  0.23522  0.65895  Biso   1.000  Hf
  Hf11     1.0000 0.63498  0.72374  0.65472  Biso   1.000  Hf
  Hf12     1.0000 0.86473  0.27806  0.15889  Biso   1.000  Hf
  Hf13     1.0000 0.87001  0.74342  0.11169  Biso   1.000  Hf
  Hf14     1.0000 0.86548  0.47937  0.64743  Biso   1.000  Hf
  Hf15     1.0000 0.85858  0.99371  0.71032  Biso   1.000  Hf
  O1       1.0000 0.03829  0.19969  0.18786  Biso   1.000  O
  O2       1.0000 0.04846  0.67877  0.18158  Biso   1.000  O
  O3       1.0000 0.02662  0.07998  0.73940  Biso   1.000  O
  O4       1.0000 0.03668  0.58403  0.67268  Biso   1.000  O
  O5       1.0000 0.46812  0.40880  0.16163  Biso   1.000  O
  O6       1.0000 0.47804  0.91242  0.15407  Biso   1.000  O
  O7       1.0000 0.46890  0.33919  0.65812  Biso   1.000  O
  O8       1.0000 0.48482  0.84660  0.64200  Biso   1.000  O
  O9       1.0000 0.28244  0.12869  0.60368  Biso   1.000  O
  O10      1.0000 0.28266  0.61900  0.58554  Biso   1.000  O
  O11      1.0000 0.29061  0.13280  0.06747  Biso   1.000  O
  O12      1.0000 0.27975  0.61851  0.08782  Biso   1.000  O
  O13      1.0000 0.22244  0.37354  0.58970  Biso   1.000  O
  O14      1.0000 0.24112  0.86134  0.58645  Biso   1.000  O
  O15      1.0000 0.22405  0.37781  0.09136  Biso   1.000  O
  O16      1.0000 0.24915  0.86002  0.06035  Biso   1.000  O
  O17      1.0000 0.53301  0.16803  0.33710  Biso   1.000  O
  O18      1.0000 0.53331  0.65889  0.33956  Biso   1.000  O
  O19      1.0000 0.53823  0.08792  0.83172  Biso   1.000  O
  O20      1.0000 0.52974  0.58817  0.84159  Biso   1.000  O
  O21      1.0000 0.96336  0.43432  0.31195  Biso   1.000  O
  O22      1.0000 0.86085  0.89533  0.36204  Biso   1.000  O
  O23      1.0000 0.96325  0.33409  0.81423  Biso   1.000  O
  O24      1.0000 0.97735  0.83628  0.83334  Biso   1.000  O
  O25      1.0000 0.77347  0.13160  0.93354  Biso   1.000  O
  O26      1.0000 0.77418  0.61597  0.89631  Biso   1.000  O
  O27      1.0000 0.77872  0.13094  0.43233  Biso   1.000  O
  O28      1.0000 0.77457  0.63070  0.40212  Biso   1.000  O
  O29      1.0000 0.72299  0.37753  0.90581  Biso   1.000  O
  O30      1.0000 0.73012  0.86979  0.92185  Biso   1.000  O
  O31      1.0000 0.72569  0.37886  0.40747  Biso   1.000  O
  O32      1.0000 0.71931  0.88872  0.42304  Biso   1.000  O
