data_image0
_cell_length_a       5.01344
_cell_length_b       10.4029
_cell_length_c       10.1125
_cell_angle_alpha    89.995
_cell_angle_beta     89.7502
_cell_angle_gamma    89.9201

_symmetry_space_group_name_H-M    "P 1"
_symmetry_int_tables_number       1

loop_
  _symmetry_equiv_pos_as_xyz
  'x, y, z'

loop_
  _atom_site_label
  _atom_site_occupancy
  _atom_site_fract_x
  _atom_site_fract_y
  _atom_site_fract_z
  _atom_site_thermal_displace_type
  _atom_site_B_iso_or_equiv
  _atom_site_type_symbol
  K1       1.0000 0.23167  0.99277  0.12369  Biso   1.000  K
  Hf1      1.0000 0.26073  0.02008  0.63151  Biso   1.000  Hf
  Hf2      1.0000 0.26589  0.51250  0.13141  Biso   1.000  Hf
  Hf3      1.0000 0.27021  0.51670  0.62708  Biso   1.000  Hf
  Hf4      1.0000 0.26611  0.23318  0.37581  Biso   1.000  Hf
  Hf5      1.0000 0.27691  0.23151  0.87759  Biso   1.000  Hf
  Hf6      1.0000 0.26676  0.72909  0.38047  Biso   1.000  Hf
  Hf7      1.0000 0.27842  0.73415  0.87086  Biso   1.000  Hf
  Hf8      1.0000 0.72106  0.26189  0.13065  Biso   1.000  Hf
  Hf9      1.0000 0.73232  0.27001  0.62644  Biso   1.000  Hf
  Hf10     1.0000 0.76623  0.73437  0.08991  Biso   1.000  Hf
  Hf11     1.0000 0.73485  0.76805  0.62213  Biso   1.000  Hf
  Hf12     1.0000 0.72949  0.48351  0.37716  Biso   1.000  Hf
  Hf13     1.0000 0.72904  0.47626  0.87830  Biso   1.000  Hf
  Hf14     1.0000 0.72421  0.99447  0.39057  Biso   1.000  Hf
  Hf15     1.0000 0.72298  0.98587  0.87252  Biso   1.000  Hf
  O1       1.0000 0.05607  0.19817  0.20843  Biso   1.000  O
  O2       1.0000 0.08020  0.19300  0.68558  Biso   1.000  O
  O3       1.0000 0.09673  0.69799  0.20060  Biso   1.000  O
  O4       1.0000 0.06969  0.68437  0.69432  Biso   1.000  O
  O5       1.0000 0.07080  0.06748  0.44727  Biso   1.000  O
  O6       1.0000 0.07767  0.06819  0.89760  Biso   1.000  O
  O7       1.0000 0.07318  0.57051  0.44677  Biso   1.000  O
  O8       1.0000 0.01479  0.58950  0.97049  Biso   1.000  O
  O9       1.0000 0.92034  0.44018  0.19848  Biso   1.000  O
  O10      1.0000 0.93471  0.43643  0.70159  Biso   1.000  O
  O11      1.0000 0.80042  0.91681  0.19693  Biso   1.000  O
  O12      1.0000 0.91188  0.93679  0.68297  Biso   1.000  O
  O13      1.0000 0.93084  0.32260  0.45080  Biso   1.000  O
  O14      1.0000 0.94026  0.32250  0.94971  Biso   1.000  O
  O15      1.0000 0.93374  0.81931  0.44553  Biso   1.000  O
  O16      1.0000 0.96858  0.83161  0.94299  Biso   1.000  O
  O17      1.0000 0.56016  0.12835  0.26475  Biso   1.000  O
  O18      1.0000 0.54595  0.12222  0.74774  Biso   1.000  O
  O19      1.0000 0.54135  0.61170  0.24713  Biso   1.000  O
  O20      1.0000 0.54334  0.61756  0.74778  Biso   1.000  O
  O21      1.0000 0.53415  0.13386  0.50798  Biso   1.000  O
  O22      1.0000 0.56473  0.13457  0.99341  Biso   1.000  O
  O23      1.0000 0.54441  0.63254  0.49889  Biso   1.000  O
  O24      1.0000 0.50858  0.61533  0.99296  Biso   1.000  O
  O25      1.0000 0.46017  0.38479  0.50214  Biso   1.000  O
  O26      1.0000 0.45377  0.38005  0.00381  Biso   1.000  O
  O27      1.0000 0.44813  0.88427  0.49564  Biso   1.000  O
  O28      1.0000 0.50261  0.85500  0.98625  Biso   1.000  O
  O29      1.0000 0.45337  0.37046  0.25356  Biso   1.000  O
  O30      1.0000 0.46077  0.37022  0.75201  Biso   1.000  O
  O31      1.0000 0.56584  0.85374  0.24477  Biso   1.000  O
  O32      1.0000 0.45340  0.87029  0.74352  Biso   1.000  O
