data_image0
_cell_length_a       10.1993
_cell_length_b       10.3808
_cell_length_c       5.26743
_cell_angle_alpha    89.4403
_cell_angle_beta     80.4196
_cell_angle_gamma    90.4566

_symmetry_space_group_name_H-M    "P 1"
_symmetry_int_tables_number       1

loop_
  _symmetry_equiv_pos_as_xyz
  'x, y, z'

loop_
  _atom_site_label
  _atom_site_occupancy
  _atom_site_fract_x
  _atom_site_fract_y
  _atom_site_fract_z
  _atom_site_thermal_displace_type
  _atom_site_B_iso_or_equiv
  _atom_site_type_symbol
  K1       1.0000 0.09857  0.99131  0.27419  Biso   1.000  K
  Hf1      1.0000 0.14636  0.52082  0.28731  Biso   1.000  Hf
  Hf2      1.0000 0.63769  0.02957  0.29738  Biso   1.000  Hf
  Hf3      1.0000 0.63327  0.51439  0.28963  Biso   1.000  Hf
  Hf4      1.0000 0.13827  0.22863  0.79566  Biso   1.000  Hf
  Hf5      1.0000 0.15485  0.72902  0.77771  Biso   1.000  Hf
  Hf6      1.0000 0.63715  0.23336  0.79486  Biso   1.000  Hf
  Hf7      1.0000 0.63271  0.72148  0.78821  Biso   1.000  Hf
  Hf8      1.0000 0.35400  0.26396  0.20773  Biso   1.000  Hf
  Hf9      1.0000 0.36710  0.77516  0.20059  Biso   1.000  Hf
  Hf10     1.0000 0.86376  0.27743  0.20884  Biso   1.000  Hf
  Hf11     1.0000 0.86963  0.74155  0.15418  Biso   1.000  Hf
  Hf12     1.0000 0.35920  0.47394  0.70476  Biso   1.000  Hf
  Hf13     1.0000 0.36038  0.98029  0.69712  Biso   1.000  Hf
  Hf14     1.0000 0.86597  0.47815  0.69429  Biso   1.000  Hf
  Hf15     1.0000 0.86049  0.99128  0.76170  Biso   1.000  Hf
  O1       1.0000 0.04059  0.20315  0.17190  Biso   1.000  O
  O2       1.0000 0.04999  0.67832  0.16317  Biso   1.000  O
  O3       1.0000 0.53251  0.16764  0.15366  Biso   1.000  O
  O4       1.0000 0.53696  0.66158  0.14414  Biso   1.000  O
  O5       1.0000 0.02875  0.08008  0.72674  Biso   1.000  O
  O6       1.0000 0.03744  0.58439  0.65778  Biso   1.000  O
  O7       1.0000 0.53914  0.08717  0.65175  Biso   1.000  O
  O8       1.0000 0.53134  0.58187  0.64797  Biso   1.000  O
  O9       1.0000 0.46384  0.41073  0.34410  Biso   1.000  O
  O10      1.0000 0.47636  0.91456  0.34230  Biso   1.000  O
  O11      1.0000 0.96062  0.43586  0.32296  Biso   1.000  O
  O12      1.0000 0.86244  0.88541  0.42411  Biso   1.000  O
  O13      1.0000 0.46778  0.33591  0.84383  Biso   1.000  O
  O14      1.0000 0.48485  0.84320  0.83814  Biso   1.000  O
  O15      1.0000 0.96089  0.33295  0.82511  Biso   1.000  O
  O16      1.0000 0.97785  0.83699  0.84535  Biso   1.000  O
  O17      1.0000 0.28463  0.13352  0.49561  Biso   1.000  O
  O18      1.0000 0.28192  0.62399  0.46992  Biso   1.000  O
  O19      1.0000 0.78346  0.13221  0.49484  Biso   1.000  O
  O20      1.0000 0.76905  0.63378  0.46789  Biso   1.000  O
  O21      1.0000 0.28694  0.12854  0.95972  Biso   1.000  O
  O22      1.0000 0.28175  0.61653  0.97263  Biso   1.000  O
  O23      1.0000 0.77171  0.12906  0.00247  Biso   1.000  O
  O24      1.0000 0.77511  0.61487  0.96183  Biso   1.000  O
  O25      1.0000 0.22562  0.38098  0.01598  Biso   1.000  O
  O26      1.0000 0.24738  0.86535  0.98328  Biso   1.000  O
  O27      1.0000 0.72303  0.38109  0.01598  Biso   1.000  O
  O28      1.0000 0.73235  0.87773  0.03759  Biso   1.000  O
  O29      1.0000 0.21996  0.37204  0.51580  Biso   1.000  O
  O30      1.0000 0.24175  0.85937  0.51005  Biso   1.000  O
  O31      1.0000 0.72427  0.37350  0.51633  Biso   1.000  O
  O32      1.0000 0.72198  0.88621  0.54349  Biso   1.000  O
