data_image0
_cell_length_a       5.09362
_cell_length_b       10.3345
_cell_length_c       10.5954
_cell_angle_alpha    89.934
_cell_angle_beta     79.1973
_cell_angle_gamma    90.1596

_symmetry_space_group_name_H-M    "P 1"
_symmetry_int_tables_number       1

loop_
  _symmetry_equiv_pos_as_xyz
  'x, y, z'

loop_
  _atom_site_label
  _atom_site_occupancy
  _atom_site_fract_x
  _atom_site_fract_y
  _atom_site_fract_z
  _atom_site_thermal_displace_type
  _atom_site_B_iso_or_equiv
  _atom_site_type_symbol
  Hf1      1.0000 0.27277  0.01671  0.14787  Biso   1.000  Hf
  Hf2      1.0000 0.29517  0.22658  0.40915  Biso   1.000  Hf
  Hf3      1.0000 0.69124  0.27426  0.08692  Biso   1.000  Hf
  Hf4      1.0000 0.71608  0.48746  0.35716  Biso   1.000  Hf
  O1       1.0000 0.05672  0.16228  0.07213  Biso   1.000  O
  O2       1.0000 0.08886  0.05963  0.34469  Biso   1.000  O
  O3       1.0000 0.91643  0.42808  0.16492  Biso   1.000  O
  O4       1.0000 0.95740  0.35924  0.44553  Biso   1.000  O
  O5       1.0000 0.53345  0.12562  0.23601  Biso   1.000  O
  O6       1.0000 0.57718  0.12308  0.48911  Biso   1.000  O
  O7       1.0000 0.42603  0.38293  0.00645  Biso   1.000  O
  O8       1.0000 0.44454  0.36770  0.26012  Biso   1.000  O
  Hf5      1.0000 0.27865  0.02143  0.64631  Biso   1.000  Hf
  Hf6      1.0000 0.26604  0.22571  0.89335  Biso   1.000  Hf
  Hf7      1.0000 0.72969  0.27763  0.60986  Biso   1.000  Hf
  Hf8      1.0000 0.71405  0.48262  0.85566  Biso   1.000  Hf
  O9       1.0000 0.07668  0.16935  0.58407  Biso   1.000  O
  O10      1.0000 0.06101  0.08319  0.82549  Biso   1.000  O
  O11      1.0000 0.93426  0.41677  0.68325  Biso   1.000  O
  O12      1.0000 0.92078  0.33399  0.91904  Biso   1.000  O
  O13      1.0000 0.54817  0.12835  0.74057  Biso   1.000  O
  O14      1.0000 0.54404  0.12210  0.98710  Biso   1.000  O
  O15      1.0000 0.45614  0.37859  0.51325  Biso   1.000  O
  O16      1.0000 0.44601  0.37243  0.76120  Biso   1.000  O
  Hf9      1.0000 0.26666  0.52457  0.14725  Biso   1.000  Hf
  Hf10     1.0000 0.27318  0.72714  0.39866  Biso   1.000  Hf
  Hf11     1.0000 0.71526  0.77135  0.10543  Biso   1.000  Hf
  Hf12     1.0000 0.71963  0.96698  0.35763  Biso   1.000  Hf
  O17      1.0000 0.06590  0.67160  0.07972  Biso   1.000  O
  O18      1.0000 0.06268  0.58778  0.32626  Biso   1.000  O
  O19      1.0000 0.92311  0.91483  0.17654  Biso   1.000  O
  O20      1.0000 0.92145  0.82457  0.42524  Biso   1.000  O
  O21      1.0000 0.54737  0.62843  0.24342  Biso   1.000  O
  O22      1.0000 0.54476  0.62245  0.49361  Biso   1.000  O
  O23      1.0000 0.44397  0.87933  0.01112  Biso   1.000  O
  O24      1.0000 0.44068  0.86621  0.26040  Biso   1.000  O
  Hf13     1.0000 0.27427  0.52216  0.64966  Biso   1.000  Hf
  Hf14     1.0000 0.27053  0.73007  0.89862  Biso   1.000  Hf
  Hf15     1.0000 0.72029  0.77084  0.60792  Biso   1.000  Hf
  Hf16     1.0000 0.71768  0.97763  0.85360  Biso   1.000  Hf
  O25      1.0000 0.06204  0.66381  0.58062  Biso   1.000  O
  O26      1.0000 0.06323  0.58651  0.83081  Biso   1.000  O
  O27      1.0000 0.93085  0.91535  0.67308  Biso   1.000  O
  O28      1.0000 0.92734  0.83576  0.92425  Biso   1.000  O
  O29      1.0000 0.54829  0.62862  0.74270  Biso   1.000  O
  O30      1.0000 0.54656  0.62398  0.99285  Biso   1.000  O
  O31      1.0000 0.44477  0.87696  0.51316  Biso   1.000  O
  O32      1.0000 0.44418  0.87149  0.76191  Biso   1.000  O
  K1       1.0000 0.89656  0.23580  0.28131  Biso   1.000  K
