data_image0
_cell_length_a       10.0673
_cell_length_b       5.15603
_cell_length_c       10.5886
_cell_angle_alpha    89.8576
_cell_angle_beta     91.1386
_cell_angle_gamma    90.1176

_symmetry_space_group_name_H-M    "P 1"
_symmetry_int_tables_number       1

loop_
  _symmetry_equiv_pos_as_xyz
  'x, y, z'

loop_
  _atom_site_label
  _atom_site_occupancy
  _atom_site_fract_x
  _atom_site_fract_y
  _atom_site_fract_z
  _atom_site_thermal_displace_type
  _atom_site_B_iso_or_equiv
  _atom_site_type_symbol
  Hf1      1.0000 0.13978  0.04366  0.17464  Biso   1.000  Hf
  Hf2      1.0000 0.13740  0.45252  0.42618  Biso   1.000  Hf
  Hf3      1.0000 0.35019  0.54730  0.18819  Biso   1.000  Hf
  Hf4      1.0000 0.36141  0.95559  0.42848  Biso   1.000  Hf
  Hf5      1.0000 0.64196  0.04263  0.08359  Biso   1.000  Hf
  Hf6      1.0000 0.63720  0.45123  0.33221  Biso   1.000  Hf
  Hf7      1.0000 0.87013  0.54501  0.07614  Biso   1.000  Hf
  Hf8      1.0000 0.86063  0.95689  0.32620  Biso   1.000  Hf
  O1       1.0000 0.03564  0.32416  0.08138  Biso   1.000  O
  O2       1.0000 0.03009  0.17386  0.33259  Biso   1.000  O
  O3       1.0000 0.45284  0.86049  0.09897  Biso   1.000  O
  O4       1.0000 0.46716  0.67231  0.33982  Biso   1.000  O
  O5       1.0000 0.27167  0.24868  0.30261  Biso   1.000  O
  O6       1.0000 0.28001  0.26030  0.04741  Biso   1.000  O
  O7       1.0000 0.21906  0.75022  0.30448  Biso   1.000  O
  O8       1.0000 0.21916  0.75471  0.05118  Biso   1.000  O
  O9       1.0000 0.52100  0.29860  0.19186  Biso   1.000  O
  O10      1.0000 0.53005  0.17409  0.42684  Biso   1.000  O
  O11      1.0000 0.96807  0.83048  0.17038  Biso   1.000  O
  O12      1.0000 0.96883  0.67422  0.41977  Biso   1.000  O
  O13      1.0000 0.77703  0.24645  0.45223  Biso   1.000  O
  O14      1.0000 0.77721  0.25446  0.20174  Biso   1.000  O
  O15      1.0000 0.72565  0.74848  0.45474  Biso   1.000  O
  O16      1.0000 0.72077  0.74158  0.20207  Biso   1.000  O
  Hf9      1.0000 0.14160  0.04038  0.67491  Biso   1.000  Hf
  Hf10     1.0000 0.14400  0.46042  0.92372  Biso   1.000  Hf
  Hf11     1.0000 0.36225  0.54189  0.67516  Biso   1.000  Hf
  Hf12     1.0000 0.36169  0.96327  0.92600  Biso   1.000  Hf
  Hf13     1.0000 0.64190  0.03405  0.57459  Biso   1.000  Hf
  Hf14     1.0000 0.64953  0.44774  0.80568  Biso   1.000  Hf
  Hf15     1.0000 0.86716  0.54406  0.57561  Biso   1.000  Hf
  Hf16     1.0000 0.86854  0.96197  0.83024  Biso   1.000  Hf
  O17      1.0000 0.03388  0.32409  0.58332  Biso   1.000  O
  O18      1.0000 0.03769  0.17412  0.83349  Biso   1.000  O
  O19      1.0000 0.47199  0.81793  0.58393  Biso   1.000  O
  O20      1.0000 0.47254  0.66668  0.82998  Biso   1.000  O
  O21      1.0000 0.27903  0.24904  0.79799  Biso   1.000  O
  O22      1.0000 0.27644  0.24803  0.55002  Biso   1.000  O
  O23      1.0000 0.22784  0.74756  0.79957  Biso   1.000  O
  O24      1.0000 0.22532  0.74952  0.55143  Biso   1.000  O
  O25      1.0000 0.53251  0.31534  0.66620  Biso   1.000  O
  O26      1.0000 0.53750  0.14356  0.91411  Biso   1.000  O
  O27      1.0000 0.97178  0.82478  0.67058  Biso   1.000  O
  O28      1.0000 0.97504  0.67327  0.91838  Biso   1.000  O
  O29      1.0000 0.77621  0.26850  0.94756  Biso   1.000  O
  O30      1.0000 0.78265  0.24219  0.69646  Biso   1.000  O
  O31      1.0000 0.74159  0.77715  0.95599  Biso   1.000  O
  O32      1.0000 0.73051  0.74556  0.70351  Biso   1.000  O
  K1       1.0000 0.56669  0.53158  0.02315  Biso   1.000  K
