data_image0
_cell_length_a       10.0208
_cell_length_b       10.393
_cell_length_c       10.0723
_cell_angle_alpha    89.6511
_cell_angle_beta     90.0391
_cell_angle_gamma    90.358

_symmetry_space_group_name_H-M    "P 1"
_symmetry_int_tables_number       1

loop_
  _symmetry_equiv_pos_as_xyz
  'x, y, z'

loop_
  _atom_site_label
  _atom_site_occupancy
  _atom_site_fract_x
  _atom_site_fract_y
  _atom_site_fract_z
  _atom_site_thermal_displace_type
  _atom_site_B_iso_or_equiv
  _atom_site_type_symbol
  Hf1      1.0000 0.14296  0.99245  0.11435  Biso   1.000  Hf
  Hf2      1.0000 0.12868  0.23000  0.39374  Biso   1.000  Hf
  Hf3      1.0000 0.37146  0.26984  0.12100  Biso   1.000  Hf
  Hf4      1.0000 0.36634  0.48442  0.37496  Biso   1.000  Hf
  O1       1.0000 0.96863  0.17212  0.26770  Biso   1.000  O
  O2       1.0000 0.03891  0.06200  0.46459  Biso   1.000  O
  O3       1.0000 0.46319  0.43721  0.19424  Biso   1.000  O
  O4       1.0000 0.46608  0.32015  0.44761  Biso   1.000  O
  O5       1.0000 0.24421  0.11204  0.24748  Biso   1.000  O
  O6       1.0000 0.27626  0.13240  0.49941  Biso   1.000  O
  O7       1.0000 0.23408  0.38383  0.50160  Biso   1.000  O
  O8       1.0000 0.23026  0.36564  0.25468  Biso   1.000  O
  Hf5      1.0000 0.14007  0.00947  0.62858  Biso   1.000  Hf
  Hf6      1.0000 0.13316  0.23269  0.85666  Biso   1.000  Hf
  Hf7      1.0000 0.37236  0.26737  0.62481  Biso   1.000  Hf
  Hf8      1.0000 0.36937  0.48639  0.87278  Biso   1.000  Hf
  O9       1.0000 0.03846  0.18108  0.69042  Biso   1.000  O
  O10      1.0000 0.03864  0.06555  0.94720  Biso   1.000  O
  O11      1.0000 0.46896  0.43412  0.69555  Biso   1.000  O
  O12      1.0000 0.46779  0.31729  0.94378  Biso   1.000  O
  O13      1.0000 0.27302  0.11577  0.74707  Biso   1.000  O
  O14      1.0000 0.27495  0.12885  0.99525  Biso   1.000  O
  O15      1.0000 0.23518  0.39271  0.99562  Biso   1.000  O
  O16      1.0000 0.23509  0.36630  0.74614  Biso   1.000  O
  Hf9      1.0000 0.13481  0.52514  0.12598  Biso   1.000  Hf
  Hf10     1.0000 0.13358  0.73491  0.37687  Biso   1.000  Hf
  Hf11     1.0000 0.37203  0.76117  0.12307  Biso   1.000  Hf
  Hf12     1.0000 0.36508  0.98698  0.37109  Biso   1.000  Hf
  O17      1.0000 0.03518  0.68391  0.19710  Biso   1.000  O
  O18      1.0000 0.03590  0.56939  0.44342  Biso   1.000  O
  O19      1.0000 0.45812  0.93476  0.19131  Biso   1.000  O
  O20      1.0000 0.46736  0.81970  0.44209  Biso   1.000  O
  O21      1.0000 0.27284  0.61748  0.24792  Biso   1.000  O
  O22      1.0000 0.27081  0.63369  0.49739  Biso   1.000  O
  O23      1.0000 0.23394  0.88348  0.49615  Biso   1.000  O
  O24      1.0000 0.23310  0.85928  0.24505  Biso   1.000  O
  Hf13     1.0000 0.13324  0.51484  0.62226  Biso   1.000  Hf
  Hf14     1.0000 0.13271  0.73107  0.86921  Biso   1.000  Hf
  Hf15     1.0000 0.37160  0.76517  0.62076  Biso   1.000  Hf
  Hf16     1.0000 0.37262  0.98243  0.87112  Biso   1.000  Hf
  O25      1.0000 0.03720  0.68369  0.69027  Biso   1.000  O
  O26      1.0000 0.03473  0.56814  0.94703  Biso   1.000  O
  O27      1.0000 0.46995  0.93285  0.69346  Biso   1.000  O
  O28      1.0000 0.47248  0.81859  0.94650  Biso   1.000  O
  O29      1.0000 0.26971  0.61411  0.74611  Biso   1.000  O
  O30      1.0000 0.26969  0.63585  0.99633  Biso   1.000  O
  O31      1.0000 0.23761  0.87646  0.99188  Biso   1.000  O
  O32      1.0000 0.23794  0.86260  0.74655  Biso   1.000  O
  Hf17     1.0000 0.62761  0.01114  0.12031  Biso   1.000  Hf
  Hf18     1.0000 0.62869  0.23146  0.37977  Biso   1.000  Hf
  Hf19     1.0000 0.83657  0.26245  0.13286  Biso   1.000  Hf
  Hf20     1.0000 0.86813  0.48287  0.37444  Biso   1.000  Hf
  O33      1.0000 0.52304  0.17926  0.20098  Biso   1.000  O
  O34      1.0000 0.53223  0.06712  0.44959  Biso   1.000  O
  O35      1.0000 0.96208  0.42812  0.19185  Biso   1.000  O
  O36      1.0000 0.97305  0.32986  0.46492  Biso   1.000  O
  O37      1.0000 0.74286  0.11104  0.24986  Biso   1.000  O
  O38      1.0000 0.77210  0.13920  0.49786  Biso   1.000  O
  O39      1.0000 0.73287  0.38465  0.50106  Biso   1.000  O
  O40      1.0000 0.71964  0.37144  0.25520  Biso   1.000  O
  Hf21     1.0000 0.63934  0.01582  0.62295  Biso   1.000  Hf
  Hf22     1.0000 0.63569  0.23347  0.87353  Biso   1.000  Hf
  Hf23     1.0000 0.86520  0.27026  0.62914  Biso   1.000  Hf
  Hf24     1.0000 0.86689  0.48179  0.87821  Biso   1.000  Hf
  O41      1.0000 0.53994  0.18390  0.69409  Biso   1.000  O
  O42      1.0000 0.53777  0.06747  0.94117  Biso   1.000  O
  O43      1.0000 0.96837  0.43447  0.70255  Biso   1.000  O
  O44      1.0000 0.95730  0.31103  0.93256  Biso   1.000  O
  O45      1.0000 0.77392  0.11709  0.74908  Biso   1.000  O
  O46      1.0000 0.77121  0.12819  0.99865  Biso   1.000  O
  O47      1.0000 0.72438  0.38372  0.00139  Biso   1.000  O
  O48      1.0000 0.73004  0.36976  0.75024  Biso   1.000  O
  Hf25     1.0000 0.63322  0.51986  0.12710  Biso   1.000  Hf
  Hf26     1.0000 0.63863  0.73812  0.37652  Biso   1.000  Hf
  Hf27     1.0000 0.86534  0.76559  0.12601  Biso   1.000  Hf
  Hf28     1.0000 0.87765  0.00063  0.36285  Biso   1.000  Hf
  O49      1.0000 0.53958  0.68656  0.19664  Biso   1.000  O
  O50      1.0000 0.53625  0.56987  0.44563  Biso   1.000  O
  O51      1.0000 0.96832  0.93352  0.18979  Biso   1.000  O
  O52      1.0000 0.96777  0.82246  0.44224  Biso   1.000  O
  O53      1.0000 0.77184  0.61791  0.24979  Biso   1.000  O
  O54      1.0000 0.77280  0.63511  0.49833  Biso   1.000  O
  O55      1.0000 0.73525  0.88853  0.49615  Biso   1.000  O
  O56      1.0000 0.73286  0.86728  0.24618  Biso   1.000  O
  Hf29     1.0000 0.63686  0.51838  0.62399  Biso   1.000  Hf
  Hf30     1.0000 0.63857  0.73341  0.87363  Biso   1.000  Hf
  Hf31     1.0000 0.86918  0.77069  0.62060  Biso   1.000  Hf
  Hf32     1.0000 0.86882  0.98308  0.87635  Biso   1.000  Hf
  O57      1.0000 0.53740  0.68359  0.69575  Biso   1.000  O
  O58      1.0000 0.53463  0.57035  0.94842  Biso   1.000  O
  O59      1.0000 0.97239  0.92979  0.70337  Biso   1.000  O
  O60      1.0000 0.97102  0.81750  0.94953  Biso   1.000  O
  O61      1.0000 0.77276  0.61770  0.74880  Biso   1.000  O
  O62      1.0000 0.77103  0.63270  0.99974  Biso   1.000  O
  O63      1.0000 0.73332  0.88051  0.99758  Biso   1.000  O
  O64      1.0000 0.73437  0.86771  0.74725  Biso   1.000  O
  K1       1.0000 0.09745  0.25040  0.10885  Biso   1.000  K
