data_image0
_cell_length_a       10.1104
_cell_length_b       10.2667
_cell_length_c       5.08871
_cell_angle_alpha    89.4674
_cell_angle_beta     88.9043
_cell_angle_gamma    88.2883

_symmetry_space_group_name_H-M    "P 1"
_symmetry_int_tables_number       1

loop_
  _symmetry_equiv_pos_as_xyz
  'x, y, z'

loop_
  _atom_site_label
  _atom_site_occupancy
  _atom_site_fract_x
  _atom_site_fract_y
  _atom_site_fract_z
  _atom_site_thermal_displace_type
  _atom_site_B_iso_or_equiv
  _atom_site_type_symbol
  K1       1.0000 0.11996  0.99229  0.30904  Biso   1.000  K
  Hf1      1.0000 0.13900  0.50523  0.20042  Biso   1.000  Hf
  Hf2      1.0000 0.62659  0.00558  0.23604  Biso   1.000  Hf
  Hf3      1.0000 0.61897  0.49499  0.24043  Biso   1.000  Hf
  Hf4      1.0000 0.09573  0.23328  0.81044  Biso   1.000  Hf
  Hf5      1.0000 0.15470  0.75798  0.78614  Biso   1.000  Hf
  Hf6      1.0000 0.63072  0.26355  0.75005  Biso   1.000  Hf
  Hf7      1.0000 0.61774  0.77208  0.74506  Biso   1.000  Hf
  Hf8      1.0000 0.35728  0.24044  0.25273  Biso   1.000  Hf
  Hf9      1.0000 0.37845  0.74258  0.27527  Biso   1.000  Hf
  Hf10     1.0000 0.87673  0.26292  0.30968  Biso   1.000  Hf
  Hf11     1.0000 0.86831  0.75795  0.30853  Biso   1.000  Hf
  Hf12     1.0000 0.36092  0.02531  0.76640  Biso   1.000  Hf
  Hf13     1.0000 0.36452  0.48323  0.70294  Biso   1.000  Hf
  Hf14     1.0000 0.88286  0.97460  0.80689  Biso   1.000  Hf
  Hf15     1.0000 0.88132  0.49920  0.77080  Biso   1.000  Hf
  O1       1.0000 0.96363  0.12705  0.04658  Biso   1.000  O
  O2       1.0000 0.04393  0.59901  0.87700  Biso   1.000  O
  O3       1.0000 0.47845  0.17413  0.93966  Biso   1.000  O
  O4       1.0000 0.54012  0.66295  0.04057  Biso   1.000  O
  O5       1.0000 0.96012  0.12178  0.57383  Biso   1.000  O
  O6       1.0000 0.97981  0.59079  0.39617  Biso   1.000  O
  O7       1.0000 0.46288  0.08355  0.42680  Biso   1.000  O
  O8       1.0000 0.50135  0.60575  0.52413  Biso   1.000  O
  O9       1.0000 0.99705  0.35952  0.56519  Biso   1.000  O
  O10      1.0000 0.99984  0.83720  0.57295  Biso   1.000  O
  O11      1.0000 0.49999  0.35102  0.46800  Biso   1.000  O
  O12      1.0000 0.53487  0.84198  0.41111  Biso   1.000  O
  O13      1.0000 0.99945  0.37444  0.06456  Biso   1.000  O
  O14      1.0000 0.00042  0.84414  0.04178  Biso   1.000  O
  O15      1.0000 0.50893  0.41759  0.95859  Biso   1.000  O
  O16      1.0000 0.51796  0.92704  0.92237  Biso   1.000  O
  O17      1.0000 0.23781  0.16047  0.54775  Biso   1.000  O
  O18      1.0000 0.23769  0.63393  0.48876  Biso   1.000  O
  O19      1.0000 0.70648  0.16737  0.41328  Biso   1.000  O
  O20      1.0000 0.77102  0.65877  0.62851  Biso   1.000  O
  O21      1.0000 0.23873  0.12440  0.02358  Biso   1.000  O
  O22      1.0000 0.28504  0.61446  0.99751  Biso   1.000  O
  O23      1.0000 0.72254  0.09553  0.91317  Biso   1.000  O
  O24      1.0000 0.79159  0.59479  0.11689  Biso   1.000  O
  O25      1.0000 0.24332  0.36607  0.93942  Biso   1.000  O
  O26      1.0000 0.27563  0.86257  0.02368  Biso   1.000  O
  O27      1.0000 0.75254  0.35639  0.00534  Biso   1.000  O
  O28      1.0000 0.75041  0.85261  0.02487  Biso   1.000  O
  O29      1.0000 0.26038  0.39615  0.42466  Biso   1.000  O
  O30      1.0000 0.28774  0.86861  0.55437  Biso   1.000  O
  O31      1.0000 0.74943  0.40679  0.51399  Biso   1.000  O
  O32      1.0000 0.75953  0.91084  0.50957  Biso   1.000  O
