data_image0
_cell_length_a       5.04727
_cell_length_b       10.385
_cell_length_c       10.1366
_cell_angle_alpha    89.669
_cell_angle_beta     90.7199
_cell_angle_gamma    91.5302

_symmetry_space_group_name_H-M    "P 1"
_symmetry_int_tables_number       1

loop_
  _symmetry_equiv_pos_as_xyz
  'x, y, z'

loop_
  _atom_site_label
  _atom_site_occupancy
  _atom_site_fract_x
  _atom_site_fract_y
  _atom_site_fract_z
  _atom_site_thermal_displace_type
  _atom_site_B_iso_or_equiv
  _atom_site_type_symbol
  Hf1      1.0000 0.27743  0.97589  0.09815  Biso   1.000  Hf
  Hf2      1.0000 0.24591  0.22962  0.39518  Biso   1.000  Hf
  Hf3      1.0000 0.67139  0.26359  0.13230  Biso   1.000  Hf
  Hf4      1.0000 0.73696  0.48390  0.37194  Biso   1.000  Hf
  O1       1.0000 0.88933  0.18085  0.27951  Biso   1.000  O
  O2       1.0000 0.06591  0.06351  0.46563  Biso   1.000  O
  O3       1.0000 0.91848  0.43046  0.18993  Biso   1.000  O
  O4       1.0000 0.95963  0.33737  0.47019  Biso   1.000  O
  O5       1.0000 0.42404  0.10530  0.24507  Biso   1.000  O
  O6       1.0000 0.54721  0.13888  0.50042  Biso   1.000  O
  O7       1.0000 0.47903  0.38665  0.50061  Biso   1.000  O
  O8       1.0000 0.43312  0.36874  0.25586  Biso   1.000  O
  Hf5      1.0000 0.28999  0.01045  0.62318  Biso   1.000  Hf
  Hf6      1.0000 0.26726  0.23641  0.85582  Biso   1.000  Hf
  Hf7      1.0000 0.74300  0.27271  0.62798  Biso   1.000  Hf
  Hf8      1.0000 0.73755  0.48164  0.87711  Biso   1.000  Hf
  O9       1.0000 0.07816  0.18081  0.69019  Biso   1.000  O
  O10      1.0000 0.08309  0.07065  0.94173  Biso   1.000  O
  O11      1.0000 0.94752  0.43586  0.70628  Biso   1.000  O
  O12      1.0000 0.91065  0.31097  0.93012  Biso   1.000  O
  O13      1.0000 0.54861  0.11724  0.74981  Biso   1.000  O
  O14      1.0000 0.54519  0.12206  0.99950  Biso   1.000  O
  O15      1.0000 0.44711  0.38599  0.99643  Biso   1.000  O
  O16      1.0000 0.46978  0.36940  0.74400  Biso   1.000  O
  Hf9      1.0000 0.26936  0.52541  0.12555  Biso   1.000  Hf
  Hf10     1.0000 0.27703  0.74030  0.37701  Biso   1.000  Hf
  Hf11     1.0000 0.75293  0.76141  0.12571  Biso   1.000  Hf
  Hf12     1.0000 0.74098  0.00405  0.35850  Biso   1.000  Hf
  O17      1.0000 0.08158  0.68444  0.19992  Biso   1.000  O
  O18      1.0000 0.07025  0.57510  0.44396  Biso   1.000  O
  O19      1.0000 0.93697  0.93853  0.19263  Biso   1.000  O
  O20      1.0000 0.94361  0.82428  0.44154  Biso   1.000  O
  O21      1.0000 0.55145  0.61800  0.24883  Biso   1.000  O
  O22      1.0000 0.54345  0.63658  0.49608  Biso   1.000  O
  O23      1.0000 0.47831  0.88999  0.49159  Biso   1.000  O
  O24      1.0000 0.47968  0.85958  0.23940  Biso   1.000  O
  Hf13     1.0000 0.26955  0.51566  0.61830  Biso   1.000  Hf
  Hf14     1.0000 0.28626  0.72826  0.86639  Biso   1.000  Hf
  Hf15     1.0000 0.75210  0.76904  0.61488  Biso   1.000  Hf
  Hf16     1.0000 0.75504  0.98564  0.86804  Biso   1.000  Hf
  O25      1.0000 0.07820  0.68354  0.69193  Biso   1.000  O
  O26      1.0000 0.07084  0.57306  0.94927  Biso   1.000  O
  O27      1.0000 0.95802  0.92895  0.70362  Biso   1.000  O
  O28      1.0000 0.00198  0.82939  0.96545  Biso   1.000  O
  O29      1.0000 0.54497  0.61361  0.74571  Biso   1.000  O
  O30      1.0000 0.55231  0.63185  0.99715  Biso   1.000  O
  O31      1.0000 0.51424  0.87040  0.98515  Biso   1.000  O
  O32      1.0000 0.48528  0.86391  0.74121  Biso   1.000  O
  K1       1.0000 0.15978  0.24122  0.11199  Biso   1.000  K
