data_image0
_cell_length_a       5.08128
_cell_length_b       10.4237
_cell_length_c       10.1699
_cell_angle_alpha    89.6436
_cell_angle_beta     89.6483
_cell_angle_gamma    94.5199

_symmetry_space_group_name_H-M    "P 1"
_symmetry_int_tables_number       1

loop_
  _symmetry_equiv_pos_as_xyz
  'x, y, z'

loop_
  _atom_site_label
  _atom_site_occupancy
  _atom_site_fract_x
  _atom_site_fract_y
  _atom_site_fract_z
  _atom_site_thermal_displace_type
  _atom_site_B_iso_or_equiv
  _atom_site_type_symbol
  Hf1      1.0000 0.28790  0.97295  0.15150  Biso   1.000  Hf
  Hf2      1.0000 0.22498  0.23120  0.37669  Biso   1.000  Hf
  Hf3      1.0000 0.66451  0.27217  0.10813  Biso   1.000  Hf
  Hf4      1.0000 0.72943  0.01374  0.39840  Biso   1.000  Hf
  O1       1.0000 0.88104  0.19669  0.95247  Biso   1.000  O
  O2       1.0000 0.03785  0.06613  0.27781  Biso   1.000  O
  O3       1.0000 0.89633  0.31804  0.28707  Biso   1.000  O
  O4       1.0000 0.92338  0.43310  0.03886  Biso   1.000  O
  O5       1.0000 0.50974  0.13380  0.25006  Biso   1.000  O
  O6       1.0000 0.42365  0.11105  0.99897  Biso   1.000  O
  O7       1.0000 0.43170  0.37272  0.97818  Biso   1.000  O
  O8       1.0000 0.44063  0.39156  0.23435  Biso   1.000  O
  Hf5      1.0000 0.27581  0.97874  0.64526  Biso   1.000  Hf
  Hf6      1.0000 0.23367  0.23576  0.83906  Biso   1.000  Hf
  Hf7      1.0000 0.70127  0.27041  0.60755  Biso   1.000  Hf
  Hf8      1.0000 0.71977  0.02117  0.89489  Biso   1.000  Hf
  O9       1.0000 0.94656  0.16644  0.50495  Biso   1.000  O
  O10      1.0000 0.03841  0.06913  0.76757  Biso   1.000  O
  O11      1.0000 0.96512  0.33964  0.74939  Biso   1.000  O
  O12      1.0000 0.93636  0.42575  0.51887  Biso   1.000  O
  O13      1.0000 0.52388  0.13569  0.74325  Biso   1.000  O
  O14      1.0000 0.44727  0.11062  0.50020  Biso   1.000  O
  O15      1.0000 0.44327  0.36223  0.48882  Biso   1.000  O
  O16      1.0000 0.47867  0.38870  0.73407  Biso   1.000  O
  Hf9      1.0000 0.26931  0.52888  0.10606  Biso   1.000  Hf
  Hf10     1.0000 0.31346  0.72785  0.36403  Biso   1.000  Hf
  Hf11     1.0000 0.77971  0.76869  0.10675  Biso   1.000  Hf
  Hf12     1.0000 0.73870  0.48307  0.35346  Biso   1.000  Hf
  O17      1.0000 0.08210  0.68128  0.01953  Biso   1.000  O
  O18      1.0000 0.07591  0.57228  0.27799  Biso   1.000  O
  O19      1.0000 0.07331  0.81829  0.24226  Biso   1.000  O
  O20      1.0000 0.96668  0.93943  0.02694  Biso   1.000  O
  O21      1.0000 0.56418  0.63790  0.23448  Biso   1.000  O
  O22      1.0000 0.56450  0.62041  0.98368  Biso   1.000  O
  O23      1.0000 0.48866  0.86420  0.00273  Biso   1.000  O
  O24      1.0000 0.57004  0.88288  0.25702  Biso   1.000  O
  Hf13     1.0000 0.25428  0.50898  0.61305  Biso   1.000  Hf
  Hf14     1.0000 0.31985  0.73527  0.85683  Biso   1.000  Hf
  Hf15     1.0000 0.77774  0.76070  0.60661  Biso   1.000  Hf
  Hf16     1.0000 0.74449  0.48713  0.86154  Biso   1.000  Hf
  O25      1.0000 0.07778  0.66907  0.52514  Biso   1.000  O
  O26      1.0000 0.08522  0.57381  0.78452  Biso   1.000  O
  O27      1.0000 0.06340  0.82096  0.74200  Biso   1.000  O
  O28      1.0000 0.97871  0.92028  0.51582  Biso   1.000  O
  O29      1.0000 0.56920  0.63517  0.73720  Biso   1.000  O
  O30      1.0000 0.54801  0.60758  0.48647  Biso   1.000  O
  O31      1.0000 0.49238  0.85873  0.50301  Biso   1.000  O
  O32      1.0000 0.55859  0.88698  0.75257  Biso   1.000  O
  K1       1.0000 0.15286  0.23903  0.11969  Biso   1.000  K
