data_image0
_cell_length_a       10.0668
_cell_length_b       10.2735
_cell_length_c       10.5058
_cell_angle_alpha    89.677
_cell_angle_beta     90.1111
_cell_angle_gamma    90.21

_symmetry_space_group_name_H-M    "P 1"
_symmetry_int_tables_number       1

loop_
  _symmetry_equiv_pos_as_xyz
  'x, y, z'

loop_
  _atom_site_label
  _atom_site_occupancy
  _atom_site_fract_x
  _atom_site_fract_y
  _atom_site_fract_z
  _atom_site_thermal_displace_type
  _atom_site_B_iso_or_equiv
  _atom_site_type_symbol
  K1       1.0000 0.10300  0.98450  0.15587  Biso   1.000  K
  Hf1      1.0000 0.13991  0.02197  0.67163  Biso   1.000  Hf
  Hf2      1.0000 0.14467  0.51870  0.17259  Biso   1.000  Hf
  Hf3      1.0000 0.14102  0.52227  0.67192  Biso   1.000  Hf
  Hf4      1.0000 0.14189  0.22672  0.42122  Biso   1.000  Hf
  Hf5      1.0000 0.13855  0.22709  0.92516  Biso   1.000  Hf
  Hf6      1.0000 0.14150  0.72968  0.42061  Biso   1.000  Hf
  Hf7      1.0000 0.15108  0.72882  0.91927  Biso   1.000  Hf
  Hf8      1.0000 0.35233  0.25994  0.17162  Biso   1.000  Hf
  Hf9      1.0000 0.35968  0.27063  0.67250  Biso   1.000  Hf
  Hf10     1.0000 0.36722  0.77162  0.17140  Biso   1.000  Hf
  Hf11     1.0000 0.35994  0.77283  0.66885  Biso   1.000  Hf
  Hf12     1.0000 0.36030  0.47688  0.42066  Biso   1.000  Hf
  Hf13     1.0000 0.36038  0.47504  0.92277  Biso   1.000  Hf
  Hf14     1.0000 0.35922  0.98060  0.41666  Biso   1.000  Hf
  Hf15     1.0000 0.36295  0.98148  0.92211  Biso   1.000  Hf
  Hf16     1.0000 0.64034  0.02955  0.07523  Biso   1.000  Hf
  Hf17     1.0000 0.63449  0.02131  0.58234  Biso   1.000  Hf
  Hf18     1.0000 0.63282  0.51465  0.07899  Biso   1.000  Hf
  Hf19     1.0000 0.63918  0.52085  0.57792  Biso   1.000  Hf
  Hf20     1.0000 0.63583  0.23341  0.32926  Biso   1.000  Hf
  Hf21     1.0000 0.64100  0.23088  0.82742  Biso   1.000  Hf
  Hf22     1.0000 0.63980  0.72444  0.33110  Biso   1.000  Hf
  Hf23     1.0000 0.63402  0.72963  0.82499  Biso   1.000  Hf
  Hf24     1.0000 0.86409  0.27438  0.07778  Biso   1.000  Hf
  Hf25     1.0000 0.86384  0.27413  0.57915  Biso   1.000  Hf
  Hf26     1.0000 0.86588  0.74385  0.05585  Biso   1.000  Hf
  Hf27     1.0000 0.86312  0.77104  0.57938  Biso   1.000  Hf
  Hf28     1.0000 0.86365  0.48075  0.32769  Biso   1.000  Hf
  Hf29     1.0000 0.86280  0.47706  0.82415  Biso   1.000  Hf
  Hf30     1.0000 0.85942  0.99500  0.35249  Biso   1.000  Hf
  Hf31     1.0000 0.86110  0.97918  0.82912  Biso   1.000  Hf
  O1       1.0000 0.03313  0.18657  0.08345  Biso   1.000  O
  O2       1.0000 0.03505  0.17211  0.59205  Biso   1.000  O
  O3       1.0000 0.04426  0.67492  0.08802  Biso   1.000  O
  O4       1.0000 0.03470  0.66759  0.58556  Biso   1.000  O
  O5       1.0000 0.02500  0.08532  0.35859  Biso   1.000  O
  O6       1.0000 0.03392  0.08204  0.83664  Biso   1.000  O
  O7       1.0000 0.03568  0.58532  0.33398  Biso   1.000  O
  O8       1.0000 0.03301  0.58608  0.83501  Biso   1.000  O
  O9       1.0000 0.46660  0.40754  0.08151  Biso   1.000  O
  O10      1.0000 0.46942  0.41235  0.58109  Biso   1.000  O
  O11      1.0000 0.47980  0.91313  0.07963  Biso   1.000  O
  O12      1.0000 0.46756  0.91190  0.57844  Biso   1.000  O
  O13      1.0000 0.46753  0.33938  0.33027  Biso   1.000  O
  O14      1.0000 0.46978  0.33694  0.83011  Biso   1.000  O
  O15      1.0000 0.48414  0.84631  0.32483  Biso   1.000  O
  O16      1.0000 0.46987  0.83989  0.82615  Biso   1.000  O
  O17      1.0000 0.28240  0.12904  0.30523  Biso   1.000  O
  O18      1.0000 0.27572  0.12289  0.79212  Biso   1.000  O
  O19      1.0000 0.28100  0.61828  0.29401  Biso   1.000  O
  O20      1.0000 0.27870  0.62360  0.79427  Biso   1.000  O
  O21      1.0000 0.28874  0.13250  0.03350  Biso   1.000  O
  O22      1.0000 0.27646  0.12536  0.54687  Biso   1.000  O
  O23      1.0000 0.27870  0.61777  0.04583  Biso   1.000  O
  O24      1.0000 0.27669  0.62656  0.54441  Biso   1.000  O
  O25      1.0000 0.22133  0.37253  0.29508  Biso   1.000  O
  O26      1.0000 0.22465  0.37424  0.79532  Biso   1.000  O
  O27      1.0000 0.24045  0.85903  0.30220  Biso   1.000  O
  O28      1.0000 0.22497  0.87361  0.79097  Biso   1.000  O
  O29      1.0000 0.22208  0.37617  0.04616  Biso   1.000  O
  O30      1.0000 0.22476  0.37726  0.54565  Biso   1.000  O
  O31      1.0000 0.25105  0.85772  0.03145  Biso   1.000  O
  O32      1.0000 0.22279  0.87822  0.54518  Biso   1.000  O
  O33      1.0000 0.53334  0.16541  0.16730  Biso   1.000  O
  O34      1.0000 0.53127  0.16410  0.66857  Biso   1.000  O
  O35      1.0000 0.53474  0.65910  0.17163  Biso   1.000  O
  O36      1.0000 0.53052  0.66275  0.66642  Biso   1.000  O
  O37      1.0000 0.53385  0.08737  0.41859  Biso   1.000  O
  O38      1.0000 0.53754  0.08716  0.91525  Biso   1.000  O
  O39      1.0000 0.53149  0.58829  0.41975  Biso   1.000  O
  O40      1.0000 0.52886  0.58744  0.91976  Biso   1.000  O
  O41      1.0000 0.96386  0.42684  0.16168  Biso   1.000  O
  O42      1.0000 0.96783  0.42081  0.66274  Biso   1.000  O
  O43      1.0000 0.86063  0.90071  0.17569  Biso   1.000  O
  O44      1.0000 0.96578  0.91692  0.66672  Biso   1.000  O
  O45      1.0000 0.96727  0.33611  0.41567  Biso   1.000  O
  O46      1.0000 0.96531  0.33560  0.90923  Biso   1.000  O
  O47      1.0000 0.96805  0.83580  0.41399  Biso   1.000  O
  O48      1.0000 0.97758  0.83942  0.92149  Biso   1.000  O
  O49      1.0000 0.78003  0.12461  0.95595  Biso   1.000  O
  O50      1.0000 0.76965  0.13061  0.46447  Biso   1.000  O
  O51      1.0000 0.77147  0.61499  0.94854  Biso   1.000  O
  O52      1.0000 0.77766  0.62439  0.45460  Biso   1.000  O
  O53      1.0000 0.77698  0.13146  0.21236  Biso   1.000  O
  O54      1.0000 0.77667  0.12667  0.70807  Biso   1.000  O
  O55      1.0000 0.77674  0.63057  0.20311  Biso   1.000  O
  O56      1.0000 0.77465  0.62747  0.70310  Biso   1.000  O
  O57      1.0000 0.72228  0.37380  0.95266  Biso   1.000  O
  O58      1.0000 0.72471  0.37741  0.45411  Biso   1.000  O
  O59      1.0000 0.72769  0.86882  0.95344  Biso   1.000  O
  O60      1.0000 0.72552  0.87489  0.46068  Biso   1.000  O
  O61      1.0000 0.72358  0.37977  0.20576  Biso   1.000  O
  O62      1.0000 0.72571  0.37604  0.70235  Biso   1.000  O
  O63      1.0000 0.71941  0.88738  0.20911  Biso   1.000  O
  O64      1.0000 0.72441  0.87622  0.70593  Biso   1.000  O
