data_image0
_cell_length_a       10.2061
_cell_length_b       5.16956
_cell_length_c       10.5737
_cell_angle_alpha    89.7052
_cell_angle_beta     80.4184
_cell_angle_gamma    90.4501

_symmetry_space_group_name_H-M    "P 1"
_symmetry_int_tables_number       1

loop_
  _symmetry_equiv_pos_as_xyz
  'x, y, z'

loop_
  _atom_site_label
  _atom_site_occupancy
  _atom_site_fract_x
  _atom_site_fract_y
  _atom_site_fract_z
  _atom_site_thermal_displace_type
  _atom_site_B_iso_or_equiv
  _atom_site_type_symbol
  K1       1.0000 0.10155  0.98101  0.13546  Biso   1.000  K
  Hf1      1.0000 0.14338  0.04719  0.64452  Biso   1.000  Hf
  Hf2      1.0000 0.63419  0.04448  0.14242  Biso   1.000  Hf
  Hf3      1.0000 0.63843  0.04441  0.65020  Biso   1.000  Hf
  Hf4      1.0000 0.14258  0.45288  0.39448  Biso   1.000  Hf
  Hf5      1.0000 0.14921  0.46048  0.89220  Biso   1.000  Hf
  Hf6      1.0000 0.63298  0.44874  0.40000  Biso   1.000  Hf
  Hf7      1.0000 0.63918  0.46411  0.89402  Biso   1.000  Hf
  Hf8      1.0000 0.35786  0.52694  0.10183  Biso   1.000  Hf
  Hf9      1.0000 0.36137  0.54878  0.60081  Biso   1.000  Hf
  Hf10     1.0000 0.86709  0.49293  0.08014  Biso   1.000  Hf
  Hf11     1.0000 0.86619  0.54673  0.60739  Biso   1.000  Hf
  Hf12     1.0000 0.35699  0.95809  0.34724  Biso   1.000  Hf
  Hf13     1.0000 0.36327  0.95834  0.85302  Biso   1.000  Hf
  Hf14     1.0000 0.86243  0.98035  0.38018  Biso   1.000  Hf
  Hf15     1.0000 0.86516  0.95447  0.84947  Biso   1.000  Hf
  O1       1.0000 0.04822  0.41566  0.08048  Biso   1.000  O
  O2       1.0000 0.04047  0.35214  0.58730  Biso   1.000  O
  O3       1.0000 0.53685  0.33111  0.07390  Biso   1.000  O
  O4       1.0000 0.53102  0.32377  0.57467  Biso   1.000  O
  O5       1.0000 0.02646  0.17143  0.35118  Biso   1.000  O
  O6       1.0000 0.04002  0.15536  0.83380  Biso   1.000  O
  O7       1.0000 0.53484  0.16805  0.32408  Biso   1.000  O
  O8       1.0000 0.53811  0.17202  0.82545  Biso   1.000  O
  O9       1.0000 0.47139  0.82138  0.17117  Biso   1.000  O
  O10      1.0000 0.47020  0.82574  0.67292  Biso   1.000  O
  O11      1.0000 0.85679  0.79815  0.20598  Biso   1.000  O
  O12      1.0000 0.96570  0.85334  0.66553  Biso   1.000  O
  O13      1.0000 0.47313  0.67690  0.42174  Biso   1.000  O
  O14      1.0000 0.48039  0.68505  0.92134  Biso   1.000  O
  O15      1.0000 0.96751  0.67118  0.42331  Biso   1.000  O
  O16      1.0000 0.96690  0.65681  0.90743  Biso   1.000  O
  O17      1.0000 0.28507  0.25298  0.24470  Biso   1.000  O
  O18      1.0000 0.27965  0.26112  0.73520  Biso   1.000  O
  O19      1.0000 0.77331  0.27845  0.24162  Biso   1.000  O
  O20      1.0000 0.77952  0.26117  0.74095  Biso   1.000  O
  O21      1.0000 0.27703  0.24552  0.48941  Biso   1.000  O
  O22      1.0000 0.29000  0.24794  0.97655  Biso   1.000  O
  O23      1.0000 0.77111  0.25709  0.49914  Biso   1.000  O
  O24      1.0000 0.77549  0.22366  0.98619  Biso   1.000  O
  O25      1.0000 0.24691  0.73251  0.98872  Biso   1.000  O
  O26      1.0000 0.22805  0.76457  0.50742  Biso   1.000  O
  O27      1.0000 0.72773  0.74784  0.00984  Biso   1.000  O
  O28      1.0000 0.72648  0.76284  0.51750  Biso   1.000  O
  O29      1.0000 0.23719  0.71259  0.26129  Biso   1.000  O
  O30      1.0000 0.22624  0.74621  0.75247  Biso   1.000  O
  O31      1.0000 0.71846  0.78293  0.27186  Biso   1.000  O
  O32      1.0000 0.72855  0.74387  0.75921  Biso   1.000  O
