data_image0
_cell_length_a       10.1425
_cell_length_b       5.24554
_cell_length_c       10.1296
_cell_angle_alpha    84.5308
_cell_angle_beta     90.1012
_cell_angle_gamma    89.9874

_symmetry_space_group_name_H-M    "P 1"
_symmetry_int_tables_number       1

loop_
  _symmetry_equiv_pos_as_xyz
  'x, y, z'

loop_
  _atom_site_label
  _atom_site_occupancy
  _atom_site_fract_x
  _atom_site_fract_y
  _atom_site_fract_z
  _atom_site_thermal_displace_type
  _atom_site_B_iso_or_equiv
  _atom_site_type_symbol
  Hf1      1.0000 0.14851  0.08877  0.11580  Biso   1.000  Hf
  Hf2      1.0000 0.14120  0.45885  0.38794  Biso   1.000  Hf
  Hf3      1.0000 0.38550  0.54199  0.09422  Biso   1.000  Hf
  Hf4      1.0000 0.35465  0.95614  0.38126  Biso   1.000  Hf
  O1       1.0000 0.00901  0.30876  0.22397  Biso   1.000  O
  O2       1.0000 0.04773  0.11329  0.45338  Biso   1.000  O
  O3       1.0000 0.48031  0.79782  0.22260  Biso   1.000  O
  O4       1.0000 0.45277  0.62429  0.45982  Biso   1.000  O
  O5       1.0000 0.27266  0.28552  0.24448  Biso   1.000  O
  O6       1.0000 0.27887  0.23865  0.50442  Biso   1.000  O
  O7       1.0000 0.22287  0.73333  0.51592  Biso   1.000  O
  O8       1.0000 0.20913  0.79289  0.26838  Biso   1.000  O
  Hf5      1.0000 0.13786  0.00870  0.63155  Biso   1.000  Hf
  Hf6      1.0000 0.09843  0.45702  0.83094  Biso   1.000  Hf
  Hf7      1.0000 0.36679  0.52495  0.63962  Biso   1.000  Hf
  Hf8      1.0000 0.39794  0.98818  0.85029  Biso   1.000  Hf
  O9       1.0000 0.02269  0.32945  0.66937  Biso   1.000  O
  O10      1.0000 0.03896  0.10588  0.93590  Biso   1.000  O
  O11      1.0000 0.47348  0.84504  0.68050  Biso   1.000  O
  O12      1.0000 0.48213  0.62832  0.92510  Biso   1.000  O
  O13      1.0000 0.25535  0.22483  0.74905  Biso   1.000  O
  O14      1.0000 0.25415  0.35190  0.98386  Biso   1.000  O
  O15      1.0000 0.29842  0.88203  0.02278  Biso   1.000  O
  O16      1.0000 0.24297  0.72496  0.76644  Biso   1.000  O
  Hf9      1.0000 0.63851  0.00856  0.13880  Biso   1.000  Hf
  Hf10     1.0000 0.59327  0.47297  0.35286  Biso   1.000  Hf
  Hf11     1.0000 0.84482  0.50810  0.13830  Biso   1.000  Hf
  Hf12     1.0000 0.90376  0.97512  0.34366  Biso   1.000  Hf
  O17      1.0000 0.53507  0.33152  0.17906  Biso   1.000  O
  O18      1.0000 0.53022  0.11717  0.43673  Biso   1.000  O
  O19      1.0000 0.95063  0.85497  0.16503  Biso   1.000  O
  O20      1.0000 0.96708  0.61891  0.43608  Biso   1.000  O
  O21      1.0000 0.75499  0.21922  0.26668  Biso   1.000  O
  O22      1.0000 0.70790  0.40338  0.51707  Biso   1.000  O
  O23      1.0000 0.78735  0.90384  0.51158  Biso   1.000  O
  O24      1.0000 0.73514  0.71859  0.26576  Biso   1.000  O
  Hf13     1.0000 0.64118  0.05348  0.61382  Biso   1.000  Hf
  Hf14     1.0000 0.64801  0.44027  0.87613  Biso   1.000  Hf
  Hf15     1.0000 0.85664  0.56151  0.61103  Biso   1.000  Hf
  Hf16     1.0000 0.86489  0.94131  0.88404  Biso   1.000  Hf
  O25      1.0000 0.51714  0.30683  0.72518  Biso   1.000  O
  O26      1.0000 0.54152  0.11963  0.96123  Biso   1.000  O
  O27      1.0000 0.98616  0.79932  0.72108  Biso   1.000  O
  O28      1.0000 0.94298  0.58359  0.94320  Biso   1.000  O
  O29      1.0000 0.77296  0.22813  0.75108  Biso   1.000  O
  O30      1.0000 0.77508  0.23055  0.01097  Biso   1.000  O
  O31      1.0000 0.72143  0.73837  0.00779  Biso   1.000  O
  O32      1.0000 0.72982  0.73516  0.74821  Biso   1.000  O
  K1       1.0000 0.11634  0.62024  0.08376  Biso   1.000  K
