data_image0
_cell_length_a       10.1445
_cell_length_b       5.19376
_cell_length_c       10.6469
_cell_angle_alpha    89.879
_cell_angle_beta     91.2514
_cell_angle_gamma    90.1397

_symmetry_space_group_name_H-M    "P 1"
_symmetry_int_tables_number       1

loop_
  _symmetry_equiv_pos_as_xyz
  'x, y, z'

loop_
  _atom_site_label
  _atom_site_occupancy
  _atom_site_fract_x
  _atom_site_fract_y
  _atom_site_fract_z
  _atom_site_thermal_displace_type
  _atom_site_B_iso_or_equiv
  _atom_site_type_symbol
  Zr1      1.0000 0.13939  0.04393  0.17429  Biso   1.000  Zr
  Zr2      1.0000 0.13750  0.45248  0.42612  Biso   1.000  Zr
  Zr3      1.0000 0.34983  0.54765  0.18817  Biso   1.000  Zr
  Zr4      1.0000 0.36142  0.95549  0.42865  Biso   1.000  Zr
  Zr5      1.0000 0.64217  0.04206  0.08340  Biso   1.000  Zr
  Zr6      1.0000 0.63698  0.45141  0.33220  Biso   1.000  Zr
  Zr7      1.0000 0.86998  0.54465  0.07639  Biso   1.000  Zr
  Zr8      1.0000 0.86070  0.95702  0.32638  Biso   1.000  Zr
  O1       1.0000 0.03451  0.32245  0.08065  Biso   1.000  O
  O2       1.0000 0.02940  0.17504  0.33197  Biso   1.000  O
  O3       1.0000 0.45322  0.85947  0.09865  Biso   1.000  O
  O4       1.0000 0.46752  0.67376  0.33933  Biso   1.000  O
  O5       1.0000 0.27071  0.24953  0.30260  Biso   1.000  O
  O6       1.0000 0.27860  0.25959  0.04767  Biso   1.000  O
  O7       1.0000 0.21981  0.75106  0.30471  Biso   1.000  O
  O8       1.0000 0.21953  0.75381  0.05171  Biso   1.000  O
  O9       1.0000 0.52080  0.29933  0.19196  Biso   1.000  O
  O10      1.0000 0.52933  0.17556  0.42759  Biso   1.000  O
  O11      1.0000 0.96831  0.82941  0.17072  Biso   1.000  O
  O12      1.0000 0.96969  0.67551  0.42035  Biso   1.000  O
  O13      1.0000 0.77604  0.24738  0.45185  Biso   1.000  O
  O14      1.0000 0.77608  0.25356  0.20172  Biso   1.000  O
  O15      1.0000 0.72683  0.74946  0.45426  Biso   1.000  O
  O16      1.0000 0.72151  0.74082  0.20167  Biso   1.000  O
  Zr9      1.0000 0.14177  0.04062  0.67477  Biso   1.000  Zr
  Zr10     1.0000 0.14382  0.46069  0.92344  Biso   1.000  Zr
  Zr11     1.0000 0.36263  0.54230  0.67560  Biso   1.000  Zr
  Zr12     1.0000 0.36151  0.96403  0.92635  Biso   1.000  Zr
  Zr13     1.0000 0.64216  0.03436  0.57441  Biso   1.000  Zr
  Zr14     1.0000 0.65036  0.44879  0.80532  Biso   1.000  Zr
  Zr15     1.0000 0.86749  0.54434  0.57562  Biso   1.000  Zr
  Zr16     1.0000 0.86873  0.96173  0.83045  Biso   1.000  Zr
  O17      1.0000 0.03334  0.32284  0.58248  Biso   1.000  O
  O18      1.0000 0.03685  0.17557  0.83279  Biso   1.000  O
  O19      1.0000 0.47314  0.81626  0.58319  Biso   1.000  O
  O20      1.0000 0.47334  0.66646  0.82985  Biso   1.000  O
  O21      1.0000 0.27787  0.25055  0.79818  Biso   1.000  O
  O22      1.0000 0.27574  0.24739  0.55023  Biso   1.000  O
  O23      1.0000 0.22874  0.74888  0.80007  Biso   1.000  O
  O24      1.0000 0.22648  0.74893  0.55183  Biso   1.000  O
  O25      1.0000 0.53240  0.31388  0.66717  Biso   1.000  O
  O26      1.0000 0.53641  0.14334  0.91503  Biso   1.000  O
  O27      1.0000 0.97292  0.82346  0.67134  Biso   1.000  O
  O28      1.0000 0.97550  0.67444  0.91916  Biso   1.000  O
  O29      1.0000 0.77513  0.26802  0.94763  Biso   1.000  O
  O30      1.0000 0.78251  0.24178  0.69614  Biso   1.000  O
  O31      1.0000 0.74151  0.77530  0.95521  Biso   1.000  O
  O32      1.0000 0.73186  0.74508  0.70288  Biso   1.000  O
  K1       1.0000 0.56667  0.53093  0.02312  Biso   1.000  K
