data_image0
_cell_length_a       10.1224
_cell_length_b       10.3365
_cell_length_c       10.5818
_cell_angle_alpha    90.0132
_cell_angle_beta     90.6694
_cell_angle_gamma    90.0772

_symmetry_space_group_name_H-M    "P 1"
_symmetry_int_tables_number       1

loop_
  _symmetry_equiv_pos_as_xyz
  'x, y, z'

loop_
  _atom_site_label
  _atom_site_occupancy
  _atom_site_fract_x
  _atom_site_fract_y
  _atom_site_fract_z
  _atom_site_thermal_displace_type
  _atom_site_B_iso_or_equiv
  _atom_site_type_symbol
  Zr1      1.0000 0.13924  0.02063  0.17234  Biso   1.000  Zr
  Zr2      1.0000 0.13800  0.22717  0.42592  Biso   1.000  Zr
  Zr3      1.0000 0.34822  0.27251  0.18608  Biso   1.000  Zr
  Zr4      1.0000 0.36172  0.47894  0.42430  Biso   1.000  Zr
  Zr5      1.0000 0.63955  0.00931  0.08024  Biso   1.000  Zr
  Zr6      1.0000 0.63614  0.22328  0.32974  Biso   1.000  Zr
  Zr7      1.0000 0.86768  0.27249  0.07573  Biso   1.000  Zr
  Zr8      1.0000 0.85910  0.47763  0.32658  Biso   1.000  Zr
  O1       1.0000 0.03520  0.16392  0.08237  Biso   1.000  O
  O2       1.0000 0.03017  0.08729  0.33151  Biso   1.000  O
  O3       1.0000 0.45327  0.43556  0.09823  Biso   1.000  O
  O4       1.0000 0.46609  0.33425  0.33658  Biso   1.000  O
  O5       1.0000 0.27075  0.12442  0.30130  Biso   1.000  O
  O6       1.0000 0.27993  0.12706  0.04757  Biso   1.000  O
  O7       1.0000 0.21873  0.37556  0.30312  Biso   1.000  O
  O8       1.0000 0.22108  0.37601  0.04915  Biso   1.000  O
  O9       1.0000 0.51764  0.13791  0.19224  Biso   1.000  O
  O10      1.0000 0.52933  0.08809  0.42881  Biso   1.000  O
  O11      1.0000 0.96731  0.41460  0.16904  Biso   1.000  O
  O12      1.0000 0.96880  0.33685  0.41795  Biso   1.000  O
  O13      1.0000 0.77552  0.12337  0.45165  Biso   1.000  O
  O14      1.0000 0.77196  0.12648  0.19949  Biso   1.000  O
  O15      1.0000 0.72499  0.37475  0.45281  Biso   1.000  O
  O16      1.0000 0.71886  0.37375  0.19983  Biso   1.000  O
  Zr9      1.0000 0.14034  0.02071  0.67349  Biso   1.000  Zr
  Zr10     1.0000 0.14281  0.22885  0.92258  Biso   1.000  Zr
  Zr11     1.0000 0.36250  0.27262  0.67445  Biso   1.000  Zr
  Zr12     1.0000 0.36030  0.48294  0.92535  Biso   1.000  Zr
  Zr13     1.0000 0.64069  0.01730  0.57694  Biso   1.000  Zr
  Zr14     1.0000 0.65015  0.22586  0.80868  Biso   1.000  Zr
  Zr15     1.0000 0.86459  0.27286  0.57409  Biso   1.000  Zr
  Zr16     1.0000 0.86556  0.48057  0.82834  Biso   1.000  Zr
  O17      1.0000 0.03191  0.16240  0.58237  Biso   1.000  O
  O18      1.0000 0.03477  0.08571  0.83300  Biso   1.000  O
  O19      1.0000 0.47062  0.41308  0.58274  Biso   1.000  O
  O20      1.0000 0.47312  0.33758  0.83226  Biso   1.000  O
  O21      1.0000 0.27768  0.12481  0.79698  Biso   1.000  O
  O22      1.0000 0.27588  0.12506  0.54942  Biso   1.000  O
  O23      1.0000 0.22769  0.37455  0.79826  Biso   1.000  O
  O24      1.0000 0.22594  0.37524  0.54972  Biso   1.000  O
  O25      1.0000 0.53272  0.16113  0.66693  Biso   1.000  O
  O26      1.0000 0.53689  0.07396  0.91125  Biso   1.000  O
  O27      1.0000 0.97073  0.41352  0.66820  Biso   1.000  O
  O28      1.0000 0.97364  0.33567  0.91726  Biso   1.000  O
  O29      1.0000 0.77495  0.12701  0.94954  Biso   1.000  O
  O30      1.0000 0.78130  0.12253  0.69742  Biso   1.000  O
  O31      1.0000 0.73631  0.38355  0.95032  Biso   1.000  O
  O32      1.0000 0.72880  0.37464  0.70010  Biso   1.000  O
  Zr17     1.0000 0.13894  0.52263  0.17300  Biso   1.000  Zr
  Zr18     1.0000 0.13771  0.72829  0.42234  Biso   1.000  Zr
  Zr19     1.0000 0.35968  0.77193  0.17469  Biso   1.000  Zr
  Zr20     1.0000 0.36139  0.97811  0.42554  Biso   1.000  Zr
  Zr21     1.0000 0.64018  0.53250  0.07970  Biso   1.000  Zr
  Zr22     1.0000 0.63890  0.72992  0.33074  Biso   1.000  Zr
  Zr23     1.0000 0.86422  0.77051  0.07897  Biso   1.000  Zr
  Zr24     1.0000 0.86280  0.97974  0.32797  Biso   1.000  Zr
  O33      1.0000 0.03292  0.66372  0.08240  Biso   1.000  O
  O34      1.0000 0.03053  0.58622  0.33283  Biso   1.000  O
  O35      1.0000 0.46885  0.90749  0.08016  Biso   1.000  O
  O36      1.0000 0.46907  0.83857  0.33405  Biso   1.000  O
  O37      1.0000 0.27401  0.62521  0.29763  Biso   1.000  O
  O38      1.0000 0.27442  0.62859  0.04587  Biso   1.000  O
  O39      1.0000 0.22434  0.87478  0.29759  Biso   1.000  O
  O40      1.0000 0.22410  0.87732  0.04764  Biso   1.000  O
  O41      1.0000 0.53360  0.67037  0.17022  Biso   1.000  O
  O42      1.0000 0.53164  0.58687  0.41815  Biso   1.000  O
  O43      1.0000 0.96835  0.91570  0.16758  Biso   1.000  O
  O44      1.0000 0.96792  0.83666  0.41865  Biso   1.000  O
  O45      1.0000 0.77594  0.62440  0.45453  Biso   1.000  O
  O46      1.0000 0.77738  0.62670  0.20586  Biso   1.000  O
  O47      1.0000 0.72583  0.87442  0.45570  Biso   1.000  O
  O48      1.0000 0.72722  0.87281  0.20600  Biso   1.000  O
  Zr25     1.0000 0.14051  0.52098  0.67270  Biso   1.000  Zr
  Zr26     1.0000 0.14048  0.73044  0.92213  Biso   1.000  Zr
  Zr27     1.0000 0.36232  0.76984  0.67280  Biso   1.000  Zr
  Zr28     1.0000 0.36390  0.97764  0.92168  Biso   1.000  Zr
  Zr29     1.0000 0.64020  0.52176  0.57683  Biso   1.000  Zr
  Zr30     1.0000 0.64035  0.72857  0.82713  Biso   1.000  Zr
  Zr31     1.0000 0.86357  0.77066  0.57958  Biso   1.000  Zr
  Zr32     1.0000 0.86465  0.97858  0.83011  Biso   1.000  Zr
  O49      1.0000 0.03336  0.66388  0.58306  Biso   1.000  O
  O50      1.0000 0.03541  0.58683  0.83315  Biso   1.000  O
  O51      1.0000 0.47032  0.91030  0.58350  Biso   1.000  O
  O52      1.0000 0.46838  0.83216  0.83260  Biso   1.000  O
  O53      1.0000 0.27683  0.62505  0.79634  Biso   1.000  O
  O54      1.0000 0.27544  0.62478  0.54651  Biso   1.000  O
  O55      1.0000 0.22608  0.87429  0.79652  Biso   1.000  O
  O56      1.0000 0.22542  0.87528  0.54729  Biso   1.000  O
  O57      1.0000 0.53311  0.66234  0.66791  Biso   1.000  O
  O58      1.0000 0.53302  0.58665  0.91924  Biso   1.000  O
  O59      1.0000 0.96999  0.91305  0.66950  Biso   1.000  O
  O60      1.0000 0.96998  0.83680  0.91909  Biso   1.000  O
  O61      1.0000 0.77823  0.62876  0.95272  Biso   1.000  O
  O62      1.0000 0.77719  0.62474  0.70349  Biso   1.000  O
  O63      1.0000 0.72785  0.87432  0.95593  Biso   1.000  O
  O64      1.0000 0.72752  0.87402  0.70652  Biso   1.000  O
  K1       1.0000 0.56489  0.26443  0.02908  Biso   1.000  K
