data_image0
_cell_length_a       10.2758
_cell_length_b       10.4145
_cell_length_c       5.33259
_cell_angle_alpha    89.9512
_cell_angle_beta     79.094
_cell_angle_gamma    90.2028

_symmetry_space_group_name_H-M    "P 1"
_symmetry_int_tables_number       1

loop_
  _symmetry_equiv_pos_as_xyz
  'x, y, z'

loop_
  _atom_site_label
  _atom_site_occupancy
  _atom_site_fract_x
  _atom_site_fract_y
  _atom_site_fract_z
  _atom_site_thermal_displace_type
  _atom_site_B_iso_or_equiv
  _atom_site_type_symbol
  Zr1      1.0000 0.13429  0.02144  0.28594  Biso   1.000  Zr
  Zr2      1.0000 0.12933  0.22644  0.77639  Biso   1.000  Zr
  Zr3      1.0000 0.34709  0.28161  0.17235  Biso   1.000  Zr
  Zr4      1.0000 0.35739  0.49209  0.71088  Biso   1.000  Zr
  O1       1.0000 0.03611  0.16696  0.14954  Biso   1.000  O
  O2       1.0000 0.02636  0.08310  0.65156  Biso   1.000  O
  O3       1.0000 0.46030  0.42883  0.35096  Biso   1.000  O
  O4       1.0000 0.47541  0.36093  0.88358  Biso   1.000  O
  O5       1.0000 0.26349  0.12631  0.45723  Biso   1.000  O
  O6       1.0000 0.28003  0.12831  0.94900  Biso   1.000  O
  O7       1.0000 0.21516  0.38455  0.00267  Biso   1.000  O
  O8       1.0000 0.22427  0.37089  0.50982  Biso   1.000  O
  Zr5      1.0000 0.13509  0.52423  0.29602  Biso   1.000  Zr
  Zr6      1.0000 0.13359  0.72921  0.79577  Biso   1.000  Zr
  Zr7      1.0000 0.35943  0.77192  0.21461  Biso   1.000  Zr
  Zr8      1.0000 0.36210  0.96756  0.71291  Biso   1.000  Zr
  O9       1.0000 0.02943  0.66475  0.15774  Biso   1.000  O
  O10      1.0000 0.03038  0.58474  0.65780  Biso   1.000  O
  O11      1.0000 0.46533  0.91514  0.35109  Biso   1.000  O
  O12      1.0000 0.46287  0.82846  0.85182  Biso   1.000  O
  O13      1.0000 0.27143  0.62995  0.48533  Biso   1.000  O
  O14      1.0000 0.27095  0.62782  0.98749  Biso   1.000  O
  O15      1.0000 0.22355  0.88034  0.02415  Biso   1.000  O
  O16      1.0000 0.22213  0.87000  0.52431  Biso   1.000  O
  Zr9      1.0000 0.64080  0.01758  0.29938  Biso   1.000  Zr
  Zr10     1.0000 0.65229  0.22490  0.82350  Biso   1.000  Zr
  Zr11     1.0000 0.86178  0.27199  0.22305  Biso   1.000  Zr
  Zr12     1.0000 0.85765  0.47791  0.71539  Biso   1.000  Zr
  O17      1.0000 0.53240  0.16340  0.15541  Biso   1.000  O
  O18      1.0000 0.54901  0.06172  0.68047  Biso   1.000  O
  O19      1.0000 0.96593  0.41510  0.35294  Biso   1.000  O
  O20      1.0000 0.96103  0.33260  0.84743  Biso   1.000  O
  O21      1.0000 0.77760  0.12820  0.49175  Biso   1.000  O
  O22      1.0000 0.78288  0.11888  0.99855  Biso   1.000  O
  O23      1.0000 0.72588  0.37710  0.03795  Biso   1.000  O
  O24      1.0000 0.72083  0.36981  0.53420  Biso   1.000  O
  Zr13     1.0000 0.63512  0.52322  0.29827  Biso   1.000  Zr
  Zr14     1.0000 0.63862  0.72737  0.79832  Biso   1.000  Zr
  Zr15     1.0000 0.85838  0.77009  0.21488  Biso   1.000  Zr
  Zr16     1.0000 0.85726  0.97499  0.71265  Biso   1.000  Zr
  O25      1.0000 0.53247  0.66846  0.16091  Biso   1.000  O
  O26      1.0000 0.53055  0.59182  0.65575  Biso   1.000  O
  O27      1.0000 0.96403  0.91213  0.35264  Biso   1.000  O
  O28      1.0000 0.96445  0.83469  0.85244  Biso   1.000  O
  O29      1.0000 0.77427  0.62635  0.48613  Biso   1.000  O
  O30      1.0000 0.77262  0.61988  0.98480  Biso   1.000  O
  O31      1.0000 0.72327  0.87567  0.02575  Biso   1.000  O
  O32      1.0000 0.72376  0.86766  0.52301  Biso   1.000  O
  K1       1.0000 0.44295  0.23301  0.56546  Biso   1.000  K
