data_image0
_cell_length_a       10.1207
_cell_length_b       10.2925
_cell_length_c       10.1207
_cell_angle_alpha    89.9962
_cell_angle_beta     90.0006
_cell_angle_gamma    89.9964

_symmetry_space_group_name_H-M    "P 1"
_symmetry_int_tables_number       1

loop_
  _symmetry_equiv_pos_as_xyz
  'x, y, z'

loop_
  _atom_site_label
  _atom_site_occupancy
  _atom_site_fract_x
  _atom_site_fract_y
  _atom_site_fract_z
  _atom_site_thermal_displace_type
  _atom_site_B_iso_or_equiv
  _atom_site_type_symbol
  Zr1      1.0000 0.12554  0.97554  0.12554  Biso   1.000  Zr
  Zr2      1.0000 0.12565  0.24986  0.39301  Biso   1.000  Zr
  Zr3      1.0000 0.39302  0.24986  0.12565  Biso   1.000  Zr
  Zr4      1.0000 0.37594  0.00654  0.37594  Biso   1.000  Zr
  O1       1.0000 0.97894  0.15611  0.97893  Biso   1.000  O
  O2       1.0000 0.00586  0.09116  0.24561  Biso   1.000  O
  O3       1.0000 0.97883  0.34345  0.27251  Biso   1.000  O
  O4       1.0000 0.00579  0.40850  0.00579  Biso   1.000  O
  O5       1.0000 0.27262  0.15643  0.27261  Biso   1.000  O
  O6       1.0000 0.24561  0.09116  0.00586  Biso   1.000  O
  O7       1.0000 0.27251  0.34345  0.97883  Biso   1.000  O
  O8       1.0000 0.24553  0.40864  0.24553  Biso   1.000  O
  Zr5      1.0000 0.12562  0.99476  0.62564  Biso   1.000  Zr
  Zr6      1.0000 0.12565  0.24985  0.85839  Biso   1.000  Zr
  Zr7      1.0000 0.37712  0.24985  0.62566  Biso   1.000  Zr
  Zr8      1.0000 0.37381  0.00099  0.87746  Biso   1.000  Zr
  O9       1.0000 0.99422  0.14274  0.49803  Biso   1.000  O
  O10      1.0000 0.00282  0.10416  0.74251  Biso   1.000  O
  O11      1.0000 0.99419  0.35694  0.75336  Biso   1.000  O
  O12      1.0000 0.00280  0.39555  0.50887  Biso   1.000  O
  O13      1.0000 0.25709  0.14276  0.75337  Biso   1.000  O
  O14      1.0000 0.24849  0.10418  0.50889  Biso   1.000  O
  O15      1.0000 0.25708  0.35700  0.49801  Biso   1.000  O
  O16      1.0000 0.24847  0.39555  0.74248  Biso   1.000  O
  Zr9      1.0000 0.12564  0.52419  0.12563  Biso   1.000  Zr
  Zr10     1.0000 0.12564  0.74990  0.38202  Biso   1.000  Zr
  Zr11     1.0000 0.38203  0.74990  0.12563  Biso   1.000  Zr
  Zr12     1.0000 0.37383  0.49874  0.37383  Biso   1.000  Zr
  O17      1.0000 0.00306  0.65480  0.00305  Biso   1.000  O
  O18      1.0000 0.99721  0.60204  0.25400  Biso   1.000  O
  O19      1.0000 0.00307  0.84486  0.24815  Biso   1.000  O
  O20      1.0000 0.99720  0.89758  0.99720  Biso   1.000  O
  O21      1.0000 0.24814  0.65493  0.24814  Biso   1.000  O
  O22      1.0000 0.25400  0.60204  0.99720  Biso   1.000  O
  O23      1.0000 0.24815  0.84486  0.00306  Biso   1.000  O
  O24      1.0000 0.25400  0.89779  0.25399  Biso   1.000  O
  Zr13     1.0000 0.12568  0.50496  0.62562  Biso   1.000  Zr
  Zr14     1.0000 0.12564  0.74982  0.86922  Biso   1.000  Zr
  Zr15     1.0000 0.37810  0.74989  0.62563  Biso   1.000  Zr
  Zr16     1.0000 0.37596  0.49320  0.87532  Biso   1.000  Zr
  O25      1.0000 0.99837  0.64526  0.50260  Biso   1.000  O
  O26      1.0000 0.00391  0.60518  0.75372  Biso   1.000  O
  O27      1.0000 0.99837  0.85445  0.74861  Biso   1.000  O
  O28      1.0000 0.00392  0.89452  0.49752  Biso   1.000  O
  O29      1.0000 0.25293  0.64525  0.74861  Biso   1.000  O
  O30      1.0000 0.24738  0.60523  0.49751  Biso   1.000  O
  O31      1.0000 0.25293  0.85449  0.50260  Biso   1.000  O
  O32      1.0000 0.24739  0.89452  0.75372  Biso   1.000  O
  Zr17     1.0000 0.62564  0.99476  0.12562  Biso   1.000  Zr
  Zr18     1.0000 0.62567  0.24985  0.37712  Biso   1.000  Zr
  Zr19     1.0000 0.85839  0.24985  0.12565  Biso   1.000  Zr
  Zr20     1.0000 0.87746  0.00099  0.37381  Biso   1.000  Zr
  O33      1.0000 0.49803  0.14274  0.99421  Biso   1.000  O
  O34      1.0000 0.50889  0.10418  0.24848  Biso   1.000  O
  O35      1.0000 0.49801  0.35700  0.25708  Biso   1.000  O
  O36      1.0000 0.50887  0.39555  0.00280  Biso   1.000  O
  O37      1.0000 0.75337  0.14275  0.25709  Biso   1.000  O
  O38      1.0000 0.74251  0.10416  0.00282  Biso   1.000  O
  O39      1.0000 0.75336  0.35694  0.99419  Biso   1.000  O
  O40      1.0000 0.74248  0.39555  0.24847  Biso   1.000  O
  Zr21     1.0000 0.62564  0.99924  0.62564  Biso   1.000  Zr
  Zr22     1.0000 0.62567  0.24987  0.87418  Biso   1.000  Zr
  Zr23     1.0000 0.87418  0.24987  0.62567  Biso   1.000  Zr
  Zr24     1.0000 0.87531  0.00649  0.87531  Biso   1.000  Zr
  O41      1.0000 0.49800  0.14785  0.49800  Biso   1.000  O
  O42      1.0000 0.50240  0.10224  0.74890  Biso   1.000  O
  O43      1.0000 0.49800  0.35189  0.75330  Biso   1.000  O
  O44      1.0000 0.50239  0.39748  0.50239  Biso   1.000  O
  O45      1.0000 0.75331  0.14783  0.75331  Biso   1.000  O
  O46      1.0000 0.74890  0.10224  0.50240  Biso   1.000  O
  O47      1.0000 0.75330  0.35188  0.49799  Biso   1.000  O
  O48      1.0000 0.74889  0.39748  0.74889  Biso   1.000  O
  Zr25     1.0000 0.62562  0.50496  0.12567  Biso   1.000  Zr
  Zr26     1.0000 0.62564  0.74988  0.37810  Biso   1.000  Zr
  Zr27     1.0000 0.86922  0.74982  0.12564  Biso   1.000  Zr
  Zr28     1.0000 0.87533  0.49320  0.37596  Biso   1.000  Zr
  O49      1.0000 0.50261  0.64526  0.99836  Biso   1.000  O
  O50      1.0000 0.49751  0.60523  0.24738  Biso   1.000  O
  O51      1.0000 0.50261  0.85449  0.25293  Biso   1.000  O
  O52      1.0000 0.49753  0.89452  0.00391  Biso   1.000  O
  O53      1.0000 0.74862  0.64525  0.25293  Biso   1.000  O
  O54      1.0000 0.75372  0.60518  0.00391  Biso   1.000  O
  O55      1.0000 0.74861  0.85445  0.99837  Biso   1.000  O
  O56      1.0000 0.75373  0.89451  0.24739  Biso   1.000  O
  Zr29     1.0000 0.62564  0.50048  0.62564  Biso   1.000  Zr
  Zr30     1.0000 0.62564  0.74984  0.87319  Biso   1.000  Zr
  Zr31     1.0000 0.87320  0.74984  0.62563  Biso   1.000  Zr
  Zr32     1.0000 0.87748  0.49871  0.87748  Biso   1.000  Zr
  O57      1.0000 0.49763  0.64727  0.49763  Biso   1.000  O
  O58      1.0000 0.50282  0.60256  0.74849  Biso   1.000  O
  O59      1.0000 0.49763  0.85246  0.75366  Biso   1.000  O
  O60      1.0000 0.50281  0.89718  0.50281  Biso   1.000  O
  O61      1.0000 0.75367  0.64725  0.75367  Biso   1.000  O
  O62      1.0000 0.74849  0.60256  0.50281  Biso   1.000  O
  O63      1.0000 0.75366  0.85246  0.49763  Biso   1.000  O
  O64      1.0000 0.74848  0.89715  0.74848  Biso   1.000  O
  K1       1.0000 0.12572  0.24987  0.12572  Biso   1.000  K
