data_image0
_cell_length_a       10.2342
_cell_length_b       10.3906
_cell_length_c       5.12811
_cell_angle_alpha    85.6148
_cell_angle_beta     89.6322
_cell_angle_gamma    90.8013

_symmetry_space_group_name_H-M    "P 1"
_symmetry_int_tables_number       1

loop_
  _symmetry_equiv_pos_as_xyz
  'x, y, z'

loop_
  _atom_site_label
  _atom_site_occupancy
  _atom_site_fract_x
  _atom_site_fract_y
  _atom_site_fract_z
  _atom_site_thermal_displace_type
  _atom_site_B_iso_or_equiv
  _atom_site_type_symbol
  Zr1      1.0000 0.10725  0.97049  0.22460  Biso   1.000  Zr
  Zr2      1.0000 0.10572  0.22837  0.61343  Biso   1.000  Zr
  Zr3      1.0000 0.39765  0.24509  0.15436  Biso   1.000  Zr
  Zr4      1.0000 0.38974  0.48487  0.70119  Biso   1.000  Zr
  O1       1.0000 0.98210  0.12305  0.37535  Biso   1.000  O
  O2       1.0000 0.04374  0.06444  0.87316  Biso   1.000  O
  O3       1.0000 0.48914  0.38057  0.42699  Biso   1.000  O
  O4       1.0000 0.52376  0.35063  0.92110  Biso   1.000  O
  O5       1.0000 0.23968  0.11482  0.38176  Biso   1.000  O
  O6       1.0000 0.28394  0.18556  0.83724  Biso   1.000  O
  O7       1.0000 0.29424  0.42470  0.04380  Biso   1.000  O
  O8       1.0000 0.22684  0.38669  0.52969  Biso   1.000  O
  Zr5      1.0000 0.15301  0.52817  0.25687  Biso   1.000  Zr
  Zr6      1.0000 0.11035  0.73060  0.73935  Biso   1.000  Zr
  Zr7      1.0000 0.36983  0.77275  0.26776  Biso   1.000  Zr
  Zr8      1.0000 0.35085  0.01804  0.69090  Biso   1.000  Zr
  O9       1.0000 0.00359  0.63303  0.45312  Biso   1.000  O
  O10      1.0000 0.03224  0.55412  0.92364  Biso   1.000  O
  O11      1.0000 0.48737  0.88956  0.51686  Biso   1.000  O
  O12      1.0000 0.53161  0.84262  0.03783  Biso   1.000  O
  O13      1.0000 0.26091  0.62692  0.52907  Biso   1.000  O
  O14      1.0000 0.24430  0.67831  0.03315  Biso   1.000  O
  O15      1.0000 0.27780  0.92508  0.02658  Biso   1.000  O
  O16      1.0000 0.23497  0.86696  0.51285  Biso   1.000  O
  Zr9      1.0000 0.62231  0.99515  0.21673  Biso   1.000  Zr
  Zr10     1.0000 0.60965  0.23377  0.67258  Biso   1.000  Zr
  Zr11     1.0000 0.83868  0.26379  0.19961  Biso   1.000  Zr
  Zr12     1.0000 0.89271  0.47657  0.68090  Biso   1.000  Zr
  O17      1.0000 0.49471  0.13001  0.43806  Biso   1.000  O
  O18      1.0000 0.49826  0.09604  0.94832  Biso   1.000  O
  O19      1.0000 0.99013  0.38562  0.37645  Biso   1.000  O
  O20      1.0000 0.94592  0.29508  0.83565  Biso   1.000  O
  O21      1.0000 0.74066  0.11358  0.46216  Biso   1.000  O
  O22      1.0000 0.73683  0.15127  0.95536  Biso   1.000  O
  O23      1.0000 0.76732  0.42917  0.99973  Biso   1.000  O
  O24      1.0000 0.73836  0.36463  0.48156  Biso   1.000  O
  Zr13     1.0000 0.63429  0.51621  0.22899  Biso   1.000  Zr
  Zr14     1.0000 0.60621  0.73916  0.73612  Biso   1.000  Zr
  Zr15     1.0000 0.85611  0.75919  0.27839  Biso   1.000  Zr
  Zr16     1.0000 0.86786  0.00733  0.70566  Biso   1.000  Zr
  O25      1.0000 0.50467  0.63783  0.45737  Biso   1.000  O
  O26      1.0000 0.50377  0.59320  0.95209  Biso   1.000  O
  O27      1.0000 0.98556  0.87613  0.52123  Biso   1.000  O
  O28      1.0000 0.01989  0.81540  0.04094  Biso   1.000  O
  O29      1.0000 0.75073  0.60980  0.51330  Biso   1.000  O
  O30      1.0000 0.73901  0.67502  0.02142  Biso   1.000  O
  O31      1.0000 0.78929  0.92278  0.04282  Biso   1.000  O
  O32      1.0000 0.73875  0.86492  0.52136  Biso   1.000  O
  K1       1.0000 0.12342  0.27056  0.09836  Biso   1.000  K
