data_image0
_cell_length_a       10.2299
_cell_length_b       10.3761
_cell_length_c       10.5876
_cell_angle_alpha    89.9209
_cell_angle_beta     79.6851
_cell_angle_gamma    90.0783

_symmetry_space_group_name_H-M    "P 1"
_symmetry_int_tables_number       1

loop_
  _symmetry_equiv_pos_as_xyz
  'x, y, z'

loop_
  _atom_site_label
  _atom_site_occupancy
  _atom_site_fract_x
  _atom_site_fract_y
  _atom_site_fract_z
  _atom_site_thermal_displace_type
  _atom_site_B_iso_or_equiv
  _atom_site_type_symbol
  Zr1      1.0000 0.13352  0.02064  0.14424  Biso   1.000  Zr
  Zr2      1.0000 0.13346  0.22624  0.39295  Biso   1.000  Zr
  Zr3      1.0000 0.34779  0.27334  0.08631  Biso   1.000  Zr
  Zr4      1.0000 0.35915  0.48873  0.35687  Biso   1.000  Zr
  O1       1.0000 0.03223  0.16722  0.07571  Biso   1.000  O
  O2       1.0000 0.02831  0.08231  0.32863  Biso   1.000  O
  O3       1.0000 0.45952  0.42698  0.16494  Biso   1.000  O
  O4       1.0000 0.48001  0.36153  0.44464  Biso   1.000  O
  O5       1.0000 0.26518  0.12478  0.23238  Biso   1.000  O
  O6       1.0000 0.28276  0.12438  0.48141  Biso   1.000  O
  O7       1.0000 0.21686  0.38282  0.00415  Biso   1.000  O
  O8       1.0000 0.22561  0.36929  0.25731  Biso   1.000  O
  Zr5      1.0000 0.14018  0.02229  0.64300  Biso   1.000  Zr
  Zr6      1.0000 0.13314  0.22820  0.89007  Biso   1.000  Zr
  Zr7      1.0000 0.36276  0.27777  0.60559  Biso   1.000  Zr
  Zr8      1.0000 0.35907  0.48210  0.85421  Biso   1.000  Zr
  O9       1.0000 0.03791  0.16817  0.57825  Biso   1.000  O
  O10      1.0000 0.03230  0.08289  0.82583  Biso   1.000  O
  O11      1.0000 0.46772  0.41522  0.68247  Biso   1.000  O
  O12      1.0000 0.46424  0.33493  0.92043  Biso   1.000  O
  O13      1.0000 0.27438  0.12858  0.73658  Biso   1.000  O
  O14      1.0000 0.27122  0.12375  0.98342  Biso   1.000  O
  O15      1.0000 0.22575  0.37986  0.50725  Biso   1.000  O
  O16      1.0000 0.22351  0.37269  0.75788  Biso   1.000  O
  Zr9      1.0000 0.13690  0.52288  0.14785  Biso   1.000  Zr
  Zr10     1.0000 0.13547  0.72922  0.39658  Biso   1.000  Zr
  Zr11     1.0000 0.35912  0.77316  0.10434  Biso   1.000  Zr
  Zr12     1.0000 0.36197  0.96796  0.35659  Biso   1.000  Zr
  O17      1.0000 0.03249  0.66625  0.07935  Biso   1.000  O
  O18      1.0000 0.03281  0.58232  0.32958  Biso   1.000  O
  O19      1.0000 0.46460  0.91678  0.17424  Biso   1.000  O
  O20      1.0000 0.46326  0.82579  0.42436  Biso   1.000  O
  O21      1.0000 0.27297  0.63047  0.24204  Biso   1.000  O
  O22      1.0000 0.27294  0.62454  0.49214  Biso   1.000  O
  O23      1.0000 0.22282  0.88016  0.00944  Biso   1.000  O
  O24      1.0000 0.22104  0.86992  0.26006  Biso   1.000  O
  Zr13     1.0000 0.13746  0.52207  0.64570  Biso   1.000  Zr
  Zr14     1.0000 0.13680  0.72868  0.89675  Biso   1.000  Zr
  Zr15     1.0000 0.36106  0.77060  0.60705  Biso   1.000  Zr
  Zr16     1.0000 0.35966  0.97866  0.85289  Biso   1.000  Zr
  O25      1.0000 0.03192  0.66657  0.57924  Biso   1.000  O
  O26      1.0000 0.03290  0.58400  0.82885  Biso   1.000  O
  O27      1.0000 0.46555  0.91640  0.67190  Biso   1.000  O
  O28      1.0000 0.46453  0.83564  0.92234  Biso   1.000  O
  O29      1.0000 0.27460  0.62805  0.74130  Biso   1.000  O
  O30      1.0000 0.27413  0.62388  0.99230  Biso   1.000  O
  O31      1.0000 0.22383  0.87836  0.51133  Biso   1.000  O
  O32      1.0000 0.22344  0.87094  0.76028  Biso   1.000  O
  Zr17     1.0000 0.64046  0.01792  0.14811  Biso   1.000  Zr
  Zr18     1.0000 0.65346  0.22787  0.40929  Biso   1.000  Zr
  Zr19     1.0000 0.85910  0.27193  0.10675  Biso   1.000  Zr
  Zr20     1.0000 0.85953  0.47832  0.35530  Biso   1.000  Zr
  O33      1.0000 0.52930  0.16280  0.07597  Biso   1.000  O
  O34      1.0000 0.55030  0.06175  0.34212  Biso   1.000  O
  O35      1.0000 0.96468  0.41658  0.17302  Biso   1.000  O
  O36      1.0000 0.96393  0.33206  0.42270  Biso   1.000  O
  O37      1.0000 0.77704  0.12895  0.24238  Biso   1.000  O
  O38      1.0000 0.78313  0.11906  0.49757  Biso   1.000  O
  O39      1.0000 0.72196  0.37786  0.01288  Biso   1.000  O
  O40      1.0000 0.72023  0.36983  0.26310  Biso   1.000  O
  Zr21     1.0000 0.63834  0.02158  0.64767  Biso   1.000  Zr
  Zr22     1.0000 0.63810  0.22670  0.89802  Biso   1.000  Zr
  Zr23     1.0000 0.86349  0.27195  0.60981  Biso   1.000  Zr
  Zr24     1.0000 0.85908  0.47926  0.85694  Biso   1.000  Zr
  O41      1.0000 0.53604  0.16861  0.58161  Biso   1.000  O
  O42      1.0000 0.53197  0.08440  0.82780  Biso   1.000  O
  O43      1.0000 0.96662  0.41705  0.67403  Biso   1.000  O
  O44      1.0000 0.96220  0.33308  0.92171  Biso   1.000  O
  O45      1.0000 0.77528  0.12866  0.74438  Biso   1.000  O
  O46      1.0000 0.77443  0.12103  0.99278  Biso   1.000  O
  O47      1.0000 0.72868  0.37850  0.51602  Biso   1.000  O
  O48      1.0000 0.72467  0.37170  0.76392  Biso   1.000  O
  Zr25     1.0000 0.63475  0.52258  0.14534  Biso   1.000  Zr
  Zr26     1.0000 0.63967  0.72646  0.39737  Biso   1.000  Zr
  Zr27     1.0000 0.85900  0.76969  0.10570  Biso   1.000  Zr
  Zr28     1.0000 0.85749  0.97584  0.35542  Biso   1.000  Zr
  O49      1.0000 0.53343  0.67128  0.07874  Biso   1.000  O
  O50      1.0000 0.53233  0.58868  0.32538  Biso   1.000  O
  O51      1.0000 0.96231  0.91440  0.17384  Biso   1.000  O
  O52      1.0000 0.96383  0.83252  0.42290  Biso   1.000  O
  O53      1.0000 0.77539  0.62632  0.24143  Biso   1.000  O
  O54      1.0000 0.77477  0.62034  0.49158  Biso   1.000  O
  O55      1.0000 0.72344  0.87794  0.01086  Biso   1.000  O
  O56      1.0000 0.72320  0.86713  0.25971  Biso   1.000  O
  Zr29     1.0000 0.63837  0.52189  0.64890  Biso   1.000  Zr
  Zr30     1.0000 0.63692  0.72977  0.89701  Biso   1.000  Zr
  Zr31     1.0000 0.86033  0.77223  0.60631  Biso   1.000  Zr
  Zr32     1.0000 0.86007  0.97781  0.85557  Biso   1.000  Zr
  O57      1.0000 0.53269  0.66407  0.58022  Biso   1.000  O
  O58      1.0000 0.53218  0.58618  0.83033  Biso   1.000  O
  O59      1.0000 0.96588  0.91676  0.67245  Biso   1.000  O
  O60      1.0000 0.96509  0.83367  0.92333  Biso   1.000  O
  O61      1.0000 0.77447  0.62907  0.74172  Biso   1.000  O
  O62      1.0000 0.77330  0.62123  0.99106  Biso   1.000  O
  O63      1.0000 0.72314  0.87720  0.51204  Biso   1.000  O
  O64      1.0000 0.72383  0.87231  0.76152  Biso   1.000  O
  K1       1.0000 0.44251  0.23445  0.28636  Biso   1.000  K
