data_image0
_cell_length_a       10.2282
_cell_length_b       5.22055
_cell_length_c       10.2407
_cell_angle_alpha    85.0601
_cell_angle_beta     89.2309
_cell_angle_gamma    88.988

_symmetry_space_group_name_H-M    "P 1"
_symmetry_int_tables_number       1

loop_
  _symmetry_equiv_pos_as_xyz
  'x, y, z'

loop_
  _atom_site_label
  _atom_site_occupancy
  _atom_site_fract_x
  _atom_site_fract_y
  _atom_site_fract_z
  _atom_site_thermal_displace_type
  _atom_site_B_iso_or_equiv
  _atom_site_type_symbol
  Zr1      1.0000 0.14744  0.07101  0.11674  Biso   1.000  Zr
  Zr2      1.0000 0.14442  0.45763  0.38670  Biso   1.000  Zr
  Zr3      1.0000 0.40794  0.49309  0.07726  Biso   1.000  Zr
  Zr4      1.0000 0.37714  0.99482  0.34685  Biso   1.000  Zr
  O1       1.0000 0.00435  0.29986  0.22257  Biso   1.000  O
  O2       1.0000 0.04045  0.11904  0.45601  Biso   1.000  O
  O3       1.0000 0.49628  0.74655  0.20852  Biso   1.000  O
  O4       1.0000 0.44314  0.64210  0.45075  Biso   1.000  O
  O5       1.0000 0.26173  0.29806  0.23004  Biso   1.000  O
  O6       1.0000 0.27787  0.19952  0.48433  Biso   1.000  O
  O7       1.0000 0.20160  0.67252  0.53775  Biso   1.000  O
  O8       1.0000 0.20753  0.80790  0.28007  Biso   1.000  O
  Zr5      1.0000 0.14086  0.00562  0.62277  Biso   1.000  Zr
  Zr6      1.0000 0.10164  0.46138  0.82158  Biso   1.000  Zr
  Zr7      1.0000 0.37275  0.54902  0.63690  Biso   1.000  Zr
  Zr8      1.0000 0.38352  0.01334  0.86144  Biso   1.000  Zr
  O9       1.0000 0.01226  0.30853  0.67816  Biso   1.000  O
  O10      1.0000 0.04295  0.10939  0.93608  Biso   1.000  O
  O11      1.0000 0.47186  0.85708  0.68559  Biso   1.000  O
  O12      1.0000 0.49695  0.68140  0.92277  Biso   1.000  O
  O13      1.0000 0.25562  0.23897  0.73123  Biso   1.000  O
  O14      1.0000 0.26565  0.32227  0.96855  Biso   1.000  O
  O15      1.0000 0.30321  0.85293  0.03440  Biso   1.000  O
  O16      1.0000 0.24625  0.74134  0.77444  Biso   1.000  O
  Zr9      1.0000 0.64291  0.00666  0.13601  Biso   1.000  Zr
  Zr10     1.0000 0.59449  0.46966  0.35578  Biso   1.000  Zr
  Zr11     1.0000 0.84901  0.51052  0.13563  Biso   1.000  Zr
  Zr12     1.0000 0.90331  0.97634  0.34403  Biso   1.000  Zr
  O17      1.0000 0.50067  0.24390  0.22355  Biso   1.000  O
  O18      1.0000 0.53377  0.12034  0.45385  Biso   1.000  O
  O19      1.0000 0.95890  0.84517  0.16610  Biso   1.000  O
  O20      1.0000 0.96331  0.61545  0.43261  Biso   1.000  O
  O21      1.0000 0.74870  0.22448  0.26109  Biso   1.000  O
  O22      1.0000 0.70081  0.42258  0.52286  Biso   1.000  O
  O23      1.0000 0.78911  0.91722  0.51357  Biso   1.000  O
  O24      1.0000 0.73886  0.72224  0.26593  Biso   1.000  O
  Zr13     1.0000 0.63973  0.05898  0.62183  Biso   1.000  Zr
  Zr14     1.0000 0.65239  0.45651  0.87350  Biso   1.000  Zr
  Zr15     1.0000 0.85778  0.56275  0.60772  Biso   1.000  Zr
  Zr16     1.0000 0.87386  0.94808  0.87896  Biso   1.000  Zr
  O25      1.0000 0.51501  0.31462  0.73728  Biso   1.000  O
  O26      1.0000 0.52239  0.18641  0.98412  Biso   1.000  O
  O27      1.0000 0.99054  0.78978  0.71882  Biso   1.000  O
  O28      1.0000 0.95124  0.58812  0.94401  Biso   1.000  O
  O29      1.0000 0.77135  0.23498  0.75225  Biso   1.000  O
  O30      1.0000 0.77455  0.23405  0.00763  Biso   1.000  O
  O31      1.0000 0.72908  0.75176  0.00429  Biso   1.000  O
  O32      1.0000 0.73487  0.74411  0.74831  Biso   1.000  O
  K1       1.0000 0.12773  0.59364  0.08536  Biso   1.000  K
