data_image0
_cell_length_a       5.13458
_cell_length_b       10.4131
_cell_length_c       10.6507
_cell_angle_alpha    89.9462
_cell_angle_beta     79.135
_cell_angle_gamma    90.198

_symmetry_space_group_name_H-M    "P 1"
_symmetry_int_tables_number       1

loop_
  _symmetry_equiv_pos_as_xyz
  'x, y, z'

loop_
  _atom_site_label
  _atom_site_occupancy
  _atom_site_fract_x
  _atom_site_fract_y
  _atom_site_fract_z
  _atom_site_thermal_displace_type
  _atom_site_B_iso_or_equiv
  _atom_site_type_symbol
  Zr1      1.0000 0.27362  0.01693  0.14728  Biso   1.000  Zr
  Zr2      1.0000 0.29546  0.22660  0.40841  Biso   1.000  Zr
  Zr3      1.0000 0.69048  0.27423  0.08664  Biso   1.000  Zr
  Zr4      1.0000 0.71577  0.48768  0.35737  Biso   1.000  Zr
  O1       1.0000 0.05685  0.16276  0.07265  Biso   1.000  O
  O2       1.0000 0.08757  0.06048  0.34407  Biso   1.000  O
  O3       1.0000 0.91841  0.42810  0.16556  Biso   1.000  O
  O4       1.0000 0.95866  0.35804  0.44543  Biso   1.000  O
  O5       1.0000 0.53377  0.12504  0.23631  Biso   1.000  O
  O6       1.0000 0.57480  0.12335  0.48881  Biso   1.000  O
  O7       1.0000 0.42684  0.38300  0.00622  Biso   1.000  O
  O8       1.0000 0.44693  0.36770  0.26009  Biso   1.000  O
  Zr5      1.0000 0.27861  0.02154  0.64620  Biso   1.000  Zr
  Zr6      1.0000 0.26607  0.22574  0.89323  Biso   1.000  Zr
  Zr7      1.0000 0.72980  0.27770  0.61039  Biso   1.000  Zr
  Zr8      1.0000 0.71351  0.48277  0.85593  Biso   1.000  Zr
  O9       1.0000 0.07613  0.16864  0.58354  Biso   1.000  O
  O10      1.0000 0.05932  0.08384  0.82541  Biso   1.000  O
  O11      1.0000 0.93561  0.41626  0.68352  Biso   1.000  O
  O12      1.0000 0.92051  0.33429  0.91942  Biso   1.000  O
  O13      1.0000 0.54648  0.12833  0.74053  Biso   1.000  O
  O14      1.0000 0.54309  0.12208  0.98723  Biso   1.000  O
  O15      1.0000 0.45873  0.37812  0.51269  Biso   1.000  O
  O16      1.0000 0.44706  0.37281  0.76082  Biso   1.000  O
  Zr9      1.0000 0.26622  0.52463  0.14695  Biso   1.000  Zr
  Zr10     1.0000 0.27318  0.72701  0.39843  Biso   1.000  Zr
  Zr11     1.0000 0.71534  0.77124  0.10569  Biso   1.000  Zr
  Zr12     1.0000 0.72014  0.96677  0.35791  Biso   1.000  Zr
  O17      1.0000 0.06477  0.67162  0.07979  Biso   1.000  O
  O18      1.0000 0.06161  0.58772  0.32670  Biso   1.000  O
  O19      1.0000 0.92457  0.91469  0.17650  Biso   1.000  O
  O20      1.0000 0.92245  0.82471  0.42524  Biso   1.000  O
  O21      1.0000 0.54592  0.62812  0.24367  Biso   1.000  O
  O22      1.0000 0.54321  0.62273  0.49367  Biso   1.000  O
  O23      1.0000 0.44586  0.87907  0.01131  Biso   1.000  O
  O24      1.0000 0.44297  0.86635  0.26077  Biso   1.000  O
  Zr13     1.0000 0.27416  0.52209  0.64927  Biso   1.000  Zr
  Zr14     1.0000 0.27029  0.73017  0.89829  Biso   1.000  Zr
  Zr15     1.0000 0.72032  0.77086  0.60845  Biso   1.000  Zr
  Zr16     1.0000 0.71766  0.97749  0.85401  Biso   1.000  Zr
  O25      1.0000 0.06079  0.66348  0.58062  Biso   1.000  O
  O26      1.0000 0.06212  0.58684  0.83064  Biso   1.000  O
  O27      1.0000 0.93174  0.91505  0.67320  Biso   1.000  O
  O28      1.0000 0.92828  0.83593  0.92429  Biso   1.000  O
  O29      1.0000 0.54643  0.62855  0.74259  Biso   1.000  O
  O30      1.0000 0.54466  0.62413  0.99275  Biso   1.000  O
  O31      1.0000 0.44635  0.87707  0.51317  Biso   1.000  O
  O32      1.0000 0.44512  0.87182  0.76191  Biso   1.000  O
  K1       1.0000 0.89441  0.23593  0.28144  Biso   1.000  K
