data_image0
_cell_length_a       10.0569
_cell_length_b       10.2216
_cell_length_c       10.0568
_cell_angle_alpha    90
_cell_angle_beta     90
_cell_angle_gamma    90

_symmetry_space_group_name_H-M    "P 1"
_symmetry_int_tables_number       1

loop_
  _symmetry_equiv_pos_as_xyz
  'x, y, z'

loop_
  _atom_site_label
  _atom_site_occupancy
  _atom_site_fract_x
  _atom_site_fract_y
  _atom_site_fract_z
  _atom_site_thermal_displace_type
  _atom_site_B_iso_or_equiv
  _atom_site_type_symbol
  La1      1.0000 0.12491  0.00006  0.12491  Biso   1.000  La
  Hf1      1.0000 0.12293  0.25220  0.37761  Biso   1.000  Hf
  Hf2      1.0000 0.37760  0.25220  0.12293  Biso   1.000  Hf
  Hf3      1.0000 0.37712  0.00216  0.37712  Biso   1.000  Hf
  O1       1.0000 0.99611  0.15510  0.99611  Biso   1.000  O
  O2       1.0000 0.98557  0.11736  0.26425  Biso   1.000  O
  O3       1.0000 0.00408  0.35535  0.24573  Biso   1.000  O
  O4       1.0000 0.99778  0.39978  0.99778  Biso   1.000  O
  O5       1.0000 0.25371  0.15510  0.25371  Biso   1.000  O
  O6       1.0000 0.26425  0.11736  0.98557  Biso   1.000  O
  O7       1.0000 0.24573  0.35535  0.00408  Biso   1.000  O
  O8       1.0000 0.25204  0.39978  0.25204  Biso   1.000  O
  Hf4      1.0000 0.12491  0.00005  0.62491  Biso   1.000  Hf
  Hf5      1.0000 0.12688  0.25220  0.87221  Biso   1.000  Hf
  Hf6      1.0000 0.37485  0.24977  0.62465  Biso   1.000  Hf
  Hf7      1.0000 0.37712  0.99794  0.87270  Biso   1.000  Hf
  O9       1.0000 0.00708  0.14954  0.51035  Biso   1.000  O
  O10      1.0000 0.99754  0.10127  0.75263  Biso   1.000  O
  O11      1.0000 0.00064  0.35325  0.74621  Biso   1.000  O
  O12      1.0000 0.00043  0.39821  0.49675  Biso   1.000  O
  O13      1.0000 0.24273  0.14954  0.73947  Biso   1.000  O
  O14      1.0000 0.25227  0.10127  0.49718  Biso   1.000  O
  O15      1.0000 0.24918  0.35325  0.50361  Biso   1.000  O
  O16      1.0000 0.24938  0.39821  0.75306  Biso   1.000  O
  Hf8      1.0000 0.12491  0.50005  0.12491  Biso   1.000  Hf
  Hf9      1.0000 0.12688  0.74790  0.37760  Biso   1.000  Hf
  Hf10     1.0000 0.37760  0.74790  0.12689  Biso   1.000  Hf
  Hf11     1.0000 0.37572  0.49942  0.37572  Biso   1.000  Hf
  O17      1.0000 0.00409  0.64475  0.00408  Biso   1.000  O
  O18      1.0000 0.99778  0.60033  0.25203  Biso   1.000  O
  O19      1.0000 0.99611  0.84501  0.25371  Biso   1.000  O
  O20      1.0000 0.98557  0.88275  0.98557  Biso   1.000  O
  O21      1.0000 0.24573  0.64475  0.24573  Biso   1.000  O
  O22      1.0000 0.25203  0.60033  0.99778  Biso   1.000  O
  O23      1.0000 0.25371  0.84501  0.99611  Biso   1.000  O
  O24      1.0000 0.26425  0.88275  0.26425  Biso   1.000  O
  Hf12     1.0000 0.12491  0.50005  0.62491  Biso   1.000  Hf
  Hf13     1.0000 0.12293  0.74790  0.87221  Biso   1.000  Hf
  Hf14     1.0000 0.37485  0.75034  0.62517  Biso   1.000  Hf
  Hf15     1.0000 0.37572  0.50069  0.87410  Biso   1.000  Hf
  O25      1.0000 0.00064  0.64686  0.50361  Biso   1.000  O
  O26      1.0000 0.00043  0.60190  0.75307  Biso   1.000  O
  O27      1.0000 0.00708  0.85056  0.73947  Biso   1.000  O
  O28      1.0000 0.99755  0.89884  0.49718  Biso   1.000  O
  O29      1.0000 0.24918  0.64686  0.74621  Biso   1.000  O
  O30      1.0000 0.24938  0.60190  0.49675  Biso   1.000  O
  O31      1.0000 0.24273  0.85056  0.51035  Biso   1.000  O
  O32      1.0000 0.25227  0.89884  0.75263  Biso   1.000  O
  Hf16     1.0000 0.62491  0.00005  0.12491  Biso   1.000  Hf
  Hf17     1.0000 0.62465  0.24977  0.37485  Biso   1.000  Hf
  Hf18     1.0000 0.87221  0.25220  0.12688  Biso   1.000  Hf
  Hf19     1.0000 0.87270  0.99794  0.37712  Biso   1.000  Hf
  O33      1.0000 0.51035  0.14954  0.00708  Biso   1.000  O
  O34      1.0000 0.49719  0.10127  0.25227  Biso   1.000  O
  O35      1.0000 0.50361  0.35325  0.24917  Biso   1.000  O
  O36      1.0000 0.49675  0.39821  0.00043  Biso   1.000  O
  O37      1.0000 0.73947  0.14954  0.24273  Biso   1.000  O
  O38      1.0000 0.75263  0.10127  0.99754  Biso   1.000  O
  O39      1.0000 0.74621  0.35325  0.00064  Biso   1.000  O
  O40      1.0000 0.75307  0.39821  0.24938  Biso   1.000  O
  Hf20     1.0000 0.62491  0.00005  0.62491  Biso   1.000  Hf
  Hf21     1.0000 0.62516  0.24977  0.87497  Biso   1.000  Hf
  Hf22     1.0000 0.87497  0.24977  0.62517  Biso   1.000  Hf
  Hf23     1.0000 0.87270  0.00216  0.87270  Biso   1.000  Hf
  O41      1.0000 0.50390  0.14823  0.50389  Biso   1.000  O
  O42      1.0000 0.49831  0.10249  0.75151  Biso   1.000  O
  O43      1.0000 0.50000  0.35183  0.74981  Biso   1.000  O
  O44      1.0000 0.49985  0.39806  0.49985  Biso   1.000  O
  O45      1.0000 0.74592  0.14823  0.74592  Biso   1.000  O
  O46      1.0000 0.75151  0.10249  0.49830  Biso   1.000  O
  O47      1.0000 0.74981  0.35183  0.50001  Biso   1.000  O
  O48      1.0000 0.74997  0.39806  0.74997  Biso   1.000  O
  Hf24     1.0000 0.62491  0.50005  0.12491  Biso   1.000  Hf
  Hf25     1.0000 0.62516  0.75034  0.37485  Biso   1.000  Hf
  Hf26     1.0000 0.87221  0.74790  0.12293  Biso   1.000  Hf
  Hf27     1.0000 0.87410  0.50069  0.37572  Biso   1.000  Hf
  O49      1.0000 0.50361  0.64686  0.00064  Biso   1.000  O
  O50      1.0000 0.49675  0.60190  0.24938  Biso   1.000  O
  O51      1.0000 0.51035  0.85056  0.24273  Biso   1.000  O
  O52      1.0000 0.49718  0.89884  0.99754  Biso   1.000  O
  O53      1.0000 0.74621  0.64686  0.24918  Biso   1.000  O
  O54      1.0000 0.75307  0.60190  0.00043  Biso   1.000  O
  O55      1.0000 0.73947  0.85056  0.00708  Biso   1.000  O
  O56      1.0000 0.75263  0.89884  0.25227  Biso   1.000  O
  Hf28     1.0000 0.62491  0.50005  0.62491  Biso   1.000  Hf
  Hf29     1.0000 0.62465  0.75034  0.87497  Biso   1.000  Hf
  Hf30     1.0000 0.87497  0.75034  0.62465  Biso   1.000  Hf
  Hf31     1.0000 0.87410  0.49942  0.87410  Biso   1.000  Hf
  O57      1.0000 0.50000  0.64828  0.50000  Biso   1.000  O
  O58      1.0000 0.49984  0.60205  0.74997  Biso   1.000  O
  O59      1.0000 0.50389  0.85188  0.74592  Biso   1.000  O
  O60      1.0000 0.49831  0.89762  0.49830  Biso   1.000  O
  O61      1.0000 0.74981  0.64828  0.74981  Biso   1.000  O
  O62      1.0000 0.74997  0.60205  0.49985  Biso   1.000  O
  O63      1.0000 0.74592  0.85188  0.50389  Biso   1.000  O
  O64      1.0000 0.75151  0.89762  0.75151  Biso   1.000  O
