data_image0
_cell_length_a       10.0837
_cell_length_b       10.2638
_cell_length_c       10.4801
_cell_angle_alpha    90.0191
_cell_angle_beta     90.122
_cell_angle_gamma    90.092

_symmetry_space_group_name_H-M    "P 1"
_symmetry_int_tables_number       1

loop_
  _symmetry_equiv_pos_as_xyz
  'x, y, z'

loop_
  _atom_site_label
  _atom_site_occupancy
  _atom_site_fract_x
  _atom_site_fract_y
  _atom_site_fract_z
  _atom_site_thermal_displace_type
  _atom_site_B_iso_or_equiv
  _atom_site_type_symbol
  La1      1.0000 0.13462  0.01225  0.16334  Biso   1.000  La
  Hf1      1.0000 0.13869  0.22731  0.42296  Biso   1.000  Hf
  Hf2      1.0000 0.35987  0.26950  0.17120  Biso   1.000  Hf
  Hf3      1.0000 0.36030  0.47753  0.42080  Biso   1.000  Hf
  Hf4      1.0000 0.64005  0.02086  0.08043  Biso   1.000  Hf
  Hf5      1.0000 0.63776  0.22993  0.32856  Biso   1.000  Hf
  Hf6      1.0000 0.85922  0.27366  0.07609  Biso   1.000  Hf
  Hf7      1.0000 0.86142  0.47937  0.32814  Biso   1.000  Hf
  O1       1.0000 0.03243  0.18631  0.07969  Biso   1.000  O
  O2       1.0000 0.02247  0.08689  0.34925  Biso   1.000  O
  O3       1.0000 0.46780  0.41257  0.08185  Biso   1.000  O
  O4       1.0000 0.46840  0.33751  0.33191  Biso   1.000  O
  O5       1.0000 0.28242  0.12854  0.30357  Biso   1.000  O
  O6       1.0000 0.28711  0.13547  0.03347  Biso   1.000  O
  O7       1.0000 0.22206  0.37256  0.29451  Biso   1.000  O
  O8       1.0000 0.22300  0.37793  0.04457  Biso   1.000  O
  O9       1.0000 0.53288  0.16506  0.16706  Biso   1.000  O
  O10      1.0000 0.53342  0.08481  0.41770  Biso   1.000  O
  O11      1.0000 0.96327  0.42146  0.16386  Biso   1.000  O
  O12      1.0000 0.96715  0.33628  0.41677  Biso   1.000  O
  O13      1.0000 0.77202  0.12622  0.45852  Biso   1.000  O
  O14      1.0000 0.77549  0.12780  0.20715  Biso   1.000  O
  O15      1.0000 0.72412  0.37520  0.45378  Biso   1.000  O
  O16      1.0000 0.72278  0.37700  0.20469  Biso   1.000  O
  Hf8      1.0000 0.13947  0.02079  0.67225  Biso   1.000  Hf
  Hf9      1.0000 0.13878  0.23347  0.91893  Biso   1.000  Hf
  Hf10     1.0000 0.36112  0.27036  0.67131  Biso   1.000  Hf
  Hf11     1.0000 0.36122  0.47835  0.92199  Biso   1.000  Hf
  Hf12     1.0000 0.63844  0.02122  0.58040  Biso   1.000  Hf
  Hf13     1.0000 0.63941  0.22901  0.82812  Biso   1.000  Hf
  Hf14     1.0000 0.86130  0.27159  0.57825  Biso   1.000  Hf
  Hf15     1.0000 0.85999  0.48010  0.82573  Biso   1.000  Hf
  O17      1.0000 0.03403  0.16988  0.59050  Biso   1.000  O
  O18      1.0000 0.03511  0.08244  0.83793  Biso   1.000  O
  O19      1.0000 0.46808  0.41332  0.58205  Biso   1.000  O
  O20      1.0000 0.46793  0.33501  0.83214  Biso   1.000  O
  O21      1.0000 0.27581  0.12410  0.79220  Biso   1.000  O
  O22      1.0000 0.27531  0.12476  0.54688  Biso   1.000  O
  O23      1.0000 0.22501  0.37538  0.79392  Biso   1.000  O
  O24      1.0000 0.22444  0.37602  0.54529  Biso   1.000  O
  O25      1.0000 0.53242  0.16452  0.66694  Biso   1.000  O
  O26      1.0000 0.53750  0.08335  0.91491  Biso   1.000  O
  O27      1.0000 0.96615  0.41864  0.66312  Biso   1.000  O
  O28      1.0000 0.96410  0.33677  0.90947  Biso   1.000  O
  O29      1.0000 0.77776  0.12422  0.95586  Biso   1.000  O
  O30      1.0000 0.77643  0.12622  0.70654  Biso   1.000  O
  O31      1.0000 0.72207  0.37461  0.95272  Biso   1.000  O
  O32      1.0000 0.72411  0.37581  0.70308  Biso   1.000  O
  Hf16     1.0000 0.13907  0.52027  0.17134  Biso   1.000  Hf
  Hf17     1.0000 0.13969  0.72774  0.42245  Biso   1.000  Hf
  Hf18     1.0000 0.36631  0.76673  0.17122  Biso   1.000  Hf
  Hf19     1.0000 0.36186  0.97865  0.42216  Biso   1.000  Hf
  Hf20     1.0000 0.63819  0.51879  0.07750  Biso   1.000  Hf
  Hf21     1.0000 0.63986  0.72859  0.32915  Biso   1.000  Hf
  Hf22     1.0000 0.85709  0.76677  0.07740  Biso   1.000  Hf
  Hf23     1.0000 0.85509  0.97981  0.33389  Biso   1.000  Hf
  O33      1.0000 0.03435  0.66831  0.08427  Biso   1.000  O
  O34      1.0000 0.03305  0.58496  0.33434  Biso   1.000  O
  O35      1.0000 0.46959  0.91652  0.08414  Biso   1.000  O
  O36      1.0000 0.47220  0.83593  0.33332  Biso   1.000  O
  O37      1.0000 0.27726  0.61945  0.29457  Biso   1.000  O
  O38      1.0000 0.27548  0.62040  0.04614  Biso   1.000  O
  O39      1.0000 0.23466  0.86193  0.30177  Biso   1.000  O
  O40      1.0000 0.24362  0.86086  0.03327  Biso   1.000  O
  O41      1.0000 0.53376  0.66083  0.16798  Biso   1.000  O
  O42      1.0000 0.53135  0.58547  0.41744  Biso   1.000  O
  O43      1.0000 0.94058  0.91133  0.17176  Biso   1.000  O
  O44      1.0000 0.96762  0.83462  0.41771  Biso   1.000  O
  O45      1.0000 0.77631  0.62421  0.45453  Biso   1.000  O
  O46      1.0000 0.77562  0.62598  0.20425  Biso   1.000  O
  O47      1.0000 0.72410  0.87359  0.45811  Biso   1.000  O
  O48      1.0000 0.71065  0.87584  0.20743  Biso   1.000  O
  Hf24     1.0000 0.13896  0.52096  0.67107  Biso   1.000  Hf
  Hf25     1.0000 0.14059  0.72746  0.92053  Biso   1.000  Hf
  Hf26     1.0000 0.36048  0.77097  0.67112  Biso   1.000  Hf
  Hf27     1.0000 0.36519  0.97987  0.91875  Biso   1.000  Hf
  Hf28     1.0000 0.63821  0.52076  0.57680  Biso   1.000  Hf
  Hf29     1.0000 0.63830  0.72873  0.82678  Biso   1.000  Hf
  Hf30     1.0000 0.86232  0.77133  0.57916  Biso   1.000  Hf
  Hf31     1.0000 0.86184  0.97930  0.83024  Biso   1.000  Hf
  O49      1.0000 0.03343  0.66629  0.58546  Biso   1.000  O
  O50      1.0000 0.03226  0.58427  0.83242  Biso   1.000  O
  O51      1.0000 0.46794  0.91398  0.58344  Biso   1.000  O
  O52      1.0000 0.46961  0.83603  0.83022  Biso   1.000  O
  O53      1.0000 0.27625  0.62407  0.79498  Biso   1.000  O
  O54      1.0000 0.27569  0.62539  0.54507  Biso   1.000  O
  O55      1.0000 0.22468  0.87384  0.79244  Biso   1.000  O
  O56      1.0000 0.22397  0.87623  0.54623  Biso   1.000  O
  O57      1.0000 0.53160  0.66324  0.66681  Biso   1.000  O
  O58      1.0000 0.53088  0.58669  0.91774  Biso   1.000  O
  O59      1.0000 0.96663  0.91613  0.66779  Biso   1.000  O
  O60      1.0000 0.97041  0.83702  0.91991  Biso   1.000  O
  O61      1.0000 0.77397  0.62196  0.95243  Biso   1.000  O
  O62      1.0000 0.77483  0.62690  0.70307  Biso   1.000  O
  O63      1.0000 0.72495  0.87294  0.95493  Biso   1.000  O
  O64      1.0000 0.72492  0.87609  0.70602  Biso   1.000  O
