data_image0
_cell_length_a       5.12067
_cell_length_b       10.3592
_cell_length_c       10.1572
_cell_angle_alpha    89.5632
_cell_angle_beta     90.5422
_cell_angle_gamma    91.9978

_symmetry_space_group_name_H-M    "P 1"
_symmetry_int_tables_number       1

loop_
  _symmetry_equiv_pos_as_xyz
  'x, y, z'

loop_
  _atom_site_label
  _atom_site_occupancy
  _atom_site_fract_x
  _atom_site_fract_y
  _atom_site_fract_z
  _atom_site_thermal_displace_type
  _atom_site_B_iso_or_equiv
  _atom_site_type_symbol
  Hf1      1.0000 0.28118  0.96705  0.09173  Biso   1.000  Hf
  Hf2      1.0000 0.23765  0.22832  0.39732  Biso   1.000  Hf
  Hf3      1.0000 0.66787  0.26597  0.13027  Biso   1.000  Hf
  Hf4      1.0000 0.73646  0.48586  0.37061  Biso   1.000  Hf
  O1       1.0000 0.88127  0.18217  0.28281  Biso   1.000  O
  O2       1.0000 0.06399  0.05970  0.46370  Biso   1.000  O
  O3       1.0000 0.91939  0.43171  0.19512  Biso   1.000  O
  O4       1.0000 0.95619  0.34192  0.47287  Biso   1.000  O
  O5       1.0000 0.41960  0.10492  0.25195  Biso   1.000  O
  O6       1.0000 0.54166  0.13713  0.50235  Biso   1.000  O
  O7       1.0000 0.47569  0.38642  0.49902  Biso   1.000  O
  O8       1.0000 0.43167  0.37334  0.25666  Biso   1.000  O
  Hf5      1.0000 0.28581  0.00947  0.62454  Biso   1.000  Hf
  Hf6      1.0000 0.21531  0.26347  0.83103  Biso   1.000  Hf
  Hf7      1.0000 0.72947  0.26989  0.62130  Biso   1.000  Hf
  Hf8      1.0000 0.73437  0.48650  0.88025  Biso   1.000  Hf
  O9       1.0000 0.05390  0.17357  0.67816  Biso   1.000  O
  O10      1.0000 0.09581  0.08038  0.92973  Biso   1.000  O
  O11      1.0000 0.99661  0.41523  0.72852  Biso   1.000  O
  O12      1.0000 0.88600  0.31504  0.94418  Biso   1.000  O
  O13      1.0000 0.52986  0.12476  0.75453  Biso   1.000  O
  O14      1.0000 0.57382  0.10555  0.01603  Biso   1.000  O
  O15      1.0000 0.43961  0.38973  0.99217  Biso   1.000  O
  O16      1.0000 0.49616  0.37747  0.73983  Biso   1.000  O
  Hf9      1.0000 0.27067  0.52693  0.12654  Biso   1.000  Hf
  Hf10     1.0000 0.27663  0.74220  0.37705  Biso   1.000  Hf
  Hf11     1.0000 0.76079  0.76308  0.12623  Biso   1.000  Hf
  Hf12     1.0000 0.73796  0.00382  0.35618  Biso   1.000  Hf
  O17      1.0000 0.08309  0.68512  0.20259  Biso   1.000  O
  O18      1.0000 0.06906  0.57670  0.44727  Biso   1.000  O
  O19      1.0000 0.94592  0.93794  0.19572  Biso   1.000  O
  O20      1.0000 0.94503  0.82192  0.44397  Biso   1.000  O
  O21      1.0000 0.55433  0.62048  0.24829  Biso   1.000  O
  O22      1.0000 0.54074  0.63707  0.49598  Biso   1.000  O
  O23      1.0000 0.47908  0.88983  0.49105  Biso   1.000  O
  O24      1.0000 0.48747  0.86007  0.23753  Biso   1.000  O
  Hf13     1.0000 0.27398  0.51904  0.61602  Biso   1.000  Hf
  Hf14     1.0000 0.29062  0.72933  0.86613  Biso   1.000  Hf
  Hf15     1.0000 0.75352  0.77128  0.61537  Biso   1.000  Hf
  Hf16     1.0000 0.75333  0.99515  0.86811  Biso   1.000  Hf
  O25      1.0000 0.07252  0.67733  0.69491  Biso   1.000  O
  O26      1.0000 0.06777  0.57688  0.95245  Biso   1.000  O
  O27      1.0000 0.95707  0.92565  0.70537  Biso   1.000  O
  O28      1.0000 0.02372  0.83505  0.97028  Biso   1.000  O
  O29      1.0000 0.54816  0.61688  0.74492  Biso   1.000  O
  O30      1.0000 0.55276  0.63202  0.99683  Biso   1.000  O
  O31      1.0000 0.53317  0.86567  0.97983  Biso   1.000  O
  O32      1.0000 0.48186  0.86726  0.73895  Biso   1.000  O
  La1      1.0000 0.16425  0.23693  0.11025  Biso   1.000  La
