data_image0
_cell_length_a       10.0992
_cell_length_b       10.322
_cell_length_c       10.0992
_cell_angle_alpha    90
_cell_angle_beta     90
_cell_angle_gamma    89.9999

_symmetry_space_group_name_H-M    "P 1"
_symmetry_int_tables_number       1

loop_
  _symmetry_equiv_pos_as_xyz
  'x, y, z'

loop_
  _atom_site_label
  _atom_site_occupancy
  _atom_site_fract_x
  _atom_site_fract_y
  _atom_site_fract_z
  _atom_site_thermal_displace_type
  _atom_site_B_iso_or_equiv
  _atom_site_type_symbol
  Hf1      1.0000 0.12491  0.96301  0.12491  Biso   1.000  Hf
  Hf2      1.0000 0.12491  0.25005  0.39921  Biso   1.000  Hf
  Hf3      1.0000 0.39921  0.25005  0.12491  Biso   1.000  Hf
  Hf4      1.0000 0.37578  0.01002  0.37578  Biso   1.000  Hf
  O1       1.0000 0.97099  0.16395  0.97098  Biso   1.000  O
  O2       1.0000 0.00579  0.08497  0.24402  Biso   1.000  O
  O3       1.0000 0.97098  0.33615  0.27884  Biso   1.000  O
  O4       1.0000 0.00578  0.41513  0.00580  Biso   1.000  O
  O5       1.0000 0.27883  0.16396  0.27884  Biso   1.000  O
  O6       1.0000 0.24404  0.08497  0.00581  Biso   1.000  O
  O7       1.0000 0.27883  0.33615  0.97098  Biso   1.000  O
  O8       1.0000 0.24403  0.41514  0.24401  Biso   1.000  O
  Hf5      1.0000 0.12491  0.99140  0.62491  Biso   1.000  Hf
  Hf6      1.0000 0.12491  0.25005  0.85061  Biso   1.000  Hf
  Hf7      1.0000 0.37707  0.25005  0.62491  Biso   1.000  Hf
  Hf8      1.0000 0.37427  0.00345  0.87555  Biso   1.000  Hf
  O9       1.0000 0.98998  0.14315  0.49801  Biso   1.000  O
  O10      1.0000 0.00361  0.10195  0.74085  Biso   1.000  O
  O11      1.0000 0.98998  0.35696  0.75181  Biso   1.000  O
  O12      1.0000 0.00361  0.39815  0.50897  Biso   1.000  O
  O13      1.0000 0.25983  0.14315  0.75181  Biso   1.000  O
  O14      1.0000 0.24621  0.10196  0.50897  Biso   1.000  O
  O15      1.0000 0.25983  0.35696  0.49801  Biso   1.000  O
  O16      1.0000 0.24621  0.39815  0.74085  Biso   1.000  O
  Hf9      1.0000 0.12491  0.53710  0.12491  Biso   1.000  Hf
  Hf10     1.0000 0.12491  0.75006  0.38396  Biso   1.000  Hf
  Hf11     1.0000 0.38397  0.75006  0.12491  Biso   1.000  Hf
  Hf12     1.0000 0.37427  0.49666  0.37427  Biso   1.000  Hf
  O17      1.0000 0.00502  0.66147  0.00502  Biso   1.000  O
  O18      1.0000 0.99218  0.59949  0.25764  Biso   1.000  O
  O19      1.0000 0.00502  0.83863  0.24479  Biso   1.000  O
  O20      1.0000 0.99219  0.90061  0.99217  Biso   1.000  O
  O21      1.0000 0.24480  0.66148  0.24479  Biso   1.000  O
  O22      1.0000 0.25763  0.59950  0.99216  Biso   1.000  O
  O23      1.0000 0.24480  0.83863  0.00502  Biso   1.000  O
  O24      1.0000 0.25763  0.90061  0.25765  Biso   1.000  O
  Hf13     1.0000 0.12491  0.50871  0.62491  Biso   1.000  Hf
  Hf14     1.0000 0.12491  0.75005  0.86586  Biso   1.000  Hf
  Hf15     1.0000 0.37817  0.75005  0.62491  Biso   1.000  Hf
  Hf16     1.0000 0.37578  0.49009  0.87403  Biso   1.000  Hf
  O25      1.0000 0.99950  0.64806  0.50678  Biso   1.000  O
  O26      1.0000 0.00358  0.60361  0.75680  Biso   1.000  O
  O27      1.0000 0.99950  0.85205  0.74303  Biso   1.000  O
  O28      1.0000 0.00358  0.89650  0.49301  Biso   1.000  O
  O29      1.0000 0.25032  0.64806  0.74303  Biso   1.000  O
  O30      1.0000 0.24624  0.60361  0.49301  Biso   1.000  O
  O31      1.0000 0.25032  0.85205  0.50678  Biso   1.000  O
  O32      1.0000 0.24624  0.89650  0.75681  Biso   1.000  O
  Hf17     1.0000 0.62491  0.99141  0.12491  Biso   1.000  Hf
  Hf18     1.0000 0.62491  0.25005  0.37708  Biso   1.000  Hf
  Hf19     1.0000 0.85061  0.25005  0.12491  Biso   1.000  Hf
  Hf20     1.0000 0.87554  0.00345  0.37427  Biso   1.000  Hf
  O33      1.0000 0.49802  0.14315  0.98999  Biso   1.000  O
  O34      1.0000 0.50897  0.10195  0.24621  Biso   1.000  O
  O35      1.0000 0.49802  0.35696  0.25983  Biso   1.000  O
  O36      1.0000 0.50896  0.39815  0.00361  Biso   1.000  O
  O37      1.0000 0.75180  0.14315  0.25983  Biso   1.000  O
  O38      1.0000 0.74085  0.10195  0.00361  Biso   1.000  O
  O39      1.0000 0.75180  0.35696  0.98999  Biso   1.000  O
  O40      1.0000 0.74085  0.39815  0.24621  Biso   1.000  O
  Hf21     1.0000 0.62491  0.99810  0.62491  Biso   1.000  Hf
  Hf22     1.0000 0.62491  0.25005  0.87274  Biso   1.000  Hf
  Hf23     1.0000 0.87274  0.25005  0.62491  Biso   1.000  Hf
  Hf24     1.0000 0.87404  0.01001  0.87404  Biso   1.000  Hf
  O41      1.0000 0.49646  0.15061  0.49647  Biso   1.000  O
  O42      1.0000 0.50329  0.10044  0.74653  Biso   1.000  O
  O43      1.0000 0.49646  0.34950  0.75335  Biso   1.000  O
  O44      1.0000 0.50329  0.39967  0.50329  Biso   1.000  O
  O45      1.0000 0.75335  0.15061  0.75335  Biso   1.000  O
  O46      1.0000 0.74652  0.10044  0.50329  Biso   1.000  O
  O47      1.0000 0.75335  0.34950  0.49647  Biso   1.000  O
  O48      1.0000 0.74652  0.39967  0.74653  Biso   1.000  O
  Hf25     1.0000 0.62491  0.50870  0.12491  Biso   1.000  Hf
  Hf26     1.0000 0.62491  0.75005  0.37817  Biso   1.000  Hf
  Hf27     1.0000 0.86586  0.75005  0.12491  Biso   1.000  Hf
  Hf28     1.0000 0.87404  0.49009  0.37578  Biso   1.000  Hf
  O49      1.0000 0.50677  0.64805  0.99949  Biso   1.000  O
  O50      1.0000 0.49302  0.60361  0.24624  Biso   1.000  O
  O51      1.0000 0.50678  0.85205  0.25032  Biso   1.000  O
  O52      1.0000 0.49302  0.89650  0.00358  Biso   1.000  O
  O53      1.0000 0.74304  0.64805  0.25032  Biso   1.000  O
  O54      1.0000 0.75679  0.60361  0.00357  Biso   1.000  O
  O55      1.0000 0.74304  0.85205  0.99949  Biso   1.000  O
  O56      1.0000 0.75680  0.89650  0.24624  Biso   1.000  O
  Hf29     1.0000 0.62491  0.50201  0.62491  Biso   1.000  Hf
  Hf30     1.0000 0.62491  0.75005  0.87165  Biso   1.000  Hf
  Hf31     1.0000 0.87165  0.75005  0.62491  Biso   1.000  Hf
  Hf32     1.0000 0.87554  0.49666  0.87555  Biso   1.000  Hf
  O57      1.0000 0.49763  0.64922  0.49762  Biso   1.000  O
  O58      1.0000 0.50130  0.60051  0.74852  Biso   1.000  O
  O59      1.0000 0.49763  0.85088  0.75219  Biso   1.000  O
  O60      1.0000 0.50130  0.89960  0.50130  Biso   1.000  O
  O61      1.0000 0.75219  0.64922  0.75219  Biso   1.000  O
  O62      1.0000 0.74852  0.60051  0.50130  Biso   1.000  O
  O63      1.0000 0.75219  0.85088  0.49762  Biso   1.000  O
  O64      1.0000 0.74852  0.89960  0.74852  Biso   1.000  O
  La1      1.0000 0.12491  0.25005  0.12491  Biso   1.000  La
