data_image0
_cell_length_a       10.1313
_cell_length_b       5.25375
_cell_length_c       10.2158
_cell_angle_alpha    84.4908
_cell_angle_beta     89.1292
_cell_angle_gamma    88.7275

_symmetry_space_group_name_H-M    "P 1"
_symmetry_int_tables_number       1

loop_
  _symmetry_equiv_pos_as_xyz
  'x, y, z'

loop_
  _atom_site_label
  _atom_site_occupancy
  _atom_site_fract_x
  _atom_site_fract_y
  _atom_site_fract_z
  _atom_site_thermal_displace_type
  _atom_site_B_iso_or_equiv
  _atom_site_type_symbol
  Hf1      1.0000 0.14494  0.08939  0.11629  Biso   1.000  Hf
  Hf2      1.0000 0.14273  0.45500  0.39661  Biso   1.000  Hf
  Hf3      1.0000 0.42380  0.49734  0.07967  Biso   1.000  Hf
  Hf4      1.0000 0.37610  0.98703  0.35169  Biso   1.000  Hf
  O1       1.0000 0.99722  0.30379  0.21902  Biso   1.000  O
  O2       1.0000 0.03953  0.11567  0.45351  Biso   1.000  O
  O3       1.0000 0.49210  0.74558  0.21050  Biso   1.000  O
  O4       1.0000 0.44330  0.63877  0.45301  Biso   1.000  O
  O5       1.0000 0.25674  0.30645  0.23736  Biso   1.000  O
  O6       1.0000 0.27554  0.18791  0.48842  Biso   1.000  O
  O7       1.0000 0.20115  0.66622  0.54270  Biso   1.000  O
  O8       1.0000 0.20256  0.80887  0.28287  Biso   1.000  O
  Hf5      1.0000 0.14015  0.00194  0.62321  Biso   1.000  Hf
  Hf6      1.0000 0.10140  0.45577  0.81222  Biso   1.000  Hf
  Hf7      1.0000 0.37688  0.55502  0.64057  Biso   1.000  Hf
  Hf8      1.0000 0.38507  0.01525  0.85971  Biso   1.000  Hf
  O9       1.0000 0.01026  0.30427  0.67141  Biso   1.000  O
  O10      1.0000 0.04624  0.10597  0.93135  Biso   1.000  O
  O11      1.0000 0.46943  0.86603  0.68381  Biso   1.000  O
  O12      1.0000 0.49440  0.68090  0.91593  Biso   1.000  O
  O13      1.0000 0.25497  0.23837  0.73189  Biso   1.000  O
  O14      1.0000 0.26703  0.33119  0.97100  Biso   1.000  O
  O15      1.0000 0.30506  0.86152  0.03566  Biso   1.000  O
  O16      1.0000 0.24418  0.74107  0.77602  Biso   1.000  O
  Hf9      1.0000 0.64227  0.02298  0.13359  Biso   1.000  Hf
  Hf10     1.0000 0.59321  0.46367  0.35011  Biso   1.000  Hf
  Hf11     1.0000 0.83229  0.50912  0.13371  Biso   1.000  Hf
  Hf12     1.0000 0.90124  0.97231  0.34429  Biso   1.000  Hf
  O17      1.0000 0.49357  0.22597  0.22762  Biso   1.000  O
  O18      1.0000 0.53121  0.12127  0.45590  Biso   1.000  O
  O19      1.0000 0.95536  0.84775  0.16451  Biso   1.000  O
  O20      1.0000 0.96164  0.61489  0.43360  Biso   1.000  O
  O21      1.0000 0.74805  0.21969  0.26772  Biso   1.000  O
  O22      1.0000 0.69972  0.41986  0.51976  Biso   1.000  O
  O23      1.0000 0.78748  0.91538  0.51413  Biso   1.000  O
  O24      1.0000 0.73583  0.72759  0.26711  Biso   1.000  O
  Hf13     1.0000 0.63903  0.06439  0.62139  Biso   1.000  Hf
  Hf14     1.0000 0.65232  0.45792  0.88109  Biso   1.000  Hf
  Hf15     1.0000 0.85193  0.56349  0.60719  Biso   1.000  Hf
  Hf16     1.0000 0.87264  0.95158  0.87382  Biso   1.000  Hf
  O25      1.0000 0.51521  0.31732  0.73705  Biso   1.000  O
  O26      1.0000 0.52209  0.17164  0.97883  Biso   1.000  O
  O27      1.0000 0.98931  0.78339  0.71584  Biso   1.000  O
  O28      1.0000 0.95767  0.58687  0.94341  Biso   1.000  O
  O29      1.0000 0.77095  0.23683  0.75299  Biso   1.000  O
  O30      1.0000 0.78400  0.22666  0.00588  Biso   1.000  O
  O31      1.0000 0.73322  0.76516  0.99799  Biso   1.000  O
  O32      1.0000 0.73301  0.74381  0.74821  Biso   1.000  O
  La1      1.0000 0.12974  0.60475  0.08938  Biso   1.000  La
