data_image0
_cell_length_a       10.0064
_cell_length_b       10.3833
_cell_length_c       10.0494
_cell_angle_alpha    90.1347
_cell_angle_beta     90.2518
_cell_angle_gamma    89.9942

_symmetry_space_group_name_H-M    "P 1"
_symmetry_int_tables_number       1

loop_
  _symmetry_equiv_pos_as_xyz
  'x, y, z'

loop_
  _atom_site_label
  _atom_site_occupancy
  _atom_site_fract_x
  _atom_site_fract_y
  _atom_site_fract_z
  _atom_site_thermal_displace_type
  _atom_site_B_iso_or_equiv
  _atom_site_type_symbol
  La1      1.0000 0.12383  0.00662  0.12065  Biso   1.000  La
  Hf1      1.0000 0.13443  0.23434  0.37763  Biso   1.000  Hf
  Hf2      1.0000 0.36428  0.26538  0.12661  Biso   1.000  Hf
  Hf3      1.0000 0.36467  0.48279  0.37540  Biso   1.000  Hf
  O1       1.0000 0.02839  0.19721  0.20365  Biso   1.000  O
  O2       1.0000 0.03501  0.06472  0.44110  Biso   1.000  O
  O3       1.0000 0.46429  0.43263  0.19607  Biso   1.000  O
  O4       1.0000 0.46320  0.31499  0.44452  Biso   1.000  O
  O5       1.0000 0.27955  0.12707  0.25593  Biso   1.000  O
  O6       1.0000 0.26944  0.13106  0.50107  Biso   1.000  O
  O7       1.0000 0.23012  0.38316  0.49964  Biso   1.000  O
  O8       1.0000 0.22700  0.36893  0.24924  Biso   1.000  O
  Hf4      1.0000 0.13318  0.01660  0.62557  Biso   1.000  Hf
  Hf5      1.0000 0.13484  0.23651  0.87027  Biso   1.000  Hf
  Hf6      1.0000 0.36639  0.26556  0.62470  Biso   1.000  Hf
  Hf7      1.0000 0.36681  0.48266  0.87614  Biso   1.000  Hf
  O9       1.0000 0.04052  0.18975  0.68263  Biso   1.000  O
  O10      1.0000 0.03306  0.07337  0.91450  Biso   1.000  O
  O11      1.0000 0.46545  0.43303  0.69551  Biso   1.000  O
  O12      1.0000 0.46722  0.31777  0.94499  Biso   1.000  O
  O13      1.0000 0.27197  0.11770  0.74663  Biso   1.000  O
  O14      1.0000 0.27672  0.13786  0.99058  Biso   1.000  O
  O15      1.0000 0.23049  0.38336  0.99897  Biso   1.000  O
  O16      1.0000 0.23197  0.36900  0.74763  Biso   1.000  O
  Hf8      1.0000 0.13378  0.51607  0.12523  Biso   1.000  Hf
  Hf9      1.0000 0.13419  0.73264  0.37726  Biso   1.000  Hf
  Hf10     1.0000 0.37000  0.76279  0.12459  Biso   1.000  Hf
  Hf11     1.0000 0.36551  0.98402  0.37475  Biso   1.000  Hf
  O17      1.0000 0.03617  0.68683  0.19518  Biso   1.000  O
  O18      1.0000 0.03529  0.56595  0.44643  Biso   1.000  O
  O19      1.0000 0.46296  0.93578  0.19211  Biso   1.000  O
  O20      1.0000 0.46513  0.81680  0.44776  Biso   1.000  O
  O21      1.0000 0.26910  0.61315  0.24906  Biso   1.000  O
  O22      1.0000 0.27023  0.63255  0.49983  Biso   1.000  O
  O23      1.0000 0.22889  0.88336  0.49940  Biso   1.000  O
  O24      1.0000 0.24316  0.85459  0.25628  Biso   1.000  O
  Hf12     1.0000 0.13429  0.51667  0.62601  Biso   1.000  Hf
  Hf13     1.0000 0.13657  0.73298  0.87565  Biso   1.000  Hf
  Hf14     1.0000 0.36593  0.76689  0.62524  Biso   1.000  Hf
  Hf15     1.0000 0.36975  0.98462  0.87288  Biso   1.000  Hf
  O25      1.0000 0.03624  0.68415  0.69589  Biso   1.000  O
  O26      1.0000 0.03528  0.56907  0.94478  Biso   1.000  O
  O27      1.0000 0.46534  0.93353  0.69433  Biso   1.000  O
  O28      1.0000 0.47338  0.81802  0.94609  Biso   1.000  O
  O29      1.0000 0.27129  0.61760  0.74965  Biso   1.000  O
  O30      1.0000 0.27150  0.62924  0.99975  Biso   1.000  O
  O31      1.0000 0.24507  0.87140  0.98921  Biso   1.000  O
  O32      1.0000 0.22939  0.86803  0.74645  Biso   1.000  O
  Hf16     1.0000 0.63426  0.01543  0.12584  Biso   1.000  Hf
  Hf17     1.0000 0.63261  0.23345  0.37468  Biso   1.000  Hf
  Hf18     1.0000 0.86239  0.26835  0.12695  Biso   1.000  Hf
  Hf19     1.0000 0.86533  0.48395  0.37726  Biso   1.000  Hf
  O33      1.0000 0.53813  0.18495  0.19128  Biso   1.000  O
  O34      1.0000 0.53580  0.06595  0.44518  Biso   1.000  O
  O35      1.0000 0.96094  0.43948  0.19448  Biso   1.000  O
  O36      1.0000 0.96347  0.31896  0.44606  Biso   1.000  O
  O37      1.0000 0.76726  0.11729  0.25215  Biso   1.000  O
  O38      1.0000 0.76790  0.13409  0.50109  Biso   1.000  O
  O39      1.0000 0.72878  0.38279  0.49976  Biso   1.000  O
  O40      1.0000 0.72856  0.36850  0.25066  Biso   1.000  O
  Hf20     1.0000 0.63339  0.01730  0.62598  Biso   1.000  Hf
  Hf21     1.0000 0.63535  0.23358  0.87606  Biso   1.000  Hf
  Hf22     1.0000 0.86641  0.26794  0.62464  Biso   1.000  Hf
  Hf23     1.0000 0.86680  0.48304  0.87676  Biso   1.000  Hf
  O41      1.0000 0.53578  0.18390  0.69557  Biso   1.000  O
  O42      1.0000 0.54013  0.06563  0.94223  Biso   1.000  O
  O43      1.0000 0.96568  0.43477  0.69730  Biso   1.000  O
  O44      1.0000 0.96609  0.31860  0.94741  Biso   1.000  O
  O45      1.0000 0.77088  0.11828  0.74886  Biso   1.000  O
  O46      1.0000 0.77336  0.13168  0.00018  Biso   1.000  O
  O47      1.0000 0.72922  0.38283  0.99944  Biso   1.000  O
  O48      1.0000 0.73089  0.36744  0.75005  Biso   1.000  O
  Hf24     1.0000 0.63277  0.51492  0.12628  Biso   1.000  Hf
  Hf25     1.0000 0.63169  0.73218  0.37921  Biso   1.000  Hf
  Hf26     1.0000 0.86040  0.76398  0.12934  Biso   1.000  Hf
  Hf27     1.0000 0.86083  0.98289  0.38206  Biso   1.000  Hf
  O49      1.0000 0.53580  0.68063  0.19788  Biso   1.000  O
  O50      1.0000 0.53407  0.56479  0.44660  Biso   1.000  O
  O51      1.0000 0.93859  0.92870  0.20608  Biso   1.000  O
  O52      1.0000 0.96360  0.81459  0.44707  Biso   1.000  O
  O53      1.0000 0.76903  0.61709  0.25059  Biso   1.000  O
  O54      1.0000 0.76961  0.63145  0.50017  Biso   1.000  O
  O55      1.0000 0.72792  0.88082  0.50304  Biso   1.000  O
  O56      1.0000 0.71680  0.86574  0.25246  Biso   1.000  O
  Hf28     1.0000 0.63351  0.51543  0.62651  Biso   1.000  Hf
  Hf29     1.0000 0.63628  0.73223  0.87507  Biso   1.000  Hf
  Hf30     1.0000 0.86660  0.76494  0.62557  Biso   1.000  Hf
  Hf31     1.0000 0.86371  0.98252  0.87247  Biso   1.000  Hf
  O57      1.0000 0.53583  0.68325  0.69515  Biso   1.000  O
  O58      1.0000 0.53517  0.56692  0.94668  Biso   1.000  O
  O59      1.0000 0.96149  0.93380  0.69097  Biso   1.000  O
  O60      1.0000 0.97362  0.82433  0.95552  Biso   1.000  O
  O61      1.0000 0.77132  0.61633  0.74931  Biso   1.000  O
  O62      1.0000 0.77039  0.63079  0.99915  Biso   1.000  O
  O63      1.0000 0.73217  0.88008  0.00090  Biso   1.000  O
  O64      1.0000 0.73039  0.86647  0.75035  Biso   1.000  O
