data_image0
_cell_length_a       10.2286
_cell_length_b       10.4837
_cell_length_c       5.27696
_cell_angle_alpha    90.0382
_cell_angle_beta     79.3558
_cell_angle_gamma    92.5964

_symmetry_space_group_name_H-M    "P 1"
_symmetry_int_tables_number       1

loop_
  _symmetry_equiv_pos_as_xyz
  'x, y, z'

loop_
  _atom_site_label
  _atom_site_occupancy
  _atom_site_fract_x
  _atom_site_fract_y
  _atom_site_fract_z
  _atom_site_thermal_displace_type
  _atom_site_B_iso_or_equiv
  _atom_site_type_symbol
  Hf1      1.0000 0.14322  0.02235  0.28754  Biso   1.000  Hf
  Hf2      1.0000 0.12796  0.22997  0.78087  Biso   1.000  Hf
  Hf3      1.0000 0.31132  0.29113  0.18356  Biso   1.000  Hf
  Hf4      1.0000 0.33907  0.49521  0.71053  Biso   1.000  Hf
  O1       1.0000 0.04805  0.17989  0.16949  Biso   1.000  O
  O2       1.0000 0.04130  0.07463  0.65702  Biso   1.000  O
  O3       1.0000 0.43464  0.44270  0.33688  Biso   1.000  O
  O4       1.0000 0.43960  0.35805  0.87829  Biso   1.000  O
  O5       1.0000 0.28058  0.13621  0.46043  Biso   1.000  O
  O6       1.0000 0.27623  0.12897  0.95238  Biso   1.000  O
  O7       1.0000 0.18943  0.39937  0.00213  Biso   1.000  O
  O8       1.0000 0.19497  0.37914  0.51221  Biso   1.000  O
  Hf5      1.0000 0.12761  0.53252  0.29862  Biso   1.000  Hf
  Hf6      1.0000 0.13560  0.73420  0.79606  Biso   1.000  Hf
  Hf7      1.0000 0.36165  0.77598  0.20925  Biso   1.000  Hf
  Hf8      1.0000 0.36879  0.97530  0.70767  Biso   1.000  Hf
  O9       1.0000 0.02929  0.67185  0.16359  Biso   1.000  O
  O10      1.0000 0.02617  0.58537  0.67031  Biso   1.000  O
  O11      1.0000 0.46992  0.91545  0.34965  Biso   1.000  O
  O12      1.0000 0.46493  0.82868  0.84488  Biso   1.000  O
  O13      1.0000 0.26565  0.63879  0.48801  Biso   1.000  O
  O14      1.0000 0.26814  0.63294  0.98649  Biso   1.000  O
  O15      1.0000 0.22842  0.88436  0.02117  Biso   1.000  O
  O16      1.0000 0.22420  0.87552  0.51855  Biso   1.000  O
  Hf9      1.0000 0.65585  0.00473  0.29940  Biso   1.000  Hf
  Hf10     1.0000 0.68355  0.20878  0.82633  Biso   1.000  Hf
  Hf11     1.0000 0.86691  0.26995  0.22912  Biso   1.000  Hf
  Hf12     1.0000 0.85170  0.47757  0.72242  Biso   1.000  Hf
  O17      1.0000 0.55525  0.14178  0.13146  Biso   1.000  O
  O18      1.0000 0.56025  0.05727  0.67295  Biso   1.000  O
  O19      1.0000 0.95362  0.42529  0.35296  Biso   1.000  O
  O20      1.0000 0.94686  0.32005  0.84052  Biso   1.000  O
  O21      1.0000 0.79997  0.12076  0.49778  Biso   1.000  O
  O22      1.0000 0.80547  0.10058  0.00781  Biso   1.000  O
  O23      1.0000 0.71861  0.37092  0.05759  Biso   1.000  O
  O24      1.0000 0.71435  0.36373  0.54951  Biso   1.000  O
  Hf13     1.0000 0.62612  0.52466  0.30227  Biso   1.000  Hf
  Hf14     1.0000 0.63327  0.72396  0.80070  Biso   1.000  Hf
  Hf15     1.0000 0.85932  0.76573  0.21390  Biso   1.000  Hf
  Hf16     1.0000 0.86730  0.96741  0.71133  Biso   1.000  Hf
  O25      1.0000 0.52999  0.67127  0.16506  Biso   1.000  O
  O26      1.0000 0.52499  0.58447  0.66031  Biso   1.000  O
  O27      1.0000 0.96875  0.91455  0.33966  Biso   1.000  O
  O28      1.0000 0.96563  0.82808  0.84639  Biso   1.000  O
  O29      1.0000 0.77071  0.62442  0.49141  Biso   1.000  O
  O30      1.0000 0.76648  0.61556  0.98878  Biso   1.000  O
  O31      1.0000 0.72678  0.86699  0.02345  Biso   1.000  O
  O32      1.0000 0.72925  0.86113  0.52192  Biso   1.000  O
  La1      1.0000 0.49751  0.24999  0.50477  Biso   1.000  La
