data_image0
_cell_length_a       10.0841
_cell_length_b       10.4443
_cell_length_c       10.1136
_cell_angle_alpha    90.1445
_cell_angle_beta     90.2591
_cell_angle_gamma    90.004

_symmetry_space_group_name_H-M    "P 1"
_symmetry_int_tables_number       1

loop_
  _symmetry_equiv_pos_as_xyz
  'x, y, z'

loop_
  _atom_site_label
  _atom_site_occupancy
  _atom_site_fract_x
  _atom_site_fract_y
  _atom_site_fract_z
  _atom_site_thermal_displace_type
  _atom_site_B_iso_or_equiv
  _atom_site_type_symbol
  La1      1.0000 0.12422  0.00637  0.11892  Biso   1.000  La
  Zr1      1.0000 0.13314  0.01582  0.62458  Biso   1.000  Zr
  Zr2      1.0000 0.13343  0.51526  0.12448  Biso   1.000  Zr
  Zr3      1.0000 0.13422  0.51592  0.62512  Biso   1.000  Zr
  Zr4      1.0000 0.63399  0.01470  0.12512  Biso   1.000  Zr
  Zr5      1.0000 0.63347  0.01662  0.62514  Biso   1.000  Zr
  Zr6      1.0000 0.63275  0.51430  0.12560  Biso   1.000  Zr
  Zr7      1.0000 0.63356  0.51470  0.62575  Biso   1.000  Zr
  Zr8      1.0000 0.13432  0.23489  0.37657  Biso   1.000  Zr
  Zr9      1.0000 0.13481  0.23752  0.86950  Biso   1.000  Zr
  Zr10     1.0000 0.13422  0.73373  0.37614  Biso   1.000  Zr
  Zr11     1.0000 0.13659  0.73394  0.87505  Biso   1.000  Zr
  Zr12     1.0000 0.63256  0.23425  0.37388  Biso   1.000  Zr
  Zr13     1.0000 0.63528  0.23449  0.87537  Biso   1.000  Zr
  Zr14     1.0000 0.63175  0.73300  0.37829  Biso   1.000  Zr
  Zr15     1.0000 0.63616  0.73313  0.87450  Biso   1.000  Zr
  Zr16     1.0000 0.36426  0.26461  0.12577  Biso   1.000  Zr
  Zr17     1.0000 0.36671  0.26476  0.62373  Biso   1.000  Zr
  Zr18     1.0000 0.37006  0.76209  0.12387  Biso   1.000  Zr
  Zr19     1.0000 0.36616  0.76599  0.62429  Biso   1.000  Zr
  Zr20     1.0000 0.86300  0.26765  0.12642  Biso   1.000  Zr
  Zr21     1.0000 0.86664  0.26714  0.62368  Biso   1.000  Zr
  Zr22     1.0000 0.86100  0.76373  0.12881  Biso   1.000  Zr
  Zr23     1.0000 0.86699  0.76427  0.62495  Biso   1.000  Zr
  Zr24     1.0000 0.36484  0.48373  0.37440  Biso   1.000  Zr
  Zr25     1.0000 0.36701  0.48344  0.87541  Biso   1.000  Zr
  Zr26     1.0000 0.36548  0.98492  0.37384  Biso   1.000  Zr
  Zr27     1.0000 0.36992  0.98533  0.87187  Biso   1.000  Zr
  Zr28     1.0000 0.86566  0.48486  0.37638  Biso   1.000  Zr
  Zr29     1.0000 0.86693  0.48388  0.87617  Biso   1.000  Zr
  Zr30     1.0000 0.86120  0.98337  0.38051  Biso   1.000  Zr
  Zr31     1.0000 0.86373  0.98319  0.87208  Biso   1.000  Zr
  O1       1.0000 0.02741  0.19547  0.20325  Biso   1.000  O
  O2       1.0000 0.03975  0.18894  0.68240  Biso   1.000  O
  O3       1.0000 0.03532  0.68583  0.19552  Biso   1.000  O
  O4       1.0000 0.03538  0.68333  0.69635  Biso   1.000  O
  O5       1.0000 0.53695  0.18402  0.19154  Biso   1.000  O
  O6       1.0000 0.53484  0.18304  0.69570  Biso   1.000  O
  O7       1.0000 0.53457  0.67975  0.19796  Biso   1.000  O
  O8       1.0000 0.53492  0.68248  0.69533  Biso   1.000  O
  O9       1.0000 0.03407  0.06561  0.44141  Biso   1.000  O
  O10      1.0000 0.03175  0.07500  0.91540  Biso   1.000  O
  O11      1.0000 0.03432  0.56706  0.44677  Biso   1.000  O
  O12      1.0000 0.03420  0.57031  0.94519  Biso   1.000  O
  O13      1.0000 0.53463  0.06684  0.44536  Biso   1.000  O
  O14      1.0000 0.53913  0.06654  0.94223  Biso   1.000  O
  O15      1.0000 0.53317  0.56561  0.44675  Biso   1.000  O
  O16      1.0000 0.53401  0.56800  0.94707  Biso   1.000  O
  O17      1.0000 0.46524  0.43177  0.19606  Biso   1.000  O
  O18      1.0000 0.46678  0.43219  0.69580  Biso   1.000  O
  O19      1.0000 0.46416  0.93486  0.19246  Biso   1.000  O
  O20      1.0000 0.46654  0.93264  0.69443  Biso   1.000  O
  O21      1.0000 0.96186  0.43887  0.19473  Biso   1.000  O
  O22      1.0000 0.96702  0.43387  0.69773  Biso   1.000  O
  O23      1.0000 0.94092  0.92752  0.20627  Biso   1.000  O
  O24      1.0000 0.96289  0.93301  0.69168  Biso   1.000  O
  O25      1.0000 0.46428  0.31584  0.44455  Biso   1.000  O
  O26      1.0000 0.46823  0.31854  0.94515  Biso   1.000  O
  O27      1.0000 0.46600  0.81749  0.44754  Biso   1.000  O
  O28      1.0000 0.47475  0.81906  0.94663  Biso   1.000  O
  O29      1.0000 0.96454  0.31984  0.44598  Biso   1.000  O
  O30      1.0000 0.96735  0.31991  0.94778  Biso   1.000  O
  O31      1.0000 0.96490  0.81538  0.44770  Biso   1.000  O
  O32      1.0000 0.97523  0.82576  0.95596  Biso   1.000  O
  O33      1.0000 0.27793  0.12572  0.25409  Biso   1.000  O
  O34      1.0000 0.27089  0.11693  0.74529  Biso   1.000  O
  O35      1.0000 0.26805  0.61271  0.24787  Biso   1.000  O
  O36      1.0000 0.27029  0.61678  0.74834  Biso   1.000  O
  O37      1.0000 0.76620  0.11665  0.25076  Biso   1.000  O
  O38      1.0000 0.77001  0.11766  0.74758  Biso   1.000  O
  O39      1.0000 0.76794  0.61666  0.24947  Biso   1.000  O
  O40      1.0000 0.77035  0.61570  0.74817  Biso   1.000  O
  O41      1.0000 0.26841  0.13201  0.49962  Biso   1.000  O
  O42      1.0000 0.27535  0.13827  0.98951  Biso   1.000  O
  O43      1.0000 0.26915  0.63329  0.49848  Biso   1.000  O
  O44      1.0000 0.27039  0.62996  0.99852  Biso   1.000  O
  O45      1.0000 0.76691  0.13464  0.49969  Biso   1.000  O
  O46      1.0000 0.77214  0.13258  0.99894  Biso   1.000  O
  O47      1.0000 0.76862  0.63225  0.49906  Biso   1.000  O
  O48      1.0000 0.76938  0.63162  0.99809  Biso   1.000  O
  O49      1.0000 0.23128  0.38384  0.49826  Biso   1.000  O
  O50      1.0000 0.23160  0.38402  0.99759  Biso   1.000  O
  O51      1.0000 0.23023  0.88407  0.49802  Biso   1.000  O
  O52      1.0000 0.24597  0.87238  0.98805  Biso   1.000  O
  O53      1.0000 0.73001  0.38351  0.49857  Biso   1.000  O
  O54      1.0000 0.73035  0.38362  0.99827  Biso   1.000  O
  O55      1.0000 0.72921  0.88164  0.50180  Biso   1.000  O
  O56      1.0000 0.73351  0.88084  0.99990  Biso   1.000  O
  O57      1.0000 0.22810  0.36817  0.24788  Biso   1.000  O
  O58      1.0000 0.23330  0.36819  0.74628  Biso   1.000  O
  O59      1.0000 0.24315  0.85496  0.25433  Biso   1.000  O
  O60      1.0000 0.23078  0.86720  0.74504  Biso   1.000  O
  O61      1.0000 0.72951  0.36791  0.24947  Biso   1.000  O
  O62      1.0000 0.73217  0.36676  0.74882  Biso   1.000  O
  O63      1.0000 0.71823  0.86515  0.25124  Biso   1.000  O
  O64      1.0000 0.73160  0.86595  0.74925  Biso   1.000  O
