data_image0
_cell_length_a       10.1426
_cell_length_b       10.2882
_cell_length_c       5.06417
_cell_angle_alpha    89.9966
_cell_angle_beta     90.0013
_cell_angle_gamma    90.0031

_symmetry_space_group_name_H-M    "P 1"
_symmetry_int_tables_number       1

loop_
  _symmetry_equiv_pos_as_xyz
  'x, y, z'

loop_
  _atom_site_label
  _atom_site_occupancy
  _atom_site_fract_x
  _atom_site_fract_y
  _atom_site_fract_z
  _atom_site_thermal_displace_type
  _atom_site_B_iso_or_equiv
  _atom_site_type_symbol
  La1      1.0000 0.12561  0.99985  0.25307  Biso   1.000  La
  Zr1      1.0000 0.12560  0.49985  0.25309  Biso   1.000  Zr
  Zr2      1.0000 0.62560  0.99985  0.25308  Biso   1.000  Zr
  Zr3      1.0000 0.62559  0.49985  0.25310  Biso   1.000  Zr
  Zr4      1.0000 0.12561  0.25558  0.75307  Biso   1.000  Zr
  Zr5      1.0000 0.12561  0.74412  0.75307  Biso   1.000  Zr
  Zr6      1.0000 0.62562  0.24981  0.75306  Biso   1.000  Zr
  Zr7      1.0000 0.62561  0.74989  0.75308  Biso   1.000  Zr
  Zr8      1.0000 0.37776  0.25235  0.24960  Biso   1.000  Zr
  Zr9      1.0000 0.37776  0.74735  0.25653  Biso   1.000  Zr
  Zr10     1.0000 0.87347  0.25236  0.25653  Biso   1.000  Zr
  Zr11     1.0000 0.87346  0.74734  0.24961  Biso   1.000  Zr
  Zr12     1.0000 0.38014  0.99985  0.75308  Biso   1.000  Zr
  Zr13     1.0000 0.37586  0.49985  0.75310  Biso   1.000  Zr
  Zr14     1.0000 0.87106  0.99985  0.75308  Biso   1.000  Zr
  Zr15     1.0000 0.87533  0.49985  0.75310  Biso   1.000  Zr
  O1       1.0000 0.99878  0.15228  0.00588  Biso   1.000  O
  O2       1.0000 0.00521  0.64206  0.01828  Biso   1.000  O
  O3       1.0000 0.50973  0.14750  0.01701  Biso   1.000  O
  O4       1.0000 0.50497  0.64558  0.00738  Biso   1.000  O
  O5       1.0000 0.98723  0.11746  0.52876  Biso   1.000  O
  O6       1.0000 0.99926  0.60282  0.51379  Biso   1.000  O
  O7       1.0000 0.49903  0.10316  0.50915  Biso   1.000  O
  O8       1.0000 0.49758  0.60313  0.50448  Biso   1.000  O
  O9       1.0000 0.00522  0.35765  0.48787  Biso   1.000  O
  O10      1.0000 0.99878  0.84742  0.50027  Biso   1.000  O
  O11      1.0000 0.50498  0.35412  0.49876  Biso   1.000  O
  O12      1.0000 0.50973  0.85219  0.48913  Biso   1.000  O
  O13      1.0000 0.99927  0.39688  0.99236  Biso   1.000  O
  O14      1.0000 0.98722  0.88224  0.97738  Biso   1.000  O
  O15      1.0000 0.49759  0.39657  0.00165  Biso   1.000  O
  O16      1.0000 0.49903  0.89653  0.99700  Biso   1.000  O
  O17      1.0000 0.25243  0.15228  0.50026  Biso   1.000  O
  O18      1.0000 0.24599  0.64206  0.48788  Biso   1.000  O
  O19      1.0000 0.74148  0.14751  0.48912  Biso   1.000  O
  O20      1.0000 0.74622  0.64558  0.49877  Biso   1.000  O
  O21      1.0000 0.26398  0.11746  0.97737  Biso   1.000  O
  O22      1.0000 0.25195  0.60282  0.99237  Biso   1.000  O
  O23      1.0000 0.75217  0.10317  0.99697  Biso   1.000  O
  O24      1.0000 0.75362  0.60314  0.00166  Biso   1.000  O
  O25      1.0000 0.24599  0.35764  0.01830  Biso   1.000  O
  O26      1.0000 0.25243  0.84743  0.00588  Biso   1.000  O
  O27      1.0000 0.74624  0.35412  0.00738  Biso   1.000  O
  O28      1.0000 0.74147  0.85220  0.01702  Biso   1.000  O
  O29      1.0000 0.25195  0.39688  0.51381  Biso   1.000  O
  O30      1.0000 0.26399  0.88223  0.52876  Biso   1.000  O
  O31      1.0000 0.75363  0.39657  0.50449  Biso   1.000  O
  O32      1.0000 0.75218  0.89653  0.50916  Biso   1.000  O
