data_image0
_cell_length_a       10.2285
_cell_length_b       5.22984
_cell_length_c       10.7783
_cell_angle_alpha    90.0907
_cell_angle_beta     78.687
_cell_angle_gamma    90.9691

_symmetry_space_group_name_H-M    "P 1"
_symmetry_int_tables_number       1

loop_
  _symmetry_equiv_pos_as_xyz
  'x, y, z'

loop_
  _atom_site_label
  _atom_site_occupancy
  _atom_site_fract_x
  _atom_site_fract_y
  _atom_site_fract_z
  _atom_site_thermal_displace_type
  _atom_site_B_iso_or_equiv
  _atom_site_type_symbol
  Zr1      1.0000 0.13564  0.04880  0.14898  Biso   1.000  Zr
  Zr2      1.0000 0.13719  0.46404  0.39524  Biso   1.000  Zr
  Zr3      1.0000 0.34008  0.55497  0.07813  Biso   1.000  Zr
  Zr4      1.0000 0.35179  0.96662  0.35595  Biso   1.000  Zr
  O1       1.0000 0.02869  0.33105  0.07721  Biso   1.000  O
  O2       1.0000 0.03310  0.16894  0.32857  Biso   1.000  O
  O3       1.0000 0.45176  0.87770  0.16181  Biso   1.000  O
  O4       1.0000 0.47556  0.68263  0.44675  Biso   1.000  O
  O5       1.0000 0.27855  0.27005  0.24044  Biso   1.000  O
  O6       1.0000 0.27665  0.25601  0.48868  Biso   1.000  O
  O7       1.0000 0.20825  0.77579  0.00082  Biso   1.000  O
  O8       1.0000 0.21368  0.74620  0.25365  Biso   1.000  O
  Zr5      1.0000 0.13787  0.04713  0.64435  Biso   1.000  Zr
  Zr6      1.0000 0.12826  0.45638  0.89275  Biso   1.000  Zr
  Zr7      1.0000 0.36008  0.54898  0.60846  Biso   1.000  Zr
  Zr8      1.0000 0.35425  0.96345  0.85025  Biso   1.000  Zr
  O9       1.0000 0.03488  0.33239  0.57917  Biso   1.000  O
  O10      1.0000 0.02770  0.17007  0.82585  Biso   1.000  O
  O11      1.0000 0.46699  0.82450  0.68097  Biso   1.000  O
  O12      1.0000 0.46207  0.67991  0.91662  Biso   1.000  O
  O13      1.0000 0.27132  0.25460  0.73898  Biso   1.000  O
  O14      1.0000 0.26518  0.24987  0.98452  Biso   1.000  O
  O15      1.0000 0.22201  0.76232  0.50959  Biso   1.000  O
  O16      1.0000 0.21996  0.74190  0.75667  Biso   1.000  O
  Zr9      1.0000 0.64255  0.03341  0.14914  Biso   1.000  Zr
  Zr10     1.0000 0.65426  0.44504  0.42698  Biso   1.000  Zr
  Zr11     1.0000 0.85715  0.53598  0.10986  Biso   1.000  Zr
  Zr12     1.0000 0.85870  0.95121  0.35612  Biso   1.000  Zr
  O17      1.0000 0.51878  0.31737  0.05836  Biso   1.000  O
  O18      1.0000 0.54258  0.12231  0.34329  Biso   1.000  O
  O19      1.0000 0.96125  0.83106  0.17653  Biso   1.000  O
  O20      1.0000 0.96566  0.66897  0.42789  Biso   1.000  O
  O21      1.0000 0.78066  0.25379  0.25144  Biso   1.000  O
  O22      1.0000 0.78609  0.22422  0.50429  Biso   1.000  O
  O23      1.0000 0.71769  0.74401  0.01642  Biso   1.000  O
  O24      1.0000 0.71578  0.72995  0.26466  Biso   1.000  O
  Zr13     1.0000 0.64009  0.03655  0.65485  Biso   1.000  Zr
  Zr14     1.0000 0.63426  0.45103  0.89664  Biso   1.000  Zr
  Zr15     1.0000 0.86608  0.54362  0.61235  Biso   1.000  Zr
  Zr16     1.0000 0.85647  0.95287  0.86075  Biso   1.000  Zr
  O25      1.0000 0.53227  0.32007  0.58849  Biso   1.000  O
  O26      1.0000 0.52735  0.17551  0.82414  Biso   1.000  O
  O27      1.0000 0.96664  0.82994  0.67926  Biso   1.000  O
  O28      1.0000 0.95945  0.66761  0.92594  Biso   1.000  O
  O29      1.0000 0.77438  0.25810  0.74843  Biso   1.000  O
  O30      1.0000 0.77233  0.23771  0.99551  Biso   1.000  O
  O31      1.0000 0.72916  0.75014  0.52057  Biso   1.000  O
  O32      1.0000 0.72301  0.74541  0.76612  Biso   1.000  O
  La1      1.0000 0.49717  0.50001  0.25255  Biso   1.000  La
