data_image0
_cell_length_a       10.2347
_cell_length_b       10.3855
_cell_length_c       10.5108
_cell_angle_alpha    90.0408
_cell_angle_beta     80.5578
_cell_angle_gamma    90.1381

_symmetry_space_group_name_H-M    "P 1"
_symmetry_int_tables_number       1

loop_
  _symmetry_equiv_pos_as_xyz
  'x, y, z'

loop_
  _atom_site_label
  _atom_site_occupancy
  _atom_site_fract_x
  _atom_site_fract_y
  _atom_site_fract_z
  _atom_site_thermal_displace_type
  _atom_site_B_iso_or_equiv
  _atom_site_type_symbol
  La1      1.0000 0.13279  0.01187  0.14046  Biso   1.000  La
  Zr1      1.0000 0.13955  0.02117  0.64557  Biso   1.000  Zr
  Zr2      1.0000 0.13865  0.52058  0.14388  Biso   1.000  Zr
  Zr3      1.0000 0.13916  0.52114  0.64513  Biso   1.000  Zr
  Zr4      1.0000 0.64034  0.02028  0.14597  Biso   1.000  Zr
  Zr5      1.0000 0.63991  0.02219  0.64676  Biso   1.000  Zr
  Zr6      1.0000 0.63829  0.51825  0.14601  Biso   1.000  Zr
  Zr7      1.0000 0.63916  0.52076  0.64499  Biso   1.000  Zr
  Zr8      1.0000 0.13817  0.22767  0.39653  Biso   1.000  Zr
  Zr9      1.0000 0.13818  0.23249  0.89342  Biso   1.000  Zr
  Zr10     1.0000 0.13949  0.72683  0.39544  Biso   1.000  Zr
  Zr11     1.0000 0.14094  0.72832  0.89387  Biso   1.000  Zr
  Zr12     1.0000 0.63751  0.22997  0.39600  Biso   1.000  Zr
  Zr13     1.0000 0.64025  0.22902  0.89625  Biso   1.000  Zr
  Zr14     1.0000 0.63606  0.72667  0.39648  Biso   1.000  Zr
  Zr15     1.0000 0.64217  0.72896  0.89354  Biso   1.000  Zr
  Zr16     1.0000 0.36009  0.26883  0.10428  Biso   1.000  Zr
  Zr17     1.0000 0.36051  0.27056  0.60409  Biso   1.000  Zr
  Zr18     1.0000 0.36686  0.76710  0.10334  Biso   1.000  Zr
  Zr19     1.0000 0.36013  0.77144  0.60419  Biso   1.000  Zr
  Zr20     1.0000 0.86031  0.27289  0.10365  Biso   1.000  Zr
  Zr21     1.0000 0.86154  0.27207  0.60516  Biso   1.000  Zr
  Zr22     1.0000 0.85715  0.76646  0.10486  Biso   1.000  Zr
  Zr23     1.0000 0.86244  0.77156  0.60396  Biso   1.000  Zr
  Zr24     1.0000 0.35865  0.47725  0.35322  Biso   1.000  Zr
  Zr25     1.0000 0.36248  0.47812  0.85446  Biso   1.000  Zr
  Zr26     1.0000 0.36186  0.97924  0.35511  Biso   1.000  Zr
  Zr27     1.0000 0.36406  0.97874  0.85205  Biso   1.000  Zr
  Zr28     1.0000 0.86118  0.47904  0.35492  Biso   1.000  Zr
  Zr29     1.0000 0.86118  0.47937  0.85327  Biso   1.000  Zr
  Zr30     1.0000 0.85352  0.97925  0.36029  Biso   1.000  Zr
  Zr31     1.0000 0.86281  0.97860  0.85603  Biso   1.000  Zr
  O1       1.0000 0.03693  0.19234  0.07837  Biso   1.000  O
  O2       1.0000 0.03686  0.17387  0.58649  Biso   1.000  O
  O3       1.0000 0.03900  0.67688  0.08379  Biso   1.000  O
  O4       1.0000 0.03634  0.67068  0.58176  Biso   1.000  O
  O5       1.0000 0.53603  0.16797  0.07972  Biso   1.000  O
  O6       1.0000 0.53347  0.16761  0.58034  Biso   1.000  O
  O7       1.0000 0.53819  0.66619  0.07840  Biso   1.000  O
  O8       1.0000 0.53342  0.66675  0.58059  Biso   1.000  O
  O9       1.0000 0.02547  0.08153  0.34742  Biso   1.000  O
  O10      1.0000 0.03880  0.07691  0.83517  Biso   1.000  O
  O11      1.0000 0.03589  0.57991  0.33076  Biso   1.000  O
  O12      1.0000 0.03665  0.57862  0.83123  Biso   1.000  O
  O13      1.0000 0.53617  0.08035  0.33120  Biso   1.000  O
  O14      1.0000 0.53765  0.08228  0.82867  Biso   1.000  O
  O15      1.0000 0.53248  0.58078  0.32926  Biso   1.000  O
  O16      1.0000 0.53588  0.58206  0.82900  Biso   1.000  O
  O17      1.0000 0.46468  0.41612  0.17070  Biso   1.000  O
  O18      1.0000 0.46597  0.41711  0.67024  Biso   1.000  O
  O19      1.0000 0.46585  0.91956  0.16859  Biso   1.000  O
  O20      1.0000 0.46688  0.91722  0.67014  Biso   1.000  O
  O21      1.0000 0.95934  0.42765  0.16657  Biso   1.000  O
  O22      1.0000 0.96353  0.42303  0.66661  Biso   1.000  O
  O23      1.0000 0.93133  0.92517  0.17250  Biso   1.000  O
  O24      1.0000 0.96469  0.92057  0.66953  Biso   1.000  O
  O25      1.0000 0.46385  0.33112  0.42011  Biso   1.000  O
  O26      1.0000 0.46814  0.33357  0.92056  Biso   1.000  O
  O27      1.0000 0.46425  0.83117  0.42236  Biso   1.000  O
  O28      1.0000 0.47548  0.83500  0.91950  Biso   1.000  O
  O29      1.0000 0.96375  0.33176  0.41990  Biso   1.000  O
  O30      1.0000 0.96045  0.32945  0.91198  Biso   1.000  O
  O31      1.0000 0.96428  0.82995  0.41770  Biso   1.000  O
  O32      1.0000 0.96659  0.83038  0.92047  Biso   1.000  O
  O33      1.0000 0.28164  0.13397  0.24823  Biso   1.000  O
  O34      1.0000 0.27578  0.12906  0.73823  Biso   1.000  O
  O35      1.0000 0.27639  0.62361  0.23862  Biso   1.000  O
  O36      1.0000 0.27617  0.62890  0.73991  Biso   1.000  O
  O37      1.0000 0.77328  0.13166  0.24303  Biso   1.000  O
  O38      1.0000 0.77762  0.12927  0.74173  Biso   1.000  O
  O39      1.0000 0.77320  0.62796  0.24153  Biso   1.000  O
  O40      1.0000 0.77632  0.62932  0.73899  Biso   1.000  O
  O41      1.0000 0.27449  0.12039  0.49249  Biso   1.000  O
  O42      1.0000 0.28424  0.12724  0.97985  Biso   1.000  O
  O43      1.0000 0.27507  0.62053  0.49015  Biso   1.000  O
  O44      1.0000 0.27619  0.61789  0.98976  Biso   1.000  O
  O45      1.0000 0.77199  0.12277  0.49387  Biso   1.000  O
  O46      1.0000 0.77630  0.12059  0.99150  Biso   1.000  O
  O47      1.0000 0.77498  0.62118  0.49058  Biso   1.000  O
  O48      1.0000 0.77621  0.61951  0.98989  Biso   1.000  O
  O49      1.0000 0.22619  0.37977  0.00741  Biso   1.000  O
  O50      1.0000 0.22402  0.37894  0.50890  Biso   1.000  O
  O51      1.0000 0.24132  0.86562  0.99545  Biso   1.000  O
  O52      1.0000 0.22411  0.87915  0.51006  Biso   1.000  O
  O53      1.0000 0.72343  0.37933  0.00893  Biso   1.000  O
  O54      1.0000 0.72391  0.37911  0.50963  Biso   1.000  O
  O55      1.0000 0.72568  0.87759  0.00887  Biso   1.000  O
  O56      1.0000 0.72369  0.87842  0.51173  Biso   1.000  O
  O57      1.0000 0.22123  0.37116  0.25790  Biso   1.000  O
  O58      1.0000 0.22519  0.37255  0.75783  Biso   1.000  O
  O59      1.0000 0.23632  0.85942  0.26338  Biso   1.000  O
  O60      1.0000 0.22487  0.87132  0.75642  Biso   1.000  O
  O61      1.0000 0.72325  0.37224  0.26059  Biso   1.000  O
  O62      1.0000 0.72470  0.37118  0.75863  Biso   1.000  O
  O63      1.0000 0.71113  0.86868  0.26417  Biso   1.000  O
  O64      1.0000 0.72744  0.87141  0.75898  Biso   1.000  O
