data_image0
_cell_length_a       10.1294
_cell_length_b       10.3502
_cell_length_c       10.6314
_cell_angle_alpha    89.9617
_cell_angle_beta     90.9198
_cell_angle_gamma    90.2732

_symmetry_space_group_name_H-M    "P 1"
_symmetry_int_tables_number       1

loop_
  _symmetry_equiv_pos_as_xyz
  'x, y, z'

loop_
  _atom_site_label
  _atom_site_occupancy
  _atom_site_fract_x
  _atom_site_fract_y
  _atom_site_fract_z
  _atom_site_thermal_displace_type
  _atom_site_B_iso_or_equiv
  _atom_site_type_symbol
  Zr1      1.0000 0.13938  0.02069  0.17296  Biso   1.000  Zr
  Zr2      1.0000 0.13780  0.22684  0.42725  Biso   1.000  Zr
  Zr3      1.0000 0.34371  0.27489  0.19184  Biso   1.000  Zr
  Zr4      1.0000 0.36189  0.47906  0.42537  Biso   1.000  Zr
  Zr5      1.0000 0.64225  0.00551  0.08094  Biso   1.000  Zr
  Zr6      1.0000 0.63749  0.22184  0.33144  Biso   1.000  Zr
  Zr7      1.0000 0.86835  0.27040  0.07582  Biso   1.000  Zr
  Zr8      1.0000 0.85806  0.47733  0.32466  Biso   1.000  Zr
  O1       1.0000 0.03476  0.15971  0.07970  Biso   1.000  O
  O2       1.0000 0.03034  0.08886  0.33045  Biso   1.000  O
  O3       1.0000 0.44725  0.44365  0.10463  Biso   1.000  O
  O4       1.0000 0.46585  0.33271  0.33815  Biso   1.000  O
  O5       1.0000 0.26960  0.12408  0.30277  Biso   1.000  O
  O6       1.0000 0.28246  0.12894  0.04772  Biso   1.000  O
  O7       1.0000 0.21564  0.37837  0.30631  Biso   1.000  O
  O8       1.0000 0.21505  0.37825  0.05244  Biso   1.000  O
  O9       1.0000 0.52015  0.13314  0.19206  Biso   1.000  O
  O10      1.0000 0.53033  0.08580  0.42698  Biso   1.000  O
  O11      1.0000 0.96480  0.41413  0.17110  Biso   1.000  O
  O12      1.0000 0.97041  0.33877  0.41979  Biso   1.000  O
  O13      1.0000 0.77618  0.12295  0.45112  Biso   1.000  O
  O14      1.0000 0.77563  0.12452  0.20319  Biso   1.000  O
  O15      1.0000 0.72521  0.37409  0.45052  Biso   1.000  O
  O16      1.0000 0.71272  0.37116  0.19573  Biso   1.000  O
  Zr9      1.0000 0.14050  0.02068  0.67427  Biso   1.000  Zr
  Zr10     1.0000 0.14396  0.22958  0.92300  Biso   1.000  Zr
  Zr11     1.0000 0.36322  0.27215  0.67416  Biso   1.000  Zr
  Zr12     1.0000 0.35689  0.48606  0.92831  Biso   1.000  Zr
  Zr13     1.0000 0.64227  0.01480  0.57485  Biso   1.000  Zr
  Zr14     1.0000 0.65330  0.22619  0.79581  Biso   1.000  Zr
  Zr15     1.0000 0.86677  0.27330  0.57232  Biso   1.000  Zr
  Zr16     1.0000 0.86626  0.48011  0.82875  Biso   1.000  Zr
  O17      1.0000 0.03217  0.16050  0.58085  Biso   1.000  O
  O18      1.0000 0.03443  0.08817  0.83128  Biso   1.000  O
  O19      1.0000 0.47221  0.41203  0.58121  Biso   1.000  O
  O20      1.0000 0.47780  0.33821  0.82701  Biso   1.000  O
  O21      1.0000 0.27791  0.12489  0.79712  Biso   1.000  O
  O22      1.0000 0.27590  0.12422  0.54926  Biso   1.000  O
  O23      1.0000 0.22855  0.37437  0.80022  Biso   1.000  O
  O24      1.0000 0.22728  0.37444  0.55135  Biso   1.000  O
  O25      1.0000 0.53094  0.15747  0.66158  Biso   1.000  O
  O26      1.0000 0.53361  0.07595  0.91152  Biso   1.000  O
  O27      1.0000 0.97369  0.41071  0.67119  Biso   1.000  O
  O28      1.0000 0.97373  0.33675  0.91940  Biso   1.000  O
  O29      1.0000 0.76991  0.12812  0.94879  Biso   1.000  O
  O30      1.0000 0.78672  0.11824  0.69275  Biso   1.000  O
  O31      1.0000 0.73445  0.38359  0.95106  Biso   1.000  O
  O32      1.0000 0.73327  0.37736  0.69609  Biso   1.000  O
  Zr17     1.0000 0.13790  0.52376  0.17361  Biso   1.000  Zr
  Zr18     1.0000 0.13777  0.72737  0.42290  Biso   1.000  Zr
  Zr19     1.0000 0.35969  0.77298  0.17593  Biso   1.000  Zr
  Zr20     1.0000 0.36121  0.97709  0.42649  Biso   1.000  Zr
  Zr21     1.0000 0.63946  0.53800  0.07920  Biso   1.000  Zr
  Zr22     1.0000 0.63899  0.73028  0.33135  Biso   1.000  Zr
  Zr23     1.0000 0.86472  0.77036  0.07896  Biso   1.000  Zr
  Zr24     1.0000 0.86404  0.97919  0.32864  Biso   1.000  Zr
  O33      1.0000 0.03107  0.66185  0.08043  Biso   1.000  O
  O34      1.0000 0.02863  0.58784  0.33209  Biso   1.000  O
  O35      1.0000 0.46913  0.90545  0.07780  Biso   1.000  O
  O36      1.0000 0.46982  0.83998  0.33375  Biso   1.000  O
  O37      1.0000 0.27367  0.62576  0.29759  Biso   1.000  O
  O38      1.0000 0.27227  0.63146  0.04530  Biso   1.000  O
  O39      1.0000 0.22496  0.87474  0.29865  Biso   1.000  O
  O40      1.0000 0.22342  0.87867  0.04823  Biso   1.000  O
  O41      1.0000 0.53306  0.67306  0.17267  Biso   1.000  O
  O42      1.0000 0.53079  0.58798  0.41902  Biso   1.000  O
  O43      1.0000 0.97036  0.91295  0.17064  Biso   1.000  O
  O44      1.0000 0.97016  0.83785  0.42175  Biso   1.000  O
  O45      1.0000 0.77584  0.62409  0.45476  Biso   1.000  O
  O46      1.0000 0.77786  0.62697  0.20689  Biso   1.000  O
  O47      1.0000 0.72781  0.87368  0.45602  Biso   1.000  O
  O48      1.0000 0.72990  0.87125  0.20768  Biso   1.000  O
  Zr25     1.0000 0.14135  0.52035  0.67345  Biso   1.000  Zr
  Zr26     1.0000 0.13847  0.73142  0.92186  Biso   1.000  Zr
  Zr27     1.0000 0.36269  0.76951  0.67320  Biso   1.000  Zr
  Zr28     1.0000 0.36266  0.97548  0.92209  Biso   1.000  Zr
  Zr29     1.0000 0.64079  0.52278  0.57578  Biso   1.000  Zr
  Zr30     1.0000 0.64107  0.72832  0.82615  Biso   1.000  Zr
  Zr31     1.0000 0.86547  0.77000  0.58036  Biso   1.000  Zr
  Zr32     1.0000 0.86429  0.98005  0.82987  Biso   1.000  Zr
  O49      1.0000 0.03369  0.66145  0.58231  Biso   1.000  O
  O50      1.0000 0.03457  0.58812  0.83177  Biso   1.000  O
  O51      1.0000 0.47173  0.90734  0.58150  Biso   1.000  O
  O52      1.0000 0.46952  0.83343  0.83074  Biso   1.000  O
  O53      1.0000 0.27524  0.62608  0.79623  Biso   1.000  O
  O54      1.0000 0.27585  0.62388  0.54645  Biso   1.000  O
  O55      1.0000 0.22621  0.87413  0.79703  Biso   1.000  O
  O56      1.0000 0.22591  0.87453  0.54843  Biso   1.000  O
  O57      1.0000 0.53283  0.66068  0.66869  Biso   1.000  O
  O58      1.0000 0.53156  0.58824  0.92008  Biso   1.000  O
  O59      1.0000 0.97196  0.91031  0.67253  Biso   1.000  O
  O60      1.0000 0.97072  0.83987  0.92139  Biso   1.000  O
  O61      1.0000 0.77975  0.62935  0.95103  Biso   1.000  O
  O62      1.0000 0.77766  0.62480  0.70346  Biso   1.000  O
  O63      1.0000 0.72853  0.87384  0.95540  Biso   1.000  O
  O64      1.0000 0.72822  0.87318  0.70636  Biso   1.000  O
  La1      1.0000 0.55441  0.26681  0.02568  Biso   1.000  La
