data_image0
_cell_length_a       10.2617
_cell_length_b       5.20752
_cell_length_c       10.4992
_cell_angle_alpha    90.0684
_cell_angle_beta     81.0026
_cell_angle_gamma    90.3423

_symmetry_space_group_name_H-M    "P 1"
_symmetry_int_tables_number       1

loop_
  _symmetry_equiv_pos_as_xyz
  'x, y, z'

loop_
  _atom_site_label
  _atom_site_occupancy
  _atom_site_fract_x
  _atom_site_fract_y
  _atom_site_fract_z
  _atom_site_thermal_displace_type
  _atom_site_B_iso_or_equiv
  _atom_site_type_symbol
  La1      1.0000 0.12825  0.01879  0.13668  Biso   1.000  La
  Zr1      1.0000 0.13982  0.04220  0.64472  Biso   1.000  Zr
  Zr2      1.0000 0.64075  0.03458  0.14655  Biso   1.000  Zr
  Zr3      1.0000 0.64032  0.04227  0.64706  Biso   1.000  Zr
  Zr4      1.0000 0.13837  0.45153  0.39517  Biso   1.000  Zr
  Zr5      1.0000 0.14127  0.46583  0.89141  Biso   1.000  Zr
  Zr6      1.0000 0.63392  0.45564  0.39827  Biso   1.000  Zr
  Zr7      1.0000 0.64395  0.45834  0.89467  Biso   1.000  Zr
  Zr8      1.0000 0.36622  0.52805  0.10261  Biso   1.000  Zr
  Zr9      1.0000 0.35959  0.54164  0.60312  Biso   1.000  Zr
  Zr10     1.0000 0.85774  0.53465  0.10481  Biso   1.000  Zr
  Zr11     1.0000 0.86384  0.54427  0.60528  Biso   1.000  Zr
  Zr12     1.0000 0.35934  0.95582  0.35276  Biso   1.000  Zr
  Zr13     1.0000 0.36630  0.95631  0.85141  Biso   1.000  Zr
  Zr14     1.0000 0.85262  0.96093  0.36215  Biso   1.000  Zr
  Zr15     1.0000 0.86349  0.95816  0.85549  Biso   1.000  Zr
  O1       1.0000 0.04316  0.41415  0.08680  Biso   1.000  O
  O2       1.0000 0.03890  0.35251  0.58779  Biso   1.000  O
  O3       1.0000 0.53967  0.33175  0.07924  Biso   1.000  O
  O4       1.0000 0.53240  0.33350  0.58212  Biso   1.000  O
  O5       1.0000 0.02558  0.15897  0.34627  Biso   1.000  O
  O6       1.0000 0.04151  0.14698  0.83940  Biso   1.000  O
  O7       1.0000 0.53418  0.15714  0.33122  Biso   1.000  O
  O8       1.0000 0.54009  0.16125  0.82925  Biso   1.000  O
  O9       1.0000 0.46637  0.83382  0.16823  Biso   1.000  O
  O10      1.0000 0.46710  0.83430  0.66888  Biso   1.000  O
  O11      1.0000 0.92000  0.87748  0.16595  Biso   1.000  O
  O12      1.0000 0.96329  0.85159  0.66655  Biso   1.000  O
  O13      1.0000 0.46242  0.65899  0.42091  Biso   1.000  O
  O14      1.0000 0.47750  0.66779  0.91808  Biso   1.000  O
  O15      1.0000 0.96258  0.65945  0.41585  Biso   1.000  O
  O16      1.0000 0.96169  0.65223  0.91177  Biso   1.000  O
  O17      1.0000 0.28016  0.25293  0.24472  Biso   1.000  O
  O18      1.0000 0.27621  0.25899  0.73753  Biso   1.000  O
  O19      1.0000 0.77017  0.26553  0.24586  Biso   1.000  O
  O20      1.0000 0.77910  0.25965  0.74121  Biso   1.000  O
  O21      1.0000 0.27376  0.24040  0.49103  Biso   1.000  O
  O22      1.0000 0.28384  0.24536  0.97989  Biso   1.000  O
  O23      1.0000 0.77140  0.24449  0.49504  Biso   1.000  O
  O24      1.0000 0.77779  0.23800  0.99211  Biso   1.000  O
  O25      1.0000 0.24481  0.73552  0.99257  Biso   1.000  O
  O26      1.0000 0.22360  0.75967  0.50842  Biso   1.000  O
  O27      1.0000 0.72520  0.75513  0.00870  Biso   1.000  O
  O28      1.0000 0.72371  0.75701  0.51260  Biso   1.000  O
  O29      1.0000 0.23333  0.71855  0.26032  Biso   1.000  O
  O30      1.0000 0.22542  0.74440  0.75433  Biso   1.000  O
  O31      1.0000 0.71097  0.74120  0.26667  Biso   1.000  O
  O32      1.0000 0.72831  0.74229  0.75853  Biso   1.000  O
