data_image0
_cell_length_a       10.2276
_cell_length_b       10.3721
_cell_length_c       5.35756
_cell_angle_alpha    89.8779
_cell_angle_beta     92.0472
_cell_angle_gamma    89.6852

_symmetry_space_group_name_H-M    "P 1"
_symmetry_int_tables_number       1

loop_
  _symmetry_equiv_pos_as_xyz
  'x, y, z'

loop_
  _atom_site_label
  _atom_site_occupancy
  _atom_site_fract_x
  _atom_site_fract_y
  _atom_site_fract_z
  _atom_site_thermal_displace_type
  _atom_site_B_iso_or_equiv
  _atom_site_type_symbol
  Zr1      1.0000 0.13853  0.01899  0.34964  Biso   1.000  Zr
  Zr2      1.0000 0.14261  0.22744  0.85291  Biso   1.000  Zr
  Zr3      1.0000 0.34979  0.26875  0.38185  Biso   1.000  Zr
  Zr4      1.0000 0.36000  0.48254  0.86163  Biso   1.000  Zr
  Zr5      1.0000 0.63549  0.99597  0.15859  Biso   1.000  Zr
  Zr6      1.0000 0.64572  0.22268  0.60622  Biso   1.000  Zr
  Zr7      1.0000 0.87897  0.27621  0.13808  Biso   1.000  Zr
  Zr8      1.0000 0.86562  0.48182  0.64603  Biso   1.000  Zr
  O1       1.0000 0.03319  0.15461  0.14892  Biso   1.000  O
  O2       1.0000 0.02960  0.09362  0.65113  Biso   1.000  O
  O3       1.0000 0.45590  0.43208  0.20511  Biso   1.000  O
  O4       1.0000 0.47192  0.33191  0.69135  Biso   1.000  O
  O5       1.0000 0.26885  0.12367  0.60831  Biso   1.000  O
  O6       1.0000 0.27522  0.12324  0.10529  Biso   1.000  O
  O7       1.0000 0.22405  0.37681  0.61552  Biso   1.000  O
  O8       1.0000 0.22269  0.37347  0.10974  Biso   1.000  O
  O9       1.0000 0.50793  0.12432  0.38169  Biso   1.000  O
  O10      1.0000 0.52822  0.07800  0.85105  Biso   1.000  O
  O11      1.0000 0.97516  0.41165  0.34639  Biso   1.000  O
  O12      1.0000 0.98035  0.34362  0.84066  Biso   1.000  O
  O13      1.0000 0.77505  0.12834  0.87810  Biso   1.000  O
  O14      1.0000 0.77214  0.12435  0.36718  Biso   1.000  O
  O15      1.0000 0.74088  0.38797  0.88577  Biso   1.000  O
  O16      1.0000 0.72821  0.38000  0.38704  Biso   1.000  O
  Zr9      1.0000 0.14211  0.52183  0.35018  Biso   1.000  Zr
  Zr10     1.0000 0.13700  0.73011  0.84767  Biso   1.000  Zr
  Zr11     1.0000 0.35941  0.76887  0.35728  Biso   1.000  Zr
  Zr12     1.0000 0.36069  0.97483  0.85412  Biso   1.000  Zr
  Zr13     1.0000 0.64270  0.53930  0.15288  Biso   1.000  Zr
  Zr14     1.0000 0.64105  0.73084  0.65796  Biso   1.000  Zr
  Zr15     1.0000 0.86836  0.77179  0.15950  Biso   1.000  Zr
  Zr16     1.0000 0.86483  0.98389  0.65656  Biso   1.000  Zr
  O17      1.0000 0.03316  0.66027  0.15816  Biso   1.000  O
  O18      1.0000 0.03319  0.59275  0.65680  Biso   1.000  O
  O19      1.0000 0.46800  0.89414  0.15282  Biso   1.000  O
  O20      1.0000 0.47073  0.83916  0.66077  Biso   1.000  O
  O21      1.0000 0.27465  0.62541  0.60020  Biso   1.000  O
  O22      1.0000 0.27277  0.62565  0.09634  Biso   1.000  O
  O23      1.0000 0.22547  0.87343  0.60171  Biso   1.000  O
  O24      1.0000 0.22382  0.87511  0.10344  Biso   1.000  O
  O25      1.0000 0.53286  0.66585  0.35022  Biso   1.000  O
  O26      1.0000 0.52977  0.59028  0.84371  Biso   1.000  O
  O27      1.0000 0.97134  0.91175  0.34576  Biso   1.000  O
  O28      1.0000 0.97120  0.84350  0.84708  Biso   1.000  O
  O29      1.0000 0.77878  0.63157  0.90324  Biso   1.000  O
  O30      1.0000 0.78037  0.62986  0.40793  Biso   1.000  O
  O31      1.0000 0.73007  0.87463  0.91360  Biso   1.000  O
  O32      1.0000 0.73218  0.87062  0.42073  Biso   1.000  O
  La1      1.0000 0.58808  0.26267  0.08368  Biso   1.000  La
