data_image0
_cell_length_a       10.1636
_cell_length_b       5.22485
_cell_length_c       10.74
_cell_angle_alpha    89.1719
_cell_angle_beta     91.7015
_cell_angle_gamma    90.4737

_symmetry_space_group_name_H-M    "P 1"
_symmetry_int_tables_number       1

loop_
  _symmetry_equiv_pos_as_xyz
  'x, y, z'

loop_
  _atom_site_label
  _atom_site_occupancy
  _atom_site_fract_x
  _atom_site_fract_y
  _atom_site_fract_z
  _atom_site_thermal_displace_type
  _atom_site_B_iso_or_equiv
  _atom_site_type_symbol
  Zr1      1.0000 0.13821  0.04488  0.17591  Biso   1.000  Zr
  Zr2      1.0000 0.13744  0.44781  0.42700  Biso   1.000  Zr
  Zr3      1.0000 0.34657  0.55236  0.19259  Biso   1.000  Zr
  Zr4      1.0000 0.36116  0.95051  0.42947  Biso   1.000  Zr
  Zr5      1.0000 0.64498  0.06189  0.08610  Biso   1.000  Zr
  Zr6      1.0000 0.63849  0.45339  0.33448  Biso   1.000  Zr
  Zr7      1.0000 0.87152  0.54609  0.07794  Biso   1.000  Zr
  Zr8      1.0000 0.86125  0.95486  0.32639  Biso   1.000  Zr
  O1       1.0000 0.03255  0.31620  0.07939  Biso   1.000  O
  O2       1.0000 0.02927  0.17591  0.33253  Biso   1.000  O
  O3       1.0000 0.44881  0.87748  0.10687  Biso   1.000  O
  O4       1.0000 0.46639  0.66822  0.34104  Biso   1.000  O
  O5       1.0000 0.26959  0.24950  0.30304  Biso   1.000  O
  O6       1.0000 0.27510  0.26295  0.04977  Biso   1.000  O
  O7       1.0000 0.21859  0.75254  0.30792  Biso   1.000  O
  O8       1.0000 0.21428  0.75745  0.05514  Biso   1.000  O
  O9       1.0000 0.52182  0.31745  0.18826  Biso   1.000  O
  O10      1.0000 0.53051  0.16590  0.42210  Biso   1.000  O
  O11      1.0000 0.96825  0.82681  0.17538  Biso   1.000  O
  O12      1.0000 0.97198  0.67475  0.42349  Biso   1.000  O
  O13      1.0000 0.77626  0.24401  0.45087  Biso   1.000  O
  O14      1.0000 0.78054  0.25519  0.20715  Biso   1.000  O
  O15      1.0000 0.72933  0.74383  0.45360  Biso   1.000  O
  O16      1.0000 0.71977  0.74071  0.20501  Biso   1.000  O
  Zr9      1.0000 0.14353  0.03594  0.67629  Biso   1.000  Zr
  Zr10     1.0000 0.14314  0.46380  0.92402  Biso   1.000  Zr
  Zr11     1.0000 0.36197  0.53587  0.67457  Biso   1.000  Zr
  Zr12     1.0000 0.35469  0.97094  0.93210  Biso   1.000  Zr
  Zr13     1.0000 0.64387  0.02263  0.56916  Biso   1.000  Zr
  Zr14     1.0000 0.64858  0.43153  0.78610  Biso   1.000  Zr
  Zr15     1.0000 0.87201  0.53981  0.57614  Biso   1.000  Zr
  Zr16     1.0000 0.87102  0.96357  0.82995  Biso   1.000  Zr
  O17      1.0000 0.03500  0.31652  0.58229  Biso   1.000  O
  O18      1.0000 0.03621  0.17849  0.83148  Biso   1.000  O
  O19      1.0000 0.47623  0.79922  0.57726  Biso   1.000  O
  O20      1.0000 0.48065  0.66230  0.81890  Biso   1.000  O
  O21      1.0000 0.27514  0.25354  0.79805  Biso   1.000  O
  O22      1.0000 0.27546  0.23976  0.54864  Biso   1.000  O
  O23      1.0000 0.22972  0.74803  0.80255  Biso   1.000  O
  O24      1.0000 0.22750  0.74368  0.55358  Biso   1.000  O
  O25      1.0000 0.52462  0.28415  0.66095  Biso   1.000  O
  O26      1.0000 0.53013  0.15521  0.92052  Biso   1.000  O
  O27      1.0000 0.97653  0.81605  0.67441  Biso   1.000  O
  O28      1.0000 0.97559  0.67587  0.92069  Biso   1.000  O
  O29      1.0000 0.76749  0.29343  0.94445  Biso   1.000  O
  O30      1.0000 0.78685  0.22292  0.68945  Biso   1.000  O
  O31      1.0000 0.74828  0.80759  0.96572  Biso   1.000  O
  O32      1.0000 0.73683  0.73682  0.70041  Biso   1.000  O
  La1      1.0000 0.56502  0.56202  0.01616  Biso   1.000  La
