data_image0
_cell_length_a       5.13324
_cell_length_b       10.4448
_cell_length_c       10.7508
_cell_angle_alpha    90.0446
_cell_angle_beta     78.5267
_cell_angle_gamma    91.0387

_symmetry_space_group_name_H-M    "P 1"
_symmetry_int_tables_number       1

loop_
  _symmetry_equiv_pos_as_xyz
  'x, y, z'

loop_
  _atom_site_label
  _atom_site_occupancy
  _atom_site_fract_x
  _atom_site_fract_y
  _atom_site_fract_z
  _atom_site_thermal_displace_type
  _atom_site_B_iso_or_equiv
  _atom_site_type_symbol
  Zr1      1.0000 0.28828  0.01198  0.15188  Biso   1.000  Zr
  Zr2      1.0000 0.31933  0.22977  0.42211  Biso   1.000  Zr
  Zr3      1.0000 0.66933  0.27023  0.08299  Biso   1.000  Zr
  Zr4      1.0000 0.70042  0.48802  0.35323  Biso   1.000  Zr
  O1       1.0000 0.02499  0.15207  0.05811  Biso   1.000  O
  O2       1.0000 0.09535  0.06225  0.34615  Biso   1.000  O
  O3       1.0000 0.89334  0.43775  0.15896  Biso   1.000  O
  O4       1.0000 0.96367  0.34795  0.44698  Biso   1.000  O
  O5       1.0000 0.57550  0.12804  0.24696  Biso   1.000  O
  O6       1.0000 0.58658  0.11695  0.49836  Biso   1.000  O
  O7       1.0000 0.40209  0.38305  0.00674  Biso   1.000  O
  O8       1.0000 0.41317  0.37196  0.25814  Biso   1.000  O
  Zr5      1.0000 0.28253  0.01810  0.64856  Biso   1.000  Zr
  Zr6      1.0000 0.25192  0.22391  0.89133  Biso   1.000  Zr
  Zr7      1.0000 0.73675  0.27610  0.61377  Biso   1.000  Zr
  Zr8      1.0000 0.70615  0.48191  0.85654  Biso   1.000  Zr
  O9       1.0000 0.08367  0.16775  0.59049  Biso   1.000  O
  O10      1.0000 0.05428  0.08155  0.82160  Biso   1.000  O
  O11      1.0000 0.93439  0.41846  0.68350  Biso   1.000  O
  O12      1.0000 0.90501  0.33226  0.91461  Biso   1.000  O
  O13      1.0000 0.54493  0.12768  0.74446  Biso   1.000  O
  O14      1.0000 0.52122  0.11820  0.98760  Biso   1.000  O
  O15      1.0000 0.46744  0.38180  0.51750  Biso   1.000  O
  O16      1.0000 0.44375  0.37233  0.76064  Biso   1.000  O
  Zr9      1.0000 0.26613  0.52902  0.14581  Biso   1.000  Zr
  Zr10     1.0000 0.26793  0.72689  0.39980  Biso   1.000  Zr
  Zr11     1.0000 0.72075  0.77311  0.10530  Biso   1.000  Zr
  Zr12     1.0000 0.72256  0.97098  0.35929  Biso   1.000  Zr
  O17      1.0000 0.06398  0.67382  0.07896  Biso   1.000  O
  O18      1.0000 0.05358  0.58590  0.32666  Biso   1.000  O
  O19      1.0000 0.93511  0.91410  0.17844  Biso   1.000  O
  O20      1.0000 0.92471  0.82619  0.42614  Biso   1.000  O
  O21      1.0000 0.53935  0.63205  0.24475  Biso   1.000  O
  O22      1.0000 0.53672  0.62370  0.49370  Biso   1.000  O
  O23      1.0000 0.45196  0.87630  0.01141  Biso   1.000  O
  O24      1.0000 0.44934  0.86795  0.26035  Biso   1.000  O
  Zr13     1.0000 0.27477  0.52404  0.65035  Biso   1.000  Zr
  Zr14     1.0000 0.26870  0.72948  0.89853  Biso   1.000  Zr
  Zr15     1.0000 0.71998  0.77052  0.60658  Biso   1.000  Zr
  Zr16     1.0000 0.71391  0.97596  0.85475  Biso   1.000  Zr
  O25      1.0000 0.05572  0.66215  0.57989  Biso   1.000  O
  O26      1.0000 0.05776  0.58792  0.83045  Biso   1.000  O
  O27      1.0000 0.93092  0.91209  0.67464  Biso   1.000  O
  O28      1.0000 0.93296  0.83785  0.92521  Biso   1.000  O
  O29      1.0000 0.54556  0.62885  0.74314  Biso   1.000  O
  O30      1.0000 0.54474  0.62427  0.99261  Biso   1.000  O
  O31      1.0000 0.44395  0.87573  0.51250  Biso   1.000  O
  O32      1.0000 0.44312  0.87116  0.76196  Biso   1.000  O
  La1      1.0000 0.99432  0.25000  0.25255  Biso   1.000  La
