data_image0
_cell_length_a       10.1347
_cell_length_b       5.22795
_cell_length_c       10.1503
_cell_angle_alpha    90.1956
_cell_angle_beta     90.4413
_cell_angle_gamma    90.1849

_symmetry_space_group_name_H-M    "P 1"
_symmetry_int_tables_number       1

loop_
  _symmetry_equiv_pos_as_xyz
  'x, y, z'

loop_
  _atom_site_label
  _atom_site_occupancy
  _atom_site_fract_x
  _atom_site_fract_y
  _atom_site_fract_z
  _atom_site_thermal_displace_type
  _atom_site_B_iso_or_equiv
  _atom_site_type_symbol
  La1      1.0000 0.12201  0.00955  0.12001  Biso   1.000  La
  Zr1      1.0000 0.13409  0.03182  0.62414  Biso   1.000  Zr
  Zr2      1.0000 0.63440  0.02761  0.12563  Biso   1.000  Zr
  Zr3      1.0000 0.63336  0.03030  0.62645  Biso   1.000  Zr
  Zr4      1.0000 0.13577  0.46849  0.37754  Biso   1.000  Zr
  Zr5      1.0000 0.13782  0.47312  0.87006  Biso   1.000  Zr
  Zr6      1.0000 0.63077  0.46536  0.37829  Biso   1.000  Zr
  Zr7      1.0000 0.63674  0.46565  0.87498  Biso   1.000  Zr
  Zr8      1.0000 0.36817  0.52036  0.12512  Biso   1.000  Zr
  Zr9      1.0000 0.36657  0.52985  0.62411  Biso   1.000  Zr
  Zr10     1.0000 0.85843  0.53087  0.12990  Biso   1.000  Zr
  Zr11     1.0000 0.86782  0.53205  0.62389  Biso   1.000  Zr
  Zr12     1.0000 0.36480  0.96802  0.37370  Biso   1.000  Zr
  Zr13     1.0000 0.37008  0.96719  0.87335  Biso   1.000  Zr
  Zr14     1.0000 0.86008  0.96914  0.38142  Biso   1.000  Zr
  Zr15     1.0000 0.86413  0.96510  0.87340  Biso   1.000  Zr
  O1       1.0000 0.03064  0.40703  0.20122  Biso   1.000  O
  O2       1.0000 0.04025  0.37652  0.68297  Biso   1.000  O
  O3       1.0000 0.53643  0.36058  0.19551  Biso   1.000  O
  O4       1.0000 0.53444  0.36303  0.69621  Biso   1.000  O
  O5       1.0000 0.03450  0.12968  0.43991  Biso   1.000  O
  O6       1.0000 0.02832  0.15990  0.91895  Biso   1.000  O
  O7       1.0000 0.53405  0.13039  0.44766  Biso   1.000  O
  O8       1.0000 0.53795  0.13261  0.94507  Biso   1.000  O
  O9       1.0000 0.46638  0.86456  0.19425  Biso   1.000  O
  O10      1.0000 0.46811  0.86200  0.69620  Biso   1.000  O
  O11      1.0000 0.92906  0.87978  0.19818  Biso   1.000  O
  O12      1.0000 0.96478  0.86797  0.69363  Biso   1.000  O
  O13      1.0000 0.46549  0.63233  0.44813  Biso   1.000  O
  O14      1.0000 0.47522  0.63624  0.94639  Biso   1.000  O
  O15      1.0000 0.96399  0.63668  0.44557  Biso   1.000  O
  O16      1.0000 0.97623  0.65769  0.95586  Biso   1.000  O
  O17      1.0000 0.27717  0.23957  0.25350  Biso   1.000  O
  O18      1.0000 0.27107  0.23356  0.74616  Biso   1.000  O
  O19      1.0000 0.76482  0.23788  0.25285  Biso   1.000  O
  O20      1.0000 0.77055  0.23339  0.74767  Biso   1.000  O
  O21      1.0000 0.26875  0.26348  0.50017  Biso   1.000  O
  O22      1.0000 0.27530  0.26536  0.99069  Biso   1.000  O
  O23      1.0000 0.76725  0.26622  0.50071  Biso   1.000  O
  O24      1.0000 0.77117  0.26294  0.99903  Biso   1.000  O
  O25      1.0000 0.23079  0.76788  0.49856  Biso   1.000  O
  O26      1.0000 0.24587  0.74575  0.98898  Biso   1.000  O
  O27      1.0000 0.72904  0.76330  0.50203  Biso   1.000  O
  O28      1.0000 0.73177  0.76107  0.99930  Biso   1.000  O
  O29      1.0000 0.24304  0.71403  0.25506  Biso   1.000  O
  O30      1.0000 0.23271  0.73758  0.74382  Biso   1.000  O
  O31      1.0000 0.71738  0.73309  0.25260  Biso   1.000  O
  O32      1.0000 0.73292  0.73120  0.74940  Biso   1.000  O
