data_image0
_cell_length_a       10.054
_cell_length_b       10.2128
_cell_length_c       10.4442
_cell_angle_alpha    89.896
_cell_angle_beta     89.9501
_cell_angle_gamma    89.9725

_symmetry_space_group_name_H-M    "P 1"
_symmetry_int_tables_number       1

loop_
  _symmetry_equiv_pos_as_xyz
  'x, y, z'

loop_
  _atom_site_label
  _atom_site_occupancy
  _atom_site_fract_x
  _atom_site_fract_y
  _atom_site_fract_z
  _atom_site_thermal_displace_type
  _atom_site_B_iso_or_equiv
  _atom_site_type_symbol
  Li1      1.0000 0.12574  0.00888  0.17787  Biso   1.000  Li
  Hf1      1.0000 0.13981  0.02033  0.67153  Biso   1.000  Hf
  Hf2      1.0000 0.14060  0.52110  0.17225  Biso   1.000  Hf
  Hf3      1.0000 0.13985  0.52106  0.67316  Biso   1.000  Hf
  Hf4      1.0000 0.14137  0.22833  0.41944  Biso   1.000  Hf
  Hf5      1.0000 0.14033  0.22433  0.92800  Biso   1.000  Hf
  Hf6      1.0000 0.14182  0.73067  0.42016  Biso   1.000  Hf
  Hf7      1.0000 0.14230  0.73136  0.92352  Biso   1.000  Hf
  Hf8      1.0000 0.35565  0.26467  0.17229  Biso   1.000  Hf
  Hf9      1.0000 0.35969  0.27046  0.67301  Biso   1.000  Hf
  Hf10     1.0000 0.35646  0.77548  0.17177  Biso   1.000  Hf
  Hf11     1.0000 0.36105  0.77203  0.67166  Biso   1.000  Hf
  Hf12     1.0000 0.36064  0.47868  0.42160  Biso   1.000  Hf
  Hf13     1.0000 0.35948  0.47744  0.92366  Biso   1.000  Hf
  Hf14     1.0000 0.35601  0.98027  0.41796  Biso   1.000  Hf
  Hf15     1.0000 0.35841  0.97949  0.92505  Biso   1.000  Hf
  Hf16     1.0000 0.63976  0.02143  0.07784  Biso   1.000  Hf
  Hf17     1.0000 0.63788  0.02047  0.57594  Biso   1.000  Hf
  Hf18     1.0000 0.63770  0.52014  0.07843  Biso   1.000  Hf
  Hf19     1.0000 0.63859  0.52113  0.57801  Biso   1.000  Hf
  Hf20     1.0000 0.63889  0.22941  0.32729  Biso   1.000  Hf
  Hf21     1.0000 0.63921  0.22901  0.82799  Biso   1.000  Hf
  Hf22     1.0000 0.63846  0.73075  0.32640  Biso   1.000  Hf
  Hf23     1.0000 0.63839  0.72899  0.82830  Biso   1.000  Hf
  Hf24     1.0000 0.86438  0.26853  0.07818  Biso   1.000  Hf
  Hf25     1.0000 0.85954  0.27122  0.57669  Biso   1.000  Hf
  Hf26     1.0000 0.86141  0.77282  0.07863  Biso   1.000  Hf
  Hf27     1.0000 0.86061  0.77041  0.57744  Biso   1.000  Hf
  Hf28     1.0000 0.86051  0.48030  0.32769  Biso   1.000  Hf
  Hf29     1.0000 0.86089  0.47894  0.82900  Biso   1.000  Hf
  Hf30     1.0000 0.86530  0.97923  0.32439  Biso   1.000  Hf
  Hf31     1.0000 0.85963  0.97902  0.82721  Biso   1.000  Hf
  O1       1.0000 0.03333  0.16569  0.08512  Biso   1.000  O
  O2       1.0000 0.03141  0.16537  0.58442  Biso   1.000  O
  O3       1.0000 0.03197  0.66458  0.08371  Biso   1.000  O
  O4       1.0000 0.03255  0.66486  0.58509  Biso   1.000  O
  O5       1.0000 0.02814  0.08809  0.34621  Biso   1.000  O
  O6       1.0000 0.03084  0.08554  0.83261  Biso   1.000  O
  O7       1.0000 0.03200  0.58694  0.33353  Biso   1.000  O
  O8       1.0000 0.03227  0.58487  0.83455  Biso   1.000  O
  O9       1.0000 0.46688  0.41234  0.08417  Biso   1.000  O
  O10      1.0000 0.46757  0.41470  0.58405  Biso   1.000  O
  O11      1.0000 0.47117  0.91436  0.08343  Biso   1.000  O
  O12      1.0000 0.46695  0.91435  0.58170  Biso   1.000  O
  O13      1.0000 0.46854  0.33674  0.33402  Biso   1.000  O
  O14      1.0000 0.46822  0.33517  0.83353  Biso   1.000  O
  O15      1.0000 0.47068  0.84010  0.33121  Biso   1.000  O
  O16      1.0000 0.46813  0.83601  0.83255  Biso   1.000  O
  O17      1.0000 0.28204  0.12992  0.30359  Biso   1.000  O
  O18      1.0000 0.27434  0.12231  0.79394  Biso   1.000  O
  O19      1.0000 0.27724  0.62219  0.29541  Biso   1.000  O
  O20      1.0000 0.27637  0.62411  0.79649  Biso   1.000  O
  O21      1.0000 0.29060  0.13530  0.03633  Biso   1.000  O
  O22      1.0000 0.27510  0.12599  0.54744  Biso   1.000  O
  O23      1.0000 0.27570  0.62301  0.04706  Biso   1.000  O
  O24      1.0000 0.27651  0.62668  0.54593  Biso   1.000  O
  O25      1.0000 0.22283  0.37534  0.29616  Biso   1.000  O
  O26      1.0000 0.22443  0.37347  0.79707  Biso   1.000  O
  O27      1.0000 0.22726  0.86932  0.29898  Biso   1.000  O
  O28      1.0000 0.22336  0.87388  0.79324  Biso   1.000  O
  O29      1.0000 0.22101  0.37722  0.04713  Biso   1.000  O
  O30      1.0000 0.22424  0.37646  0.54655  Biso   1.000  O
  O31      1.0000 0.23306  0.86892  0.03905  Biso   1.000  O
  O32      1.0000 0.22281  0.87665  0.54608  Biso   1.000  O
  O33      1.0000 0.53348  0.16531  0.16611  Biso   1.000  O
  O34      1.0000 0.53219  0.16496  0.66559  Biso   1.000  O
  O35      1.0000 0.53064  0.66399  0.16666  Biso   1.000  O
  O36      1.0000 0.53233  0.66459  0.66648  Biso   1.000  O
  O37      1.0000 0.53201  0.08533  0.41505  Biso   1.000  O
  O38      1.0000 0.53496  0.08387  0.91491  Biso   1.000  O
  O39      1.0000 0.53155  0.58694  0.41677  Biso   1.000  O
  O40      1.0000 0.53109  0.58493  0.91673  Biso   1.000  O
  O41      1.0000 0.96762  0.41566  0.16607  Biso   1.000  O
  O42      1.0000 0.96804  0.41422  0.66637  Biso   1.000  O
  O43      1.0000 0.96450  0.91217  0.16723  Biso   1.000  O
  O44      1.0000 0.96674  0.91520  0.66515  Biso   1.000  O
  O45      1.0000 0.96776  0.33801  0.41660  Biso   1.000  O
  O46      1.0000 0.96847  0.33546  0.91593  Biso   1.000  O
  O47      1.0000 0.96811  0.83393  0.41638  Biso   1.000  O
  O48      1.0000 0.96797  0.83531  0.91497  Biso   1.000  O
  O49      1.0000 0.77755  0.12378  0.95363  Biso   1.000  O
  O50      1.0000 0.77431  0.12600  0.45419  Biso   1.000  O
  O51      1.0000 0.77474  0.62291  0.95391  Biso   1.000  O
  O52      1.0000 0.77543  0.62451  0.45416  Biso   1.000  O
  O53      1.0000 0.77596  0.12622  0.20420  Biso   1.000  O
  O54      1.0000 0.77538  0.12579  0.70359  Biso   1.000  O
  O55      1.0000 0.77557  0.62674  0.20391  Biso   1.000  O
  O56      1.0000 0.77576  0.62567  0.70411  Biso   1.000  O
  O57      1.0000 0.72373  0.37329  0.95393  Biso   1.000  O
  O58      1.0000 0.72344  0.37547  0.45395  Biso   1.000  O
  O59      1.0000 0.72446  0.87385  0.95311  Biso   1.000  O
  O60      1.0000 0.72545  0.87470  0.45314  Biso   1.000  O
  O61      1.0000 0.72460  0.37670  0.20468  Biso   1.000  O
  O62      1.0000 0.72438  0.37611  0.70365  Biso   1.000  O
  O63      1.0000 0.72032  0.87610  0.20275  Biso   1.000  O
  O64      1.0000 0.72356  0.87543  0.70342  Biso   1.000  O
