data_image0
_cell_length_a       10.027
_cell_length_b       10.2186
_cell_length_c       10.4958
_cell_angle_alpha    89.9431
_cell_angle_beta     90.4712
_cell_angle_gamma    90.1453

_symmetry_space_group_name_H-M    "P 1"
_symmetry_int_tables_number       1

loop_
  _symmetry_equiv_pos_as_xyz
  'x, y, z'

loop_
  _atom_site_label
  _atom_site_occupancy
  _atom_site_fract_x
  _atom_site_fract_y
  _atom_site_fract_z
  _atom_site_thermal_displace_type
  _atom_site_B_iso_or_equiv
  _atom_site_type_symbol
  Hf1      1.0000 0.13878  0.02056  0.17317  Biso   1.000  Hf
  Hf2      1.0000 0.13950  0.22758  0.42547  Biso   1.000  Hf
  Hf3      1.0000 0.35155  0.27304  0.18167  Biso   1.000  Hf
  Hf4      1.0000 0.36123  0.47939  0.42604  Biso   1.000  Hf
  Hf5      1.0000 0.64244  0.01903  0.07843  Biso   1.000  Hf
  Hf6      1.0000 0.63869  0.22982  0.32768  Biso   1.000  Hf
  Hf7      1.0000 0.86161  0.27086  0.07870  Biso   1.000  Hf
  Hf8      1.0000 0.86178  0.47864  0.32853  Biso   1.000  Hf
  O1       1.0000 0.03408  0.16560  0.08523  Biso   1.000  O
  O2       1.0000 0.03344  0.08482  0.33397  Biso   1.000  O
  O3       1.0000 0.46646  0.41422  0.08568  Biso   1.000  O
  O4       1.0000 0.46577  0.33465  0.33685  Biso   1.000  O
  O5       1.0000 0.27639  0.12353  0.29909  Biso   1.000  O
  O6       1.0000 0.27763  0.12704  0.04954  Biso   1.000  O
  O7       1.0000 0.21979  0.37520  0.30215  Biso   1.000  O
  O8       1.0000 0.22111  0.37750  0.05008  Biso   1.000  O
  O9       1.0000 0.53261  0.17179  0.16175  Biso   1.000  O
  O10      1.0000 0.53334  0.08390  0.41435  Biso   1.000  O
  O11      1.0000 0.96701  0.41520  0.16791  Biso   1.000  O
  O12      1.0000 0.96851  0.33506  0.41749  Biso   1.000  O
  O13      1.0000 0.77745  0.12407  0.45185  Biso   1.000  O
  O14      1.0000 0.77576  0.12566  0.20297  Biso   1.000  O
  O15      1.0000 0.72376  0.37410  0.45412  Biso   1.000  O
  O16      1.0000 0.72263  0.37665  0.20464  Biso   1.000  O
  Hf9      1.0000 0.14099  0.02107  0.67393  Biso   1.000  Hf
  Hf10     1.0000 0.13981  0.22855  0.92461  Biso   1.000  Hf
  Hf11     1.0000 0.36327  0.27075  0.67572  Biso   1.000  Hf
  Hf12     1.0000 0.36050  0.47962  0.92370  Biso   1.000  Hf
  Hf13     1.0000 0.64118  0.01880  0.57480  Biso   1.000  Hf
  Hf14     1.0000 0.65034  0.22331  0.81558  Biso   1.000  Hf
  Hf15     1.0000 0.86404  0.27189  0.57613  Biso   1.000  Hf
  Hf16     1.0000 0.86264  0.47801  0.82919  Biso   1.000  Hf
  O17      1.0000 0.03455  0.16451  0.58452  Biso   1.000  O
  O18      1.0000 0.03481  0.08483  0.83397  Biso   1.000  O
  O19      1.0000 0.46921  0.41481  0.58708  Biso   1.000  O
  O20      1.0000 0.47213  0.33078  0.83989  Biso   1.000  O
  O21      1.0000 0.27887  0.12423  0.79843  Biso   1.000  O
  O22      1.0000 0.27917  0.12574  0.54861  Biso   1.000  O
  O23      1.0000 0.22605  0.37383  0.79894  Biso   1.000  O
  O24      1.0000 0.22497  0.37554  0.55001  Biso   1.000  O
  O25      1.0000 0.53479  0.16253  0.66473  Biso   1.000  O
  O26      1.0000 0.53426  0.09368  0.92196  Biso   1.000  O
  O27      1.0000 0.96871  0.41478  0.66851  Biso   1.000  O
  O28      1.0000 0.96568  0.33359  0.91786  Biso   1.000  O
  O29      1.0000 0.78111  0.12075  0.95140  Biso   1.000  O
  O30      1.0000 0.78268  0.12290  0.69799  Biso   1.000  O
  O31      1.0000 0.71554  0.36695  0.95564  Biso   1.000  O
  O32      1.0000 0.72604  0.37543  0.70258  Biso   1.000  O
  Hf17     1.0000 0.13874  0.52260  0.17389  Biso   1.000  Hf
  Hf18     1.0000 0.13942  0.72872  0.42344  Biso   1.000  Hf
  Hf19     1.0000 0.36190  0.77137  0.17398  Biso   1.000  Hf
  Hf20     1.0000 0.36172  0.97768  0.42384  Biso   1.000  Hf
  Hf21     1.0000 0.64084  0.52396  0.07907  Biso   1.000  Hf
  Hf22     1.0000 0.63946  0.72836  0.32900  Biso   1.000  Hf
  Hf23     1.0000 0.86259  0.77039  0.07922  Biso   1.000  Hf
  Hf24     1.0000 0.86215  0.97878  0.32860  Biso   1.000  Hf
  O33      1.0000 0.03438  0.66590  0.08450  Biso   1.000  O
  O34      1.0000 0.03297  0.58561  0.33463  Biso   1.000  O
  O35      1.0000 0.46936  0.91592  0.08545  Biso   1.000  O
  O36      1.0000 0.46827  0.83467  0.33459  Biso   1.000  O
  O37      1.0000 0.27719  0.62427  0.29810  Biso   1.000  O
  O38      1.0000 0.27810  0.62612  0.04665  Biso   1.000  O
  O39      1.0000 0.22398  0.87372  0.29729  Biso   1.000  O
  O40      1.0000 0.22507  0.87685  0.04720  Biso   1.000  O
  O41      1.0000 0.53265  0.66403  0.16839  Biso   1.000  O
  O42      1.0000 0.53314  0.58511  0.41859  Biso   1.000  O
  O43      1.0000 0.96696  0.91555  0.16667  Biso   1.000  O
  O44      1.0000 0.96802  0.83504  0.41772  Biso   1.000  O
  O45      1.0000 0.77761  0.62371  0.45472  Biso   1.000  O
  O46      1.0000 0.77778  0.62664  0.20523  Biso   1.000  O
  O47      1.0000 0.72504  0.87326  0.45464  Biso   1.000  O
  O48      1.0000 0.72462  0.87486  0.20535  Biso   1.000  O
  Hf25     1.0000 0.14028  0.52083  0.67380  Biso   1.000  Hf
  Hf26     1.0000 0.14050  0.72882  0.92313  Biso   1.000  Hf
  Hf27     1.0000 0.36246  0.77195  0.67411  Biso   1.000  Hf
  Hf28     1.0000 0.36299  0.98025  0.92473  Biso   1.000  Hf
  Hf29     1.0000 0.64027  0.52200  0.57852  Biso   1.000  Hf
  Hf30     1.0000 0.63980  0.72839  0.82825  Biso   1.000  Hf
  Hf31     1.0000 0.86334  0.77039  0.57900  Biso   1.000  Hf
  Hf32     1.0000 0.86455  0.97633  0.82837  Biso   1.000  Hf
  O49      1.0000 0.03423  0.66423  0.58453  Biso   1.000  O
  O50      1.0000 0.03478  0.58337  0.83551  Biso   1.000  O
  O51      1.0000 0.46949  0.91344  0.58297  Biso   1.000  O
  O52      1.0000 0.47052  0.83886  0.83411  Biso   1.000  O
  O53      1.0000 0.27793  0.62466  0.79735  Biso   1.000  O
  O54      1.0000 0.27756  0.62617  0.54776  Biso   1.000  O
  O55      1.0000 0.22555  0.87413  0.79803  Biso   1.000  O
  O56      1.0000 0.22462  0.87595  0.54795  Biso   1.000  O
  O57      1.0000 0.53331  0.66473  0.66835  Biso   1.000  O
  O58      1.0000 0.53313  0.58534  0.91789  Biso   1.000  O
  O59      1.0000 0.97021  0.91353  0.66769  Biso   1.000  O
  O60      1.0000 0.96808  0.83322  0.91747  Biso   1.000  O
  O61      1.0000 0.77813  0.62154  0.95440  Biso   1.000  O
  O62      1.0000 0.77797  0.62562  0.70515  Biso   1.000  O
  O63      1.0000 0.72447  0.87294  0.95574  Biso   1.000  O
  O64      1.0000 0.72564  0.87502  0.70442  Biso   1.000  O
  Li1      1.0000 0.53442  0.27067  0.01217  Biso   1.000  Li
