data_image0
_cell_length_a       5.08618
_cell_length_b       10.2336
_cell_length_c       10.4537
_cell_angle_alpha    89.8777
_cell_angle_beta     79.8255
_cell_angle_gamma    90.0413

_symmetry_space_group_name_H-M    "P 1"
_symmetry_int_tables_number       1

loop_
  _symmetry_equiv_pos_as_xyz
  'x, y, z'

loop_
  _atom_site_label
  _atom_site_occupancy
  _atom_site_fract_x
  _atom_site_fract_y
  _atom_site_fract_z
  _atom_site_thermal_displace_type
  _atom_site_B_iso_or_equiv
  _atom_site_type_symbol
  Li1      1.0000 0.25875  0.00980  0.15163  Biso   1.000  Li
  Hf1      1.0000 0.27934  0.01966  0.64501  Biso   1.000  Hf
  Hf2      1.0000 0.27773  0.52068  0.14496  Biso   1.000  Hf
  Hf3      1.0000 0.27911  0.52187  0.64695  Biso   1.000  Hf
  Hf4      1.0000 0.28166  0.22790  0.39326  Biso   1.000  Hf
  Hf5      1.0000 0.27901  0.22495  0.90079  Biso   1.000  Hf
  Hf6      1.0000 0.28146  0.72967  0.39343  Biso   1.000  Hf
  Hf7      1.0000 0.28298  0.73166  0.89787  Biso   1.000  Hf
  Hf8      1.0000 0.71455  0.26342  0.10546  Biso   1.000  Hf
  Hf9      1.0000 0.71752  0.27124  0.60408  Biso   1.000  Hf
  Hf10     1.0000 0.71410  0.77703  0.10505  Biso   1.000  Hf
  Hf11     1.0000 0.72147  0.77177  0.60239  Biso   1.000  Hf
  Hf12     1.0000 0.71945  0.47877  0.35278  Biso   1.000  Hf
  Hf13     1.0000 0.72032  0.47800  0.85560  Biso   1.000  Hf
  Hf14     1.0000 0.71852  0.98051  0.34705  Biso   1.000  Hf
  Hf15     1.0000 0.71477  0.97961  0.85620  Biso   1.000  Hf
  O1       1.0000 0.06815  0.16738  0.07976  Biso   1.000  O
  O2       1.0000 0.06382  0.16507  0.57867  Biso   1.000  O
  O3       1.0000 0.06339  0.66583  0.07828  Biso   1.000  O
  O4       1.0000 0.06669  0.66528  0.57833  Biso   1.000  O
  O5       1.0000 0.05783  0.08793  0.33757  Biso   1.000  O
  O6       1.0000 0.06795  0.08414  0.82701  Biso   1.000  O
  O7       1.0000 0.06418  0.58520  0.32714  Biso   1.000  O
  O8       1.0000 0.06601  0.58556  0.82837  Biso   1.000  O
  O9       1.0000 0.93150  0.41337  0.17159  Biso   1.000  O
  O10      1.0000 0.93426  0.41435  0.67263  Biso   1.000  O
  O11      1.0000 0.93284  0.91582  0.17059  Biso   1.000  O
  O12      1.0000 0.93224  0.91493  0.67195  Biso   1.000  O
  O13      1.0000 0.93280  0.33651  0.42292  Biso   1.000  O
  O14      1.0000 0.93863  0.33700  0.92251  Biso   1.000  O
  O15      1.0000 0.93538  0.83504  0.42066  Biso   1.000  O
  O16      1.0000 0.94140  0.83859  0.92202  Biso   1.000  O
  O17      1.0000 0.56328  0.13369  0.24855  Biso   1.000  O
  O18      1.0000 0.55040  0.12696  0.73875  Biso   1.000  O
  O19      1.0000 0.55101  0.62617  0.23900  Biso   1.000  O
  O20      1.0000 0.55332  0.62878  0.74023  Biso   1.000  O
  O21      1.0000 0.54859  0.12196  0.49266  Biso   1.000  O
  O22      1.0000 0.57620  0.12991  0.98052  Biso   1.000  O
  O23      1.0000 0.55191  0.62172  0.49003  Biso   1.000  O
  O24      1.0000 0.55096  0.61962  0.99036  Biso   1.000  O
  O25      1.0000 0.44756  0.37860  0.00994  Biso   1.000  O
  O26      1.0000 0.44697  0.37926  0.51012  Biso   1.000  O
  O27      1.0000 0.45970  0.87450  0.00186  Biso   1.000  O
  O28      1.0000 0.44848  0.87830  0.50840  Biso   1.000  O
  O29      1.0000 0.44267  0.37345  0.25962  Biso   1.000  O
  O30      1.0000 0.44893  0.37074  0.76033  Biso   1.000  O
  O31      1.0000 0.45481  0.86628  0.26104  Biso   1.000  O
  O32      1.0000 0.44741  0.87155  0.75611  Biso   1.000  O
