data_image0
_cell_length_a       9.97529
_cell_length_b       5.20379
_cell_length_c       10.0242
_cell_angle_alpha    89.7334
_cell_angle_beta     90.2821
_cell_angle_gamma    90.0224

_symmetry_space_group_name_H-M    "P 1"
_symmetry_int_tables_number       1

loop_
  _symmetry_equiv_pos_as_xyz
  'x, y, z'

loop_
  _atom_site_label
  _atom_site_occupancy
  _atom_site_fract_x
  _atom_site_fract_y
  _atom_site_fract_z
  _atom_site_thermal_displace_type
  _atom_site_B_iso_or_equiv
  _atom_site_type_symbol
  Hf1      1.0000 0.13641  0.07280  0.11997  Biso   1.000  Hf
  Hf2      1.0000 0.13511  0.46702  0.38319  Biso   1.000  Hf
  Hf3      1.0000 0.36628  0.53338  0.12449  Biso   1.000  Hf
  Hf4      1.0000 0.36450  0.96491  0.37387  Biso   1.000  Hf
  O1       1.0000 0.02202  0.36614  0.20807  Biso   1.000  O
  O2       1.0000 0.03673  0.13069  0.44768  Biso   1.000  O
  O3       1.0000 0.45986  0.86987  0.19305  Biso   1.000  O
  O4       1.0000 0.46390  0.63069  0.44365  Biso   1.000  O
  O5       1.0000 0.27149  0.24652  0.25170  Biso   1.000  O
  O6       1.0000 0.27217  0.26076  0.50039  Biso   1.000  O
  O7       1.0000 0.23117  0.76259  0.49991  Biso   1.000  O
  O8       1.0000 0.22300  0.73597  0.24779  Biso   1.000  O
  Hf5      1.0000 0.13520  0.02782  0.62676  Biso   1.000  Hf
  Hf6      1.0000 0.13818  0.46206  0.87029  Biso   1.000  Hf
  Hf7      1.0000 0.36988  0.52945  0.62503  Biso   1.000  Hf
  Hf8      1.0000 0.36782  0.95917  0.87512  Biso   1.000  Hf
  O9       1.0000 0.03799  0.36257  0.69149  Biso   1.000  O
  O10      1.0000 0.03874  0.13427  0.94168  Biso   1.000  O
  O11      1.0000 0.46839  0.86213  0.69433  Biso   1.000  O
  O12      1.0000 0.46757  0.62902  0.94474  Biso   1.000  O
  O13      1.0000 0.27334  0.22962  0.74715  Biso   1.000  O
  O14      1.0000 0.28411  0.25720  0.99248  Biso   1.000  O
  O15      1.0000 0.22674  0.76277  0.00109  Biso   1.000  O
  O16      1.0000 0.23456  0.73166  0.74819  Biso   1.000  O
  Hf9      1.0000 0.63055  0.03083  0.12432  Biso   1.000  Hf
  Hf10     1.0000 0.63228  0.46143  0.37755  Biso   1.000  Hf
  Hf11     1.0000 0.85069  0.52821  0.12863  Biso   1.000  Hf
  Hf12     1.0000 0.86967  0.96613  0.37250  Biso   1.000  Hf
  O17      1.0000 0.53580  0.36586  0.19401  Biso   1.000  O
  O18      1.0000 0.53456  0.12819  0.44496  Biso   1.000  O
  O19      1.0000 0.96417  0.86673  0.19036  Biso   1.000  O
  O20      1.0000 0.96619  0.63586  0.44843  Biso   1.000  O
  O21      1.0000 0.76474  0.23014  0.25100  Biso   1.000  O
  O22      1.0000 0.77167  0.26274  0.49926  Biso   1.000  O
  O23      1.0000 0.73202  0.76333  0.49933  Biso   1.000  O
  O24      1.0000 0.72505  0.73566  0.25151  Biso   1.000  O
  Hf13     1.0000 0.63752  0.02699  0.62539  Biso   1.000  Hf
  Hf14     1.0000 0.63459  0.45996  0.87365  Biso   1.000  Hf
  Hf15     1.0000 0.86691  0.52906  0.62586  Biso   1.000  Hf
  Hf16     1.0000 0.86923  0.95719  0.87885  Biso   1.000  Hf
  O25      1.0000 0.54001  0.36392  0.69203  Biso   1.000  O
  O26      1.0000 0.53979  0.12562  0.94121  Biso   1.000  O
  O27      1.0000 0.96935  0.85710  0.70200  Biso   1.000  O
  O28      1.0000 0.97035  0.62504  0.95669  Biso   1.000  O
  O29      1.0000 0.77431  0.22719  0.75026  Biso   1.000  O
  O30      1.0000 0.77170  0.25758  0.99985  Biso   1.000  O
  O31      1.0000 0.72856  0.75793  0.00020  Biso   1.000  O
  O32      1.0000 0.73354  0.72914  0.75062  Biso   1.000  O
  Li1      1.0000 0.09686  0.62140  0.11616  Biso   1.000  Li
