data_image0
_cell_length_a       10.1585
_cell_length_b       5.13154
_cell_length_c       10.5097
_cell_angle_alpha    90.1552
_cell_angle_beta     79.2064
_cell_angle_gamma    90.3415

_symmetry_space_group_name_H-M    "P 1"
_symmetry_int_tables_number       1

loop_
  _symmetry_equiv_pos_as_xyz
  'x, y, z'

loop_
  _atom_site_label
  _atom_site_occupancy
  _atom_site_fract_x
  _atom_site_fract_y
  _atom_site_fract_z
  _atom_site_thermal_displace_type
  _atom_site_B_iso_or_equiv
  _atom_site_type_symbol
  Hf1      1.0000 0.13640  0.05134  0.14799  Biso   1.000  Hf
  Hf2      1.0000 0.13776  0.45918  0.39828  Biso   1.000  Hf
  Hf3      1.0000 0.34817  0.55445  0.09335  Biso   1.000  Hf
  Hf4      1.0000 0.35589  0.95286  0.35581  Biso   1.000  Hf
  O1       1.0000 0.03262  0.34271  0.08127  Biso   1.000  O
  O2       1.0000 0.03611  0.16515  0.33099  Biso   1.000  O
  O3       1.0000 0.46352  0.81849  0.17688  Biso   1.000  O
  O4       1.0000 0.46574  0.65243  0.41754  Biso   1.000  O
  O5       1.0000 0.28371  0.26963  0.24236  Biso   1.000  O
  O6       1.0000 0.27680  0.24336  0.49153  Biso   1.000  O
  O7       1.0000 0.21468  0.76815  0.00546  Biso   1.000  O
  O8       1.0000 0.21696  0.74816  0.25815  Biso   1.000  O
  Hf5      1.0000 0.13745  0.04427  0.64684  Biso   1.000  Hf
  Hf6      1.0000 0.13314  0.45904  0.89515  Biso   1.000  Hf
  Hf7      1.0000 0.36091  0.54136  0.60466  Biso   1.000  Hf
  Hf8      1.0000 0.35687  0.96137  0.85180  Biso   1.000  Hf
  O9       1.0000 0.03511  0.34045  0.58244  Biso   1.000  O
  O10      1.0000 0.03236  0.16175  0.83115  Biso   1.000  O
  O11      1.0000 0.46386  0.83851  0.67011  Biso   1.000  O
  O12      1.0000 0.46212  0.66984  0.92034  Biso   1.000  O
  O13      1.0000 0.27491  0.25809  0.74063  Biso   1.000  O
  O14      1.0000 0.27228  0.24843  0.98902  Biso   1.000  O
  O15      1.0000 0.22391  0.75767  0.51007  Biso   1.000  O
  O16      1.0000 0.22083  0.74184  0.75785  Biso   1.000  O
  Hf9      1.0000 0.63757  0.04052  0.15021  Biso   1.000  Hf
  Hf10     1.0000 0.64845  0.45463  0.40559  Biso   1.000  Hf
  Hf11     1.0000 0.85796  0.54533  0.10725  Biso   1.000  Hf
  Hf12     1.0000 0.86145  0.95533  0.35612  Biso   1.000  Hf
  O17      1.0000 0.52683  0.33755  0.08743  Biso   1.000  O
  O18      1.0000 0.53298  0.16597  0.33326  Biso   1.000  O
  O19      1.0000 0.96299  0.84143  0.17143  Biso   1.000  O
  O20      1.0000 0.96378  0.66342  0.42325  Biso   1.000  O
  O21      1.0000 0.77690  0.25668  0.24560  Biso   1.000  O
  O22      1.0000 0.78076  0.23811  0.49674  Biso   1.000  O
  O23      1.0000 0.71842  0.75618  0.01396  Biso   1.000  O
  O24      1.0000 0.72109  0.74190  0.26435  Biso   1.000  O
  Hf13     1.0000 0.63872  0.04344  0.65126  Biso   1.000  Hf
  Hf14     1.0000 0.63552  0.45742  0.90174  Biso   1.000  Hf
  Hf15     1.0000 0.86096  0.54412  0.60903  Biso   1.000  Hf
  Hf16     1.0000 0.85710  0.95745  0.85775  Biso   1.000  Hf
  O25      1.0000 0.53598  0.33692  0.58334  Biso   1.000  O
  O26      1.0000 0.53131  0.16677  0.83265  Biso   1.000  O
  O27      1.0000 0.96251  0.84011  0.67309  Biso   1.000  O
  O28      1.0000 0.95922  0.66127  0.92163  Biso   1.000  O
  O29      1.0000 0.77469  0.25997  0.74632  Biso   1.000  O
  O30      1.0000 0.77128  0.24165  0.99550  Biso   1.000  O
  O31      1.0000 0.72356  0.75651  0.51463  Biso   1.000  O
  O32      1.0000 0.71998  0.74304  0.76423  Biso   1.000  O
  Li1      1.0000 0.46239  0.45019  0.27010  Biso   1.000  Li
