data_image0
_cell_length_a       10.0237
_cell_length_b       10.1152
_cell_length_c       4.98124
_cell_angle_alpha    90.0025
_cell_angle_beta     89.9983
_cell_angle_gamma    89.9989

_symmetry_space_group_name_H-M    "P 1"
_symmetry_int_tables_number       1

loop_
  _symmetry_equiv_pos_as_xyz
  'x, y, z'

loop_
  _atom_site_label
  _atom_site_occupancy
  _atom_site_fract_x
  _atom_site_fract_y
  _atom_site_fract_z
  _atom_site_thermal_displace_type
  _atom_site_B_iso_or_equiv
  _atom_site_type_symbol
  Li1      1.0000 0.12496  0.99990  0.25234  Biso   1.000  Li
  Hf1      1.0000 0.12495  0.49992  0.25237  Biso   1.000  Hf
  Hf2      1.0000 0.62495  0.99992  0.25237  Biso   1.000  Hf
  Hf3      1.0000 0.62495  0.49992  0.25237  Biso   1.000  Hf
  Hf4      1.0000 0.12495  0.24579  0.75237  Biso   1.000  Hf
  Hf5      1.0000 0.12494  0.75405  0.75238  Biso   1.000  Hf
  Hf6      1.0000 0.62494  0.24897  0.75237  Biso   1.000  Hf
  Hf7      1.0000 0.62494  0.75086  0.75237  Biso   1.000  Hf
  Hf8      1.0000 0.37277  0.24826  0.25232  Biso   1.000  Hf
  Hf9      1.0000 0.37277  0.75158  0.25244  Biso   1.000  Hf
  Hf10     1.0000 0.87712  0.24826  0.25243  Biso   1.000  Hf
  Hf11     1.0000 0.87711  0.75158  0.25231  Biso   1.000  Hf
  Hf12     1.0000 0.36839  0.99992  0.75238  Biso   1.000  Hf
  Hf13     1.0000 0.37493  0.49992  0.75238  Biso   1.000  Hf
  Hf14     1.0000 0.88151  0.99992  0.75236  Biso   1.000  Hf
  Hf15     1.0000 0.87498  0.49992  0.75237  Biso   1.000  Hf
  O1       1.0000 0.99589  0.13814  0.99761  Biso   1.000  O
  O2       1.0000 0.00229  0.63471  0.01225  Biso   1.000  O
  O3       1.0000 0.50325  0.14196  0.01178  Biso   1.000  O
  O4       1.0000 0.50202  0.64173  0.00728  Biso   1.000  O
  O5       1.0000 0.99593  0.12095  0.51122  Biso   1.000  O
  O6       1.0000 0.99912  0.61286  0.51044  Biso   1.000  O
  O7       1.0000 0.50030  0.10768  0.51008  Biso   1.000  O
  O8       1.0000 0.49890  0.60796  0.50652  Biso   1.000  O
  O9       1.0000 0.00228  0.36513  0.49249  Biso   1.000  O
  O10      1.0000 0.99589  0.86170  0.50712  Biso   1.000  O
  O11      1.0000 0.50201  0.35810  0.49747  Biso   1.000  O
  O12      1.0000 0.50326  0.85787  0.49297  Biso   1.000  O
  O13      1.0000 0.99912  0.38698  0.99432  Biso   1.000  O
  O14      1.0000 0.99592  0.87890  0.99353  Biso   1.000  O
  O15      1.0000 0.49890  0.39188  0.99823  Biso   1.000  O
  O16      1.0000 0.50029  0.89216  0.99467  Biso   1.000  O
  O17      1.0000 0.25401  0.13814  0.50713  Biso   1.000  O
  O18      1.0000 0.24761  0.63471  0.49250  Biso   1.000  O
  O19      1.0000 0.74664  0.14196  0.49295  Biso   1.000  O
  O20      1.0000 0.74788  0.64173  0.49747  Biso   1.000  O
  O21      1.0000 0.25396  0.12094  0.99352  Biso   1.000  O
  O22      1.0000 0.25078  0.61286  0.99433  Biso   1.000  O
  O23      1.0000 0.74959  0.10768  0.99465  Biso   1.000  O
  O24      1.0000 0.75099  0.60796  0.99823  Biso   1.000  O
  O25      1.0000 0.24761  0.36513  0.01225  Biso   1.000  O
  O26      1.0000 0.25400  0.86170  0.99763  Biso   1.000  O
  O27      1.0000 0.74788  0.35810  0.00729  Biso   1.000  O
  O28      1.0000 0.74664  0.85787  0.01177  Biso   1.000  O
  O29      1.0000 0.25077  0.38698  0.51044  Biso   1.000  O
  O30      1.0000 0.25397  0.87890  0.51123  Biso   1.000  O
  O31      1.0000 0.75098  0.39188  0.50654  Biso   1.000  O
  O32      1.0000 0.74960  0.89216  0.51006  Biso   1.000  O
