data_image0
_cell_length_a       10.1935
_cell_length_b       5.1106
_cell_length_c       10.4502
_cell_angle_alpha    89.9893
_cell_angle_beta     79.7741
_cell_angle_gamma    90.0121

_symmetry_space_group_name_H-M    "P 1"
_symmetry_int_tables_number       1

loop_
  _symmetry_equiv_pos_as_xyz
  'x, y, z'

loop_
  _atom_site_label
  _atom_site_occupancy
  _atom_site_fract_x
  _atom_site_fract_y
  _atom_site_fract_z
  _atom_site_thermal_displace_type
  _atom_site_B_iso_or_equiv
  _atom_site_type_symbol
  Li1      1.0000 0.12810  0.02019  0.14628  Biso   1.000  Li
  Hf1      1.0000 0.14056  0.04161  0.64641  Biso   1.000  Hf
  Hf2      1.0000 0.63801  0.04114  0.14582  Biso   1.000  Hf
  Hf3      1.0000 0.63864  0.04169  0.64575  Biso   1.000  Hf
  Hf4      1.0000 0.14344  0.45564  0.39161  Biso   1.000  Hf
  Hf5      1.0000 0.14201  0.45851  0.90157  Biso   1.000  Hf
  Hf6      1.0000 0.63772  0.45840  0.39550  Biso   1.000  Hf
  Hf7      1.0000 0.63860  0.45766  0.89721  Biso   1.000  Hf
  Hf8      1.0000 0.35273  0.54007  0.10525  Biso   1.000  Hf
  Hf9      1.0000 0.35967  0.54413  0.60403  Biso   1.000  Hf
  Hf10     1.0000 0.86297  0.54102  0.10391  Biso   1.000  Hf
  Hf11     1.0000 0.85980  0.54138  0.60271  Biso   1.000  Hf
  Hf12     1.0000 0.35615  0.95815  0.34970  Biso   1.000  Hf
  Hf13     1.0000 0.35759  0.95823  0.85778  Biso   1.000  Hf
  Hf14     1.0000 0.86372  0.95921  0.35015  Biso   1.000  Hf
  Hf15     1.0000 0.86002  0.95772  0.85401  Biso   1.000  Hf
  O1       1.0000 0.03290  0.33092  0.07763  Biso   1.000  O
  O2       1.0000 0.03244  0.32846  0.57786  Biso   1.000  O
  O3       1.0000 0.53361  0.33211  0.07858  Biso   1.000  O
  O4       1.0000 0.53268  0.33171  0.57917  Biso   1.000  O
  O5       1.0000 0.02562  0.18637  0.33463  Biso   1.000  O
  O6       1.0000 0.03146  0.17355  0.82765  Biso   1.000  O
  O7       1.0000 0.53307  0.16730  0.32835  Biso   1.000  O
  O8       1.0000 0.53506  0.16779  0.82837  Biso   1.000  O
  O9       1.0000 0.46865  0.82612  0.17099  Biso   1.000  O
  O10      1.0000 0.46643  0.83034  0.67291  Biso   1.000  O
  O11      1.0000 0.96633  0.81988  0.17531  Biso   1.000  O
  O12      1.0000 0.96718  0.82933  0.67137  Biso   1.000  O
  O13      1.0000 0.46617  0.67013  0.42254  Biso   1.000  O
  O14      1.0000 0.47131  0.67719  0.92270  Biso   1.000  O
  O15      1.0000 0.96910  0.67593  0.42306  Biso   1.000  O
  O16      1.0000 0.96720  0.67278  0.92140  Biso   1.000  O
  O17      1.0000 0.28276  0.26035  0.24609  Biso   1.000  O
  O18      1.0000 0.27500  0.25685  0.74045  Biso   1.000  O
  O19      1.0000 0.77465  0.25654  0.24021  Biso   1.000  O
  O20      1.0000 0.77611  0.25624  0.73964  Biso   1.000  O
  O21      1.0000 0.27549  0.24285  0.49255  Biso   1.000  O
  O22      1.0000 0.28752  0.25745  0.98251  Biso   1.000  O
  O23      1.0000 0.77407  0.24501  0.49059  Biso   1.000  O
  O24      1.0000 0.77574  0.24158  0.98971  Biso   1.000  O
  O25      1.0000 0.22854  0.75295  0.00400  Biso   1.000  O
  O26      1.0000 0.22351  0.75759  0.50982  Biso   1.000  O
  O27      1.0000 0.72500  0.75682  0.00857  Biso   1.000  O
  O28      1.0000 0.72482  0.75726  0.50870  Biso   1.000  O
  O29      1.0000 0.22811  0.73411  0.26097  Biso   1.000  O
  O30      1.0000 0.22349  0.74430  0.75802  Biso   1.000  O
  O31      1.0000 0.72127  0.74313  0.25955  Biso   1.000  O
  O32      1.0000 0.72499  0.74233  0.75841  Biso   1.000  O
