data_image0
_cell_length_a       10.1565
_cell_length_b       10.2495
_cell_length_c       10.4479
_cell_angle_alpha    89.9845
_cell_angle_beta     80.0301
_cell_angle_gamma    89.9978

_symmetry_space_group_name_H-M    "P 1"
_symmetry_int_tables_number       1

loop_
  _symmetry_equiv_pos_as_xyz
  'x, y, z'

loop_
  _atom_site_label
  _atom_site_occupancy
  _atom_site_fract_x
  _atom_site_fract_y
  _atom_site_fract_z
  _atom_site_thermal_displace_type
  _atom_site_B_iso_or_equiv
  _atom_site_type_symbol
  Li1      1.0000 0.12583  0.00895  0.14617  Biso   1.000  Li
  Hf1      1.0000 0.13966  0.02067  0.64533  Biso   1.000  Hf
  Hf2      1.0000 0.14031  0.52129  0.14501  Biso   1.000  Hf
  Hf3      1.0000 0.14014  0.52159  0.64690  Biso   1.000  Hf
  Hf4      1.0000 0.63929  0.02118  0.14632  Biso   1.000  Hf
  Hf5      1.0000 0.63929  0.02073  0.64565  Biso   1.000  Hf
  Hf6      1.0000 0.63801  0.52049  0.14556  Biso   1.000  Hf
  Hf7      1.0000 0.63868  0.52143  0.64599  Biso   1.000  Hf
  Hf8      1.0000 0.14167  0.22752  0.39280  Biso   1.000  Hf
  Hf9      1.0000 0.13980  0.22466  0.90103  Biso   1.000  Hf
  Hf10     1.0000 0.14162  0.72875  0.39385  Biso   1.000  Hf
  Hf11     1.0000 0.14194  0.73278  0.89713  Biso   1.000  Hf
  Hf12     1.0000 0.63849  0.22810  0.39555  Biso   1.000  Hf
  Hf13     1.0000 0.63914  0.22939  0.89645  Biso   1.000  Hf
  Hf14     1.0000 0.63810  0.73005  0.39566  Biso   1.000  Hf
  Hf15     1.0000 0.63901  0.72853  0.89717  Biso   1.000  Hf
  Hf16     1.0000 0.35577  0.26496  0.10549  Biso   1.000  Hf
  Hf17     1.0000 0.35941  0.27065  0.60489  Biso   1.000  Hf
  Hf18     1.0000 0.35618  0.77570  0.10421  Biso   1.000  Hf
  Hf19     1.0000 0.36078  0.77271  0.60324  Biso   1.000  Hf
  Hf20     1.0000 0.86375  0.26869  0.10347  Biso   1.000  Hf
  Hf21     1.0000 0.85990  0.27158  0.60289  Biso   1.000  Hf
  Hf22     1.0000 0.86102  0.77333  0.10524  Biso   1.000  Hf
  Hf23     1.0000 0.86075  0.77060  0.60343  Biso   1.000  Hf
  Hf24     1.0000 0.36031  0.47798  0.35298  Biso   1.000  Hf
  Hf25     1.0000 0.35975  0.47798  0.85499  Biso   1.000  Hf
  Hf26     1.0000 0.35544  0.97964  0.35022  Biso   1.000  Hf
  Hf27     1.0000 0.35865  0.97962  0.85714  Biso   1.000  Hf
  Hf28     1.0000 0.86003  0.47931  0.35355  Biso   1.000  Hf
  Hf29     1.0000 0.86127  0.47894  0.85466  Biso   1.000  Hf
  Hf30     1.0000 0.86545  0.97891  0.35007  Biso   1.000  Hf
  Hf31     1.0000 0.85976  0.97874  0.85386  Biso   1.000  Hf
  O1       1.0000 0.03550  0.17009  0.08002  Biso   1.000  O
  O2       1.0000 0.03375  0.16805  0.57978  Biso   1.000  O
  O3       1.0000 0.03443  0.66809  0.07958  Biso   1.000  O
  O4       1.0000 0.03464  0.66690  0.58028  Biso   1.000  O
  O5       1.0000 0.53563  0.16794  0.07931  Biso   1.000  O
  O6       1.0000 0.53383  0.16703  0.57989  Biso   1.000  O
  O7       1.0000 0.53272  0.66622  0.07892  Biso   1.000  O
  O8       1.0000 0.53409  0.66745  0.57950  Biso   1.000  O
  O9       1.0000 0.03125  0.08505  0.34081  Biso   1.000  O
  O10      1.0000 0.03303  0.08286  0.82836  Biso   1.000  O
  O11      1.0000 0.03363  0.58358  0.32848  Biso   1.000  O
  O12      1.0000 0.03491  0.58268  0.83035  Biso   1.000  O
  O13      1.0000 0.53390  0.08260  0.32918  Biso   1.000  O
  O14      1.0000 0.53656  0.08261  0.82924  Biso   1.000  O
  O15      1.0000 0.53377  0.58261  0.32918  Biso   1.000  O
  O16      1.0000 0.53353  0.58389  0.82875  Biso   1.000  O
  O17      1.0000 0.46550  0.41443  0.17116  Biso   1.000  O
  O18      1.0000 0.46536  0.41705  0.67102  Biso   1.000  O
  O19      1.0000 0.46779  0.91692  0.16999  Biso   1.000  O
  O20      1.0000 0.46591  0.91669  0.67197  Biso   1.000  O
  O21      1.0000 0.96493  0.41867  0.16972  Biso   1.000  O
  O22      1.0000 0.96623  0.41697  0.67051  Biso   1.000  O
  O23      1.0000 0.96090  0.91688  0.17123  Biso   1.000  O
  O24      1.0000 0.96482  0.91766  0.66961  Biso   1.000  O
  O25      1.0000 0.46523  0.33268  0.42161  Biso   1.000  O
  O26      1.0000 0.46783  0.33568  0.92132  Biso   1.000  O
  O27      1.0000 0.46532  0.83401  0.42130  Biso   1.000  O
  O28      1.0000 0.47079  0.83707  0.92209  Biso   1.000  O
  O29      1.0000 0.96557  0.33473  0.42046  Biso   1.000  O
  O30      1.0000 0.96623  0.33298  0.91987  Biso   1.000  O
  O31      1.0000 0.96598  0.83070  0.41997  Biso   1.000  O
  O32      1.0000 0.96499  0.83242  0.91944  Biso   1.000  O
  O33      1.0000 0.28476  0.13428  0.24880  Biso   1.000  O
  O34      1.0000 0.27507  0.12729  0.73983  Biso   1.000  O
  O35      1.0000 0.27659  0.62544  0.23918  Biso   1.000  O
  O36      1.0000 0.27659  0.62985  0.74085  Biso   1.000  O
  O37      1.0000 0.77543  0.12876  0.24096  Biso   1.000  O
  O38      1.0000 0.77675  0.12891  0.73995  Biso   1.000  O
  O39      1.0000 0.77526  0.62902  0.24047  Biso   1.000  O
  O40      1.0000 0.77616  0.62828  0.74022  Biso   1.000  O
  O41      1.0000 0.27519  0.12098  0.49335  Biso   1.000  O
  O42      1.0000 0.28888  0.13001  0.98127  Biso   1.000  O
  O43      1.0000 0.27669  0.62125  0.49036  Biso   1.000  O
  O44      1.0000 0.27652  0.62022  0.99054  Biso   1.000  O
  O45      1.0000 0.77501  0.12213  0.49056  Biso   1.000  O
  O46      1.0000 0.77663  0.12121  0.99012  Biso   1.000  O
  O47      1.0000 0.77555  0.62134  0.49058  Biso   1.000  O
  O48      1.0000 0.77548  0.62041  0.99035  Biso   1.000  O
  O49      1.0000 0.22331  0.37932  0.00963  Biso   1.000  O
  O50      1.0000 0.22398  0.37912  0.50977  Biso   1.000  O
  O51      1.0000 0.22914  0.87476  0.00231  Biso   1.000  O
  O52      1.0000 0.22255  0.87863  0.50952  Biso   1.000  O
  O53      1.0000 0.72450  0.37863  0.00905  Biso   1.000  O
  O54      1.0000 0.72293  0.37924  0.50941  Biso   1.000  O
  O55      1.0000 0.72427  0.87889  0.00900  Biso   1.000  O
  O56      1.0000 0.72486  0.87862  0.50884  Biso   1.000  O
  O57      1.0000 0.22125  0.37292  0.25868  Biso   1.000  O
  O58      1.0000 0.22406  0.37049  0.76040  Biso   1.000  O
  O59      1.0000 0.22982  0.86429  0.26205  Biso   1.000  O
  O60      1.0000 0.22314  0.87241  0.75673  Biso   1.000  O
  O61      1.0000 0.72377  0.37118  0.25995  Biso   1.000  O
  O62      1.0000 0.72433  0.37161  0.75877  Biso   1.000  O
  O63      1.0000 0.71946  0.87114  0.25979  Biso   1.000  O
  O64      1.0000 0.72438  0.87075  0.75889  Biso   1.000  O
