data_image0
_cell_length_a       10.1992
_cell_length_b       10.2397
_cell_length_c       5.21064
_cell_angle_alpha    89.9897
_cell_angle_beta     79.8734
_cell_angle_gamma    89.9504

_symmetry_space_group_name_H-M    "P 1"
_symmetry_int_tables_number       1

loop_
  _symmetry_equiv_pos_as_xyz
  'x, y, z'

loop_
  _atom_site_label
  _atom_site_occupancy
  _atom_site_fract_x
  _atom_site_fract_y
  _atom_site_fract_z
  _atom_site_thermal_displace_type
  _atom_site_B_iso_or_equiv
  _atom_site_type_symbol
  Li1      1.0000 0.12673  0.00349  0.28667  Biso   1.000  Li
  Hf1      1.0000 0.14056  0.52211  0.29202  Biso   1.000  Hf
  Hf2      1.0000 0.63921  0.02072  0.29193  Biso   1.000  Hf
  Hf3      1.0000 0.63811  0.52119  0.29146  Biso   1.000  Hf
  Hf4      1.0000 0.14249  0.22656  0.79457  Biso   1.000  Hf
  Hf5      1.0000 0.14318  0.73266  0.78978  Biso   1.000  Hf
  Hf6      1.0000 0.63819  0.22872  0.79170  Biso   1.000  Hf
  Hf7      1.0000 0.63845  0.72938  0.79402  Biso   1.000  Hf
  Hf8      1.0000 0.35666  0.26704  0.21176  Biso   1.000  Hf
  Hf9      1.0000 0.35636  0.77645  0.20775  Biso   1.000  Hf
  Hf10     1.0000 0.86139  0.26919  0.20509  Biso   1.000  Hf
  Hf11     1.0000 0.86140  0.77235  0.20935  Biso   1.000  Hf
  Hf12     1.0000 0.35989  0.47859  0.70781  Biso   1.000  Hf
  Hf13     1.0000 0.35487  0.97887  0.70657  Biso   1.000  Hf
  Hf14     1.0000 0.86094  0.47942  0.70826  Biso   1.000  Hf
  Hf15     1.0000 0.86297  0.97884  0.70111  Biso   1.000  Hf
  O1       1.0000 0.03160  0.16082  0.14939  Biso   1.000  O
  O2       1.0000 0.03282  0.66430  0.15534  Biso   1.000  O
  O3       1.0000 0.53434  0.16750  0.15976  Biso   1.000  O
  O4       1.0000 0.53243  0.66642  0.15862  Biso   1.000  O
  O5       1.0000 0.02633  0.09165  0.67550  Biso   1.000  O
  O6       1.0000 0.03210  0.58707  0.65384  Biso   1.000  O
  O7       1.0000 0.53486  0.08295  0.65847  Biso   1.000  O
  O8       1.0000 0.53310  0.58412  0.65775  Biso   1.000  O
  O9       1.0000 0.46624  0.41509  0.34244  Biso   1.000  O
  O10      1.0000 0.46864  0.91587  0.34201  Biso   1.000  O
  O11      1.0000 0.96909  0.41168  0.34579  Biso   1.000  O
  O12      1.0000 0.96128  0.91441  0.34675  Biso   1.000  O
  O13      1.0000 0.46747  0.33584  0.84365  Biso   1.000  O
  O14      1.0000 0.47002  0.83774  0.84415  Biso   1.000  O
  O15      1.0000 0.96894  0.33894  0.84696  Biso   1.000  O
  O16      1.0000 0.96741  0.83487  0.84301  Biso   1.000  O
  O17      1.0000 0.28333  0.13314  0.49670  Biso   1.000  O
  O18      1.0000 0.27620  0.62665  0.47919  Biso   1.000  O
  O19      1.0000 0.77490  0.12893  0.48054  Biso   1.000  O
  O20      1.0000 0.77545  0.62830  0.48056  Biso   1.000  O
  O21      1.0000 0.28641  0.12940  0.96957  Biso   1.000  O
  O22      1.0000 0.27639  0.62111  0.98074  Biso   1.000  O
  O23      1.0000 0.77433  0.12217  0.98022  Biso   1.000  O
  O24      1.0000 0.77468  0.62064  0.98087  Biso   1.000  O
  O25      1.0000 0.22395  0.37958  0.01998  Biso   1.000  O
  O26      1.0000 0.22821  0.87550  0.00758  Biso   1.000  O
  O27      1.0000 0.72469  0.37844  0.01829  Biso   1.000  O
  O28      1.0000 0.72562  0.87835  0.01707  Biso   1.000  O
  O29      1.0000 0.22294  0.37278  0.51946  Biso   1.000  O
  O30      1.0000 0.22941  0.86711  0.51826  Biso   1.000  O
  O31      1.0000 0.72508  0.37193  0.51834  Biso   1.000  O
  O32      1.0000 0.72034  0.87113  0.51935  Biso   1.000  O
