data_image0
_cell_length_a       10.0806
_cell_length_b       5.09291
_cell_length_c       10.4375
_cell_angle_alpha    89.8799
_cell_angle_beta     89.7674
_cell_angle_gamma    89.9822

_symmetry_space_group_name_H-M    "P 1"
_symmetry_int_tables_number       1

loop_
  _symmetry_equiv_pos_as_xyz
  'x, y, z'

loop_
  _atom_site_label
  _atom_site_occupancy
  _atom_site_fract_x
  _atom_site_fract_y
  _atom_site_fract_z
  _atom_site_thermal_displace_type
  _atom_site_B_iso_or_equiv
  _atom_site_type_symbol
  Li1      1.0000 0.12999  0.01442  0.17174  Biso   1.000  Li
  Hf1      1.0000 0.14062  0.04080  0.67325  Biso   1.000  Hf
  Hf2      1.0000 0.14414  0.46066  0.41870  Biso   1.000  Hf
  Hf3      1.0000 0.14296  0.45498  0.92965  Biso   1.000  Hf
  Hf4      1.0000 0.35272  0.53974  0.17238  Biso   1.000  Hf
  Hf5      1.0000 0.35990  0.54327  0.67322  Biso   1.000  Hf
  Hf6      1.0000 0.35697  0.96042  0.41856  Biso   1.000  Hf
  Hf7      1.0000 0.35662  0.95706  0.92719  Biso   1.000  Hf
  Hf8      1.0000 0.63791  0.04107  0.07770  Biso   1.000  Hf
  Hf9      1.0000 0.63786  0.04138  0.57582  Biso   1.000  Hf
  Hf10     1.0000 0.63821  0.46076  0.32596  Biso   1.000  Hf
  Hf11     1.0000 0.63800  0.45800  0.82775  Biso   1.000  Hf
  Hf12     1.0000 0.86302  0.54078  0.07781  Biso   1.000  Hf
  Hf13     1.0000 0.85937  0.54098  0.57612  Biso   1.000  Hf
  Hf14     1.0000 0.86437  0.96091  0.32403  Biso   1.000  Hf
  Hf15     1.0000 0.85943  0.95780  0.82749  Biso   1.000  Hf
  O1       1.0000 0.02925  0.32091  0.08182  Biso   1.000  O
  O2       1.0000 0.03007  0.32295  0.58176  Biso   1.000  O
  O3       1.0000 0.02415  0.19350  0.33925  Biso   1.000  O
  O4       1.0000 0.02849  0.17943  0.83105  Biso   1.000  O
  O5       1.0000 0.47027  0.82365  0.08395  Biso   1.000  O
  O6       1.0000 0.46762  0.82807  0.58270  Biso   1.000  O
  O7       1.0000 0.47083  0.67900  0.33258  Biso   1.000  O
  O8       1.0000 0.46828  0.67218  0.83299  Biso   1.000  O
  O9       1.0000 0.28236  0.25650  0.30360  Biso   1.000  O
  O10      1.0000 0.27405  0.24614  0.79611  Biso   1.000  O
  O11      1.0000 0.28675  0.26148  0.04097  Biso   1.000  O
  O12      1.0000 0.27545  0.25343  0.54834  Biso   1.000  O
  O13      1.0000 0.22730  0.74504  0.29934  Biso   1.000  O
  O14      1.0000 0.22387  0.74803  0.79577  Biso   1.000  O
  O15      1.0000 0.22930  0.74284  0.04281  Biso   1.000  O
  O16      1.0000 0.22388  0.75379  0.54752  Biso   1.000  O
  O17      1.0000 0.53209  0.32960  0.16580  Biso   1.000  O
  O18      1.0000 0.53176  0.32891  0.66579  Biso   1.000  O
  O19      1.0000 0.53227  0.17202  0.41520  Biso   1.000  O
  O20      1.0000 0.53279  0.16848  0.91544  Biso   1.000  O
  O21      1.0000 0.96961  0.81207  0.17194  Biso   1.000  O
  O22      1.0000 0.96923  0.82278  0.66796  Biso   1.000  O
  O23      1.0000 0.97118  0.68277  0.41982  Biso   1.000  O
  O24      1.0000 0.97038  0.67971  0.91856  Biso   1.000  O
  O25      1.0000 0.77556  0.24609  0.95275  Biso   1.000  O
  O26      1.0000 0.77418  0.25253  0.45349  Biso   1.000  O
  O27      1.0000 0.77494  0.25214  0.20303  Biso   1.000  O
  O28      1.0000 0.77478  0.25081  0.70298  Biso   1.000  O
  O29      1.0000 0.72429  0.74606  0.95223  Biso   1.000  O
  O30      1.0000 0.72585  0.75073  0.45230  Biso   1.000  O
  O31      1.0000 0.72267  0.75400  0.20246  Biso   1.000  O
  O32      1.0000 0.72441  0.75134  0.70234  Biso   1.000  O
