data_image0
_cell_length_a       10.0322
_cell_length_b       5.12536
_cell_length_c       10.4971
_cell_angle_alpha    89.9683
_cell_angle_beta     90.6115
_cell_angle_gamma    90.2713

_symmetry_space_group_name_H-M    "P 1"
_symmetry_int_tables_number       1

loop_
  _symmetry_equiv_pos_as_xyz
  'x, y, z'

loop_
  _atom_site_label
  _atom_site_occupancy
  _atom_site_fract_x
  _atom_site_fract_y
  _atom_site_fract_z
  _atom_site_thermal_displace_type
  _atom_site_B_iso_or_equiv
  _atom_site_type_symbol
  Hf1      1.0000 0.13780  0.04117  0.17348  Biso   1.000  Hf
  Hf2      1.0000 0.13744  0.45310  0.42473  Biso   1.000  Hf
  Hf3      1.0000 0.35349  0.54346  0.17855  Biso   1.000  Hf
  Hf4      1.0000 0.36048  0.95483  0.42550  Biso   1.000  Hf
  Hf5      1.0000 0.64640  0.06534  0.07492  Biso   1.000  Hf
  Hf6      1.0000 0.63792  0.45594  0.33260  Biso   1.000  Hf
  Hf7      1.0000 0.86380  0.53814  0.07798  Biso   1.000  Hf
  Hf8      1.0000 0.85962  0.95238  0.32657  Biso   1.000  Hf
  O1       1.0000 0.03463  0.32653  0.08394  Biso   1.000  O
  O2       1.0000 0.03182  0.16555  0.33463  Biso   1.000  O
  O3       1.0000 0.46779  0.83293  0.08681  Biso   1.000  O
  O4       1.0000 0.46544  0.66724  0.33734  Biso   1.000  O
  O5       1.0000 0.27471  0.24675  0.29843  Biso   1.000  O
  O6       1.0000 0.27770  0.25141  0.04743  Biso   1.000  O
  O7       1.0000 0.22069  0.74696  0.29960  Biso   1.000  O
  O8       1.0000 0.22330  0.75203  0.04903  Biso   1.000  O
  O9       1.0000 0.52843  0.33487  0.16958  Biso   1.000  O
  O10      1.0000 0.53224  0.16724  0.41752  Biso   1.000  O
  O11      1.0000 0.96518  0.83000  0.16748  Biso   1.000  O
  O12      1.0000 0.96740  0.66740  0.41804  Biso   1.000  O
  O13      1.0000 0.77637  0.24434  0.45471  Biso   1.000  O
  O14      1.0000 0.77919  0.25396  0.20793  Biso   1.000  O
  O15      1.0000 0.72352  0.74525  0.45408  Biso   1.000  O
  O16      1.0000 0.71751  0.74614  0.19971  Biso   1.000  O
  Hf9      1.0000 0.14117  0.03934  0.67383  Biso   1.000  Hf
  Hf10     1.0000 0.14060  0.45466  0.92308  Biso   1.000  Hf
  Hf11     1.0000 0.36348  0.54045  0.67504  Biso   1.000  Hf
  Hf12     1.0000 0.36309  0.95647  0.92474  Biso   1.000  Hf
  Hf13     1.0000 0.64056  0.03899  0.57799  Biso   1.000  Hf
  Hf14     1.0000 0.64455  0.45131  0.82318  Biso   1.000  Hf
  Hf15     1.0000 0.86362  0.53917  0.57800  Biso   1.000  Hf
  Hf16     1.0000 0.86449  0.95064  0.82820  Biso   1.000  Hf
  O17      1.0000 0.03381  0.32558  0.58462  Biso   1.000  O
  O18      1.0000 0.03614  0.16735  0.83330  Biso   1.000  O
  O19      1.0000 0.46874  0.82717  0.58512  Biso   1.000  O
  O20      1.0000 0.47230  0.66978  0.83569  Biso   1.000  O
  O21      1.0000 0.27936  0.24634  0.79765  Biso   1.000  O
  O22      1.0000 0.27724  0.24898  0.54793  Biso   1.000  O
  O23      1.0000 0.22678  0.74552  0.79847  Biso   1.000  O
  O24      1.0000 0.22468  0.74795  0.54891  Biso   1.000  O
  O25      1.0000 0.53391  0.32549  0.66623  Biso   1.000  O
  O26      1.0000 0.53484  0.17407  0.91769  Biso   1.000  O
  O27      1.0000 0.97005  0.82513  0.66768  Biso   1.000  O
  O28      1.0000 0.97061  0.67099  0.91890  Biso   1.000  O
  O29      1.0000 0.78871  0.24159  0.94814  Biso   1.000  O
  O30      1.0000 0.77966  0.24712  0.70209  Biso   1.000  O
  O31      1.0000 0.72029  0.74403  0.95646  Biso   1.000  O
  O32      1.0000 0.72572  0.74898  0.70302  Biso   1.000  O
  Li1      1.0000 0.59156  0.59051  0.06871  Biso   1.000  Li
