data_image0
_cell_length_a       10.0911
_cell_length_b       10.2019
_cell_length_c       5.20698
_cell_angle_alpha    89.8864
_cell_angle_beta     89.8744
_cell_angle_gamma    89.8852

_symmetry_space_group_name_H-M    "P 1"
_symmetry_int_tables_number       1

loop_
  _symmetry_equiv_pos_as_xyz
  'x, y, z'

loop_
  _atom_site_label
  _atom_site_occupancy
  _atom_site_fract_x
  _atom_site_fract_y
  _atom_site_fract_z
  _atom_site_thermal_displace_type
  _atom_site_B_iso_or_equiv
  _atom_site_type_symbol
  Li1      1.0000 0.12809  0.99968  0.33788  Biso   1.000  Li
  Hf1      1.0000 0.14062  0.52183  0.34721  Biso   1.000  Hf
  Hf2      1.0000 0.14288  0.22697  0.84906  Biso   1.000  Hf
  Hf3      1.0000 0.14389  0.73386  0.84421  Biso   1.000  Hf
  Hf4      1.0000 0.35649  0.26658  0.34730  Biso   1.000  Hf
  Hf5      1.0000 0.35661  0.77625  0.34371  Biso   1.000  Hf
  Hf6      1.0000 0.35961  0.47869  0.84716  Biso   1.000  Hf
  Hf7      1.0000 0.35488  0.97908  0.84331  Biso   1.000  Hf
  Hf8      1.0000 0.63851  0.02098  0.15162  Biso   1.000  Hf
  Hf9      1.0000 0.63762  0.52070  0.15639  Biso   1.000  Hf
  Hf10     1.0000 0.63883  0.22905  0.65469  Biso   1.000  Hf
  Hf11     1.0000 0.63818  0.73046  0.65291  Biso   1.000  Hf
  Hf12     1.0000 0.86187  0.26910  0.15341  Biso   1.000  Hf
  Hf13     1.0000 0.86097  0.77163  0.15635  Biso   1.000  Hf
  Hf14     1.0000 0.86080  0.48012  0.65698  Biso   1.000  Hf
  Hf15     1.0000 0.86305  0.97908  0.64816  Biso   1.000  Hf
  O1       1.0000 0.02963  0.15697  0.15666  Biso   1.000  O
  O2       1.0000 0.02984  0.66027  0.16251  Biso   1.000  O
  O3       1.0000 0.02317  0.09530  0.68535  Biso   1.000  O
  O4       1.0000 0.02966  0.59092  0.66229  Biso   1.000  O
  O5       1.0000 0.46729  0.41354  0.16998  Biso   1.000  O
  O6       1.0000 0.47052  0.91382  0.16441  Biso   1.000  O
  O7       1.0000 0.46911  0.33666  0.66917  Biso   1.000  O
  O8       1.0000 0.47080  0.83939  0.66317  Biso   1.000  O
  O9       1.0000 0.28023  0.12863  0.60409  Biso   1.000  O
  O10      1.0000 0.27644  0.62308  0.59299  Biso   1.000  O
  O11      1.0000 0.28839  0.13503  0.07709  Biso   1.000  O
  O12      1.0000 0.27533  0.62465  0.09487  Biso   1.000  O
  O13      1.0000 0.22425  0.37578  0.59658  Biso   1.000  O
  O14      1.0000 0.22754  0.87146  0.59356  Biso   1.000  O
  O15      1.0000 0.22255  0.37748  0.09733  Biso   1.000  O
  O16      1.0000 0.23103  0.87122  0.08354  Biso   1.000  O
  O17      1.0000 0.53318  0.16586  0.33016  Biso   1.000  O
  O18      1.0000 0.53079  0.66430  0.33209  Biso   1.000  O
  O19      1.0000 0.53318  0.08406  0.82706  Biso   1.000  O
  O20      1.0000 0.53068  0.58618  0.83239  Biso   1.000  O
  O21      1.0000 0.97135  0.40888  0.34115  Biso   1.000  O
  O22      1.0000 0.96555  0.90763  0.34234  Biso   1.000  O
  O23      1.0000 0.97115  0.34324  0.84239  Biso   1.000  O
  O24      1.0000 0.97041  0.83899  0.83930  Biso   1.000  O
  O25      1.0000 0.77438  0.12595  0.90694  Biso   1.000  O
  O26      1.0000 0.77379  0.62375  0.90671  Biso   1.000  O
  O27      1.0000 0.77488  0.12579  0.40631  Biso   1.000  O
  O28      1.0000 0.77505  0.62582  0.40671  Biso   1.000  O
  O29      1.0000 0.72440  0.37423  0.90730  Biso   1.000  O
  O30      1.0000 0.72634  0.87437  0.90370  Biso   1.000  O
  O31      1.0000 0.72579  0.37673  0.40752  Biso   1.000  O
  O32      1.0000 0.72036  0.87599  0.40399  Biso   1.000  O
