data_image0
_cell_length_a       10.1155
_cell_length_b       10.1154
_cell_length_c       5.12007
_cell_angle_alpha    89.9996
_cell_angle_beta     89.9997
_cell_angle_gamma    90.0019

_symmetry_space_group_name_H-M    "P 1"
_symmetry_int_tables_number       1

loop_
  _symmetry_equiv_pos_as_xyz
  'x, y, z'

loop_
  _atom_site_label
  _atom_site_occupancy
  _atom_site_fract_x
  _atom_site_fract_y
  _atom_site_fract_z
  _atom_site_thermal_displace_type
  _atom_site_B_iso_or_equiv
  _atom_site_type_symbol
  Zr1      1.0000 0.12534  0.98855  0.25087  Biso   1.000  Zr
  Zr2      1.0000 0.12539  0.25008  0.75066  Biso   1.000  Zr
  Zr3      1.0000 0.38693  0.25006  0.25070  Biso   1.000  Zr
  Zr4      1.0000 0.37667  0.99881  0.75086  Biso   1.000  Zr
  O1       1.0000 0.01371  0.13837  0.06536  Biso   1.000  O
  O2       1.0000 0.99541  0.12000  0.55527  Biso   1.000  O
  O3       1.0000 0.01374  0.36171  0.43599  Biso   1.000  O
  O4       1.0000 0.99535  0.38004  0.94613  Biso   1.000  O
  O5       1.0000 0.23706  0.13843  0.43600  Biso   1.000  O
  O6       1.0000 0.25546  0.12014  0.94612  Biso   1.000  O
  O7       1.0000 0.23710  0.36181  0.06535  Biso   1.000  O
  O8       1.0000 0.25538  0.38015  0.55525  Biso   1.000  O
  Zr5      1.0000 0.12544  0.51160  0.25086  Biso   1.000  Zr
  Zr6      1.0000 0.12539  0.75008  0.75085  Biso   1.000  Zr
  Zr7      1.0000 0.37831  0.75009  0.25082  Biso   1.000  Zr
  Zr8      1.0000 0.37663  0.50132  0.75084  Biso   1.000  Zr
  O9       1.0000 0.00271  0.63413  0.03626  Biso   1.000  O
  O10      1.0000 0.00012  0.61740  0.53679  Biso   1.000  O
  O11      1.0000 0.00271  0.86595  0.46545  Biso   1.000  O
  O12      1.0000 0.00010  0.88270  0.96491  Biso   1.000  O
  O13      1.0000 0.24807  0.63420  0.46545  Biso   1.000  O
  O14      1.0000 0.25069  0.61746  0.96490  Biso   1.000  O
  O15      1.0000 0.24808  0.86603  0.03626  Biso   1.000  O
  O16      1.0000 0.25066  0.88275  0.53680  Biso   1.000  O
  Zr9      1.0000 0.62540  0.99715  0.25084  Biso   1.000  Zr
  Zr10     1.0000 0.62540  0.25007  0.75074  Biso   1.000  Zr
  Zr11     1.0000 0.86387  0.25008  0.25071  Biso   1.000  Zr
  Zr12     1.0000 0.87415  0.99881  0.75082  Biso   1.000  Zr
  O17      1.0000 0.50951  0.12738  0.03618  Biso   1.000  O
  O18      1.0000 0.49274  0.12478  0.53669  Biso   1.000  O
  O19      1.0000 0.50948  0.37274  0.46537  Biso   1.000  O
  O20      1.0000 0.49276  0.37535  0.96482  Biso   1.000  O
  O21      1.0000 0.74132  0.12739  0.46537  Biso   1.000  O
  O22      1.0000 0.75805  0.12480  0.96482  Biso   1.000  O
  O23      1.0000 0.74130  0.37277  0.03618  Biso   1.000  O
  O24      1.0000 0.75806  0.37536  0.53671  Biso   1.000  O
  Zr13     1.0000 0.62538  0.50300  0.25084  Biso   1.000  Zr
  Zr14     1.0000 0.62539  0.75007  0.75083  Biso   1.000  Zr
  Zr15     1.0000 0.87246  0.75006  0.25082  Biso   1.000  Zr
  Zr16     1.0000 0.87412  0.50134  0.75087  Biso   1.000  Zr
  O25      1.0000 0.50378  0.62846  0.03965  Biso   1.000  O
  O26      1.0000 0.49830  0.62297  0.53920  Biso   1.000  O
  O27      1.0000 0.50378  0.87169  0.46207  Biso   1.000  O
  O28      1.0000 0.49830  0.87716  0.96250  Biso   1.000  O
  O29      1.0000 0.74700  0.62846  0.46207  Biso   1.000  O
  O30      1.0000 0.75248  0.62299  0.96251  Biso   1.000  O
  O31      1.0000 0.74701  0.87169  0.03963  Biso   1.000  O
  O32      1.0000 0.75248  0.87717  0.53919  Biso   1.000  O
  Li1      1.0000 0.12541  0.25008  0.25058  Biso   1.000  Li
