data_image0
_cell_length_a       10.0694
_cell_length_b       10.0694
_cell_length_c       5.04261
_cell_angle_alpha    90.0012
_cell_angle_beta     90.0013
_cell_angle_gamma    89.9994

_symmetry_space_group_name_H-M    "P 1"
_symmetry_int_tables_number       1

loop_
  _symmetry_equiv_pos_as_xyz
  'x, y, z'

loop_
  _atom_site_label
  _atom_site_occupancy
  _atom_site_fract_x
  _atom_site_fract_y
  _atom_site_fract_z
  _atom_site_thermal_displace_type
  _atom_site_B_iso_or_equiv
  _atom_site_type_symbol
  Li1      1.0000 0.12490  0.99997  0.25064  Biso   1.000  Li
  Zr1      1.0000 0.12488  0.49995  0.25065  Biso   1.000  Zr
  Zr2      1.0000 0.62487  0.99996  0.25065  Biso   1.000  Zr
  Zr3      1.0000 0.62487  0.49995  0.25064  Biso   1.000  Zr
  Zr4      1.0000 0.12490  0.24498  0.75067  Biso   1.000  Zr
  Zr5      1.0000 0.12488  0.75493  0.75065  Biso   1.000  Zr
  Zr6      1.0000 0.62489  0.25016  0.75065  Biso   1.000  Zr
  Zr7      1.0000 0.62488  0.74974  0.75064  Biso   1.000  Zr
  Zr8      1.0000 0.37238  0.24745  0.25338  Biso   1.000  Zr
  Zr9      1.0000 0.37238  0.75245  0.24793  Biso   1.000  Zr
  Zr10     1.0000 0.87739  0.24746  0.24792  Biso   1.000  Zr
  Zr11     1.0000 0.87738  0.75246  0.25338  Biso   1.000  Zr
  Zr12     1.0000 0.36993  0.99996  0.75065  Biso   1.000  Zr
  Zr13     1.0000 0.37509  0.49995  0.75066  Biso   1.000  Zr
  Zr14     1.0000 0.87985  0.99996  0.75065  Biso   1.000  Zr
  Zr15     1.0000 0.87468  0.49995  0.75064  Biso   1.000  Zr
  O1       1.0000 0.99645  0.12837  0.00919  Biso   1.000  O
  O2       1.0000 0.99892  0.62437  0.02606  Biso   1.000  O
  O3       1.0000 0.50044  0.12591  0.02613  Biso   1.000  O
  O4       1.0000 0.49926  0.62556  0.02845  Biso   1.000  O
  O5       1.0000 0.99566  0.12920  0.52179  Biso   1.000  O
  O6       1.0000 0.00099  0.62334  0.52548  Biso   1.000  O
  O7       1.0000 0.50153  0.12384  0.52555  Biso   1.000  O
  O8       1.0000 0.50101  0.62383  0.52877  Biso   1.000  O
  O9       1.0000 0.99889  0.37554  0.47519  Biso   1.000  O
  O10      1.0000 0.99645  0.87153  0.49216  Biso   1.000  O
  O11      1.0000 0.49924  0.37435  0.47280  Biso   1.000  O
  O12      1.0000 0.50045  0.87400  0.47521  Biso   1.000  O
  O13      1.0000 0.00101  0.37656  0.97577  Biso   1.000  O
  O14      1.0000 0.99564  0.87070  0.97957  Biso   1.000  O
  O15      1.0000 0.50103  0.37608  0.97249  Biso   1.000  O
  O16      1.0000 0.50151  0.87605  0.97579  Biso   1.000  O
  O17      1.0000 0.25333  0.12837  0.49211  Biso   1.000  O
  O18      1.0000 0.25085  0.62438  0.47521  Biso   1.000  O
  O19      1.0000 0.74934  0.12589  0.47518  Biso   1.000  O
  O20      1.0000 0.75050  0.62555  0.47286  Biso   1.000  O
  O21      1.0000 0.25412  0.12919  0.97951  Biso   1.000  O
  O22      1.0000 0.24877  0.62332  0.97579  Biso   1.000  O
  O23      1.0000 0.74825  0.12385  0.97577  Biso   1.000  O
  O24      1.0000 0.74875  0.62384  0.97255  Biso   1.000  O
  O25      1.0000 0.25086  0.37552  0.02612  Biso   1.000  O
  O26      1.0000 0.25331  0.87152  0.00915  Biso   1.000  O
  O27      1.0000 0.75052  0.37436  0.02845  Biso   1.000  O
  O28      1.0000 0.74932  0.87401  0.02608  Biso   1.000  O
  O29      1.0000 0.24875  0.37658  0.52554  Biso   1.000  O
  O30      1.0000 0.25412  0.87071  0.52176  Biso   1.000  O
  O31      1.0000 0.74873  0.37607  0.52877  Biso   1.000  O
  O32      1.0000 0.74826  0.87604  0.52550  Biso   1.000  O
