data_image0
_cell_length_a       5.12114
_cell_length_b       10.3357
_cell_length_c       10.5739
_cell_angle_alpha    90.135
_cell_angle_beta     79.152
_cell_angle_gamma    90.3342

_symmetry_space_group_name_H-M    "P 1"
_symmetry_int_tables_number       1

loop_
  _symmetry_equiv_pos_as_xyz
  'x, y, z'

loop_
  _atom_site_label
  _atom_site_occupancy
  _atom_site_fract_x
  _atom_site_fract_y
  _atom_site_fract_z
  _atom_site_thermal_displace_type
  _atom_site_B_iso_or_equiv
  _atom_site_type_symbol
  Zr1      1.0000 0.27799  0.02249  0.14854  Biso   1.000  Zr
  Zr2      1.0000 0.29759  0.22896  0.40453  Biso   1.000  Zr
  Zr3      1.0000 0.69485  0.27695  0.09478  Biso   1.000  Zr
  Zr4      1.0000 0.71551  0.48019  0.35586  Biso   1.000  Zr
  O1       1.0000 0.05703  0.17239  0.08638  Biso   1.000  O
  O2       1.0000 0.07495  0.08500  0.33073  Biso   1.000  O
  O3       1.0000 0.92529  0.40931  0.17734  Biso   1.000  O
  O4       1.0000 0.92892  0.32507  0.41733  Biso   1.000  O
  O5       1.0000 0.57352  0.13497  0.24592  Biso   1.000  O
  O6       1.0000 0.56178  0.11880  0.49573  Biso   1.000  O
  O7       1.0000 0.42597  0.38268  0.00657  Biso   1.000  O
  O8       1.0000 0.43582  0.37293  0.26083  Biso   1.000  O
  Zr5      1.0000 0.27643  0.02060  0.64974  Biso   1.000  Zr
  Zr6      1.0000 0.26585  0.22908  0.89750  Biso   1.000  Zr
  Zr7      1.0000 0.72404  0.27037  0.60778  Biso   1.000  Zr
  Zr8      1.0000 0.71194  0.48169  0.85335  Biso   1.000  Zr
  O9       1.0000 0.07457  0.16923  0.58335  Biso   1.000  O
  O10      1.0000 0.06010  0.08269  0.83237  Biso   1.000  O
  O11      1.0000 0.92784  0.41942  0.66994  Biso   1.000  O
  O12      1.0000 0.91776  0.33380  0.91926  Biso   1.000  O
  O13      1.0000 0.54726  0.12886  0.74421  Biso   1.000  O
  O14      1.0000 0.54000  0.12209  0.99242  Biso   1.000  O
  O15      1.0000 0.45238  0.37910  0.51170  Biso   1.000  O
  O16      1.0000 0.44204  0.37116  0.75959  Biso   1.000  O
  Zr9      1.0000 0.26863  0.52284  0.14866  Biso   1.000  Zr
  Zr10     1.0000 0.27502  0.72801  0.39887  Biso   1.000  Zr
  Zr11     1.0000 0.71655  0.77279  0.10625  Biso   1.000  Zr
  Zr12     1.0000 0.72001  0.97438  0.35710  Biso   1.000  Zr
  O17      1.0000 0.05827  0.66566  0.08121  Biso   1.000  O
  O18      1.0000 0.06055  0.58302  0.33168  Biso   1.000  O
  O19      1.0000 0.93128  0.91808  0.17324  Biso   1.000  O
  O20      1.0000 0.93184  0.83348  0.42402  Biso   1.000  O
  O21      1.0000 0.54603  0.62829  0.24282  Biso   1.000  O
  O22      1.0000 0.54887  0.62237  0.49297  Biso   1.000  O
  O23      1.0000 0.44200  0.87868  0.01247  Biso   1.000  O
  O24      1.0000 0.44383  0.87301  0.26181  Biso   1.000  O
  Zr13     1.0000 0.27462  0.52302  0.64775  Biso   1.000  Zr
  Zr14     1.0000 0.27085  0.72845  0.89876  Biso   1.000  Zr
  Zr15     1.0000 0.71918  0.77224  0.60678  Biso   1.000  Zr
  Zr16     1.0000 0.71526  0.97746  0.85695  Biso   1.000  Zr
  O25      1.0000 0.06439  0.66776  0.58098  Biso   1.000  O
  O26      1.0000 0.06232  0.58352  0.82972  Biso   1.000  O
  O27      1.0000 0.92736  0.91784  0.67424  Biso   1.000  O
  O28      1.0000 0.92689  0.83336  0.92412  Biso   1.000  O
  O29      1.0000 0.54743  0.62936  0.74277  Biso   1.000  O
  O30      1.0000 0.54484  0.62342  0.99265  Biso   1.000  O
  O31      1.0000 0.44569  0.87747  0.51249  Biso   1.000  O
  O32      1.0000 0.44208  0.87167  0.76232  Biso   1.000  O
  Li1      1.0000 0.92942  0.22608  0.26863  Biso   1.000  Li
