data_image0
_cell_length_a       10.2385
_cell_length_b       10.3215
_cell_length_c       10.5036
_cell_angle_alpha    89.9956
_cell_angle_beta     80.0347
_cell_angle_gamma    89.995

_symmetry_space_group_name_H-M    "P 1"
_symmetry_int_tables_number       1

loop_
  _symmetry_equiv_pos_as_xyz
  'x, y, z'

loop_
  _atom_site_label
  _atom_site_occupancy
  _atom_site_fract_x
  _atom_site_fract_y
  _atom_site_fract_z
  _atom_site_thermal_displace_type
  _atom_site_B_iso_or_equiv
  _atom_site_type_symbol
  Li1      1.0000 0.12483  0.00895  0.14635  Biso   1.000  Li
  Zr1      1.0000 0.13963  0.02067  0.64491  Biso   1.000  Zr
  Zr2      1.0000 0.14023  0.52135  0.14468  Biso   1.000  Zr
  Zr3      1.0000 0.14009  0.52155  0.64647  Biso   1.000  Zr
  Zr4      1.0000 0.63917  0.02119  0.14583  Biso   1.000  Zr
  Zr5      1.0000 0.63932  0.02085  0.64520  Biso   1.000  Zr
  Zr6      1.0000 0.63820  0.52033  0.14506  Biso   1.000  Zr
  Zr7      1.0000 0.63868  0.52143  0.64564  Biso   1.000  Zr
  Zr8      1.0000 0.14129  0.22742  0.39212  Biso   1.000  Zr
  Zr9      1.0000 0.13982  0.22471  0.90067  Biso   1.000  Zr
  Zr10     1.0000 0.14155  0.72892  0.39344  Biso   1.000  Zr
  Zr11     1.0000 0.14197  0.73288  0.89677  Biso   1.000  Zr
  Zr12     1.0000 0.63852  0.22817  0.39501  Biso   1.000  Zr
  Zr13     1.0000 0.63933  0.22949  0.89606  Biso   1.000  Zr
  Zr14     1.0000 0.63808  0.73006  0.39524  Biso   1.000  Zr
  Zr15     1.0000 0.63908  0.72860  0.89685  Biso   1.000  Zr
  Zr16     1.0000 0.35577  0.26519  0.10589  Biso   1.000  Zr
  Zr17     1.0000 0.35936  0.27065  0.60522  Biso   1.000  Zr
  Zr18     1.0000 0.35625  0.77562  0.10437  Biso   1.000  Zr
  Zr19     1.0000 0.36078  0.77260  0.60368  Biso   1.000  Zr
  Zr20     1.0000 0.86452  0.26826  0.10384  Biso   1.000  Zr
  Zr21     1.0000 0.85969  0.27162  0.60323  Biso   1.000  Zr
  Zr22     1.0000 0.86120  0.77366  0.10596  Biso   1.000  Zr
  Zr23     1.0000 0.86068  0.77054  0.60395  Biso   1.000  Zr
  Zr24     1.0000 0.36028  0.47809  0.35343  Biso   1.000  Zr
  Zr25     1.0000 0.35981  0.47801  0.85541  Biso   1.000  Zr
  Zr26     1.0000 0.35537  0.97962  0.35062  Biso   1.000  Zr
  Zr27     1.0000 0.35884  0.97958  0.85745  Biso   1.000  Zr
  Zr28     1.0000 0.85996  0.47944  0.35392  Biso   1.000  Zr
  Zr29     1.0000 0.86139  0.47894  0.85515  Biso   1.000  Zr
  Zr30     1.0000 0.86496  0.97869  0.35064  Biso   1.000  Zr
  Zr31     1.0000 0.85979  0.97871  0.85425  Biso   1.000  Zr
  O1       1.0000 0.03562  0.16996  0.07951  Biso   1.000  O
  O2       1.0000 0.03283  0.16693  0.57879  Biso   1.000  O
  O3       1.0000 0.03420  0.66762  0.07920  Biso   1.000  O
  O4       1.0000 0.03406  0.66631  0.58002  Biso   1.000  O
  O5       1.0000 0.53510  0.16728  0.07895  Biso   1.000  O
  O6       1.0000 0.53316  0.16644  0.57954  Biso   1.000  O
  O7       1.0000 0.53214  0.66535  0.07859  Biso   1.000  O
  O8       1.0000 0.53351  0.66690  0.57926  Biso   1.000  O
  O9       1.0000 0.03085  0.08563  0.33953  Biso   1.000  O
  O10      1.0000 0.03236  0.08367  0.82754  Biso   1.000  O
  O11      1.0000 0.03306  0.58422  0.32823  Biso   1.000  O
  O12      1.0000 0.03439  0.58319  0.83005  Biso   1.000  O
  O13      1.0000 0.53305  0.08345  0.32882  Biso   1.000  O
  O14      1.0000 0.53602  0.08332  0.82900  Biso   1.000  O
  O15      1.0000 0.53324  0.58307  0.32891  Biso   1.000  O
  O16      1.0000 0.53296  0.58443  0.82848  Biso   1.000  O
  O17      1.0000 0.46618  0.41384  0.17165  Biso   1.000  O
  O18      1.0000 0.46599  0.41641  0.67138  Biso   1.000  O
  O19      1.0000 0.46833  0.91606  0.17064  Biso   1.000  O
  O20      1.0000 0.46660  0.91607  0.67240  Biso   1.000  O
  O21      1.0000 0.96552  0.41843  0.17002  Biso   1.000  O
  O22      1.0000 0.96682  0.41629  0.67074  Biso   1.000  O
  O23      1.0000 0.96169  0.91558  0.17209  Biso   1.000  O
  O24      1.0000 0.96549  0.91701  0.66988  Biso   1.000  O
  O25      1.0000 0.46586  0.33342  0.42202  Biso   1.000  O
  O26      1.0000 0.46820  0.33609  0.92172  Biso   1.000  O
  O27      1.0000 0.46587  0.83449  0.42174  Biso   1.000  O
  O28      1.0000 0.47138  0.83761  0.92265  Biso   1.000  O
  O29      1.0000 0.96585  0.33542  0.42069  Biso   1.000  O
  O30      1.0000 0.96685  0.33341  0.91999  Biso   1.000  O
  O31      1.0000 0.96654  0.83147  0.42070  Biso   1.000  O
  O32      1.0000 0.96566  0.83315  0.91961  Biso   1.000  O
  O33      1.0000 0.28369  0.13358  0.24843  Biso   1.000  O
  O34      1.0000 0.27436  0.12709  0.73995  Biso   1.000  O
  O35      1.0000 0.27582  0.62532  0.23934  Biso   1.000  O
  O36      1.0000 0.27581  0.62958  0.74088  Biso   1.000  O
  O37      1.0000 0.77456  0.12821  0.24077  Biso   1.000  O
  O38      1.0000 0.77594  0.12873  0.73987  Biso   1.000  O
  O39      1.0000 0.77438  0.62881  0.24053  Biso   1.000  O
  O40      1.0000 0.77531  0.62804  0.74031  Biso   1.000  O
  O41      1.0000 0.27441  0.12142  0.49324  Biso   1.000  O
  O42      1.0000 0.28828  0.13015  0.98143  Biso   1.000  O
  O43      1.0000 0.27589  0.62157  0.49045  Biso   1.000  O
  O44      1.0000 0.27586  0.62064  0.99048  Biso   1.000  O
  O45      1.0000 0.77416  0.12241  0.49045  Biso   1.000  O
  O46      1.0000 0.77591  0.12137  0.99002  Biso   1.000  O
  O47      1.0000 0.77469  0.62168  0.49063  Biso   1.000  O
  O48      1.0000 0.77476  0.62068  0.99035  Biso   1.000  O
  O49      1.0000 0.22416  0.37917  0.00964  Biso   1.000  O
  O50      1.0000 0.22466  0.37885  0.50968  Biso   1.000  O
  O51      1.0000 0.22971  0.87470  0.00237  Biso   1.000  O
  O52      1.0000 0.22346  0.87843  0.50951  Biso   1.000  O
  O53      1.0000 0.72549  0.37826  0.00909  Biso   1.000  O
  O54      1.0000 0.72358  0.37903  0.50945  Biso   1.000  O
  O55      1.0000 0.72503  0.87862  0.00913  Biso   1.000  O
  O56      1.0000 0.72557  0.87842  0.50892  Biso   1.000  O
  O57      1.0000 0.22225  0.37305  0.25863  Biso   1.000  O
  O58      1.0000 0.22491  0.37080  0.76030  Biso   1.000  O
  O59      1.0000 0.23024  0.86464  0.26212  Biso   1.000  O
  O60      1.0000 0.22407  0.87268  0.75673  Biso   1.000  O
  O61      1.0000 0.72477  0.37129  0.25991  Biso   1.000  O
  O62      1.0000 0.72505  0.37191  0.75878  Biso   1.000  O
  O63      1.0000 0.72024  0.87149  0.26000  Biso   1.000  O
  O64      1.0000 0.72517  0.87109  0.75895  Biso   1.000  O
