data_image0
_cell_length_a       10.0893
_cell_length_b       10.2267
_cell_length_c       10.0892
_cell_angle_alpha    89.9997
_cell_angle_beta     90.0009
_cell_angle_gamma    89.9999

_symmetry_space_group_name_H-M    "P 1"
_symmetry_int_tables_number       1

loop_
  _symmetry_equiv_pos_as_xyz
  'x, y, z'

loop_
  _atom_site_label
  _atom_site_occupancy
  _atom_site_fract_x
  _atom_site_fract_y
  _atom_site_fract_z
  _atom_site_thermal_displace_type
  _atom_site_B_iso_or_equiv
  _atom_site_type_symbol
  Zr1      1.0000 0.12564  0.99339  0.12565  Biso   1.000  Zr
  Zr2      1.0000 0.12565  0.25028  0.38605  Biso   1.000  Zr
  Zr3      1.0000 0.38604  0.25028  0.12566  Biso   1.000  Zr
  Zr4      1.0000 0.37618  0.99969  0.37619  Biso   1.000  Zr
  O1       1.0000 0.01159  0.15480  0.01161  Biso   1.000  O
  O2       1.0000 0.99742  0.09951  0.25386  Biso   1.000  O
  O3       1.0000 0.01163  0.34572  0.23966  Biso   1.000  O
  O4       1.0000 0.99741  0.40101  0.99742  Biso   1.000  O
  O5       1.0000 0.23967  0.15480  0.23968  Biso   1.000  O
  O6       1.0000 0.25385  0.09951  0.99743  Biso   1.000  O
  O7       1.0000 0.23965  0.34572  0.01164  Biso   1.000  O
  O8       1.0000 0.25387  0.40101  0.25388  Biso   1.000  O
  Zr5      1.0000 0.12564  0.99896  0.62565  Biso   1.000  Zr
  Zr6      1.0000 0.12563  0.25027  0.86524  Biso   1.000  Zr
  Zr7      1.0000 0.37873  0.25027  0.62565  Biso   1.000  Zr
  Zr8      1.0000 0.37571  0.99933  0.87558  Biso   1.000  Zr
  O9       1.0000 0.00110  0.14476  0.50728  Biso   1.000  O
  O10      1.0000 0.00203  0.10507  0.75661  Biso   1.000  O
  O11      1.0000 0.00110  0.35580  0.74399  Biso   1.000  O
  O12      1.0000 0.00204  0.39548  0.49467  Biso   1.000  O
  O13      1.0000 0.25018  0.14476  0.74401  Biso   1.000  O
  O14      1.0000 0.24925  0.10507  0.49468  Biso   1.000  O
  O15      1.0000 0.25018  0.35580  0.50731  Biso   1.000  O
  O16      1.0000 0.24924  0.39549  0.75663  Biso   1.000  O
  Zr9      1.0000 0.12564  0.50712  0.12565  Biso   1.000  Zr
  Zr10     1.0000 0.12564  0.75027  0.37733  Biso   1.000  Zr
  Zr11     1.0000 0.37732  0.75027  0.12565  Biso   1.000  Zr
  Zr12     1.0000 0.37572  0.50123  0.37573  Biso   1.000  Zr
  O17      1.0000 0.00323  0.64957  0.00324  Biso   1.000  O
  O18      1.0000 0.99829  0.60272  0.25300  Biso   1.000  O
  O19      1.0000 0.00322  0.85096  0.24807  Biso   1.000  O
  O20      1.0000 0.99829  0.89780  0.99830  Biso   1.000  O
  O21      1.0000 0.24805  0.64957  0.24806  Biso   1.000  O
  O22      1.0000 0.25299  0.60272  0.99830  Biso   1.000  O
  O23      1.0000 0.24806  0.85096  0.00323  Biso   1.000  O
  O24      1.0000 0.25298  0.89780  0.25300  Biso   1.000  O
  Zr13     1.0000 0.12564  0.50159  0.62565  Biso   1.000  Zr
  Zr14     1.0000 0.12564  0.75027  0.87397  Biso   1.000  Zr
  Zr15     1.0000 0.37553  0.75028  0.62565  Biso   1.000  Zr
  Zr16     1.0000 0.37619  0.50087  0.87509  Biso   1.000  Zr
  O25      1.0000 0.00256  0.64524  0.50358  Biso   1.000  O
  O26      1.0000 0.99962  0.60536  0.75234  Biso   1.000  O
  O27      1.0000 0.00257  0.85532  0.74773  Biso   1.000  O
  O28      1.0000 0.99961  0.89519  0.49896  Biso   1.000  O
  O29      1.0000 0.24872  0.64524  0.74772  Biso   1.000  O
  O30      1.0000 0.25166  0.60536  0.49896  Biso   1.000  O
  O31      1.0000 0.24871  0.85532  0.50358  Biso   1.000  O
  O32      1.0000 0.25167  0.89519  0.75234  Biso   1.000  O
  Zr17     1.0000 0.62564  0.99896  0.12565  Biso   1.000  Zr
  Zr18     1.0000 0.62564  0.25027  0.37874  Biso   1.000  Zr
  Zr19     1.0000 0.86523  0.25027  0.12564  Biso   1.000  Zr
  Zr20     1.0000 0.87557  0.99933  0.37572  Biso   1.000  Zr
  O33      1.0000 0.50727  0.14476  0.00111  Biso   1.000  O
  O34      1.0000 0.49467  0.10507  0.24926  Biso   1.000  O
  O35      1.0000 0.50730  0.35580  0.25019  Biso   1.000  O
  O36      1.0000 0.49466  0.39548  0.00205  Biso   1.000  O
  O37      1.0000 0.74400  0.14476  0.25019  Biso   1.000  O
  O38      1.0000 0.75660  0.10507  0.00204  Biso   1.000  O
  O39      1.0000 0.74398  0.35580  0.00111  Biso   1.000  O
  O40      1.0000 0.75662  0.39548  0.24925  Biso   1.000  O
  Zr21     1.0000 0.62564  0.99866  0.62565  Biso   1.000  Zr
  Zr22     1.0000 0.62563  0.25027  0.87256  Biso   1.000  Zr
  Zr23     1.0000 0.87255  0.25027  0.62564  Biso   1.000  Zr
  Zr24     1.0000 0.87510  0.99969  0.87511  Biso   1.000  Zr
  O41      1.0000 0.50096  0.14527  0.50097  Biso   1.000  O
  O42      1.0000 0.50029  0.10471  0.75100  Biso   1.000  O
  O43      1.0000 0.50095  0.35529  0.75033  Biso   1.000  O
  O44      1.0000 0.50029  0.39584  0.50031  Biso   1.000  O
  O45      1.0000 0.75032  0.14527  0.75033  Biso   1.000  O
  O46      1.0000 0.75099  0.10471  0.50030  Biso   1.000  O
  O47      1.0000 0.75032  0.35529  0.50096  Biso   1.000  O
  O48      1.0000 0.75098  0.39584  0.75099  Biso   1.000  O
  Zr25     1.0000 0.62564  0.50159  0.12565  Biso   1.000  Zr
  Zr26     1.0000 0.62564  0.75028  0.37555  Biso   1.000  Zr
  Zr27     1.0000 0.87396  0.75027  0.12565  Biso   1.000  Zr
  Zr28     1.0000 0.87508  0.50087  0.37621  Biso   1.000  Zr
  O49      1.0000 0.50357  0.64524  0.00257  Biso   1.000  O
  O50      1.0000 0.49895  0.60536  0.25167  Biso   1.000  O
  O51      1.0000 0.50356  0.85532  0.24872  Biso   1.000  O
  O52      1.0000 0.49895  0.89519  0.99962  Biso   1.000  O
  O53      1.0000 0.74771  0.64524  0.24873  Biso   1.000  O
  O54      1.0000 0.75233  0.60536  0.99963  Biso   1.000  O
  O55      1.0000 0.74771  0.85532  0.00258  Biso   1.000  O
  O56      1.0000 0.75233  0.89519  0.25168  Biso   1.000  O
  Zr29     1.0000 0.62564  0.50190  0.62565  Biso   1.000  Zr
  Zr30     1.0000 0.62564  0.75028  0.87576  Biso   1.000  Zr
  Zr31     1.0000 0.87574  0.75028  0.62566  Biso   1.000  Zr
  Zr32     1.0000 0.87556  0.50122  0.87557  Biso   1.000  Zr
  O57      1.0000 0.50346  0.64692  0.50347  Biso   1.000  O
  O58      1.0000 0.49887  0.60410  0.75242  Biso   1.000  O
  O59      1.0000 0.50347  0.85363  0.74782  Biso   1.000  O
  O60      1.0000 0.49887  0.89645  0.49888  Biso   1.000  O
  O61      1.0000 0.74781  0.64692  0.74783  Biso   1.000  O
  O62      1.0000 0.75240  0.60410  0.49888  Biso   1.000  O
  O63      1.0000 0.74781  0.85363  0.50348  Biso   1.000  O
  O64      1.0000 0.75241  0.89645  0.75242  Biso   1.000  O
  Li1      1.0000 0.12563  0.25024  0.12564  Biso   1.000  Li
