data_image0
_cell_length_a       10.1111
_cell_length_b       10.2836
_cell_length_c       5.29886
_cell_angle_alpha    89.8793
_cell_angle_beta     90.9534
_cell_angle_gamma    90.3167

_symmetry_space_group_name_H-M    "P 1"
_symmetry_int_tables_number       1

loop_
  _symmetry_equiv_pos_as_xyz
  'x, y, z'

loop_
  _atom_site_label
  _atom_site_occupancy
  _atom_site_fract_x
  _atom_site_fract_y
  _atom_site_fract_z
  _atom_site_thermal_displace_type
  _atom_site_B_iso_or_equiv
  _atom_site_type_symbol
  Zr1      1.0000 0.14109  0.02101  0.35003  Biso   1.000  Zr
  Zr2      1.0000 0.14023  0.22722  0.85586  Biso   1.000  Zr
  Zr3      1.0000 0.35442  0.27351  0.37272  Biso   1.000  Zr
  Zr4      1.0000 0.36060  0.48086  0.85473  Biso   1.000  Zr
  Zr5      1.0000 0.64484  0.01678  0.15064  Biso   1.000  Zr
  Zr6      1.0000 0.65042  0.22372  0.62917  Biso   1.000  Zr
  Zr7      1.0000 0.86400  0.27201  0.15486  Biso   1.000  Zr
  Zr8      1.0000 0.86330  0.47809  0.66110  Biso   1.000  Zr
  O1       1.0000 0.03477  0.16350  0.16956  Biso   1.000  O
  O2       1.0000 0.03455  0.08611  0.66608  Biso   1.000  O
  O3       1.0000 0.46980  0.41180  0.17370  Biso   1.000  O
  O4       1.0000 0.47105  0.33183  0.68488  Biso   1.000  O
  O5       1.0000 0.27797  0.12409  0.60411  Biso   1.000  O
  O6       1.0000 0.27967  0.12700  0.10457  Biso   1.000  O
  O7       1.0000 0.22233  0.37549  0.61290  Biso   1.000  O
  O8       1.0000 0.22397  0.37678  0.10871  Biso   1.000  O
  O9       1.0000 0.53399  0.16861  0.32179  Biso   1.000  O
  O10      1.0000 0.53344  0.09449  0.84421  Biso   1.000  O
  O11      1.0000 0.96982  0.41343  0.34328  Biso   1.000  O
  O12      1.0000 0.96755  0.33504  0.83995  Biso   1.000  O
  O13      1.0000 0.78083  0.12096  0.89771  Biso   1.000  O
  O14      1.0000 0.78265  0.12234  0.39251  Biso   1.000  O
  O15      1.0000 0.71575  0.36644  0.91168  Biso   1.000  O
  O16      1.0000 0.72663  0.37625  0.40757  Biso   1.000  O
  Zr9      1.0000 0.14004  0.52184  0.35121  Biso   1.000  Zr
  Zr10     1.0000 0.14095  0.72902  0.84894  Biso   1.000  Zr
  Zr11     1.0000 0.36339  0.77229  0.35234  Biso   1.000  Zr
  Zr12     1.0000 0.36369  0.97919  0.85325  Biso   1.000  Zr
  Zr13     1.0000 0.64192  0.52406  0.15893  Biso   1.000  Zr
  Zr14     1.0000 0.64061  0.72796  0.65789  Biso   1.000  Zr
  Zr15     1.0000 0.86518  0.76962  0.16078  Biso   1.000  Zr
  Zr16     1.0000 0.86534  0.97650  0.65800  Biso   1.000  Zr
  O17      1.0000 0.03485  0.66339  0.16839  Biso   1.000  O
  O18      1.0000 0.03349  0.58608  0.67071  Biso   1.000  O
  O19      1.0000 0.47324  0.91219  0.16612  Biso   1.000  O
  O20      1.0000 0.47294  0.84031  0.66685  Biso   1.000  O
  O21      1.0000 0.27699  0.62596  0.59987  Biso   1.000  O
  O22      1.0000 0.27798  0.62597  0.09814  Biso   1.000  O
  O23      1.0000 0.22723  0.87442  0.59964  Biso   1.000  O
  O24      1.0000 0.22746  0.87651  0.09968  Biso   1.000  O
  O25      1.0000 0.53219  0.66207  0.34309  Biso   1.000  O
  O26      1.0000 0.53201  0.58782  0.84309  Biso   1.000  O
  O27      1.0000 0.97173  0.91195  0.33880  Biso   1.000  O
  O28      1.0000 0.97028  0.83512  0.84041  Biso   1.000  O
  O29      1.0000 0.77777  0.62167  0.90865  Biso   1.000  O
  O30      1.0000 0.77833  0.62565  0.41130  Biso   1.000  O
  O31      1.0000 0.72738  0.87242  0.91125  Biso   1.000  O
  O32      1.0000 0.72844  0.87303  0.40975  Biso   1.000  O
  Li1      1.0000 0.53164  0.26777  0.02116  Biso   1.000  Li
