data_image0
_cell_length_a       10.165
_cell_length_b       10.2713
_cell_length_c       5.23827
_cell_angle_alpha    89.911
_cell_angle_beta     89.8561
_cell_angle_gamma    89.8691

_symmetry_space_group_name_H-M    "P 1"
_symmetry_int_tables_number       1

loop_
  _symmetry_equiv_pos_as_xyz
  'x, y, z'

loop_
  _atom_site_label
  _atom_site_occupancy
  _atom_site_fract_x
  _atom_site_fract_y
  _atom_site_fract_z
  _atom_site_thermal_displace_type
  _atom_site_B_iso_or_equiv
  _atom_site_type_symbol
  Li1      1.0000 0.12805  0.99880  0.33639  Biso   1.000  Li
  Zr1      1.0000 0.14062  0.52205  0.34666  Biso   1.000  Zr
  Zr2      1.0000 0.14319  0.22701  0.84867  Biso   1.000  Zr
  Zr3      1.0000 0.14392  0.73403  0.84378  Biso   1.000  Zr
  Zr4      1.0000 0.35635  0.26673  0.34705  Biso   1.000  Zr
  Zr5      1.0000 0.35679  0.77647  0.34351  Biso   1.000  Zr
  Zr6      1.0000 0.35977  0.47883  0.84668  Biso   1.000  Zr
  Zr7      1.0000 0.35476  0.97899  0.84321  Biso   1.000  Zr
  Zr8      1.0000 0.63840  0.02098  0.15189  Biso   1.000  Zr
  Zr9      1.0000 0.63770  0.52075  0.15713  Biso   1.000  Zr
  Zr10     1.0000 0.63884  0.22906  0.65502  Biso   1.000  Zr
  Zr11     1.0000 0.63803  0.73033  0.65365  Biso   1.000  Zr
  Zr12     1.0000 0.86201  0.26884  0.15375  Biso   1.000  Zr
  Zr13     1.0000 0.86110  0.77188  0.15706  Biso   1.000  Zr
  Zr14     1.0000 0.86085  0.48009  0.65751  Biso   1.000  Zr
  Zr15     1.0000 0.86262  0.97871  0.64822  Biso   1.000  Zr
  O1       1.0000 0.02908  0.15548  0.15377  Biso   1.000  O
  O2       1.0000 0.02894  0.65868  0.15974  Biso   1.000  O
  O3       1.0000 0.02226  0.09733  0.68173  Biso   1.000  O
  O4       1.0000 0.02872  0.59231  0.65968  Biso   1.000  O
  O5       1.0000 0.46842  0.41177  0.16681  Biso   1.000  O
  O6       1.0000 0.47157  0.91201  0.16094  Biso   1.000  O
  O7       1.0000 0.46995  0.33816  0.66621  Biso   1.000  O
  O8       1.0000 0.47168  0.84099  0.66010  Biso   1.000  O
  O9       1.0000 0.27918  0.12884  0.60498  Biso   1.000  O
  O10      1.0000 0.27545  0.62349  0.59302  Biso   1.000  O
  O11      1.0000 0.28710  0.13445  0.07873  Biso   1.000  O
  O12      1.0000 0.27455  0.62478  0.09467  Biso   1.000  O
  O13      1.0000 0.22521  0.37615  0.59649  Biso   1.000  O
  O14      1.0000 0.22818  0.87176  0.59343  Biso   1.000  O
  O15      1.0000 0.22366  0.37746  0.09730  Biso   1.000  O
  O16      1.0000 0.23127  0.87140  0.08371  Biso   1.000  O
  O17      1.0000 0.53218  0.16428  0.33281  Biso   1.000  O
  O18      1.0000 0.52981  0.66250  0.33529  Biso   1.000  O
  O19      1.0000 0.53187  0.08612  0.83000  Biso   1.000  O
  O20      1.0000 0.52971  0.58774  0.83560  Biso   1.000  O
  O21      1.0000 0.97251  0.40720  0.34395  Biso   1.000  O
  O22      1.0000 0.96669  0.90599  0.34493  Biso   1.000  O
  O23      1.0000 0.97225  0.34491  0.84529  Biso   1.000  O
  O24      1.0000 0.97138  0.84072  0.84195  Biso   1.000  O
  O25      1.0000 0.77349  0.12588  0.90665  Biso   1.000  O
  O26      1.0000 0.77286  0.62400  0.90701  Biso   1.000  O
  O27      1.0000 0.77395  0.12543  0.40595  Biso   1.000  O
  O28      1.0000 0.77411  0.62561  0.40718  Biso   1.000  O
  O29      1.0000 0.72549  0.37431  0.90722  Biso   1.000  O
  O30      1.0000 0.72715  0.87460  0.90344  Biso   1.000  O
  O31      1.0000 0.72692  0.37635  0.40731  Biso   1.000  O
  O32      1.0000 0.72146  0.87574  0.40394  Biso   1.000  O
