data_image0
_cell_length_a       10.2728
_cell_length_b       5.14705
_cell_length_c       10.5074
_cell_angle_alpha    90.0024
_cell_angle_beta     79.7666
_cell_angle_gamma    90.0075

_symmetry_space_group_name_H-M    "P 1"
_symmetry_int_tables_number       1

loop_
  _symmetry_equiv_pos_as_xyz
  'x, y, z'

loop_
  _atom_site_label
  _atom_site_occupancy
  _atom_site_fract_x
  _atom_site_fract_y
  _atom_site_fract_z
  _atom_site_thermal_displace_type
  _atom_site_B_iso_or_equiv
  _atom_site_type_symbol
  Li1      1.0000 0.12798  0.01919  0.14534  Biso   1.000  Li
  Zr1      1.0000 0.14051  0.04163  0.64599  Biso   1.000  Zr
  Zr2      1.0000 0.63797  0.04101  0.14528  Biso   1.000  Zr
  Zr3      1.0000 0.63860  0.04189  0.64538  Biso   1.000  Zr
  Zr4      1.0000 0.14321  0.45575  0.39087  Biso   1.000  Zr
  Zr5      1.0000 0.14231  0.45856  0.90111  Biso   1.000  Zr
  Zr6      1.0000 0.63773  0.45842  0.39498  Biso   1.000  Zr
  Zr7      1.0000 0.63870  0.45777  0.89689  Biso   1.000  Zr
  Zr8      1.0000 0.35254  0.54013  0.10549  Biso   1.000  Zr
  Zr9      1.0000 0.35972  0.54416  0.60442  Biso   1.000  Zr
  Zr10     1.0000 0.86377  0.54104  0.10464  Biso   1.000  Zr
  Zr11     1.0000 0.85962  0.54149  0.60309  Biso   1.000  Zr
  Zr12     1.0000 0.35603  0.95815  0.35013  Biso   1.000  Zr
  Zr13     1.0000 0.35765  0.95836  0.85829  Biso   1.000  Zr
  Zr14     1.0000 0.86336  0.95910  0.35063  Biso   1.000  Zr
  Zr15     1.0000 0.86011  0.95760  0.85453  Biso   1.000  Zr
  O1       1.0000 0.03281  0.32878  0.07678  Biso   1.000  O
  O2       1.0000 0.03124  0.32486  0.57629  Biso   1.000  O
  O3       1.0000 0.53275  0.32928  0.07781  Biso   1.000  O
  O4       1.0000 0.53185  0.32953  0.57841  Biso   1.000  O
  O5       1.0000 0.02454  0.19020  0.33260  Biso   1.000  O
  O6       1.0000 0.03054  0.17633  0.82652  Biso   1.000  O
  O7       1.0000 0.53183  0.16999  0.32753  Biso   1.000  O
  O8       1.0000 0.53432  0.16983  0.82787  Biso   1.000  O
  O9       1.0000 0.46953  0.82325  0.17210  Biso   1.000  O
  O10      1.0000 0.46726  0.82818  0.67380  Biso   1.000  O
  O11      1.0000 0.96795  0.81654  0.17687  Biso   1.000  O
  O12      1.0000 0.96811  0.82651  0.67222  Biso   1.000  O
  O13      1.0000 0.46711  0.67257  0.42343  Biso   1.000  O
  O14      1.0000 0.47170  0.67872  0.92372  Biso   1.000  O
  O15      1.0000 0.96993  0.67946  0.42426  Biso   1.000  O
  O16      1.0000 0.96837  0.67580  0.92246  Biso   1.000  O
  O17      1.0000 0.28135  0.25896  0.24600  Biso   1.000  O
  O18      1.0000 0.27421  0.25634  0.74048  Biso   1.000  O
  O19      1.0000 0.77347  0.25592  0.24013  Biso   1.000  O
  O20      1.0000 0.77523  0.25587  0.73960  Biso   1.000  O
  O21      1.0000 0.27465  0.24377  0.49250  Biso   1.000  O
  O22      1.0000 0.28677  0.25816  0.98252  Biso   1.000  O
  O23      1.0000 0.77317  0.24566  0.49046  Biso   1.000  O
  O24      1.0000 0.77502  0.24202  0.98964  Biso   1.000  O
  O25      1.0000 0.22899  0.75304  0.00435  Biso   1.000  O
  O26      1.0000 0.22434  0.75707  0.50979  Biso   1.000  O
  O27      1.0000 0.72599  0.75578  0.00875  Biso   1.000  O
  O28      1.0000 0.72550  0.75669  0.50880  Biso   1.000  O
  O29      1.0000 0.22878  0.73463  0.26107  Biso   1.000  O
  O30      1.0000 0.22442  0.74494  0.75802  Biso   1.000  O
  O31      1.0000 0.72268  0.74398  0.25962  Biso   1.000  O
  O32      1.0000 0.72574  0.74313  0.75851  Biso   1.000  O
