data_image0
_cell_length_a       10.0341
_cell_length_b       10.4878
_cell_length_c       5.05207
_cell_angle_alpha    89.7356
_cell_angle_beta     90.1641
_cell_angle_gamma    89.9417

_symmetry_space_group_name_H-M    "P 1"
_symmetry_int_tables_number       1

loop_
  _symmetry_equiv_pos_as_xyz
  'x, y, z'

loop_
  _atom_site_label
  _atom_site_occupancy
  _atom_site_fract_x
  _atom_site_fract_y
  _atom_site_fract_z
  _atom_site_thermal_displace_type
  _atom_site_B_iso_or_equiv
  _atom_site_type_symbol
  Zr1      1.0000 0.13272  0.01305  0.24504  Biso   1.000  Zr
  Zr2      1.0000 0.13685  0.22823  0.74393  Biso   1.000  Zr
  Zr3      1.0000 0.37071  0.26463  0.24777  Biso   1.000  Zr
  Zr4      1.0000 0.36475  0.48092  0.74954  Biso   1.000  Zr
  O1       1.0000 0.02751  0.17798  0.39329  Biso   1.000  O
  O2       1.0000 0.03751  0.06350  0.88626  Biso   1.000  O
  O3       1.0000 0.46389  0.43275  0.39137  Biso   1.000  O
  O4       1.0000 0.46642  0.31580  0.89233  Biso   1.000  O
  O5       1.0000 0.26882  0.11524  0.49045  Biso   1.000  O
  O6       1.0000 0.27471  0.13075  0.99151  Biso   1.000  O
  O7       1.0000 0.22615  0.38112  0.99935  Biso   1.000  O
  O8       1.0000 0.22641  0.36601  0.48726  Biso   1.000  O
  Zr5      1.0000 0.13875  0.53241  0.25146  Biso   1.000  Zr
  Zr6      1.0000 0.13553  0.73793  0.75245  Biso   1.000  Zr
  Zr7      1.0000 0.36971  0.76720  0.24994  Biso   1.000  Zr
  Zr8      1.0000 0.36680  0.98350  0.74802  Biso   1.000  Zr
  O9       1.0000 0.03413  0.68531  0.39801  Biso   1.000  O
  O10      1.0000 0.03657  0.56983  0.89226  Biso   1.000  O
  O11      1.0000 0.46581  0.93306  0.38788  Biso   1.000  O
  O12      1.0000 0.46730  0.81672  0.88830  Biso   1.000  O
  O13      1.0000 0.27448  0.62193  0.50334  Biso   1.000  O
  O14      1.0000 0.27269  0.63432  0.99756  Biso   1.000  O
  O15      1.0000 0.23266  0.88234  0.99715  Biso   1.000  O
  O16      1.0000 0.23146  0.86721  0.49593  Biso   1.000  O
  Zr9      1.0000 0.63419  0.01259  0.24743  Biso   1.000  Zr
  Zr10     1.0000 0.63259  0.23095  0.75016  Biso   1.000  Zr
  Zr11     1.0000 0.85238  0.26225  0.25362  Biso   1.000  Zr
  Zr12     1.0000 0.87173  0.47970  0.75100  Biso   1.000  Zr
  O17      1.0000 0.53648  0.18116  0.39054  Biso   1.000  O
  O18      1.0000 0.53581  0.06544  0.89027  Biso   1.000  O
  O19      1.0000 0.97041  0.42765  0.39187  Biso   1.000  O
  O20      1.0000 0.97256  0.31330  0.91432  Biso   1.000  O
  O21      1.0000 0.76749  0.11359  0.49877  Biso   1.000  O
  O22      1.0000 0.77093  0.12972  0.99531  Biso   1.000  O
  O23      1.0000 0.73087  0.38026  0.99944  Biso   1.000  O
  O24      1.0000 0.72904  0.36692  0.50206  Biso   1.000  O
  Zr13     1.0000 0.63470  0.51557  0.25067  Biso   1.000  Zr
  Zr14     1.0000 0.63485  0.73056  0.75144  Biso   1.000  Zr
  Zr15     1.0000 0.86351  0.76422  0.25102  Biso   1.000  Zr
  Zr16     1.0000 0.86743  0.98123  0.74925  Biso   1.000  Zr
  O25      1.0000 0.53830  0.68268  0.38741  Biso   1.000  O
  O26      1.0000 0.53394  0.56461  0.88951  Biso   1.000  O
  O27      1.0000 0.96514  0.93092  0.39148  Biso   1.000  O
  O28      1.0000 0.96681  0.81679  0.89715  Biso   1.000  O
  O29      1.0000 0.77212  0.61408  0.50077  Biso   1.000  O
  O30      1.0000 0.77078  0.62965  0.99860  Biso   1.000  O
  O31      1.0000 0.73119  0.87997  0.99813  Biso   1.000  O
  O32      1.0000 0.73067  0.86442  0.49924  Biso   1.000  O
  Li1      1.0000 0.09771  0.30910  0.22570  Biso   1.000  Li
