data_image0
_cell_length_a       10.0581
_cell_length_b       5.16267
_cell_length_c       10.4617
_cell_angle_alpha    89.6602
_cell_angle_beta     91.855
_cell_angle_gamma    90.4936

_symmetry_space_group_name_H-M    "P 1"
_symmetry_int_tables_number       1

loop_
  _symmetry_equiv_pos_as_xyz
  'x, y, z'

loop_
  _atom_site_label
  _atom_site_occupancy
  _atom_site_fract_x
  _atom_site_fract_y
  _atom_site_fract_z
  _atom_site_thermal_displace_type
  _atom_site_B_iso_or_equiv
  _atom_site_type_symbol
  Hf1      1.0000 0.13121  0.04084  0.17324  Biso   1.000  Hf
  Hf2      1.0000 0.13538  0.45222  0.42666  Biso   1.000  Hf
  Hf3      1.0000 0.34441  0.54486  0.18620  Biso   1.000  Hf
  Hf4      1.0000 0.35967  0.95519  0.42935  Biso   1.000  Hf
  Hf5      1.0000 0.64958  0.08836  0.06899  Biso   1.000  Hf
  Hf6      1.0000 0.63581  0.45955  0.33211  Biso   1.000  Hf
  Hf7      1.0000 0.85687  0.53533  0.07468  Biso   1.000  Hf
  Hf8      1.0000 0.85722  0.95291  0.32544  Biso   1.000  Hf
  O1       1.0000 0.03525  0.33596  0.08709  Biso   1.000  O
  O2       1.0000 0.03104  0.15864  0.33771  Biso   1.000  O
  O3       1.0000 0.46173  0.85451  0.09599  Biso   1.000  O
  O4       1.0000 0.46168  0.66282  0.34403  Biso   1.000  O
  O5       1.0000 0.26981  0.24850  0.30084  Biso   1.000  O
  O6       1.0000 0.27548  0.25159  0.04884  Biso   1.000  O
  O7       1.0000 0.21710  0.75014  0.30354  Biso   1.000  O
  O8       1.0000 0.22003  0.75352  0.05204  Biso   1.000  O
  O9       1.0000 0.52056  0.34595  0.16888  Biso   1.000  O
  O10      1.0000 0.53128  0.16365  0.41633  Biso   1.000  O
  O11      1.0000 0.95878  0.83605  0.16443  Biso   1.000  O
  O12      1.0000 0.96480  0.65968  0.41457  Biso   1.000  O
  O13      1.0000 0.77467  0.24553  0.45332  Biso   1.000  O
  O14      1.0000 0.77907  0.25951  0.20996  Biso   1.000  O
  O15      1.0000 0.72328  0.74724  0.45326  Biso   1.000  O
  O16      1.0000 0.71424  0.74978  0.19949  Biso   1.000  O
  Hf9      1.0000 0.14432  0.03650  0.67382  Biso   1.000  Hf
  Hf10     1.0000 0.13982  0.45585  0.92395  Biso   1.000  Hf
  Hf11     1.0000 0.36846  0.53603  0.68036  Biso   1.000  Hf
  Hf12     1.0000 0.36080  0.96329  0.92756  Biso   1.000  Hf
  Hf13     1.0000 0.64209  0.03735  0.57721  Biso   1.000  Hf
  Hf14     1.0000 0.65617  0.44098  0.82172  Biso   1.000  Hf
  Hf15     1.0000 0.86537  0.53739  0.57631  Biso   1.000  Hf
  Hf16     1.0000 0.87033  0.94811  0.82497  Biso   1.000  Hf
  O17      1.0000 0.03618  0.32747  0.58705  Biso   1.000  O
  O18      1.0000 0.04413  0.15595  0.83549  Biso   1.000  O
  O19      1.0000 0.46968  0.83246  0.59276  Biso   1.000  O
  O20      1.0000 0.47600  0.64724  0.85444  Biso   1.000  O
  O21      1.0000 0.28110  0.24904  0.79879  Biso   1.000  O
  O22      1.0000 0.27874  0.24762  0.55023  Biso   1.000  O
  O23      1.0000 0.23237  0.74602  0.80092  Biso   1.000  O
  O24      1.0000 0.22734  0.74356  0.55191  Biso   1.000  O
  O25      1.0000 0.53804  0.32947  0.66466  Biso   1.000  O
  O26      1.0000 0.53613  0.15470  0.90871  Biso   1.000  O
  O27      1.0000 0.97367  0.82564  0.66271  Biso   1.000  O
  O28      1.0000 0.97025  0.65919  0.91403  Biso   1.000  O
  O29      1.0000 0.80227  0.23368  0.94250  Biso   1.000  O
  O30      1.0000 0.78430  0.24020  0.69825  Biso   1.000  O
  O31      1.0000 0.72897  0.76550  0.94891  Biso   1.000  O
  O32      1.0000 0.73033  0.74112  0.70063  Biso   1.000  O
  Mg1      1.0000 0.57301  0.59394  0.04042  Biso   1.000  Mg
