data_image0
_cell_length_a       10.2175
_cell_length_b       5.16468
_cell_length_c       10.4842
_cell_angle_alpha    90.4937
_cell_angle_beta     78.6452
_cell_angle_gamma    90.6361

_symmetry_space_group_name_H-M    "P 1"
_symmetry_int_tables_number       1

loop_
  _symmetry_equiv_pos_as_xyz
  'x, y, z'

loop_
  _atom_site_label
  _atom_site_occupancy
  _atom_site_fract_x
  _atom_site_fract_y
  _atom_site_fract_z
  _atom_site_thermal_displace_type
  _atom_site_B_iso_or_equiv
  _atom_site_type_symbol
  Hf1      1.0000 0.13329  0.05669  0.14212  Biso   1.000  Hf
  Hf2      1.0000 0.14269  0.46376  0.39259  Biso   1.000  Hf
  Hf3      1.0000 0.34327  0.55965  0.09691  Biso   1.000  Hf
  Hf4      1.0000 0.34981  0.91488  0.34662  Biso   1.000  Hf
  O1       1.0000 0.02953  0.34946  0.07682  Biso   1.000  O
  O2       1.0000 0.03366  0.17237  0.32753  Biso   1.000  O
  O3       1.0000 0.46299  0.83997  0.16792  Biso   1.000  O
  O4       1.0000 0.47779  0.65233  0.42319  Biso   1.000  O
  O5       1.0000 0.27664  0.24137  0.23449  Biso   1.000  O
  O6       1.0000 0.28295  0.24346  0.48317  Biso   1.000  O
  O7       1.0000 0.21641  0.77281  0.00083  Biso   1.000  O
  O8       1.0000 0.19661  0.75284  0.24640  Biso   1.000  O
  Hf5      1.0000 0.14039  0.04739  0.64227  Biso   1.000  Hf
  Hf6      1.0000 0.13283  0.46331  0.89251  Biso   1.000  Hf
  Hf7      1.0000 0.36411  0.54054  0.60587  Biso   1.000  Hf
  Hf8      1.0000 0.35798  0.96274  0.85181  Biso   1.000  Hf
  O9       1.0000 0.03778  0.33806  0.57957  Biso   1.000  O
  O10      1.0000 0.03390  0.16437  0.82864  Biso   1.000  O
  O11      1.0000 0.46685  0.83728  0.67204  Biso   1.000  O
  O12      1.0000 0.46205  0.67077  0.92122  Biso   1.000  O
  O13      1.0000 0.27639  0.25668  0.73785  Biso   1.000  O
  O14      1.0000 0.27095  0.25600  0.98566  Biso   1.000  O
  O15      1.0000 0.22291  0.75217  0.51223  Biso   1.000  O
  O16      1.0000 0.22395  0.74306  0.75572  Biso   1.000  O
  Hf9      1.0000 0.63887  0.04043  0.15264  Biso   1.000  Hf
  Hf10     1.0000 0.65521  0.45486  0.40944  Biso   1.000  Hf
  Hf11     1.0000 0.85732  0.54733  0.10658  Biso   1.000  Hf
  Hf12     1.0000 0.86544  0.95522  0.35588  Biso   1.000  Hf
  O17      1.0000 0.52659  0.35257  0.09936  Biso   1.000  O
  O18      1.0000 0.53845  0.14628  0.33999  Biso   1.000  O
  O19      1.0000 0.95754  0.84964  0.16735  Biso   1.000  O
  O20      1.0000 0.96535  0.66812  0.42341  Biso   1.000  O
  O21      1.0000 0.77720  0.26106  0.24682  Biso   1.000  O
  O22      1.0000 0.78210  0.23536  0.49860  Biso   1.000  O
  O23      1.0000 0.72111  0.75930  0.01502  Biso   1.000  O
  O24      1.0000 0.72209  0.74192  0.26566  Biso   1.000  O
  Hf13     1.0000 0.64070  0.04343  0.65368  Biso   1.000  Hf
  Hf14     1.0000 0.63328  0.46282  0.90523  Biso   1.000  Hf
  Hf15     1.0000 0.86619  0.54458  0.60930  Biso   1.000  Hf
  Hf16     1.0000 0.85865  0.96139  0.85746  Biso   1.000  Hf
  O25      1.0000 0.53896  0.33659  0.58824  Biso   1.000  O
  O26      1.0000 0.53263  0.16610  0.83743  Biso   1.000  O
  O27      1.0000 0.96487  0.84236  0.67234  Biso   1.000  O
  O28      1.0000 0.95965  0.66469  0.91850  Biso   1.000  O
  O29      1.0000 0.77513  0.26238  0.74804  Biso   1.000  O
  O30      1.0000 0.76822  0.24427  0.99701  Biso   1.000  O
  O31      1.0000 0.72761  0.75401  0.51747  Biso   1.000  O
  O32      1.0000 0.72258  0.74377  0.76652  Biso   1.000  O
  Mg1      1.0000 0.42987  0.40951  0.29901  Biso   1.000  Mg
