data_image0
_cell_length_a       10.2221
_cell_length_b       10.2913
_cell_length_c       5.27562
_cell_angle_alpha    90.6361
_cell_angle_beta     78.4512
_cell_angle_gamma    90.938

_symmetry_space_group_name_H-M    "P 1"
_symmetry_int_tables_number       1

loop_
  _symmetry_equiv_pos_as_xyz
  'x, y, z'

loop_
  _atom_site_label
  _atom_site_occupancy
  _atom_site_fract_x
  _atom_site_fract_y
  _atom_site_fract_z
  _atom_site_thermal_displace_type
  _atom_site_B_iso_or_equiv
  _atom_site_type_symbol
  Hf1      1.0000 0.13772  0.02558  0.29112  Biso   1.000  Hf
  Hf2      1.0000 0.14263  0.23439  0.77444  Biso   1.000  Hf
  Hf3      1.0000 0.34071  0.27937  0.18324  Biso   1.000  Hf
  Hf4      1.0000 0.34837  0.47692  0.68824  Biso   1.000  Hf
  O1       1.0000 0.03816  0.17014  0.15263  Biso   1.000  O
  O2       1.0000 0.03598  0.08385  0.65333  Biso   1.000  O
  O3       1.0000 0.46462  0.41209  0.34237  Biso   1.000  O
  O4       1.0000 0.47586  0.33427  0.85007  Biso   1.000  O
  O5       1.0000 0.28455  0.12118  0.46633  Biso   1.000  O
  O6       1.0000 0.27860  0.12345  0.96419  Biso   1.000  O
  O7       1.0000 0.21297  0.38625  0.00236  Biso   1.000  O
  O8       1.0000 0.19800  0.37759  0.48486  Biso   1.000  O
  Hf5      1.0000 0.13517  0.52918  0.28713  Biso   1.000  Hf
  Hf6      1.0000 0.13491  0.72870  0.79678  Biso   1.000  Hf
  Hf7      1.0000 0.35979  0.77051  0.21054  Biso   1.000  Hf
  Hf8      1.0000 0.35725  0.96749  0.71499  Biso   1.000  Hf
  O9       1.0000 0.02633  0.66879  0.15521  Biso   1.000  O
  O10      1.0000 0.02993  0.58806  0.65621  Biso   1.000  O
  O11      1.0000 0.46908  0.91211  0.35599  Biso   1.000  O
  O12      1.0000 0.46646  0.83389  0.85205  Biso   1.000  O
  O13      1.0000 0.27437  0.62972  0.48335  Biso   1.000  O
  O14      1.0000 0.27144  0.62560  0.97904  Biso   1.000  O
  O15      1.0000 0.22264  0.87860  0.02539  Biso   1.000  O
  O16      1.0000 0.22228  0.86993  0.52270  Biso   1.000  O
  Hf9      1.0000 0.64323  0.01696  0.30802  Biso   1.000  Hf
  Hf10     1.0000 0.65187  0.23013  0.83287  Biso   1.000  Hf
  Hf11     1.0000 0.86673  0.27205  0.22046  Biso   1.000  Hf
  Hf12     1.0000 0.86072  0.47822  0.71557  Biso   1.000  Hf
  O17      1.0000 0.53376  0.17081  0.19320  Biso   1.000  O
  O18      1.0000 0.53378  0.08465  0.67734  Biso   1.000  O
  O19      1.0000 0.95841  0.42451  0.34410  Biso   1.000  O
  O20      1.0000 0.96317  0.33418  0.84511  Biso   1.000  O
  O21      1.0000 0.77786  0.12841  0.50190  Biso   1.000  O
  O22      1.0000 0.77884  0.11730  0.00261  Biso   1.000  O
  O23      1.0000 0.72725  0.37695  0.04208  Biso   1.000  O
  O24      1.0000 0.72042  0.36801  0.53935  Biso   1.000  O
  Hf13     1.0000 0.63601  0.52229  0.30423  Biso   1.000  Hf
  Hf14     1.0000 0.63519  0.72344  0.79993  Biso   1.000  Hf
  Hf15     1.0000 0.85752  0.77217  0.21206  Biso   1.000  Hf
  Hf16     1.0000 0.86302  0.97668  0.71332  Biso   1.000  Hf
  O25      1.0000 0.52903  0.66229  0.16093  Biso   1.000  O
  O26      1.0000 0.52776  0.58207  0.66037  Biso   1.000  O
  O27      1.0000 0.96455  0.91672  0.34745  Biso   1.000  O
  O28      1.0000 0.96473  0.83590  0.84904  Biso   1.000  O
  O29      1.0000 0.77276  0.62962  0.48849  Biso   1.000  O
  O30      1.0000 0.77128  0.62085  0.98700  Biso   1.000  O
  O31      1.0000 0.72191  0.87714  0.02755  Biso   1.000  O
  O32      1.0000 0.72176  0.87201  0.52930  Biso   1.000  O
  Mg1      1.0000 0.45192  0.22893  0.55513  Biso   1.000  Mg
