data_image0
_cell_length_a       10.0421
_cell_length_b       10.2464
_cell_length_c       10.4993
_cell_angle_alpha    89.8231
_cell_angle_beta     91.0846
_cell_angle_gamma    90.3037

_symmetry_space_group_name_H-M    "P 1"
_symmetry_int_tables_number       1

loop_
  _symmetry_equiv_pos_as_xyz
  'x, y, z'

loop_
  _atom_site_label
  _atom_site_occupancy
  _atom_site_fract_x
  _atom_site_fract_y
  _atom_site_fract_z
  _atom_site_thermal_displace_type
  _atom_site_B_iso_or_equiv
  _atom_site_type_symbol
  Hf1      1.0000 0.13609  0.02218  0.17267  Biso   1.000  Hf
  Hf2      1.0000 0.13697  0.22740  0.42798  Biso   1.000  Hf
  Hf3      1.0000 0.34367  0.27297  0.18863  Biso   1.000  Hf
  Hf4      1.0000 0.36024  0.48078  0.42781  Biso   1.000  Hf
  Hf5      1.0000 0.64783  0.02430  0.07196  Biso   1.000  Hf
  Hf6      1.0000 0.63547  0.22896  0.32876  Biso   1.000  Hf
  Hf7      1.0000 0.85054  0.26602  0.07369  Biso   1.000  Hf
  Hf8      1.0000 0.85983  0.47684  0.32610  Biso   1.000  Hf
  O1       1.0000 0.03247  0.16603  0.08434  Biso   1.000  O
  O2       1.0000 0.03281  0.08395  0.33537  Biso   1.000  O
  O3       1.0000 0.46568  0.41588  0.08879  Biso   1.000  O
  O4       1.0000 0.46276  0.33580  0.33981  Biso   1.000  O
  O5       1.0000 0.27136  0.12501  0.30202  Biso   1.000  O
  O6       1.0000 0.27706  0.12910  0.04906  Biso   1.000  O
  O7       1.0000 0.21596  0.37639  0.30418  Biso   1.000  O
  O8       1.0000 0.22110  0.37868  0.05135  Biso   1.000  O
  O9       1.0000 0.51823  0.16597  0.17163  Biso   1.000  O
  O10      1.0000 0.53110  0.08557  0.41773  Biso   1.000  O
  O11      1.0000 0.95999  0.41507  0.16571  Biso   1.000  O
  O12      1.0000 0.96716  0.33490  0.41747  Biso   1.000  O
  O13      1.0000 0.77512  0.12445  0.45251  Biso   1.000  O
  O14      1.0000 0.77619  0.12637  0.20806  Biso   1.000  O
  O15      1.0000 0.72284  0.37394  0.45279  Biso   1.000  O
  O16      1.0000 0.71429  0.37744  0.20185  Biso   1.000  O
  Hf9      1.0000 0.14255  0.02040  0.67390  Biso   1.000  Hf
  Hf10     1.0000 0.13614  0.22800  0.92441  Biso   1.000  Hf
  Hf11     1.0000 0.36705  0.26871  0.67878  Biso   1.000  Hf
  Hf12     1.0000 0.35841  0.48256  0.92480  Biso   1.000  Hf
  Hf13     1.0000 0.64150  0.01918  0.57580  Biso   1.000  Hf
  Hf14     1.0000 0.66202  0.22051  0.81735  Biso   1.000  Hf
  Hf15     1.0000 0.86405  0.27206  0.57570  Biso   1.000  Hf
  Hf16     1.0000 0.86508  0.48055  0.82825  Biso   1.000  Hf
  O17      1.0000 0.03433  0.16426  0.58526  Biso   1.000  O
  O18      1.0000 0.03967  0.08113  0.83278  Biso   1.000  O
  O19      1.0000 0.46975  0.41519  0.58956  Biso   1.000  O
  O20      1.0000 0.47417  0.32781  0.84746  Biso   1.000  O
  O21      1.0000 0.27970  0.12458  0.79877  Biso   1.000  O
  O22      1.0000 0.27941  0.12525  0.54981  Biso   1.000  O
  O23      1.0000 0.22917  0.37400  0.80025  Biso   1.000  O
  O24      1.0000 0.22636  0.37443  0.55193  Biso   1.000  O
  O25      1.0000 0.53800  0.16234  0.66776  Biso   1.000  O
  O26      1.0000 0.53426  0.08488  0.91514  Biso   1.000  O
  O27      1.0000 0.96989  0.41501  0.66741  Biso   1.000  O
  O28      1.0000 0.96603  0.33347  0.91475  Biso   1.000  O
  O29      1.0000 0.80086  0.11365  0.94309  Biso   1.000  O
  O30      1.0000 0.78771  0.12112  0.69618  Biso   1.000  O
  O31      1.0000 0.72350  0.38326  0.94864  Biso   1.000  O
  O32      1.0000 0.72884  0.37427  0.70146  Biso   1.000  O
  Hf17     1.0000 0.13283  0.52172  0.17282  Biso   1.000  Hf
  Hf18     1.0000 0.13836  0.72825  0.42189  Biso   1.000  Hf
  Hf19     1.0000 0.36171  0.77445  0.17381  Biso   1.000  Hf
  Hf20     1.0000 0.36100  0.97720  0.42469  Biso   1.000  Hf
  Hf21     1.0000 0.64255  0.53099  0.07897  Biso   1.000  Hf
  Hf22     1.0000 0.63956  0.73026  0.32875  Biso   1.000  Hf
  Hf23     1.0000 0.86300  0.77279  0.07942  Biso   1.000  Hf
  Hf24     1.0000 0.86021  0.97926  0.32868  Biso   1.000  Hf
  O33      1.0000 0.03456  0.66719  0.08486  Biso   1.000  O
  O34      1.0000 0.03054  0.58422  0.33378  Biso   1.000  O
  O35      1.0000 0.46965  0.91708  0.08556  Biso   1.000  O
  O36      1.0000 0.46845  0.83586  0.33512  Biso   1.000  O
  O37      1.0000 0.27462  0.62402  0.29641  Biso   1.000  O
  O38      1.0000 0.27679  0.62621  0.04633  Biso   1.000  O
  O39      1.0000 0.22416  0.87428  0.29715  Biso   1.000  O
  O40      1.0000 0.22357  0.87750  0.04804  Biso   1.000  O
  O41      1.0000 0.53207  0.66554  0.16845  Biso   1.000  O
  O42      1.0000 0.53177  0.58633  0.41896  Biso   1.000  O
  O43      1.0000 0.96635  0.91737  0.16698  Biso   1.000  O
  O44      1.0000 0.96733  0.83300  0.41589  Biso   1.000  O
  O45      1.0000 0.77660  0.62311  0.45350  Biso   1.000  O
  O46      1.0000 0.77757  0.62824  0.20477  Biso   1.000  O
  O47      1.0000 0.72523  0.87415  0.45485  Biso   1.000  O
  O48      1.0000 0.72607  0.87474  0.20521  Biso   1.000  O
  Hf25     1.0000 0.14122  0.51993  0.67318  Biso   1.000  Hf
  Hf26     1.0000 0.14138  0.73008  0.92299  Biso   1.000  Hf
  Hf27     1.0000 0.36349  0.77147  0.67387  Biso   1.000  Hf
  Hf28     1.0000 0.36353  0.97926  0.92549  Biso   1.000  Hf
  Hf29     1.0000 0.64044  0.52163  0.57806  Biso   1.000  Hf
  Hf30     1.0000 0.63994  0.72933  0.82742  Biso   1.000  Hf
  Hf31     1.0000 0.86439  0.76919  0.57726  Biso   1.000  Hf
  Hf32     1.0000 0.86676  0.97202  0.82522  Biso   1.000  Hf
  O49      1.0000 0.03494  0.66287  0.58315  Biso   1.000  O
  O50      1.0000 0.03764  0.58409  0.83512  Biso   1.000  O
  O51      1.0000 0.47003  0.91295  0.58303  Biso   1.000  O
  O52      1.0000 0.47072  0.83690  0.83337  Biso   1.000  O
  O53      1.0000 0.27874  0.62475  0.79656  Biso   1.000  O
  O54      1.0000 0.27676  0.62563  0.54722  Biso   1.000  O
  O55      1.0000 0.22698  0.87305  0.79735  Biso   1.000  O
  O56      1.0000 0.22532  0.87498  0.54693  Biso   1.000  O
  O57      1.0000 0.53340  0.66370  0.66777  Biso   1.000  O
  O58      1.0000 0.53127  0.58750  0.91920  Biso   1.000  O
  O59      1.0000 0.97297  0.91099  0.66486  Biso   1.000  O
  O60      1.0000 0.97020  0.83249  0.91845  Biso   1.000  O
  O61      1.0000 0.77853  0.62622  0.95462  Biso   1.000  O
  O62      1.0000 0.77802  0.62547  0.70417  Biso   1.000  O
  O63      1.0000 0.72597  0.87222  0.95516  Biso   1.000  O
  O64      1.0000 0.72599  0.87327  0.70229  Biso   1.000  O
  Mg1      1.0000 0.54246  0.26594  0.01813  Biso   1.000  Mg
