data_image0
_cell_length_a       10.1496
_cell_length_b       10.2447
_cell_length_c       10.443
_cell_angle_alpha    89.9953
_cell_angle_beta     80.1573
_cell_angle_gamma    89.9814

_symmetry_space_group_name_H-M    "P 1"
_symmetry_int_tables_number       1

loop_
  _symmetry_equiv_pos_as_xyz
  'x, y, z'

loop_
  _atom_site_label
  _atom_site_occupancy
  _atom_site_fract_x
  _atom_site_fract_y
  _atom_site_fract_z
  _atom_site_thermal_displace_type
  _atom_site_B_iso_or_equiv
  _atom_site_type_symbol
  Mg1      1.0000 0.13421  0.01461  0.15128  Biso   1.000  Mg
  Hf1      1.0000 0.13930  0.02132  0.64513  Biso   1.000  Hf
  Hf2      1.0000 0.14032  0.52112  0.14536  Biso   1.000  Hf
  Hf3      1.0000 0.13993  0.52153  0.64661  Biso   1.000  Hf
  Hf4      1.0000 0.63944  0.02104  0.14634  Biso   1.000  Hf
  Hf5      1.0000 0.63915  0.02119  0.64590  Biso   1.000  Hf
  Hf6      1.0000 0.63828  0.52004  0.14552  Biso   1.000  Hf
  Hf7      1.0000 0.63892  0.52137  0.64601  Biso   1.000  Hf
  Hf8      1.0000 0.13958  0.22637  0.39275  Biso   1.000  Hf
  Hf9      1.0000 0.14020  0.22539  0.89929  Biso   1.000  Hf
  Hf10     1.0000 0.14108  0.72917  0.39437  Biso   1.000  Hf
  Hf11     1.0000 0.14131  0.73246  0.89714  Biso   1.000  Hf
  Hf12     1.0000 0.63889  0.22828  0.39569  Biso   1.000  Hf
  Hf13     1.0000 0.63931  0.22952  0.89663  Biso   1.000  Hf
  Hf14     1.0000 0.63819  0.72985  0.39554  Biso   1.000  Hf
  Hf15     1.0000 0.63888  0.72871  0.89687  Biso   1.000  Hf
  Hf16     1.0000 0.35683  0.26569  0.10492  Biso   1.000  Hf
  Hf17     1.0000 0.35943  0.27105  0.60431  Biso   1.000  Hf
  Hf18     1.0000 0.35759  0.77450  0.10389  Biso   1.000  Hf
  Hf19     1.0000 0.36079  0.77255  0.60361  Biso   1.000  Hf
  Hf20     1.0000 0.86480  0.26834  0.10359  Biso   1.000  Hf
  Hf21     1.0000 0.86063  0.27138  0.60348  Biso   1.000  Hf
  Hf22     1.0000 0.86083  0.77271  0.10515  Biso   1.000  Hf
  Hf23     1.0000 0.86057  0.77084  0.60384  Biso   1.000  Hf
  Hf24     1.0000 0.36022  0.47799  0.35334  Biso   1.000  Hf
  Hf25     1.0000 0.36024  0.47827  0.85479  Biso   1.000  Hf
  Hf26     1.0000 0.35708  0.98024  0.35086  Biso   1.000  Hf
  Hf27     1.0000 0.35912  0.98032  0.85667  Biso   1.000  Hf
  Hf28     1.0000 0.86004  0.47924  0.35375  Biso   1.000  Hf
  Hf29     1.0000 0.86150  0.47889  0.85482  Biso   1.000  Hf
  Hf30     1.0000 0.86370  0.97922  0.35172  Biso   1.000  Hf
  Hf31     1.0000 0.86024  0.97882  0.85410  Biso   1.000  Hf
  O1       1.0000 0.03622  0.16701  0.07946  Biso   1.000  O
  O2       1.0000 0.03478  0.16914  0.58031  Biso   1.000  O
  O3       1.0000 0.03471  0.66800  0.08005  Biso   1.000  O
  O4       1.0000 0.03501  0.66794  0.58036  Biso   1.000  O
  O5       1.0000 0.53562  0.16805  0.07971  Biso   1.000  O
  O6       1.0000 0.53380  0.16753  0.57980  Biso   1.000  O
  O7       1.0000 0.53333  0.66663  0.07919  Biso   1.000  O
  O8       1.0000 0.53433  0.66785  0.57958  Biso   1.000  O
  O9       1.0000 0.03205  0.08314  0.33519  Biso   1.000  O
  O10      1.0000 0.03401  0.08186  0.82900  Biso   1.000  O
  O11      1.0000 0.03432  0.58280  0.32927  Biso   1.000  O
  O12      1.0000 0.03544  0.58248  0.83081  Biso   1.000  O
  O13      1.0000 0.53403  0.08252  0.32942  Biso   1.000  O
  O14      1.0000 0.53646  0.08232  0.82956  Biso   1.000  O
  O15      1.0000 0.53413  0.58210  0.32944  Biso   1.000  O
  O16      1.0000 0.53404  0.58326  0.82892  Biso   1.000  O
  O17      1.0000 0.46511  0.41523  0.17094  Biso   1.000  O
  O18      1.0000 0.46529  0.41742  0.67068  Biso   1.000  O
  O19      1.0000 0.46699  0.91711  0.16995  Biso   1.000  O
  O20      1.0000 0.46561  0.91758  0.67104  Biso   1.000  O
  O21      1.0000 0.96536  0.41855  0.16985  Biso   1.000  O
  O22      1.0000 0.96553  0.41840  0.67010  Biso   1.000  O
  O23      1.0000 0.96155  0.91629  0.17132  Biso   1.000  O
  O24      1.0000 0.96468  0.91826  0.66936  Biso   1.000  O
  O25      1.0000 0.46534  0.33267  0.42115  Biso   1.000  O
  O26      1.0000 0.46724  0.33464  0.92100  Biso   1.000  O
  O27      1.0000 0.46459  0.83310  0.42050  Biso   1.000  O
  O28      1.0000 0.46804  0.83479  0.92106  Biso   1.000  O
  O29      1.0000 0.96505  0.33332  0.41995  Biso   1.000  O
  O30      1.0000 0.96614  0.33220  0.91987  Biso   1.000  O
  O31      1.0000 0.96556  0.83093  0.42006  Biso   1.000  O
  O32      1.0000 0.96460  0.83153  0.91939  Biso   1.000  O
  O33      1.0000 0.27922  0.12948  0.24314  Biso   1.000  O
  O34      1.0000 0.27542  0.12786  0.73928  Biso   1.000  O
  O35      1.0000 0.27657  0.62688  0.23980  Biso   1.000  O
  O36      1.0000 0.27654  0.62995  0.74093  Biso   1.000  O
  O37      1.0000 0.77552  0.12864  0.24103  Biso   1.000  O
  O38      1.0000 0.77693  0.12914  0.74041  Biso   1.000  O
  O39      1.0000 0.77547  0.62875  0.24058  Biso   1.000  O
  O40      1.0000 0.77617  0.62864  0.74047  Biso   1.000  O
  O41      1.0000 0.27549  0.12138  0.49132  Biso   1.000  O
  O42      1.0000 0.28519  0.12750  0.98365  Biso   1.000  O
  O43      1.0000 0.27653  0.62145  0.49045  Biso   1.000  O
  O44      1.0000 0.27655  0.62101  0.99063  Biso   1.000  O
  O45      1.0000 0.77508  0.12207  0.49110  Biso   1.000  O
  O46      1.0000 0.77667  0.12085  0.99047  Biso   1.000  O
  O47      1.0000 0.77579  0.62144  0.49063  Biso   1.000  O
  O48      1.0000 0.77537  0.62027  0.99041  Biso   1.000  O
  O49      1.0000 0.22354  0.37948  0.00951  Biso   1.000  O
  O50      1.0000 0.22379  0.37933  0.50940  Biso   1.000  O
  O51      1.0000 0.22639  0.87836  0.00631  Biso   1.000  O
  O52      1.0000 0.22287  0.87909  0.50913  Biso   1.000  O
  O53      1.0000 0.72494  0.37823  0.00936  Biso   1.000  O
  O54      1.0000 0.72327  0.37937  0.50949  Biso   1.000  O
  O55      1.0000 0.72388  0.87882  0.00907  Biso   1.000  O
  O56      1.0000 0.72425  0.87871  0.50921  Biso   1.000  O
  O57      1.0000 0.22218  0.37154  0.25895  Biso   1.000  O
  O58      1.0000 0.22416  0.37090  0.75996  Biso   1.000  O
  O59      1.0000 0.22632  0.86743  0.26018  Biso   1.000  O
  O60      1.0000 0.22339  0.87234  0.75781  Biso   1.000  O
  O61      1.0000 0.72425  0.37091  0.25981  Biso   1.000  O
  O62      1.0000 0.72430  0.37164  0.75914  Biso   1.000  O
  O63      1.0000 0.72023  0.87090  0.25967  Biso   1.000  O
  O64      1.0000 0.72417  0.87097  0.75915  Biso   1.000  O
