data_image0
_cell_length_a       9.97197
_cell_length_b       10.4946
_cell_length_c       10.0666
_cell_angle_alpha    88.5807
_cell_angle_beta     89.5492
_cell_angle_gamma    90.0073

_symmetry_space_group_name_H-M    "P 1"
_symmetry_int_tables_number       1

loop_
  _symmetry_equiv_pos_as_xyz
  'x, y, z'

loop_
  _atom_site_label
  _atom_site_occupancy
  _atom_site_fract_x
  _atom_site_fract_y
  _atom_site_fract_z
  _atom_site_thermal_displace_type
  _atom_site_B_iso_or_equiv
  _atom_site_type_symbol
  Hf1      1.0000 0.13435  0.02074  0.11953  Biso   1.000  Hf
  Hf2      1.0000 0.13890  0.22152  0.38516  Biso   1.000  Hf
  Hf3      1.0000 0.38891  0.25986  0.11236  Biso   1.000  Hf
  Hf4      1.0000 0.36409  0.47381  0.36846  Biso   1.000  Hf
  O1       1.0000 0.02364  0.18387  0.20598  Biso   1.000  O
  O2       1.0000 0.04045  0.05369  0.44619  Biso   1.000  O
  O3       1.0000 0.47129  0.42592  0.19720  Biso   1.000  O
  O4       1.0000 0.46727  0.31442  0.45383  Biso   1.000  O
  O5       1.0000 0.26758  0.10453  0.25145  Biso   1.000  O
  O6       1.0000 0.27674  0.12372  0.50649  Biso   1.000  O
  O7       1.0000 0.22881  0.37347  0.50282  Biso   1.000  O
  O8       1.0000 0.24398  0.34220  0.25504  Biso   1.000  O
  Hf5      1.0000 0.14105  0.00369  0.62808  Biso   1.000  Hf
  Hf6      1.0000 0.10895  0.22493  0.84547  Biso   1.000  Hf
  Hf7      1.0000 0.36444  0.26225  0.62955  Biso   1.000  Hf
  Hf8      1.0000 0.37418  0.48517  0.86732  Biso   1.000  Hf
  O9       1.0000 0.03680  0.16936  0.66965  Biso   1.000  O
  O10      1.0000 0.02528  0.06451  0.93731  Biso   1.000  O
  O11      1.0000 0.46413  0.42881  0.68974  Biso   1.000  O
  O12      1.0000 0.46932  0.32335  0.93502  Biso   1.000  O
  O13      1.0000 0.26518  0.11105  0.75842  Biso   1.000  O
  O14      1.0000 0.22105  0.19084  0.01568  Biso   1.000  O
  O15      1.0000 0.24881  0.43453  0.01926  Biso   1.000  O
  O16      1.0000 0.23438  0.36236  0.75797  Biso   1.000  O
  Hf9      1.0000 0.12813  0.56925  0.10535  Biso   1.000  Hf
  Hf10     1.0000 0.13873  0.73057  0.37955  Biso   1.000  Hf
  Hf11     1.0000 0.36662  0.78298  0.11944  Biso   1.000  Hf
  Hf12     1.0000 0.36912  0.98012  0.37935  Biso   1.000  Hf
  O17      1.0000 0.02045  0.69062  0.21333  Biso   1.000  O
  O18      1.0000 0.03830  0.55936  0.44697  Biso   1.000  O
  O19      1.0000 0.47016  0.92992  0.20822  Biso   1.000  O
  O20      1.0000 0.46134  0.80657  0.44200  Biso   1.000  O
  O21      1.0000 0.27132  0.61846  0.24372  Biso   1.000  O
  O22      1.0000 0.27341  0.62208  0.49884  Biso   1.000  O
  O23      1.0000 0.22998  0.87322  0.50126  Biso   1.000  O
  O24      1.0000 0.22484  0.86317  0.24745  Biso   1.000  O
  Hf13     1.0000 0.13865  0.50737  0.62635  Biso   1.000  Hf
  Hf14     1.0000 0.10502  0.74886  0.84172  Biso   1.000  Hf
  Hf15     1.0000 0.36894  0.75606  0.62395  Biso   1.000  Hf
  Hf16     1.0000 0.40402  0.98715  0.85377  Biso   1.000  Hf
  O25      1.0000 0.03087  0.66864  0.67620  Biso   1.000  O
  O26      1.0000 0.02479  0.57738  0.92966  Biso   1.000  O
  O27      1.0000 0.47014  0.91990  0.67344  Biso   1.000  O
  O28      1.0000 0.47435  0.82003  0.94107  Biso   1.000  O
  O29      1.0000 0.26306  0.61358  0.75057  Biso   1.000  O
  O30      1.0000 0.23423  0.69646  0.99472  Biso   1.000  O
  O31      1.0000 0.27174  0.93857  0.00767  Biso   1.000  O
  O32      1.0000 0.24549  0.86378  0.75204  Biso   1.000  O
  Hf17     1.0000 0.63131  0.01689  0.13426  Biso   1.000  Hf
  Hf18     1.0000 0.63244  0.22950  0.38389  Biso   1.000  Hf
  Hf19     1.0000 0.84787  0.26070  0.12889  Biso   1.000  Hf
  Hf20     1.0000 0.87613  0.48233  0.36642  Biso   1.000  Hf
  O33      1.0000 0.53896  0.18099  0.21387  Biso   1.000  O
  O34      1.0000 0.53640  0.06298  0.45132  Biso   1.000  O
  O35      1.0000 0.97903  0.43678  0.18455  Biso   1.000  O
  O36      1.0000 0.96875  0.31457  0.44063  Biso   1.000  O
  O37      1.0000 0.76706  0.11377  0.25283  Biso   1.000  O
  O38      1.0000 0.77336  0.12955  0.49942  Biso   1.000  O
  O39      1.0000 0.73637  0.38269  0.49784  Biso   1.000  O
  O40      1.0000 0.73374  0.36562  0.25290  Biso   1.000  O
  Hf21     1.0000 0.64281  0.01218  0.63243  Biso   1.000  Hf
  Hf22     1.0000 0.63054  0.21441  0.86790  Biso   1.000  Hf
  Hf23     1.0000 0.86346  0.26687  0.61818  Biso   1.000  Hf
  Hf24     1.0000 0.86139  0.47730  0.87573  Biso   1.000  Hf
  O41      1.0000 0.52715  0.17186  0.70016  Biso   1.000  O
  O42      1.0000 0.49417  0.09900  0.99232  Biso   1.000  O
  O43      1.0000 0.97792  0.40996  0.71212  Biso   1.000  O
  O44      1.0000 0.97338  0.31650  0.96201  Biso   1.000  O
  O45      1.0000 0.78954  0.12220  0.74362  Biso   1.000  O
  O46      1.0000 0.76449  0.12819  0.00203  Biso   1.000  O
  O47      1.0000 0.72975  0.38119  0.00266  Biso   1.000  O
  O48      1.0000 0.72834  0.36369  0.74911  Biso   1.000  O
  Hf25     1.0000 0.63327  0.51808  0.12633  Biso   1.000  Hf
  Hf26     1.0000 0.62733  0.72782  0.37130  Biso   1.000  Hf
  Hf27     1.0000 0.85686  0.77116  0.12932  Biso   1.000  Hf
  Hf28     1.0000 0.87073  0.98046  0.37400  Biso   1.000  Hf
  O49      1.0000 0.53451  0.68398  0.19097  Biso   1.000  O
  O50      1.0000 0.53331  0.55912  0.44119  Biso   1.000  O
  O51      1.0000 0.96038  0.93602  0.19262  Biso   1.000  O
  O52      1.0000 0.96762  0.81389  0.44595  Biso   1.000  O
  O53      1.0000 0.76755  0.61379  0.24713  Biso   1.000  O
  O54      1.0000 0.76798  0.62871  0.49430  Biso   1.000  O
  O55      1.0000 0.73266  0.87976  0.50071  Biso   1.000  O
  O56      1.0000 0.72844  0.86651  0.25442  Biso   1.000  O
  Hf29     1.0000 0.63497  0.51014  0.62089  Biso   1.000  Hf
  Hf30     1.0000 0.63670  0.73003  0.87378  Biso   1.000  Hf
  Hf31     1.0000 0.86089  0.75827  0.61466  Biso   1.000  Hf
  Hf32     1.0000 0.85315  0.97943  0.87712  Biso   1.000  Hf
  O57      1.0000 0.53616  0.67318  0.69846  Biso   1.000  O
  O58      1.0000 0.52891  0.57191  0.95171  Biso   1.000  O
  O59      1.0000 0.98580  0.90504  0.71562  Biso   1.000  O
  O60      1.0000 0.96252  0.82075  0.95829  Biso   1.000  O
  O61      1.0000 0.77195  0.60820  0.74564  Biso   1.000  O
  O62      1.0000 0.76972  0.63247  0.99745  Biso   1.000  O
  O63      1.0000 0.72112  0.88064  0.00539  Biso   1.000  O
  O64      1.0000 0.74169  0.85758  0.74753  Biso   1.000  O
  Mg1      1.0000 0.11585  0.31725  0.10879  Biso   1.000  Mg
