data_image0
_cell_length_a       5.12603
_cell_length_b       10.2551
_cell_length_c       10.5558
_cell_angle_alpha    90.2302
_cell_angle_beta     78.3497
_cell_angle_gamma    90.7889

_symmetry_space_group_name_H-M    "P 1"
_symmetry_int_tables_number       1

loop_
  _symmetry_equiv_pos_as_xyz
  'x, y, z'

loop_
  _atom_site_label
  _atom_site_occupancy
  _atom_site_fract_x
  _atom_site_fract_y
  _atom_site_fract_z
  _atom_site_thermal_displace_type
  _atom_site_B_iso_or_equiv
  _atom_site_type_symbol
  Hf1      1.0000 0.27531  0.01784  0.14838  Biso   1.000  Hf
  Hf2      1.0000 0.33278  0.22981  0.40803  Biso   1.000  Hf
  Hf3      1.0000 0.67245  0.27209  0.10179  Biso   1.000  Hf
  Hf4      1.0000 0.70301  0.47610  0.35155  Biso   1.000  Hf
  O1       1.0000 0.05232  0.17483  0.08900  Biso   1.000  O
  O2       1.0000 0.06545  0.09256  0.32861  Biso   1.000  O
  O3       1.0000 0.90161  0.42377  0.16666  Biso   1.000  O
  O4       1.0000 0.96253  0.33722  0.43086  Biso   1.000  O
  O5       1.0000 0.54976  0.11399  0.24101  Biso   1.000  O
  O6       1.0000 0.57839  0.11647  0.49678  Biso   1.000  O
  O7       1.0000 0.42357  0.38320  0.00596  Biso   1.000  O
  O8       1.0000 0.36738  0.36129  0.24755  Biso   1.000  O
  Hf5      1.0000 0.28182  0.01959  0.65126  Biso   1.000  Hf
  Hf6      1.0000 0.26005  0.23204  0.89727  Biso   1.000  Hf
  Hf7      1.0000 0.74392  0.27101  0.60713  Biso   1.000  Hf
  Hf8      1.0000 0.71372  0.47949  0.85561  Biso   1.000  Hf
  O9       1.0000 0.08902  0.16625  0.58473  Biso   1.000  O
  O10      1.0000 0.06102  0.08271  0.83357  Biso   1.000  O
  O11      1.0000 0.93639  0.41569  0.67836  Biso   1.000  O
  O12      1.0000 0.91260  0.33267  0.92354  Biso   1.000  O
  O13      1.0000 0.55108  0.12869  0.74463  Biso   1.000  O
  O14      1.0000 0.52812  0.12187  0.99141  Biso   1.000  O
  O15      1.0000 0.46184  0.37840  0.51672  Biso   1.000  O
  O16      1.0000 0.44636  0.37144  0.76045  Biso   1.000  O
  Hf9      1.0000 0.26187  0.52688  0.14669  Biso   1.000  Hf
  Hf10     1.0000 0.26934  0.72377  0.39944  Biso   1.000  Hf
  Hf11     1.0000 0.71342  0.77122  0.10519  Biso   1.000  Hf
  Hf12     1.0000 0.72233  0.97299  0.35602  Biso   1.000  Hf
  O17      1.0000 0.05438  0.66822  0.07856  Biso   1.000  O
  O18      1.0000 0.05303  0.58274  0.32986  Biso   1.000  O
  O19      1.0000 0.93202  0.91200  0.17660  Biso   1.000  O
  O20      1.0000 0.93423  0.83507  0.42547  Biso   1.000  O
  O21      1.0000 0.54133  0.62561  0.24306  Biso   1.000  O
  O22      1.0000 0.54209  0.62237  0.49269  Biso   1.000  O
  O23      1.0000 0.44548  0.87757  0.01162  Biso   1.000  O
  O24      1.0000 0.44199  0.86790  0.26185  Biso   1.000  O
  Hf13     1.0000 0.27849  0.52313  0.64915  Biso   1.000  Hf
  Hf14     1.0000 0.26855  0.72893  0.89871  Biso   1.000  Hf
  Hf15     1.0000 0.72049  0.77125  0.60523  Biso   1.000  Hf
  Hf16     1.0000 0.71600  0.97809  0.85552  Biso   1.000  Hf
  O25      1.0000 0.05730  0.66303  0.58066  Biso   1.000  O
  O26      1.0000 0.06180  0.58545  0.83017  Biso   1.000  O
  O27      1.0000 0.93091  0.91512  0.67562  Biso   1.000  O
  O28      1.0000 0.92843  0.83635  0.92488  Biso   1.000  O
  O29      1.0000 0.54908  0.62845  0.74306  Biso   1.000  O
  O30      1.0000 0.54231  0.62400  0.99229  Biso   1.000  O
  O31      1.0000 0.44510  0.87699  0.51181  Biso   1.000  O
  O32      1.0000 0.44443  0.87111  0.76193  Biso   1.000  O
  Mg1      1.0000 0.99772  0.26268  0.25802  Biso   1.000  Mg
