data_image0
_cell_length_a       10.0907
_cell_length_b       5.09582
_cell_length_c       10.0514
_cell_angle_alpha    90.079
_cell_angle_beta     86.7979
_cell_angle_gamma    90.1067

_symmetry_space_group_name_H-M    "P 1"
_symmetry_int_tables_number       1

loop_
  _symmetry_equiv_pos_as_xyz
  'x, y, z'

loop_
  _atom_site_label
  _atom_site_occupancy
  _atom_site_fract_x
  _atom_site_fract_y
  _atom_site_fract_z
  _atom_site_thermal_displace_type
  _atom_site_B_iso_or_equiv
  _atom_site_type_symbol
  Mg1      1.0000 0.09751  0.98336  0.11633  Biso   1.000  Mg
  Hf1      1.0000 0.12594  0.97894  0.61444  Biso   1.000  Hf
  Hf2      1.0000 0.59350  0.97670  0.11316  Biso   1.000  Hf
  Hf3      1.0000 0.62545  0.97862  0.61356  Biso   1.000  Hf
  Hf4      1.0000 0.10907  0.51666  0.35841  Biso   1.000  Hf
  Hf5      1.0000 0.10670  0.47290  0.88857  Biso   1.000  Hf
  Hf6      1.0000 0.61012  0.51039  0.36246  Biso   1.000  Hf
  Hf7      1.0000 0.60851  0.47063  0.88050  Biso   1.000  Hf
  Hf8      1.0000 0.33805  0.52874  0.11061  Biso   1.000  Hf
  Hf9      1.0000 0.37513  0.52319  0.61332  Biso   1.000  Hf
  Hf10     1.0000 0.84928  0.52732  0.11206  Biso   1.000  Hf
  Hf11     1.0000 0.87447  0.52484  0.61395  Biso   1.000  Hf
  Hf12     1.0000 0.35706  0.98586  0.36040  Biso   1.000  Hf
  Hf13     1.0000 0.35380  0.03257  0.88485  Biso   1.000  Hf
  Hf14     1.0000 0.86298  0.99186  0.35879  Biso   1.000  Hf
  Hf15     1.0000 0.86193  0.02497  0.88581  Biso   1.000  Hf
  O1       1.0000 0.97402  0.27045  0.01608  Biso   1.000  O
  O2       1.0000 0.03478  0.31211  0.52758  Biso   1.000  O
  O3       1.0000 0.47687  0.27321  0.01791  Biso   1.000  O
  O4       1.0000 0.53425  0.30768  0.52600  Biso   1.000  O
  O5       1.0000 0.01833  0.19770  0.27604  Biso   1.000  O
  O6       1.0000 0.03860  0.13827  0.78209  Biso   1.000  O
  O7       1.0000 0.51973  0.18265  0.27447  Biso   1.000  O
  O8       1.0000 0.53796  0.13928  0.78278  Biso   1.000  O
  O9       1.0000 0.97513  0.69860  0.24089  Biso   1.000  O
  O10      1.0000 0.04278  0.64456  0.71963  Biso   1.000  O
  O11      1.0000 0.48000  0.69094  0.23578  Biso   1.000  O
  O12      1.0000 0.54200  0.64772  0.71990  Biso   1.000  O
  O13      1.0000 0.97806  0.75997  0.98219  Biso   1.000  O
  O14      1.0000 0.99560  0.80626  0.48683  Biso   1.000  O
  O15      1.0000 0.47836  0.76828  0.98511  Biso   1.000  O
  O16      1.0000 0.49554  0.80224  0.48449  Biso   1.000  O
  O17      1.0000 0.27147  0.31467  0.27498  Biso   1.000  O
  O18      1.0000 0.28752  0.36100  0.78039  Biso   1.000  O
  O19      1.0000 0.76829  0.31410  0.27160  Biso   1.000  O
  O20      1.0000 0.78824  0.36085  0.78218  Biso   1.000  O
  O21      1.0000 0.22552  0.23653  0.01789  Biso   1.000  O
  O22      1.0000 0.28381  0.19201  0.52507  Biso   1.000  O
  O23      1.0000 0.72626  0.22736  0.01648  Biso   1.000  O
  O24      1.0000 0.78461  0.19461  0.52457  Biso   1.000  O
  O25      1.0000 0.23152  0.73692  0.97843  Biso   1.000  O
  O26      1.0000 0.24540  0.69809  0.48594  Biso   1.000  O
  O27      1.0000 0.72767  0.73236  0.98698  Biso   1.000  O
  O28      1.0000 0.74534  0.69881  0.48572  Biso   1.000  O
  O29      1.0000 0.22910  0.80112  0.23625  Biso   1.000  O
  O30      1.0000 0.29323  0.85590  0.71880  Biso   1.000  O
  O31      1.0000 0.72792  0.80788  0.23761  Biso   1.000  O
  O32      1.0000 0.79143  0.85374  0.72183  Biso   1.000  O
