data_image0
_cell_length_a       10.171
_cell_length_b       10.23
_cell_length_c       5.21624
_cell_angle_alpha    89.9994
_cell_angle_beta     80.0916
_cell_angle_gamma    89.9299

_symmetry_space_group_name_H-M    "P 1"
_symmetry_int_tables_number       1

loop_
  _symmetry_equiv_pos_as_xyz
  'x, y, z'

loop_
  _atom_site_label
  _atom_site_occupancy
  _atom_site_fract_x
  _atom_site_fract_y
  _atom_site_fract_z
  _atom_site_thermal_displace_type
  _atom_site_B_iso_or_equiv
  _atom_site_type_symbol
  Mg1      1.0000 0.13457  0.01188  0.30241  Biso   1.000  Mg
  Hf1      1.0000 0.14056  0.52200  0.29235  Biso   1.000  Hf
  Hf2      1.0000 0.63913  0.02103  0.29196  Biso   1.000  Hf
  Hf3      1.0000 0.63836  0.52053  0.29154  Biso   1.000  Hf
  Hf4      1.0000 0.14114  0.22509  0.79089  Biso   1.000  Hf
  Hf5      1.0000 0.14258  0.73289  0.79142  Biso   1.000  Hf
  Hf6      1.0000 0.63897  0.22916  0.79210  Biso   1.000  Hf
  Hf7      1.0000 0.63822  0.72924  0.79326  Biso   1.000  Hf
  Hf8      1.0000 0.35641  0.26690  0.20981  Biso   1.000  Hf
  Hf9      1.0000 0.35744  0.77542  0.20673  Biso   1.000  Hf
  Hf10     1.0000 0.86362  0.26890  0.20646  Biso   1.000  Hf
  Hf11     1.0000 0.86072  0.77208  0.21005  Biso   1.000  Hf
  Hf12     1.0000 0.35965  0.47851  0.70811  Biso   1.000  Hf
  Hf13     1.0000 0.35623  0.98035  0.70636  Biso   1.000  Hf
  Hf14     1.0000 0.86130  0.47925  0.70925  Biso   1.000  Hf
  Hf15     1.0000 0.86155  0.97890  0.70430  Biso   1.000  Hf
  O1       1.0000 0.03491  0.16217  0.15450  Biso   1.000  O
  O2       1.0000 0.03391  0.66641  0.15866  Biso   1.000  O
  O3       1.0000 0.53444  0.16770  0.15910  Biso   1.000  O
  O4       1.0000 0.53294  0.66670  0.15863  Biso   1.000  O
  O5       1.0000 0.02910  0.08682  0.66601  Biso   1.000  O
  O6       1.0000 0.03393  0.58527  0.65807  Biso   1.000  O
  O7       1.0000 0.53494  0.08320  0.65808  Biso   1.000  O
  O8       1.0000 0.53363  0.58297  0.65797  Biso   1.000  O
  O9       1.0000 0.46553  0.41532  0.34182  Biso   1.000  O
  O10      1.0000 0.46724  0.91691  0.34038  Biso   1.000  O
  O11      1.0000 0.96780  0.41480  0.34404  Biso   1.000  O
  O12      1.0000 0.96216  0.91466  0.34573  Biso   1.000  O
  O13      1.0000 0.46709  0.33513  0.84281  Biso   1.000  O
  O14      1.0000 0.46736  0.83510  0.84096  Biso   1.000  O
  O15      1.0000 0.96764  0.33568  0.84489  Biso   1.000  O
  O16      1.0000 0.96614  0.83373  0.84256  Biso   1.000  O
  O17      1.0000 0.27735  0.12807  0.48125  Biso   1.000  O
  O18      1.0000 0.27665  0.62792  0.48006  Biso   1.000  O
  O19      1.0000 0.77551  0.12872  0.48112  Biso   1.000  O
  O20      1.0000 0.77560  0.62830  0.48120  Biso   1.000  O
  O21      1.0000 0.28483  0.12873  0.96607  Biso   1.000  O
  O22      1.0000 0.27655  0.62186  0.98081  Biso   1.000  O
  O23      1.0000 0.77511  0.12184  0.98139  Biso   1.000  O
  O24      1.0000 0.77502  0.62057  0.98121  Biso   1.000  O
  O25      1.0000 0.22361  0.38006  0.01945  Biso   1.000  O
  O26      1.0000 0.22585  0.87966  0.01329  Biso   1.000  O
  O27      1.0000 0.72500  0.37820  0.01935  Biso   1.000  O
  O28      1.0000 0.72429  0.87844  0.01809  Biso   1.000  O
  O29      1.0000 0.22330  0.37151  0.51946  Biso   1.000  O
  O30      1.0000 0.22605  0.86891  0.51748  Biso   1.000  O
  O31      1.0000 0.72525  0.37151  0.51907  Biso   1.000  O
  O32      1.0000 0.72082  0.87100  0.51948  Biso   1.000  O
