data_image0
_cell_length_a       10.0201
_cell_length_b       10.4622
_cell_length_c       5.02904
_cell_angle_alpha    89.2282
_cell_angle_beta     90.1508
_cell_angle_gamma    90.0378

_symmetry_space_group_name_H-M    "P 1"
_symmetry_int_tables_number       1

loop_
  _symmetry_equiv_pos_as_xyz
  'x, y, z'

loop_
  _atom_site_label
  _atom_site_occupancy
  _atom_site_fract_x
  _atom_site_fract_y
  _atom_site_fract_z
  _atom_site_thermal_displace_type
  _atom_site_B_iso_or_equiv
  _atom_site_type_symbol
  Hf1      1.0000 0.13693  0.02541  0.24287  Biso   1.000  Hf
  Hf2      1.0000 0.14461  0.21988  0.77732  Biso   1.000  Hf
  Hf3      1.0000 0.36292  0.26254  0.24440  Biso   1.000  Hf
  Hf4      1.0000 0.36830  0.48243  0.74815  Biso   1.000  Hf
  O1       1.0000 0.00369  0.17368  0.44627  Biso   1.000  O
  O2       1.0000 0.04036  0.05878  0.89262  Biso   1.000  O
  O3       1.0000 0.46289  0.43172  0.38919  Biso   1.000  O
  O4       1.0000 0.46145  0.31435  0.88149  Biso   1.000  O
  O5       1.0000 0.27196  0.11785  0.50180  Biso   1.000  O
  O6       1.0000 0.29918  0.11706  0.98502  Biso   1.000  O
  O7       1.0000 0.22979  0.38975  0.00557  Biso   1.000  O
  O8       1.0000 0.22396  0.36994  0.50313  Biso   1.000  O
  Hf5      1.0000 0.13924  0.54226  0.25466  Biso   1.000  Hf
  Hf6      1.0000 0.13612  0.74229  0.75387  Biso   1.000  Hf
  Hf7      1.0000 0.37073  0.76882  0.25094  Biso   1.000  Hf
  Hf8      1.0000 0.36836  0.97681  0.74585  Biso   1.000  Hf
  O9       1.0000 0.03692  0.69010  0.39292  Biso   1.000  O
  O10      1.0000 0.03630  0.57259  0.89342  Biso   1.000  O
  O11      1.0000 0.46710  0.93134  0.38283  Biso   1.000  O
  O12      1.0000 0.47105  0.81391  0.89261  Biso   1.000  O
  O13      1.0000 0.27567  0.62414  0.50493  Biso   1.000  O
  O14      1.0000 0.27243  0.63714  0.99942  Biso   1.000  O
  O15      1.0000 0.23135  0.88000  0.00231  Biso   1.000  O
  O16      1.0000 0.23464  0.86793  0.49894  Biso   1.000  O
  Hf9      1.0000 0.63207  0.01006  0.23452  Biso   1.000  Hf
  Hf10     1.0000 0.62454  0.22771  0.74090  Biso   1.000  Hf
  Hf11     1.0000 0.83824  0.25887  0.25414  Biso   1.000  Hf
  Hf12     1.0000 0.87231  0.47944  0.75802  Biso   1.000  Hf
  O17      1.0000 0.53564  0.18143  0.37422  Biso   1.000  O
  O18      1.0000 0.54226  0.05926  0.87219  Biso   1.000  O
  O19      1.0000 0.97067  0.43233  0.39456  Biso   1.000  O
  O20      1.0000 0.97113  0.31455  0.93139  Biso   1.000  O
  O21      1.0000 0.75701  0.10965  0.49083  Biso   1.000  O
  O22      1.0000 0.76956  0.13242  0.98523  Biso   1.000  O
  O23      1.0000 0.72733  0.38196  0.00086  Biso   1.000  O
  O24      1.0000 0.72778  0.36691  0.50756  Biso   1.000  O
  Hf13     1.0000 0.63350  0.51648  0.25400  Biso   1.000  Hf
  Hf14     1.0000 0.63875  0.73078  0.74841  Biso   1.000  Hf
  Hf15     1.0000 0.86533  0.76827  0.24404  Biso   1.000  Hf
  Hf16     1.0000 0.87272  0.98520  0.73078  Biso   1.000  Hf
  O25      1.0000 0.53895  0.68144  0.39061  Biso   1.000  O
  O26      1.0000 0.53526  0.56498  0.89152  Biso   1.000  O
  O27      1.0000 0.96680  0.93161  0.38240  Biso   1.000  O
  O28      1.0000 0.96459  0.81647  0.88426  Biso   1.000  O
  O29      1.0000 0.77419  0.61308  0.50176  Biso   1.000  O
  O30      1.0000 0.77124  0.63020  0.00072  Biso   1.000  O
  O31      1.0000 0.73501  0.88215  0.98802  Biso   1.000  O
  O32      1.0000 0.73163  0.86311  0.48974  Biso   1.000  O
  Mg1      1.0000 0.09283  0.30206  0.25225  Biso   1.000  Mg
