data_image0
_cell_length_a       10.0823
_cell_length_b       5.27346
_cell_length_c       10.1148
_cell_angle_alpha    89.6925
_cell_angle_beta     90.3532
_cell_angle_gamma    90.055

_symmetry_space_group_name_H-M    "P 1"
_symmetry_int_tables_number       1

loop_
  _symmetry_equiv_pos_as_xyz
  'x, y, z'

loop_
  _atom_site_label
  _atom_site_occupancy
  _atom_site_fract_x
  _atom_site_fract_y
  _atom_site_fract_z
  _atom_site_thermal_displace_type
  _atom_site_B_iso_or_equiv
  _atom_site_type_symbol
  Zr1      1.0000 0.13638  0.11455  0.11115  Biso   1.000  Zr
  Zr2      1.0000 0.13579  0.46415  0.39014  Biso   1.000  Zr
  Zr3      1.0000 0.36510  0.52962  0.12179  Biso   1.000  Zr
  Zr4      1.0000 0.36326  0.96274  0.37387  Biso   1.000  Zr
  O1       1.0000 0.01190  0.37406  0.21613  Biso   1.000  O
  O2       1.0000 0.03580  0.12891  0.45034  Biso   1.000  O
  O3       1.0000 0.45888  0.86666  0.19375  Biso   1.000  O
  O4       1.0000 0.46407  0.62965  0.44406  Biso   1.000  O
  O5       1.0000 0.26996  0.24369  0.25186  Biso   1.000  O
  O6       1.0000 0.27280  0.25715  0.50072  Biso   1.000  O
  O7       1.0000 0.23265  0.76127  0.50178  Biso   1.000  O
  O8       1.0000 0.22619  0.72279  0.25367  Biso   1.000  O
  Zr5      1.0000 0.13471  0.02314  0.62851  Biso   1.000  Zr
  Zr6      1.0000 0.14182  0.46096  0.86925  Biso   1.000  Zr
  Zr7      1.0000 0.37107  0.52623  0.62493  Biso   1.000  Zr
  Zr8      1.0000 0.37143  0.95908  0.87210  Biso   1.000  Zr
  O9       1.0000 0.03851  0.36026  0.68875  Biso   1.000  O
  O10      1.0000 0.03650  0.13905  0.93476  Biso   1.000  O
  O11      1.0000 0.47279  0.85653  0.69273  Biso   1.000  O
  O12      1.0000 0.47042  0.63003  0.94384  Biso   1.000  O
  O13      1.0000 0.27243  0.22592  0.74464  Biso   1.000  O
  O14      1.0000 0.29327  0.25527  0.98463  Biso   1.000  O
  O15      1.0000 0.23195  0.77746  0.99839  Biso   1.000  O
  O16      1.0000 0.23937  0.72875  0.74750  Biso   1.000  O
  Zr9      1.0000 0.62608  0.02722  0.12432  Biso   1.000  Zr
  Zr10     1.0000 0.62974  0.45900  0.37824  Biso   1.000  Zr
  Zr11     1.0000 0.83847  0.52295  0.12912  Biso   1.000  Zr
  Zr12     1.0000 0.87104  0.96883  0.37119  Biso   1.000  Zr
  O17      1.0000 0.53410  0.36270  0.19362  Biso   1.000  O
  O18      1.0000 0.53327  0.12645  0.44472  Biso   1.000  O
  O19      1.0000 0.96207  0.87619  0.18913  Biso   1.000  O
  O20      1.0000 0.96814  0.64016  0.45016  Biso   1.000  O
  O21      1.0000 0.75912  0.22457  0.25069  Biso   1.000  O
  O22      1.0000 0.77064  0.26500  0.49775  Biso   1.000  O
  O23      1.0000 0.73459  0.76500  0.49846  Biso   1.000  O
  O24      1.0000 0.72258  0.73290  0.25236  Biso   1.000  O
  Zr13     1.0000 0.63927  0.02310  0.62354  Biso   1.000  Zr
  Zr14     1.0000 0.63359  0.45883  0.87125  Biso   1.000  Zr
  Zr15     1.0000 0.86847  0.52625  0.62503  Biso   1.000  Zr
  Zr16     1.0000 0.86792  0.95486  0.87844  Biso   1.000  Zr
  O25      1.0000 0.53985  0.35895  0.69154  Biso   1.000  O
  O26      1.0000 0.54218  0.12427  0.94009  Biso   1.000  O
  O27      1.0000 0.97200  0.85051  0.70591  Biso   1.000  O
  O28      1.0000 0.96949  0.62788  0.96023  Biso   1.000  O
  O29      1.0000 0.77421  0.22217  0.74868  Biso   1.000  O
  O30      1.0000 0.76909  0.25787  0.99904  Biso   1.000  O
  O31      1.0000 0.72764  0.75795  0.99988  Biso   1.000  O
  O32      1.0000 0.73643  0.72412  0.74999  Biso   1.000  O
  Mg1      1.0000 0.09308  0.64179  0.11739  Biso   1.000  Mg
