data_image0
_cell_length_a       10.1132
_cell_length_b       5.05259
_cell_length_c       10.1131
_cell_angle_alpha    90
_cell_angle_beta     90.0029
_cell_angle_gamma    89.9997

_symmetry_space_group_name_H-M    "P 1"
_symmetry_int_tables_number       1

loop_
  _symmetry_equiv_pos_as_xyz
  'x, y, z'

loop_
  _atom_site_label
  _atom_site_occupancy
  _atom_site_fract_x
  _atom_site_fract_y
  _atom_site_fract_z
  _atom_site_thermal_displace_type
  _atom_site_B_iso_or_equiv
  _atom_site_type_symbol
  Mg1      1.0000 0.12506  0.00036  0.12506  Biso   1.000  Mg
  Zr1      1.0000 0.12506  0.00034  0.62507  Biso   1.000  Zr
  Zr2      1.0000 0.62507  0.00034  0.12507  Biso   1.000  Zr
  Zr3      1.0000 0.62509  0.00033  0.62509  Biso   1.000  Zr
  Zr4      1.0000 0.12506  0.50032  0.37291  Biso   1.000  Zr
  Zr5      1.0000 0.12506  0.50032  0.87723  Biso   1.000  Zr
  Zr6      1.0000 0.62507  0.50034  0.37470  Biso   1.000  Zr
  Zr7      1.0000 0.62508  0.50032  0.87542  Biso   1.000  Zr
  Zr8      1.0000 0.37291  0.50032  0.12506  Biso   1.000  Zr
  Zr9      1.0000 0.37471  0.50034  0.62508  Biso   1.000  Zr
  Zr10     1.0000 0.87722  0.50032  0.12506  Biso   1.000  Zr
  Zr11     1.0000 0.87542  0.50032  0.62509  Biso   1.000  Zr
  Zr12     1.0000 0.37175  0.99705  0.37175  Biso   1.000  Zr
  Zr13     1.0000 0.37177  0.00362  0.87838  Biso   1.000  Zr
  Zr14     1.0000 0.87837  0.00361  0.37177  Biso   1.000  Zr
  Zr15     1.0000 0.87837  0.99704  0.87837  Biso   1.000  Zr
  O1       1.0000 0.99040  0.30182  0.99040  Biso   1.000  O
  O2       1.0000 0.99905  0.29382  0.49760  Biso   1.000  O
  O3       1.0000 0.49759  0.29382  0.99904  Biso   1.000  O
  O4       1.0000 0.50044  0.29485  0.50044  Biso   1.000  O
  O5       1.0000 0.00357  0.20510  0.24658  Biso   1.000  O
  O6       1.0000 0.99954  0.20637  0.74655  Biso   1.000  O
  O7       1.0000 0.50359  0.20637  0.25059  Biso   1.000  O
  O8       1.0000 0.49993  0.20604  0.75020  Biso   1.000  O
  O9       1.0000 0.99038  0.69878  0.25976  Biso   1.000  O
  O10      1.0000 0.99906  0.70684  0.75255  Biso   1.000  O
  O11      1.0000 0.49759  0.70684  0.25108  Biso   1.000  O
  O12      1.0000 0.50045  0.70590  0.74969  Biso   1.000  O
  O13      1.0000 0.00357  0.79550  0.00358  Biso   1.000  O
  O14      1.0000 0.99952  0.79428  0.50361  Biso   1.000  O
  O15      1.0000 0.50360  0.79428  0.99953  Biso   1.000  O
  O16      1.0000 0.49993  0.79471  0.49993  Biso   1.000  O
  O17      1.0000 0.25974  0.30187  0.25974  Biso   1.000  O
  O18      1.0000 0.25108  0.29383  0.75254  Biso   1.000  O
  O19      1.0000 0.75254  0.29382  0.25108  Biso   1.000  O
  O20      1.0000 0.74970  0.29467  0.74971  Biso   1.000  O
  O21      1.0000 0.24658  0.20512  0.00357  Biso   1.000  O
  O22      1.0000 0.25060  0.20636  0.50360  Biso   1.000  O
  O23      1.0000 0.74655  0.20638  0.99954  Biso   1.000  O
  O24      1.0000 0.75020  0.20603  0.49994  Biso   1.000  O
  O25      1.0000 0.25975  0.69880  0.99038  Biso   1.000  O
  O26      1.0000 0.25108  0.70684  0.49759  Biso   1.000  O
  O27      1.0000 0.75255  0.70685  0.99906  Biso   1.000  O
  O28      1.0000 0.74969  0.70589  0.50045  Biso   1.000  O
  O29      1.0000 0.24656  0.79553  0.24656  Biso   1.000  O
  O30      1.0000 0.25061  0.79429  0.74654  Biso   1.000  O
  O31      1.0000 0.74653  0.79428  0.25061  Biso   1.000  O
  O32      1.0000 0.75021  0.79454  0.75021  Biso   1.000  O
