data_image0
_cell_length_a       10.2471
_cell_length_b       10.3005
_cell_length_c       5.24405
_cell_angle_alpha    90.0018
_cell_angle_beta     80.1269
_cell_angle_gamma    89.9114

_symmetry_space_group_name_H-M    "P 1"
_symmetry_int_tables_number       1

loop_
  _symmetry_equiv_pos_as_xyz
  'x, y, z'

loop_
  _atom_site_label
  _atom_site_occupancy
  _atom_site_fract_x
  _atom_site_fract_y
  _atom_site_fract_z
  _atom_site_thermal_displace_type
  _atom_site_B_iso_or_equiv
  _atom_site_type_symbol
  Mg1      1.0000 0.13424  0.01155  0.30304  Biso   1.000  Mg
  Zr1      1.0000 0.14050  0.52213  0.29154  Biso   1.000  Zr
  Zr2      1.0000 0.63898  0.02115  0.29105  Biso   1.000  Zr
  Zr3      1.0000 0.63847  0.52047  0.29068  Biso   1.000  Zr
  Zr4      1.0000 0.14100  0.22492  0.78929  Biso   1.000  Zr
  Zr5      1.0000 0.14238  0.73308  0.79061  Biso   1.000  Zr
  Zr6      1.0000 0.63907  0.22926  0.79113  Biso   1.000  Zr
  Zr7      1.0000 0.63815  0.72922  0.79260  Biso   1.000  Zr
  Zr8      1.0000 0.35632  0.26711  0.21043  Biso   1.000  Zr
  Zr9      1.0000 0.35734  0.77554  0.20728  Biso   1.000  Zr
  Zr10     1.0000 0.86408  0.26861  0.20761  Biso   1.000  Zr
  Zr11     1.0000 0.86083  0.77230  0.21148  Biso   1.000  Zr
  Zr12     1.0000 0.35967  0.47868  0.70901  Biso   1.000  Zr
  Zr13     1.0000 0.35617  0.98040  0.70696  Biso   1.000  Zr
  Zr14     1.0000 0.86141  0.47924  0.71045  Biso   1.000  Zr
  Zr15     1.0000 0.86131  0.97890  0.70545  Biso   1.000  Zr
  O1       1.0000 0.03478  0.16058  0.15298  Biso   1.000  O
  O2       1.0000 0.03338  0.66557  0.15753  Biso   1.000  O
  O3       1.0000 0.53391  0.16704  0.15806  Biso   1.000  O
  O4       1.0000 0.53233  0.66592  0.15781  Biso   1.000  O
  O5       1.0000 0.02877  0.08736  0.66290  Biso   1.000  O
  O6       1.0000 0.03333  0.58602  0.65711  Biso   1.000  O
  O7       1.0000 0.53427  0.08416  0.65712  Biso   1.000  O
  O8       1.0000 0.53312  0.58351  0.65726  Biso   1.000  O
  O9       1.0000 0.46619  0.41465  0.34280  Biso   1.000  O
  O10      1.0000 0.46771  0.91611  0.34177  Biso   1.000  O
  O11      1.0000 0.96874  0.41366  0.34569  Biso   1.000  O
  O12      1.0000 0.96328  0.91370  0.34645  Biso   1.000  O
  O13      1.0000 0.46754  0.33576  0.84372  Biso   1.000  O
  O14      1.0000 0.46762  0.83568  0.84206  Biso   1.000  O
  O15      1.0000 0.96837  0.33638  0.84653  Biso   1.000  O
  O16      1.0000 0.96659  0.83454  0.84362  Biso   1.000  O
  O17      1.0000 0.27614  0.12739  0.47944  Biso   1.000  O
  O18      1.0000 0.27587  0.62792  0.48027  Biso   1.000  O
  O19      1.0000 0.77476  0.12833  0.48083  Biso   1.000  O
  O20      1.0000 0.77479  0.62807  0.48149  Biso   1.000  O
  O21      1.0000 0.28432  0.12918  0.96493  Biso   1.000  O
  O22      1.0000 0.27585  0.62250  0.98076  Biso   1.000  O
  O23      1.0000 0.77452  0.12203  0.98114  Biso   1.000  O
  O24      1.0000 0.77426  0.62086  0.98135  Biso   1.000  O
  O25      1.0000 0.22433  0.38001  0.01938  Biso   1.000  O
  O26      1.0000 0.22603  0.88016  0.01415  Biso   1.000  O
  O27      1.0000 0.72601  0.37783  0.01969  Biso   1.000  O
  O28      1.0000 0.72483  0.87821  0.01853  Biso   1.000  O
  O29      1.0000 0.22428  0.37168  0.51937  Biso   1.000  O
  O30      1.0000 0.22610  0.86950  0.51752  Biso   1.000  O
  O31      1.0000 0.72624  0.37168  0.51921  Biso   1.000  O
  O32      1.0000 0.72183  0.87142  0.51991  Biso   1.000  O
