data_image0
_cell_length_a       10.0797
_cell_length_b       10.1821
_cell_length_c       10.0796
_cell_angle_alpha    90.0196
_cell_angle_beta     90.0038
_cell_angle_gamma    90.0187

_symmetry_space_group_name_H-M    "P 1"
_symmetry_int_tables_number       1

loop_
  _symmetry_equiv_pos_as_xyz
  'x, y, z'

loop_
  _atom_site_label
  _atom_site_occupancy
  _atom_site_fract_x
  _atom_site_fract_y
  _atom_site_fract_z
  _atom_site_thermal_displace_type
  _atom_site_B_iso_or_equiv
  _atom_site_type_symbol
  Mg1      1.0000 0.12629  0.00022  0.12622  Biso   1.000  Mg
  Zr1      1.0000 0.12505  0.00002  0.62492  Biso   1.000  Zr
  Zr2      1.0000 0.12598  0.50006  0.12593  Biso   1.000  Zr
  Zr3      1.0000 0.12504  0.50000  0.62485  Biso   1.000  Zr
  Zr4      1.0000 0.62488  0.00002  0.12508  Biso   1.000  Zr
  Zr5      1.0000 0.62490  0.00001  0.62494  Biso   1.000  Zr
  Zr6      1.0000 0.62481  0.50000  0.12506  Biso   1.000  Zr
  Zr7      1.0000 0.62491  0.50002  0.62494  Biso   1.000  Zr
  Zr8      1.0000 0.12581  0.24788  0.37444  Biso   1.000  Zr
  Zr9      1.0000 0.12556  0.24902  0.87469  Biso   1.000  Zr
  Zr10     1.0000 0.12536  0.75122  0.37444  Biso   1.000  Zr
  Zr11     1.0000 0.12600  0.75204  0.87466  Biso   1.000  Zr
  Zr12     1.0000 0.62491  0.24860  0.37567  Biso   1.000  Zr
  Zr13     1.0000 0.62468  0.24872  0.87465  Biso   1.000  Zr
  Zr14     1.0000 0.62471  0.75128  0.37563  Biso   1.000  Zr
  Zr15     1.0000 0.62495  0.75145  0.87464  Biso   1.000  Zr
  Zr16     1.0000 0.37438  0.24791  0.12578  Biso   1.000  Zr
  Zr17     1.0000 0.37565  0.24861  0.62495  Biso   1.000  Zr
  Zr18     1.0000 0.37438  0.75126  0.12534  Biso   1.000  Zr
  Zr19     1.0000 0.37562  0.75129  0.62475  Biso   1.000  Zr
  Zr20     1.0000 0.87462  0.24899  0.12553  Biso   1.000  Zr
  Zr21     1.0000 0.87463  0.24871  0.62472  Biso   1.000  Zr
  Zr22     1.0000 0.87460  0.75200  0.12597  Biso   1.000  Zr
  Zr23     1.0000 0.87462  0.75145  0.62499  Biso   1.000  Zr
  Zr24     1.0000 0.37112  0.99789  0.37113  Biso   1.000  Zr
  Zr25     1.0000 0.37159  0.00162  0.87869  Biso   1.000  Zr
  Zr26     1.0000 0.37621  0.49935  0.37622  Biso   1.000  Zr
  Zr27     1.0000 0.37661  0.50026  0.87372  Biso   1.000  Zr
  Zr28     1.0000 0.87863  0.00157  0.37165  Biso   1.000  Zr
  Zr29     1.0000 0.87809  0.99914  0.87810  Biso   1.000  Zr
  Zr30     1.0000 0.87367  0.50022  0.37666  Biso   1.000  Zr
  Zr31     1.0000 0.87312  0.50035  0.87314  Biso   1.000  Zr
  O1       1.0000 0.98985  0.15340  0.98986  Biso   1.000  O
  O2       1.0000 0.99942  0.14608  0.49780  Biso   1.000  O
  O3       1.0000 0.99980  0.64991  0.99981  Biso   1.000  O
  O4       1.0000 0.99859  0.64632  0.49961  Biso   1.000  O
  O5       1.0000 0.49780  0.14608  0.99946  Biso   1.000  O
  O6       1.0000 0.50047  0.14612  0.50050  Biso   1.000  O
  O7       1.0000 0.49959  0.64632  0.99862  Biso   1.000  O
  O8       1.0000 0.49899  0.64523  0.49902  Biso   1.000  O
  O9       1.0000 0.00266  0.10359  0.24670  Biso   1.000  O
  O10      1.0000 0.99994  0.10360  0.74661  Biso   1.000  O
  O11      1.0000 0.99987  0.60120  0.24960  Biso   1.000  O
  O12      1.0000 0.00095  0.60387  0.75000  Biso   1.000  O
  O13      1.0000 0.50312  0.10335  0.25049  Biso   1.000  O
  O14      1.0000 0.50006  0.10386  0.75035  Biso   1.000  O
  O15      1.0000 0.49965  0.60370  0.24930  Biso   1.000  O
  O16      1.0000 0.50101  0.60459  0.74913  Biso   1.000  O
  O17      1.0000 0.00027  0.35248  0.25016  Biso   1.000  O
  O18      1.0000 0.99840  0.35378  0.75035  Biso   1.000  O
  O19      1.0000 0.99041  0.84881  0.26015  Biso   1.000  O
  O20      1.0000 0.99903  0.85399  0.75239  Biso   1.000  O
  O21      1.0000 0.49983  0.35354  0.25140  Biso   1.000  O
  O22      1.0000 0.49886  0.35460  0.75102  Biso   1.000  O
  O23      1.0000 0.49813  0.85382  0.25059  Biso   1.000  O
  O24      1.0000 0.50019  0.85374  0.74969  Biso   1.000  O
  O25      1.0000 0.00015  0.40088  0.00021  Biso   1.000  O
  O26      1.0000 0.00068  0.39616  0.50000  Biso   1.000  O
  O27      1.0000 0.00336  0.89891  0.00340  Biso   1.000  O
  O28      1.0000 0.99955  0.89653  0.50358  Biso   1.000  O
  O29      1.0000 0.49996  0.39616  0.00069  Biso   1.000  O
  O30      1.0000 0.50086  0.39528  0.50088  Biso   1.000  O
  O31      1.0000 0.50355  0.89654  0.99956  Biso   1.000  O
  O32      1.0000 0.49977  0.89599  0.49978  Biso   1.000  O
  O33      1.0000 0.25942  0.14942  0.25942  Biso   1.000  O
  O34      1.0000 0.25100  0.14611  0.75192  Biso   1.000  O
  O35      1.0000 0.24975  0.64573  0.24976  Biso   1.000  O
  O36      1.0000 0.25158  0.64634  0.75008  Biso   1.000  O
  O37      1.0000 0.75191  0.14610  0.25104  Biso   1.000  O
  O38      1.0000 0.75005  0.14644  0.75008  Biso   1.000  O
  O39      1.0000 0.75006  0.64633  0.25161  Biso   1.000  O
  O40      1.0000 0.75112  0.64562  0.75115  Biso   1.000  O
  O41      1.0000 0.24670  0.10376  0.00266  Biso   1.000  O
  O42      1.0000 0.25045  0.10334  0.50314  Biso   1.000  O
  O43      1.0000 0.24958  0.60134  0.99990  Biso   1.000  O
  O44      1.0000 0.24927  0.60369  0.49966  Biso   1.000  O
  O45      1.0000 0.74660  0.10360  0.99998  Biso   1.000  O
  O46      1.0000 0.75033  0.10385  0.50009  Biso   1.000  O
  O47      1.0000 0.74999  0.60387  0.00099  Biso   1.000  O
  O48      1.0000 0.74910  0.60459  0.50105  Biso   1.000  O
  O49      1.0000 0.25011  0.35264  0.00031  Biso   1.000  O
  O50      1.0000 0.25138  0.35354  0.49987  Biso   1.000  O
  O51      1.0000 0.26010  0.84896  0.99047  Biso   1.000  O
  O52      1.0000 0.25058  0.85381  0.49817  Biso   1.000  O
  O53      1.0000 0.75031  0.35379  0.99842  Biso   1.000  O
  O54      1.0000 0.75100  0.35459  0.49888  Biso   1.000  O
  O55      1.0000 0.75236  0.85400  0.99903  Biso   1.000  O
  O56      1.0000 0.74968  0.85373  0.50019  Biso   1.000  O
  O57      1.0000 0.24991  0.39718  0.24995  Biso   1.000  O
  O58      1.0000 0.24901  0.39625  0.75037  Biso   1.000  O
  O59      1.0000 0.24725  0.89448  0.24731  Biso   1.000  O
  O60      1.0000 0.25015  0.89653  0.74695  Biso   1.000  O
  O61      1.0000 0.75033  0.39624  0.24903  Biso   1.000  O
  O62      1.0000 0.74893  0.39556  0.74896  Biso   1.000  O
  O63      1.0000 0.74691  0.89652  0.25016  Biso   1.000  O
  O64      1.0000 0.75008  0.89635  0.75008  Biso   1.000  O
