data_image0
_cell_length_a       10.247
_cell_length_b       5.14773
_cell_length_c       10.4951
_cell_angle_alpha    90.0072
_cell_angle_beta     80.0583
_cell_angle_gamma    89.9552

_symmetry_space_group_name_H-M    "P 1"
_symmetry_int_tables_number       1

loop_
  _symmetry_equiv_pos_as_xyz
  'x, y, z'

loop_
  _atom_site_label
  _atom_site_occupancy
  _atom_site_fract_x
  _atom_site_fract_y
  _atom_site_fract_z
  _atom_site_thermal_displace_type
  _atom_site_B_iso_or_equiv
  _atom_site_type_symbol
  Mg1      1.0000 0.13593  0.02765  0.15134  Biso   1.000  Mg
  Zr1      1.0000 0.14010  0.04288  0.64536  Biso   1.000  Zr
  Zr2      1.0000 0.63851  0.03996  0.14535  Biso   1.000  Zr
  Zr3      1.0000 0.63888  0.04242  0.64562  Biso   1.000  Zr
  Zr4      1.0000 0.14132  0.45443  0.39084  Biso   1.000  Zr
  Zr5      1.0000 0.14285  0.45958  0.89950  Biso   1.000  Zr
  Zr6      1.0000 0.63806  0.45864  0.39487  Biso   1.000  Zr
  Zr7      1.0000 0.63904  0.45854  0.89694  Biso   1.000  Zr
  Zr8      1.0000 0.35360  0.53882  0.10502  Biso   1.000  Zr
  Zr9      1.0000 0.35957  0.54482  0.60397  Biso   1.000  Zr
  Zr10     1.0000 0.86441  0.53945  0.10497  Biso   1.000  Zr
  Zr11     1.0000 0.86020  0.54180  0.60394  Biso   1.000  Zr
  Zr12     1.0000 0.35649  0.95940  0.35046  Biso   1.000  Zr
  Zr13     1.0000 0.35825  0.96022  0.85774  Biso   1.000  Zr
  Zr14     1.0000 0.86219  0.95925  0.35240  Biso   1.000  Zr
  Zr15     1.0000 0.86089  0.95768  0.85518  Biso   1.000  Zr
  O1       1.0000 0.03550  0.32770  0.07865  Biso   1.000  O
  O2       1.0000 0.03332  0.33274  0.57905  Biso   1.000  O
  O3       1.0000 0.53337  0.33143  0.07877  Biso   1.000  O
  O4       1.0000 0.53261  0.33289  0.57900  Biso   1.000  O
  O5       1.0000 0.02936  0.17411  0.33202  Biso   1.000  O
  O6       1.0000 0.03281  0.17069  0.82895  Biso   1.000  O
  O7       1.0000 0.53242  0.16759  0.32834  Biso   1.000  O
  O8       1.0000 0.53474  0.16811  0.82865  Biso   1.000  O
  O9       1.0000 0.46771  0.82698  0.17084  Biso   1.000  O
  O10      1.0000 0.46645  0.83237  0.67192  Biso   1.000  O
  O11      1.0000 0.96631  0.82449  0.17324  Biso   1.000  O
  O12      1.0000 0.96657  0.83278  0.67098  Biso   1.000  O
  O13      1.0000 0.46583  0.66953  0.42137  Biso   1.000  O
  O14      1.0000 0.46936  0.67394  0.92206  Biso   1.000  O
  O15      1.0000 0.96707  0.67052  0.42185  Biso   1.000  O
  O16      1.0000 0.96730  0.66884  0.92132  Biso   1.000  O
  O17      1.0000 0.27707  0.25323  0.24108  Biso   1.000  O
  O18      1.0000 0.27471  0.25778  0.73949  Biso   1.000  O
  O19      1.0000 0.77406  0.25548  0.24065  Biso   1.000  O
  O20      1.0000 0.77561  0.25697  0.74038  Biso   1.000  O
  O21      1.0000 0.27498  0.24440  0.49062  Biso   1.000  O
  O22      1.0000 0.28445  0.25630  0.98354  Biso   1.000  O
  O23      1.0000 0.77388  0.24512  0.49095  Biso   1.000  O
  O24      1.0000 0.77513  0.24106  0.99026  Biso   1.000  O
  O25      1.0000 0.22608  0.76017  0.00775  Biso   1.000  O
  O26      1.0000 0.22393  0.75846  0.50904  Biso   1.000  O
  O27      1.0000 0.72595  0.75527  0.00925  Biso   1.000  O
  O28      1.0000 0.72462  0.75729  0.50938  Biso   1.000  O
  O29      1.0000 0.22528  0.73710  0.25973  Biso   1.000  O
  O30      1.0000 0.22472  0.74525  0.75847  Biso   1.000  O
  O31      1.0000 0.72313  0.74225  0.25971  Biso   1.000  O
  O32      1.0000 0.72540  0.74358  0.75915  Biso   1.000  O
