data_image0
_cell_length_a       10.0497
_cell_length_b       10.3898
_cell_length_c       10.0839
_cell_angle_alpha    90.0897
_cell_angle_beta     89.9324
_cell_angle_gamma    90.0616

_symmetry_space_group_name_H-M    "P 1"
_symmetry_int_tables_number       1

loop_
  _symmetry_equiv_pos_as_xyz
  'x, y, z'

loop_
  _atom_site_label
  _atom_site_occupancy
  _atom_site_fract_x
  _atom_site_fract_y
  _atom_site_fract_z
  _atom_site_thermal_displace_type
  _atom_site_B_iso_or_equiv
  _atom_site_type_symbol
  Mg1      1.0000 0.13128  0.01808  0.11611  Biso   1.000  Mg
  Zr1      1.0000 0.13427  0.01674  0.62769  Biso   1.000  Zr
  Zr2      1.0000 0.13574  0.51476  0.12539  Biso   1.000  Zr
  Zr3      1.0000 0.13438  0.51633  0.62605  Biso   1.000  Zr
  Zr4      1.0000 0.63333  0.01557  0.12390  Biso   1.000  Zr
  Zr5      1.0000 0.63271  0.01486  0.62305  Biso   1.000  Zr
  Zr6      1.0000 0.63370  0.51566  0.12577  Biso   1.000  Zr
  Zr7      1.0000 0.63412  0.51574  0.62540  Biso   1.000  Zr
  Zr8      1.0000 0.13450  0.23062  0.37321  Biso   1.000  Zr
  Zr9      1.0000 0.13470  0.23216  0.87735  Biso   1.000  Zr
  Zr10     1.0000 0.13604  0.73601  0.37593  Biso   1.000  Zr
  Zr11     1.0000 0.13585  0.73647  0.87856  Biso   1.000  Zr
  Zr12     1.0000 0.63347  0.23377  0.37463  Biso   1.000  Zr
  Zr13     1.0000 0.63339  0.23422  0.87421  Biso   1.000  Zr
  Zr14     1.0000 0.63383  0.73544  0.37496  Biso   1.000  Zr
  Zr15     1.0000 0.63426  0.73529  0.87534  Biso   1.000  Zr
  Zr16     1.0000 0.36268  0.26196  0.12637  Biso   1.000  Zr
  Zr17     1.0000 0.36484  0.26575  0.62570  Biso   1.000  Zr
  Zr18     1.0000 0.36335  0.76693  0.12622  Biso   1.000  Zr
  Zr19     1.0000 0.36635  0.76751  0.62665  Biso   1.000  Zr
  Zr20     1.0000 0.86578  0.26391  0.12517  Biso   1.000  Zr
  Zr21     1.0000 0.86633  0.26527  0.62366  Biso   1.000  Zr
  Zr22     1.0000 0.86700  0.76844  0.12476  Biso   1.000  Zr
  Zr23     1.0000 0.86655  0.76572  0.62483  Biso   1.000  Zr
  Zr24     1.0000 0.36549  0.48387  0.37564  Biso   1.000  Zr
  Zr25     1.0000 0.36570  0.48397  0.87578  Biso   1.000  Zr
  Zr26     1.0000 0.36108  0.98538  0.37224  Biso   1.000  Zr
  Zr27     1.0000 0.36131  0.98403  0.88065  Biso   1.000  Zr
  Zr28     1.0000 0.86623  0.48474  0.37597  Biso   1.000  Zr
  Zr29     1.0000 0.86562  0.48485  0.87549  Biso   1.000  Zr
  Zr30     1.0000 0.86971  0.98442  0.37173  Biso   1.000  Zr
  Zr31     1.0000 0.86642  0.98535  0.87361  Biso   1.000  Zr
  O1       1.0000 0.02904  0.18093  0.19987  Biso   1.000  O
  O2       1.0000 0.03602  0.18587  0.69348  Biso   1.000  O
  O3       1.0000 0.03413  0.68221  0.19570  Biso   1.000  O
  O4       1.0000 0.03566  0.68449  0.69512  Biso   1.000  O
  O5       1.0000 0.53596  0.18419  0.19326  Biso   1.000  O
  O6       1.0000 0.53527  0.18415  0.69310  Biso   1.000  O
  O7       1.0000 0.53410  0.68245  0.19628  Biso   1.000  O
  O8       1.0000 0.53484  0.68304  0.69562  Biso   1.000  O
  O9       1.0000 0.03385  0.06715  0.44940  Biso   1.000  O
  O10      1.0000 0.03317  0.06828  0.93612  Biso   1.000  O
  O11      1.0000 0.03495  0.56649  0.44606  Biso   1.000  O
  O12      1.0000 0.03483  0.56746  0.94591  Biso   1.000  O
  O13      1.0000 0.53355  0.06668  0.44366  Biso   1.000  O
  O14      1.0000 0.53470  0.06707  0.94428  Biso   1.000  O
  O15      1.0000 0.53462  0.56697  0.44533  Biso   1.000  O
  O16      1.0000 0.53496  0.56705  0.94515  Biso   1.000  O
  O17      1.0000 0.46506  0.43205  0.19574  Biso   1.000  O
  O18      1.0000 0.46488  0.43368  0.69503  Biso   1.000  O
  O19      1.0000 0.46703  0.93304  0.19539  Biso   1.000  O
  O20      1.0000 0.46496  0.93388  0.69731  Biso   1.000  O
  O21      1.0000 0.96615  0.43291  0.19559  Biso   1.000  O
  O22      1.0000 0.96460  0.43436  0.69490  Biso   1.000  O
  O23      1.0000 0.97008  0.93002  0.19699  Biso   1.000  O
  O24      1.0000 0.96396  0.93378  0.69293  Biso   1.000  O
  O25      1.0000 0.46514  0.31675  0.44553  Biso   1.000  O
  O26      1.0000 0.46502  0.31688  0.94389  Biso   1.000  O
  O27      1.0000 0.46699  0.81816  0.44831  Biso   1.000  O
  O28      1.0000 0.46605  0.81777  0.94621  Biso   1.000  O
  O29      1.0000 0.96508  0.31746  0.44450  Biso   1.000  O
  O30      1.0000 0.96593  0.31847  0.94663  Biso   1.000  O
  O31      1.0000 0.96558  0.81601  0.44489  Biso   1.000  O
  O32      1.0000 0.96287  0.81577  0.94216  Biso   1.000  O
  O33      1.0000 0.27252  0.12039  0.25067  Biso   1.000  O
  O34      1.0000 0.27063  0.11784  0.74927  Biso   1.000  O
  O35      1.0000 0.26871  0.61432  0.24899  Biso   1.000  O
  O36      1.0000 0.26980  0.61838  0.74982  Biso   1.000  O
  O37      1.0000 0.76795  0.11545  0.24733  Biso   1.000  O
  O38      1.0000 0.76878  0.11677  0.74647  Biso   1.000  O
  O39      1.0000 0.77002  0.61670  0.24820  Biso   1.000  O
  O40      1.0000 0.76959  0.61703  0.74842  Biso   1.000  O
  O41      1.0000 0.26870  0.13245  0.50028  Biso   1.000  O
  O42      1.0000 0.27086  0.13342  0.99739  Biso   1.000  O
  O43      1.0000 0.27037  0.63360  0.49923  Biso   1.000  O
  O44      1.0000 0.27038  0.63105  0.99965  Biso   1.000  O
  O45      1.0000 0.76880  0.13409  0.49671  Biso   1.000  O
  O46      1.0000 0.76946  0.13376  0.99703  Biso   1.000  O
  O47      1.0000 0.76869  0.63352  0.49841  Biso   1.000  O
  O48      1.0000 0.76915  0.63339  0.99845  Biso   1.000  O
  O49      1.0000 0.23068  0.38291  0.49885  Biso   1.000  O
  O50      1.0000 0.23071  0.38219  0.99934  Biso   1.000  O
  O51      1.0000 0.22986  0.88356  0.50153  Biso   1.000  O
  O52      1.0000 0.22926  0.88026  0.00158  Biso   1.000  O
  O53      1.0000 0.73016  0.38370  0.49818  Biso   1.000  O
  O54      1.0000 0.72982  0.38363  0.99787  Biso   1.000  O
  O55      1.0000 0.73251  0.88410  0.49660  Biso   1.000  O
  O56      1.0000 0.73063  0.88358  0.99787  Biso   1.000  O
  O57      1.0000 0.22877  0.36709  0.24859  Biso   1.000  O
  O58      1.0000 0.23016  0.36795  0.74926  Biso   1.000  O
  O59      1.0000 0.23802  0.86032  0.25491  Biso   1.000  O
  O60      1.0000 0.23000  0.86845  0.75046  Biso   1.000  O
  O61      1.0000 0.73118  0.36654  0.24840  Biso   1.000  O
  O62      1.0000 0.73089  0.36708  0.74802  Biso   1.000  O
  O63      1.0000 0.73030  0.86664  0.24721  Biso   1.000  O
  O64      1.0000 0.72951  0.86637  0.74673  Biso   1.000  O
