data_image0
_cell_length_a       10.2227
_cell_length_b       10.3549
_cell_length_c       10.5749
_cell_angle_alpha    90.0367
_cell_angle_beta     79.4629
_cell_angle_gamma    90.2881

_symmetry_space_group_name_H-M    "P 1"
_symmetry_int_tables_number       1

loop_
  _symmetry_equiv_pos_as_xyz
  'x, y, z'

loop_
  _atom_site_label
  _atom_site_occupancy
  _atom_site_fract_x
  _atom_site_fract_y
  _atom_site_fract_z
  _atom_site_thermal_displace_type
  _atom_site_B_iso_or_equiv
  _atom_site_type_symbol
  Zr1      1.0000 0.13846  0.02232  0.14682  Biso   1.000  Zr
  Zr2      1.0000 0.13748  0.23046  0.39629  Biso   1.000  Zr
  Zr3      1.0000 0.33901  0.28032  0.08166  Biso   1.000  Zr
  Zr4      1.0000 0.35506  0.48461  0.35549  Biso   1.000  Zr
  O1       1.0000 0.03623  0.17091  0.08033  Biso   1.000  O
  O2       1.0000 0.03936  0.08103  0.32947  Biso   1.000  O
  O3       1.0000 0.46262  0.40621  0.17767  Biso   1.000  O
  O4       1.0000 0.46716  0.32722  0.41749  Biso   1.000  O
  O5       1.0000 0.28872  0.13941  0.24104  Biso   1.000  O
  O6       1.0000 0.27816  0.12125  0.48895  Biso   1.000  O
  O7       1.0000 0.20625  0.38739  0.99791  Biso   1.000  O
  O8       1.0000 0.21808  0.37444  0.25648  Biso   1.000  O
  Zr5      1.0000 0.13817  0.02167  0.64521  Biso   1.000  Zr
  Zr6      1.0000 0.13415  0.22749  0.89188  Biso   1.000  Zr
  Zr7      1.0000 0.36109  0.27036  0.60410  Biso   1.000  Zr
  Zr8      1.0000 0.35629  0.48330  0.84931  Biso   1.000  Zr
  O9       1.0000 0.03775  0.17150  0.58150  Biso   1.000  O
  O10      1.0000 0.03132  0.08077  0.82784  Biso   1.000  O
  O11      1.0000 0.46543  0.41793  0.66843  Biso   1.000  O
  O12      1.0000 0.46187  0.33696  0.91818  Biso   1.000  O
  O13      1.0000 0.27543  0.12795  0.73896  Biso   1.000  O
  O14      1.0000 0.27322  0.12037  0.98897  Biso   1.000  O
  O15      1.0000 0.22562  0.38013  0.50703  Biso   1.000  O
  O16      1.0000 0.22281  0.37072  0.75426  Biso   1.000  O
  Zr9      1.0000 0.13665  0.52495  0.14566  Biso   1.000  Zr
  Zr10     1.0000 0.13725  0.72877  0.39743  Biso   1.000  Zr
  Zr11     1.0000 0.36055  0.77285  0.10437  Biso   1.000  Zr
  Zr12     1.0000 0.35889  0.97281  0.35688  Biso   1.000  Zr
  O17      1.0000 0.03264  0.67049  0.08073  Biso   1.000  O
  O18      1.0000 0.03272  0.58337  0.33017  Biso   1.000  O
  O19      1.0000 0.46711  0.91614  0.17458  Biso   1.000  O
  O20      1.0000 0.46643  0.83319  0.42345  Biso   1.000  O
  O21      1.0000 0.27532  0.62948  0.24185  Biso   1.000  O
  O22      1.0000 0.27476  0.62386  0.49221  Biso   1.000  O
  O23      1.0000 0.22284  0.87887  0.01105  Biso   1.000  O
  O24      1.0000 0.22265  0.87301  0.26012  Biso   1.000  O
  Zr13     1.0000 0.13744  0.52230  0.64604  Biso   1.000  Zr
  Zr14     1.0000 0.13649  0.72959  0.89660  Biso   1.000  Zr
  Zr15     1.0000 0.36099  0.77257  0.60594  Biso   1.000  Zr
  Zr16     1.0000 0.35950  0.97735  0.85497  Biso   1.000  Zr
  O25      1.0000 0.03293  0.66789  0.58007  Biso   1.000  O
  O26      1.0000 0.03360  0.58183  0.83039  Biso   1.000  O
  O27      1.0000 0.46600  0.91664  0.67386  Biso   1.000  O
  O28      1.0000 0.46571  0.83362  0.92359  Biso   1.000  O
  O29      1.0000 0.27423  0.62951  0.74015  Biso   1.000  O
  O30      1.0000 0.27445  0.62532  0.98985  Biso   1.000  O
  O31      1.0000 0.22343  0.87777  0.51098  Biso   1.000  O
  O32      1.0000 0.22260  0.87171  0.76016  Biso   1.000  O
  Zr17     1.0000 0.64294  0.01767  0.14625  Biso   1.000  Zr
  Zr18     1.0000 0.65681  0.22611  0.41002  Biso   1.000  Zr
  Zr19     1.0000 0.85996  0.27157  0.10645  Biso   1.000  Zr
  Zr20     1.0000 0.86104  0.47889  0.35519  Biso   1.000  Zr
  O33      1.0000 0.53028  0.17078  0.08569  Biso   1.000  O
  O34      1.0000 0.53735  0.08462  0.33172  Biso   1.000  O
  O35      1.0000 0.96264  0.41896  0.17194  Biso   1.000  O
  O36      1.0000 0.96239  0.33037  0.42201  Biso   1.000  O
  O37      1.0000 0.77946  0.12716  0.24528  Biso   1.000  O
  O38      1.0000 0.78560  0.11700  0.49835  Biso   1.000  O
  O39      1.0000 0.71939  0.37825  0.01360  Biso   1.000  O
  O40      1.0000 0.72044  0.36748  0.26425  Biso   1.000  O
  Zr21     1.0000 0.63963  0.01997  0.65076  Biso   1.000  Zr
  Zr22     1.0000 0.63704  0.22884  0.90033  Biso   1.000  Zr
  Zr23     1.0000 0.86289  0.27205  0.61071  Biso   1.000  Zr
  Zr24     1.0000 0.85890  0.47834  0.85778  Biso   1.000  Zr
  O41      1.0000 0.53764  0.16692  0.58200  Biso   1.000  O
  O42      1.0000 0.53118  0.08451  0.83200  Biso   1.000  O
  O43      1.0000 0.96471  0.41941  0.67290  Biso   1.000  O
  O44      1.0000 0.95836  0.32805  0.91975  Biso   1.000  O
  O45      1.0000 0.77420  0.12922  0.74586  Biso   1.000  O
  O46      1.0000 0.77370  0.11963  0.99452  Biso   1.000  O
  O47      1.0000 0.72577  0.37858  0.51445  Biso   1.000  O
  O48      1.0000 0.72195  0.37179  0.76351  Biso   1.000  O
  Zr25     1.0000 0.63636  0.52020  0.14834  Biso   1.000  Zr
  Zr26     1.0000 0.63859  0.72712  0.39797  Biso   1.000  Zr
  Zr27     1.0000 0.85952  0.77104  0.10573  Biso   1.000  Zr
  Zr28     1.0000 0.86268  0.97594  0.35551  Biso   1.000  Zr
  O49      1.0000 0.53028  0.66244  0.07947  Biso   1.000  O
  O50      1.0000 0.53071  0.58202  0.33056  Biso   1.000  O
  O51      1.0000 0.96556  0.91928  0.17058  Biso   1.000  O
  O52      1.0000 0.96541  0.83164  0.42200  Biso   1.000  O
  O53      1.0000 0.77318  0.62693  0.24215  Biso   1.000  O
  O54      1.0000 0.77536  0.62099  0.49189  Biso   1.000  O
  O55      1.0000 0.72192  0.87611  0.01128  Biso   1.000  O
  O56      1.0000 0.72355  0.87112  0.26093  Biso   1.000  O
  Zr29     1.0000 0.63849  0.52259  0.64789  Biso   1.000  Zr
  Zr30     1.0000 0.63713  0.72671  0.89779  Biso   1.000  Zr
  Zr31     1.0000 0.85967  0.77144  0.60620  Biso   1.000  Zr
  Zr32     1.0000 0.85913  0.97736  0.85582  Biso   1.000  Zr
  O57      1.0000 0.53353  0.66729  0.57982  Biso   1.000  O
  O58      1.0000 0.53114  0.58475  0.82756  Biso   1.000  O
  O59      1.0000 0.96361  0.91797  0.67134  Biso   1.000  O
  O60      1.0000 0.96317  0.83184  0.92210  Biso   1.000  O
  O61      1.0000 0.77486  0.62879  0.74288  Biso   1.000  O
  O62      1.0000 0.77354  0.62098  0.99294  Biso   1.000  O
  O63      1.0000 0.72385  0.87754  0.51162  Biso   1.000  O
  O64      1.0000 0.72202  0.87102  0.76207  Biso   1.000  O
  Mg1      1.0000 0.46606  0.23255  0.26161  Biso   1.000  Mg
