data_image0
_cell_length_a       5.08624
_cell_length_b       10.3453
_cell_length_c       10.3987
_cell_angle_alpha    90.7307
_cell_angle_beta     79.4426
_cell_angle_gamma    90.2904

_symmetry_space_group_name_H-M    "P 1"
_symmetry_int_tables_number       1

loop_
  _symmetry_equiv_pos_as_xyz
  'x, y, z'

loop_
  _atom_site_label
  _atom_site_occupancy
  _atom_site_fract_x
  _atom_site_fract_y
  _atom_site_fract_z
  _atom_site_thermal_displace_type
  _atom_site_B_iso_or_equiv
  _atom_site_type_symbol
  Hf1      1.0000 0.27148  0.02101  0.15182  Biso   1.000  Hf
  Hf2      1.0000 0.30722  0.23262  0.39711  Biso   1.000  Hf
  Hf3      1.0000 0.69798  0.27907  0.10350  Biso   1.000  Hf
  Hf4      1.0000 0.71537  0.47223  0.34677  Biso   1.000  Hf
  O1       1.0000 0.04973  0.18222  0.11633  Biso   1.000  O
  O2       1.0000 0.09727  0.06388  0.34850  Biso   1.000  O
  O3       1.0000 0.90682  0.43663  0.15527  Biso   1.000  O
  O4       1.0000 0.95127  0.33363  0.41857  Biso   1.000  O
  O5       1.0000 0.55429  0.12713  0.23761  Biso   1.000  O
  O6       1.0000 0.60443  0.12887  0.47719  Biso   1.000  O
  O7       1.0000 0.43098  0.38498  0.00414  Biso   1.000  O
  O8       1.0000 0.41206  0.37941  0.25229  Biso   1.000  O
  Hf5      1.0000 0.26986  0.02033  0.64966  Biso   1.000  Hf
  Hf6      1.0000 0.27231  0.23454  0.89577  Biso   1.000  Hf
  Hf7      1.0000 0.73469  0.27215  0.60633  Biso   1.000  Hf
  Hf8      1.0000 0.72042  0.48089  0.85511  Biso   1.000  Hf
  O9       1.0000 0.09412  0.17460  0.58577  Biso   1.000  O
  O10      1.0000 0.06780  0.07878  0.84013  Biso   1.000  O
  O11      1.0000 0.93012  0.42274  0.66939  Biso   1.000  O
  O12      1.0000 0.91819  0.32662  0.91701  Biso   1.000  O
  O13      1.0000 0.55033  0.12965  0.73936  Biso   1.000  O
  O14      1.0000 0.52737  0.12474  0.99195  Biso   1.000  O
  O15      1.0000 0.46038  0.37913  0.51242  Biso   1.000  O
  O16      1.0000 0.44865  0.36928  0.75883  Biso   1.000  O
  Hf9      1.0000 0.26463  0.52599  0.14477  Biso   1.000  Hf
  Hf10     1.0000 0.27448  0.72368  0.39746  Biso   1.000  Hf
  Hf11     1.0000 0.71254  0.77045  0.10405  Biso   1.000  Hf
  Hf12     1.0000 0.72350  0.96582  0.35502  Biso   1.000  Hf
  O17      1.0000 0.06943  0.68030  0.08330  Biso   1.000  O
  O18      1.0000 0.06161  0.57969  0.33210  Biso   1.000  O
  O19      1.0000 0.92309  0.92154  0.16813  Biso   1.000  O
  O20      1.0000 0.92433  0.82203  0.42214  Biso   1.000  O
  O21      1.0000 0.54653  0.62979  0.24164  Biso   1.000  O
  O22      1.0000 0.54700  0.61963  0.49169  Biso   1.000  O
  O23      1.0000 0.44335  0.88251  0.01080  Biso   1.000  O
  O24      1.0000 0.43863  0.86656  0.25925  Biso   1.000  O
  Hf13     1.0000 0.28094  0.52249  0.64647  Biso   1.000  Hf
  Hf14     1.0000 0.26982  0.73144  0.89773  Biso   1.000  Hf
  Hf15     1.0000 0.72021  0.76952  0.60577  Biso   1.000  Hf
  Hf16     1.0000 0.71376  0.98011  0.85728  Biso   1.000  Hf
  O25      1.0000 0.06986  0.67041  0.58669  Biso   1.000  O
  O26      1.0000 0.07268  0.57823  0.83540  Biso   1.000  O
  O27      1.0000 0.92323  0.92254  0.67108  Biso   1.000  O
  O28      1.0000 0.91937  0.82995  0.91676  Biso   1.000  O
  O29      1.0000 0.55180  0.62856  0.74261  Biso   1.000  O
  O30      1.0000 0.54738  0.62422  0.99096  Biso   1.000  O
  O31      1.0000 0.44352  0.88120  0.51291  Biso   1.000  O
  O32      1.0000 0.44347  0.87151  0.76110  Biso   1.000  O
  Mn1      1.0000 0.84431  0.19665  0.30906  Biso   1.000  Mn
