data_image0
_cell_length_a       10.0545
_cell_length_b       10.2264
_cell_length_c       5.18892
_cell_angle_alpha    89.8382
_cell_angle_beta     80.2561
_cell_angle_gamma    89.9683

_symmetry_space_group_name_H-M    "P 1"
_symmetry_int_tables_number       1

loop_
  _symmetry_equiv_pos_as_xyz
  'x, y, z'

loop_
  _atom_site_label
  _atom_site_occupancy
  _atom_site_fract_x
  _atom_site_fract_y
  _atom_site_fract_z
  _atom_site_thermal_displace_type
  _atom_site_B_iso_or_equiv
  _atom_site_type_symbol
  Mn1      1.0000 0.13531  0.02330  0.30118  Biso   1.000  Mn
  Hf1      1.0000 0.14020  0.52163  0.29311  Biso   1.000  Hf
  Hf2      1.0000 0.63772  0.02113  0.29191  Biso   1.000  Hf
  Hf3      1.0000 0.63884  0.52237  0.29242  Biso   1.000  Hf
  Hf4      1.0000 0.13975  0.22479  0.79337  Biso   1.000  Hf
  Hf5      1.0000 0.13968  0.73199  0.79059  Biso   1.000  Hf
  Hf6      1.0000 0.63800  0.22864  0.79216  Biso   1.000  Hf
  Hf7      1.0000 0.63877  0.72955  0.79482  Biso   1.000  Hf
  Hf8      1.0000 0.35838  0.26934  0.21269  Biso   1.000  Hf
  Hf9      1.0000 0.35693  0.77630  0.20830  Biso   1.000  Hf
  Hf10     1.0000 0.86399  0.26850  0.20998  Biso   1.000  Hf
  Hf11     1.0000 0.86491  0.77390  0.20745  Biso   1.000  Hf
  Hf12     1.0000 0.36077  0.47913  0.70985  Biso   1.000  Hf
  Hf13     1.0000 0.35597  0.97869  0.70951  Biso   1.000  Hf
  Hf14     1.0000 0.86157  0.47851  0.71039  Biso   1.000  Hf
  Hf15     1.0000 0.86386  0.98113  0.70189  Biso   1.000  Hf
  O1       1.0000 0.03651  0.15565  0.15336  Biso   1.000  O
  O2       1.0000 0.03626  0.66894  0.16079  Biso   1.000  O
  O3       1.0000 0.53701  0.17229  0.16671  Biso   1.000  O
  O4       1.0000 0.53581  0.67257  0.16471  Biso   1.000  O
  O5       1.0000 0.03950  0.08446  0.62293  Biso   1.000  O
  O6       1.0000 0.03691  0.58032  0.66391  Biso   1.000  O
  O7       1.0000 0.53430  0.07856  0.66671  Biso   1.000  O
  O8       1.0000 0.53814  0.57712  0.66765  Biso   1.000  O
  O9       1.0000 0.46237  0.42168  0.33553  Biso   1.000  O
  O10      1.0000 0.46407  0.91972  0.33952  Biso   1.000  O
  O11      1.0000 0.96624  0.41692  0.34132  Biso   1.000  O
  O12      1.0000 0.97814  0.92392  0.32864  Biso   1.000  O
  O13      1.0000 0.45949  0.32520  0.83601  Biso   1.000  O
  O14      1.0000 0.46053  0.82820  0.83365  Biso   1.000  O
  O15      1.0000 0.96544  0.32711  0.84129  Biso   1.000  O
  O16      1.0000 0.96433  0.83234  0.83541  Biso   1.000  O
  O17      1.0000 0.27332  0.12408  0.48050  Biso   1.000  O
  O18      1.0000 0.27738  0.63216  0.48345  Biso   1.000  O
  O19      1.0000 0.77552  0.12876  0.48121  Biso   1.000  O
  O20      1.0000 0.77811  0.63026  0.48350  Biso   1.000  O
  O21      1.0000 0.27031  0.11553  0.00111  Biso   1.000  O
  O22      1.0000 0.27699  0.62188  0.98251  Biso   1.000  O
  O23      1.0000 0.77811  0.12048  0.97843  Biso   1.000  O
  O24      1.0000 0.77871  0.62236  0.98438  Biso   1.000  O
  O25      1.0000 0.22181  0.37814  0.02044  Biso   1.000  O
  O26      1.0000 0.21728  0.88447  0.02198  Biso   1.000  O
  O27      1.0000 0.72439  0.37894  0.02004  Biso   1.000  O
  O28      1.0000 0.72339  0.87987  0.01800  Biso   1.000  O
  O29      1.0000 0.22347  0.36964  0.52106  Biso   1.000  O
  O30      1.0000 0.21743  0.87649  0.51026  Biso   1.000  O
  O31      1.0000 0.72398  0.37041  0.51916  Biso   1.000  O
  O32      1.0000 0.73011  0.87264  0.51620  Biso   1.000  O
