data_image0
_cell_length_a       5.02557
_cell_length_b       10.2293
_cell_length_c       10.3792
_cell_angle_alpha    89.8949
_cell_angle_beta     80.2833
_cell_angle_gamma    89.9681

_symmetry_space_group_name_H-M    "P 1"
_symmetry_int_tables_number       1

loop_
  _symmetry_equiv_pos_as_xyz
  'x, y, z'

loop_
  _atom_site_label
  _atom_site_occupancy
  _atom_site_fract_x
  _atom_site_fract_y
  _atom_site_fract_z
  _atom_site_thermal_displace_type
  _atom_site_B_iso_or_equiv
  _atom_site_type_symbol
  Mn1      1.0000 0.27217  0.02478  0.15013  Biso   1.000  Mn
  Hf1      1.0000 0.27570  0.02044  0.64572  Biso   1.000  Hf
  Hf2      1.0000 0.27970  0.52256  0.14607  Biso   1.000  Hf
  Hf3      1.0000 0.27865  0.52147  0.64687  Biso   1.000  Hf
  Hf4      1.0000 0.27854  0.22792  0.39250  Biso   1.000  Hf
  Hf5      1.0000 0.27659  0.22518  0.89961  Biso   1.000  Hf
  Hf6      1.0000 0.28028  0.73135  0.39435  Biso   1.000  Hf
  Hf7      1.0000 0.27634  0.73007  0.89872  Biso   1.000  Hf
  Hf8      1.0000 0.72510  0.26670  0.10641  Biso   1.000  Hf
  Hf9      1.0000 0.72053  0.27144  0.60425  Biso   1.000  Hf
  Hf10     1.0000 0.72319  0.77861  0.10462  Biso   1.000  Hf
  Hf11     1.0000 0.72171  0.77135  0.60406  Biso   1.000  Hf
  Hf12     1.0000 0.72358  0.47976  0.35399  Biso   1.000  Hf
  Hf13     1.0000 0.72096  0.47797  0.85636  Biso   1.000  Hf
  Hf14     1.0000 0.72448  0.98029  0.34870  Biso   1.000  Hf
  Hf15     1.0000 0.71473  0.97904  0.85677  Biso   1.000  Hf
  O1       1.0000 0.07695  0.16144  0.08479  Biso   1.000  O
  O2       1.0000 0.06979  0.16614  0.57544  Biso   1.000  O
  O3       1.0000 0.07051  0.67104  0.08299  Biso   1.000  O
  O4       1.0000 0.07411  0.67112  0.58087  Biso   1.000  O
  O5       1.0000 0.07905  0.08225  0.31507  Biso   1.000  O
  O6       1.0000 0.06730  0.08029  0.83019  Biso   1.000  O
  O7       1.0000 0.07689  0.57877  0.33257  Biso   1.000  O
  O8       1.0000 0.07384  0.57849  0.83364  Biso   1.000  O
  O9       1.0000 0.93004  0.41945  0.16849  Biso   1.000  O
  O10      1.0000 0.92814  0.41877  0.67024  Biso   1.000  O
  O11      1.0000 0.95730  0.92481  0.16415  Biso   1.000  O
  O12      1.0000 0.92531  0.92003  0.66903  Biso   1.000  O
  O13      1.0000 0.92707  0.32904  0.41803  Biso   1.000  O
  O14      1.0000 0.92416  0.32466  0.92134  Biso   1.000  O
  O15      1.0000 0.92775  0.83096  0.41615  Biso   1.000  O
  O16      1.0000 0.92068  0.82880  0.91804  Biso   1.000  O
  O17      1.0000 0.54200  0.12291  0.23610  Biso   1.000  O
  O18      1.0000 0.55251  0.12877  0.74258  Biso   1.000  O
  O19      1.0000 0.55656  0.63282  0.24128  Biso   1.000  O
  O20      1.0000 0.55522  0.62905  0.74234  Biso   1.000  O
  O21      1.0000 0.55776  0.12112  0.48767  Biso   1.000  O
  O22      1.0000 0.54028  0.11586  0.00013  Biso   1.000  O
  O23      1.0000 0.55527  0.62120  0.49118  Biso   1.000  O
  O24      1.0000 0.55579  0.62324  0.99253  Biso   1.000  O
  O25      1.0000 0.44698  0.37852  0.01083  Biso   1.000  O
  O26      1.0000 0.44529  0.37887  0.50938  Biso   1.000  O
  O27      1.0000 0.43592  0.88575  0.01353  Biso   1.000  O
  O28      1.0000 0.44611  0.87969  0.50774  Biso   1.000  O
  O29      1.0000 0.45090  0.36953  0.25914  Biso   1.000  O
  O30      1.0000 0.44498  0.36980  0.76083  Biso   1.000  O
  O31      1.0000 0.45000  0.87726  0.25479  Biso   1.000  O
  O32      1.0000 0.44330  0.87060  0.75976  Biso   1.000  O
