data_image0
_cell_length_a       10.0694
_cell_length_b       5.14074
_cell_length_c       10.504
_cell_angle_alpha    89.5588
_cell_angle_beta     90.7386
_cell_angle_gamma    89.902

_symmetry_space_group_name_H-M    "P 1"
_symmetry_int_tables_number       1

loop_
  _symmetry_equiv_pos_as_xyz
  'x, y, z'

loop_
  _atom_site_label
  _atom_site_occupancy
  _atom_site_fract_x
  _atom_site_fract_y
  _atom_site_fract_z
  _atom_site_thermal_displace_type
  _atom_site_B_iso_or_equiv
  _atom_site_type_symbol
  Hf1      1.0000 0.14042  0.03988  0.17177  Biso   1.000  Hf
  Hf2      1.0000 0.13565  0.45936  0.42183  Biso   1.000  Hf
  Hf3      1.0000 0.35688  0.53873  0.17596  Biso   1.000  Hf
  Hf4      1.0000 0.36005  0.96003  0.42526  Biso   1.000  Hf
  Hf5      1.0000 0.64168  0.06461  0.06975  Biso   1.000  Hf
  Hf6      1.0000 0.63288  0.46644  0.33970  Biso   1.000  Hf
  Hf7      1.0000 0.87555  0.54717  0.07324  Biso   1.000  Hf
  Hf8      1.0000 0.86129  0.96048  0.33138  Biso   1.000  Hf
  O1       1.0000 0.03919  0.32331  0.07771  Biso   1.000  O
  O2       1.0000 0.02771  0.18377  0.32667  Biso   1.000  O
  O3       1.0000 0.47566  0.80265  0.07772  Biso   1.000  O
  O4       1.0000 0.46085  0.67074  0.33764  Biso   1.000  O
  O5       1.0000 0.27083  0.24809  0.29739  Biso   1.000  O
  O6       1.0000 0.28034  0.24326  0.04421  Biso   1.000  O
  O7       1.0000 0.22036  0.74814  0.29633  Biso   1.000  O
  O8       1.0000 0.22551  0.74763  0.04542  Biso   1.000  O
  O9       1.0000 0.51491  0.28863  0.17901  Biso   1.000  O
  O10      1.0000 0.53020  0.17113  0.42466  Biso   1.000  O
  O11      1.0000 0.96794  0.83412  0.16862  Biso   1.000  O
  O12      1.0000 0.96478  0.67786  0.41831  Biso   1.000  O
  O13      1.0000 0.77769  0.24384  0.45472  Biso   1.000  O
  O14      1.0000 0.75955  0.31010  0.19528  Biso   1.000  O
  O15      1.0000 0.72313  0.74672  0.46253  Biso   1.000  O
  O16      1.0000 0.72063  0.79616  0.21260  Biso   1.000  O
  Hf9      1.0000 0.13933  0.03892  0.66951  Biso   1.000  Hf
  Hf10     1.0000 0.14488  0.44939  0.91827  Biso   1.000  Hf
  Hf11     1.0000 0.36440  0.53695  0.67158  Biso   1.000  Hf
  Hf12     1.0000 0.36156  0.94713  0.91868  Biso   1.000  Hf
  Hf13     1.0000 0.63921  0.04184  0.58243  Biso   1.000  Hf
  Hf14     1.0000 0.64055  0.45187  0.83431  Biso   1.000  Hf
  Hf15     1.0000 0.86048  0.53992  0.58168  Biso   1.000  Hf
  Hf16     1.0000 0.86565  0.95553  0.82702  Biso   1.000  Hf
  O17      1.0000 0.03199  0.32666  0.58026  Biso   1.000  O
  O18      1.0000 0.03712  0.16850  0.82899  Biso   1.000  O
  O19      1.0000 0.46691  0.83082  0.58727  Biso   1.000  O
  O20      1.0000 0.46598  0.65551  0.83542  Biso   1.000  O
  O21      1.0000 0.27894  0.23976  0.79350  Biso   1.000  O
  O22      1.0000 0.27423  0.25191  0.54519  Biso   1.000  O
  O23      1.0000 0.22566  0.74189  0.79369  Biso   1.000  O
  O24      1.0000 0.22385  0.75074  0.54495  Biso   1.000  O
  O25      1.0000 0.53525  0.33125  0.66769  Biso   1.000  O
  O26      1.0000 0.53476  0.14289  0.90542  Biso   1.000  O
  O27      1.0000 0.96854  0.82795  0.66436  Biso   1.000  O
  O28      1.0000 0.97491  0.66955  0.91257  Biso   1.000  O
  O29      1.0000 0.79131  0.23554  0.94831  Biso   1.000  O
  O30      1.0000 0.77822  0.24914  0.70387  Biso   1.000  O
  O31      1.0000 0.72590  0.74086  0.96369  Biso   1.000  O
  O32      1.0000 0.72595  0.74854  0.71124  Biso   1.000  O
  Mn1      1.0000 0.61957  0.55473  0.10766  Biso   1.000  Mn
