data_image0
_cell_length_a       9.93821
_cell_length_b       5.19209
_cell_length_c       9.95624
_cell_angle_alpha    91.9448
_cell_angle_beta     89.3642
_cell_angle_gamma    90.1713

_symmetry_space_group_name_H-M    "P 1"
_symmetry_int_tables_number       1

loop_
  _symmetry_equiv_pos_as_xyz
  'x, y, z'

loop_
  _atom_site_label
  _atom_site_occupancy
  _atom_site_fract_x
  _atom_site_fract_y
  _atom_site_fract_z
  _atom_site_thermal_displace_type
  _atom_site_B_iso_or_equiv
  _atom_site_type_symbol
  Mn1      1.0000 0.11685  0.06885  0.11142  Biso   1.000  Mn
  Hf1      1.0000 0.13708  0.03859  0.63052  Biso   1.000  Hf
  Hf2      1.0000 0.63772  0.04492  0.12667  Biso   1.000  Hf
  Hf3      1.0000 0.62522  0.02776  0.61711  Biso   1.000  Hf
  Hf4      1.0000 0.13639  0.43797  0.37297  Biso   1.000  Hf
  Hf5      1.0000 0.13153  0.48434  0.88633  Biso   1.000  Hf
  Hf6      1.0000 0.63850  0.46997  0.37921  Biso   1.000  Hf
  Hf7      1.0000 0.63573  0.47294  0.86777  Biso   1.000  Hf
  Hf8      1.0000 0.38812  0.53064  0.10752  Biso   1.000  Hf
  Hf9      1.0000 0.36347  0.54146  0.63084  Biso   1.000  Hf
  Hf10     1.0000 0.86940  0.54092  0.12027  Biso   1.000  Hf
  Hf11     1.0000 0.87261  0.53093  0.61928  Biso   1.000  Hf
  Hf12     1.0000 0.36419  0.93824  0.37242  Biso   1.000  Hf
  Hf13     1.0000 0.35468  0.98489  0.88660  Biso   1.000  Hf
  Hf14     1.0000 0.87070  0.97069  0.37323  Biso   1.000  Hf
  Hf15     1.0000 0.86269  0.97366  0.86900  Biso   1.000  Hf
  O1       1.0000 0.03692  0.37044  0.18507  Biso   1.000  O
  O2       1.0000 0.03577  0.37360  0.70154  Biso   1.000  O
  O3       1.0000 0.54028  0.37723  0.20279  Biso   1.000  O
  O4       1.0000 0.53389  0.37129  0.69169  Biso   1.000  O
  O5       1.0000 0.03126  0.13319  0.45815  Biso   1.000  O
  O6       1.0000 0.03301  0.13685  0.94517  Biso   1.000  O
  O7       1.0000 0.53717  0.13123  0.43620  Biso   1.000  O
  O8       1.0000 0.51955  0.17691  0.96019  Biso   1.000  O
  O9       1.0000 0.46748  0.87825  0.18841  Biso   1.000  O
  O10      1.0000 0.45787  0.88353  0.70057  Biso   1.000  O
  O11      1.0000 0.98124  0.87959  0.18440  Biso   1.000  O
  O12      1.0000 0.96518  0.87043  0.69117  Biso   1.000  O
  O13      1.0000 0.47549  0.64515  0.46107  Biso   1.000  O
  O14      1.0000 0.46241  0.66000  0.93030  Biso   1.000  O
  O15      1.0000 0.96600  0.62751  0.43372  Biso   1.000  O
  O16      1.0000 0.95497  0.63807  0.93754  Biso   1.000  O
  O17      1.0000 0.22037  0.10404  0.25533  Biso   1.000  O
  O18      1.0000 0.27012  0.25268  0.75915  Biso   1.000  O
  O19      1.0000 0.77849  0.23936  0.24680  Biso   1.000  O
  O20      1.0000 0.76490  0.22917  0.74483  Biso   1.000  O
  O21      1.0000 0.27606  0.25406  0.49991  Biso   1.000  O
  O22      1.0000 0.25583  0.27400  0.01589  Biso   1.000  O
  O23      1.0000 0.76923  0.26540  0.49723  Biso   1.000  O
  O24      1.0000 0.76662  0.27447  0.99572  Biso   1.000  O
  O25      1.0000 0.22570  0.75339  0.50428  Biso   1.000  O
  O26      1.0000 0.22124  0.78527  0.01798  Biso   1.000  O
  O27      1.0000 0.73789  0.76980  0.49604  Biso   1.000  O
  O28      1.0000 0.72420  0.77688  0.99396  Biso   1.000  O
  O29      1.0000 0.27874  0.61174  0.26854  Biso   1.000  O
  O30      1.0000 0.22435  0.74891  0.75962  Biso   1.000  O
  O31      1.0000 0.73546  0.74099  0.24547  Biso   1.000  O
  O32      1.0000 0.72996  0.73148  0.74252  Biso   1.000  O
