data_image0
_cell_length_a       10.1306
_cell_length_b       10.3145
_cell_length_c       10.4273
_cell_angle_alpha    90.356
_cell_angle_beta     79.8829
_cell_angle_gamma    90.1257

_symmetry_space_group_name_H-M    "P 1"
_symmetry_int_tables_number       1

loop_
  _symmetry_equiv_pos_as_xyz
  'x, y, z'

loop_
  _atom_site_label
  _atom_site_occupancy
  _atom_site_fract_x
  _atom_site_fract_y
  _atom_site_fract_z
  _atom_site_thermal_displace_type
  _atom_site_B_iso_or_equiv
  _atom_site_type_symbol
  Hf1      1.0000 0.13555  0.02277  0.14566  Biso   1.000  Hf
  Hf2      1.0000 0.14340  0.23274  0.39159  Biso   1.000  Hf
  Hf3      1.0000 0.35087  0.27774  0.09996  Biso   1.000  Hf
  Hf4      1.0000 0.35757  0.47303  0.34793  Biso   1.000  Hf
  O1       1.0000 0.03392  0.17142  0.07948  Biso   1.000  O
  O2       1.0000 0.03648  0.08066  0.33077  Biso   1.000  O
  O3       1.0000 0.45789  0.43076  0.16076  Biso   1.000  O
  O4       1.0000 0.47510  0.33301  0.41865  Biso   1.000  O
  O5       1.0000 0.27508  0.12765  0.23586  Biso   1.000  O
  O6       1.0000 0.29595  0.13030  0.47325  Biso   1.000  O
  O7       1.0000 0.21734  0.38474  0.00241  Biso   1.000  O
  O8       1.0000 0.20719  0.37834  0.25126  Biso   1.000  O
  Hf5      1.0000 0.13556  0.01990  0.64686  Biso   1.000  Hf
  Hf6      1.0000 0.13618  0.22956  0.89349  Biso   1.000  Hf
  Hf7      1.0000 0.36293  0.27278  0.60513  Biso   1.000  Hf
  Hf8      1.0000 0.35982  0.48027  0.85303  Biso   1.000  Hf
  O9       1.0000 0.04379  0.17063  0.57899  Biso   1.000  O
  O10      1.0000 0.03404  0.07904  0.83144  Biso   1.000  O
  O11      1.0000 0.46442  0.42173  0.66881  Biso   1.000  O
  O12      1.0000 0.46261  0.32946  0.91837  Biso   1.000  O
  O13      1.0000 0.27528  0.12854  0.73609  Biso   1.000  O
  O14      1.0000 0.27358  0.12356  0.98706  Biso   1.000  O
  O15      1.0000 0.22558  0.37915  0.50853  Biso   1.000  O
  O16      1.0000 0.22385  0.37050  0.75658  Biso   1.000  O
  Hf9      1.0000 0.13580  0.52534  0.14308  Biso   1.000  Hf
  Hf10     1.0000 0.13821  0.72693  0.39609  Biso   1.000  Hf
  Hf11     1.0000 0.35865  0.77060  0.10316  Biso   1.000  Hf
  Hf12     1.0000 0.36099  0.96610  0.35325  Biso   1.000  Hf
  O17      1.0000 0.03398  0.67488  0.08034  Biso   1.000  O
  O18      1.0000 0.03280  0.58392  0.32937  Biso   1.000  O
  O19      1.0000 0.46380  0.91957  0.16887  Biso   1.000  O
  O20      1.0000 0.46218  0.82085  0.42048  Biso   1.000  O
  O21      1.0000 0.27523  0.62940  0.24040  Biso   1.000  O
  O22      1.0000 0.27437  0.61997  0.49039  Biso   1.000  O
  O23      1.0000 0.22267  0.88123  0.00837  Biso   1.000  O
  O24      1.0000 0.21947  0.86747  0.25715  Biso   1.000  O
  Hf13     1.0000 0.13938  0.52218  0.64482  Biso   1.000  Hf
  Hf14     1.0000 0.13647  0.73082  0.89581  Biso   1.000  Hf
  Hf15     1.0000 0.36149  0.76980  0.60493  Biso   1.000  Hf
  Hf16     1.0000 0.36048  0.97903  0.85439  Biso   1.000  Hf
  O25      1.0000 0.03446  0.66992  0.58220  Biso   1.000  O
  O26      1.0000 0.03614  0.57972  0.83203  Biso   1.000  O
  O27      1.0000 0.46354  0.92144  0.66933  Biso   1.000  O
  O28      1.0000 0.46237  0.82971  0.91808  Biso   1.000  O
  O29      1.0000 0.27620  0.62874  0.74087  Biso   1.000  O
  O30      1.0000 0.27558  0.62389  0.98959  Biso   1.000  O
  O31      1.0000 0.22212  0.88112  0.51078  Biso   1.000  O
  O32      1.0000 0.22252  0.87091  0.75913  Biso   1.000  O
  Hf17     1.0000 0.63853  0.02046  0.15205  Biso   1.000  Hf
  Hf18     1.0000 0.64897  0.22770  0.40149  Biso   1.000  Hf
  Hf19     1.0000 0.85926  0.27272  0.10575  Biso   1.000  Hf
  Hf20     1.0000 0.86159  0.47852  0.35439  Biso   1.000  Hf
  O33      1.0000 0.52698  0.17949  0.11260  Biso   1.000  O
  O34      1.0000 0.54708  0.06311  0.34877  Biso   1.000  O
  O35      1.0000 0.96041  0.42408  0.16607  Biso   1.000  O
  O36      1.0000 0.96487  0.33198  0.41984  Biso   1.000  O
  O37      1.0000 0.77960  0.12939  0.24252  Biso   1.000  O
  O38      1.0000 0.78294  0.11850  0.49614  Biso   1.000  O
  O39      1.0000 0.72106  0.37988  0.01151  Biso   1.000  O
  O40      1.0000 0.72434  0.37118  0.26135  Biso   1.000  O
  Hf21     1.0000 0.63885  0.02199  0.64856  Biso   1.000  Hf
  Hf22     1.0000 0.63813  0.23296  0.89892  Biso   1.000  Hf
  Hf23     1.0000 0.86535  0.27086  0.60549  Biso   1.000  Hf
  Hf24     1.0000 0.86088  0.47967  0.85574  Biso   1.000  Hf
  O41      1.0000 0.53937  0.17347  0.58677  Biso   1.000  O
  O42      1.0000 0.53610  0.07982  0.83863  Biso   1.000  O
  O43      1.0000 0.96437  0.42076  0.67007  Biso   1.000  O
  O44      1.0000 0.96008  0.32828  0.91765  Biso   1.000  O
  O45      1.0000 0.77646  0.13076  0.74456  Biso   1.000  O
  O46      1.0000 0.76777  0.12222  0.99535  Biso   1.000  O
  O47      1.0000 0.72727  0.37849  0.51338  Biso   1.000  O
  O48      1.0000 0.72320  0.36991  0.76207  Biso   1.000  O
  Hf25     1.0000 0.63583  0.52278  0.14787  Biso   1.000  Hf
  Hf26     1.0000 0.63859  0.72571  0.39747  Biso   1.000  Hf
  Hf27     1.0000 0.85831  0.77182  0.10509  Biso   1.000  Hf
  Hf28     1.0000 0.86207  0.97778  0.35595  Biso   1.000  Hf
  O49      1.0000 0.53631  0.67431  0.08296  Biso   1.000  O
  O50      1.0000 0.53477  0.57660  0.33311  Biso   1.000  O
  O51      1.0000 0.96190  0.92116  0.16875  Biso   1.000  O
  O52      1.0000 0.96394  0.83087  0.42124  Biso   1.000  O
  O53      1.0000 0.77535  0.62998  0.24203  Biso   1.000  O
  O54      1.0000 0.77612  0.62023  0.49222  Biso   1.000  O
  O55      1.0000 0.72162  0.88090  0.01182  Biso   1.000  O
  O56      1.0000 0.72267  0.87020  0.26116  Biso   1.000  O
  Hf29     1.0000 0.63990  0.52163  0.64760  Biso   1.000  Hf
  Hf30     1.0000 0.63727  0.72920  0.89773  Biso   1.000  Hf
  Hf31     1.0000 0.85990  0.77148  0.60507  Biso   1.000  Hf
  Hf32     1.0000 0.85735  0.97962  0.85699  Biso   1.000  Hf
  O57      1.0000 0.53660  0.66994  0.58487  Biso   1.000  O
  O58      1.0000 0.53609  0.57905  0.83355  Biso   1.000  O
  O59      1.0000 0.96204  0.92076  0.67115  Biso   1.000  O
  O60      1.0000 0.96109  0.83083  0.91835  Biso   1.000  O
  O61      1.0000 0.77636  0.62936  0.74232  Biso   1.000  O
  O62      1.0000 0.77504  0.62154  0.99200  Biso   1.000  O
  O63      1.0000 0.72242  0.87855  0.51149  Biso   1.000  O
  O64      1.0000 0.72235  0.87154  0.76139  Biso   1.000  O
  Mn1      1.0000 0.42105  0.19611  0.30824  Biso   1.000  Mn
