data_image0
_cell_length_a       9.9669
_cell_length_b       10.1847
_cell_length_c       5.20008
_cell_angle_alpha    89.7804
_cell_angle_beta     89.9148
_cell_angle_gamma    90.0122

_symmetry_space_group_name_H-M    "P 1"
_symmetry_int_tables_number       1

loop_
  _symmetry_equiv_pos_as_xyz
  'x, y, z'

loop_
  _atom_site_label
  _atom_site_occupancy
  _atom_site_fract_x
  _atom_site_fract_y
  _atom_site_fract_z
  _atom_site_thermal_displace_type
  _atom_site_B_iso_or_equiv
  _atom_site_type_symbol
  Mn1      1.0000 0.13334  0.02325  0.35620  Biso   1.000  Mn
  Hf1      1.0000 0.14000  0.52093  0.34435  Biso   1.000  Hf
  Hf2      1.0000 0.13957  0.22487  0.84761  Biso   1.000  Hf
  Hf3      1.0000 0.14005  0.73213  0.84059  Biso   1.000  Hf
  Hf4      1.0000 0.35818  0.26814  0.34645  Biso   1.000  Hf
  Hf5      1.0000 0.35694  0.77573  0.34029  Biso   1.000  Hf
  Hf6      1.0000 0.36105  0.47909  0.84432  Biso   1.000  Hf
  Hf7      1.0000 0.35644  0.97828  0.84446  Biso   1.000  Hf
  Hf8      1.0000 0.63783  0.02154  0.15312  Biso   1.000  Hf
  Hf9      1.0000 0.63838  0.52179  0.16165  Biso   1.000  Hf
  Hf10     1.0000 0.63827  0.22964  0.65794  Biso   1.000  Hf
  Hf11     1.0000 0.63781  0.72978  0.65716  Biso   1.000  Hf
  Hf12     1.0000 0.86419  0.26831  0.16093  Biso   1.000  Hf
  Hf13     1.0000 0.86475  0.77270  0.15499  Biso   1.000  Hf
  Hf14     1.0000 0.86168  0.47881  0.66072  Biso   1.000  Hf
  Hf15     1.0000 0.86336  0.98115  0.65081  Biso   1.000  Hf
  O1       1.0000 0.03322  0.15257  0.16170  Biso   1.000  O
  O2       1.0000 0.03332  0.66489  0.16586  Biso   1.000  O
  O3       1.0000 0.03667  0.08841  0.63370  Biso   1.000  O
  O4       1.0000 0.03359  0.58438  0.66884  Biso   1.000  O
  O5       1.0000 0.46504  0.41700  0.17454  Biso   1.000  O
  O6       1.0000 0.46790  0.91574  0.16803  Biso   1.000  O
  O7       1.0000 0.46439  0.33135  0.67374  Biso   1.000  O
  O8       1.0000 0.46320  0.83396  0.67084  Biso   1.000  O
  O9       1.0000 0.27329  0.12083  0.59259  Biso   1.000  O
  O10      1.0000 0.27686  0.62619  0.59032  Biso   1.000  O
  O11      1.0000 0.26789  0.11819  0.11049  Biso   1.000  O
  O12      1.0000 0.27697  0.62662  0.08958  Biso   1.000  O
  O13      1.0000 0.22322  0.37417  0.59214  Biso   1.000  O
  O14      1.0000 0.21779  0.88091  0.57792  Biso   1.000  O
  O15      1.0000 0.22339  0.37320  0.09037  Biso   1.000  O
  O16      1.0000 0.22026  0.87703  0.08777  Biso   1.000  O
  O17      1.0000 0.53291  0.16663  0.33151  Biso   1.000  O
  O18      1.0000 0.53362  0.66957  0.32913  Biso   1.000  O
  O19      1.0000 0.53021  0.08562  0.83372  Biso   1.000  O
  O20      1.0000 0.53543  0.58180  0.82867  Biso   1.000  O
  O21      1.0000 0.96865  0.41303  0.33548  Biso   1.000  O
  O22      1.0000 0.98177  0.92119  0.32697  Biso   1.000  O
  O23      1.0000 0.96817  0.33067  0.83488  Biso   1.000  O
  O24      1.0000 0.96753  0.83691  0.82861  Biso   1.000  O
  O25      1.0000 0.77797  0.12336  0.90458  Biso   1.000  O
  O26      1.0000 0.77813  0.62583  0.91417  Biso   1.000  O
  O27      1.0000 0.77550  0.12590  0.40698  Biso   1.000  O
  O28      1.0000 0.77770  0.62642  0.41316  Biso   1.000  O
  O29      1.0000 0.72449  0.37335  0.91463  Biso   1.000  O
  O30      1.0000 0.72357  0.87487  0.90695  Biso   1.000  O
  O31      1.0000 0.72420  0.37620  0.41305  Biso   1.000  O
  O32      1.0000 0.73130  0.87708  0.40750  Biso   1.000  O
