data_image0
_cell_length_a       9.99335
_cell_length_b       10.2106
_cell_length_c       10.424
_cell_angle_alpha    89.901
_cell_angle_beta     89.9519
_cell_angle_gamma    90.0185

_symmetry_space_group_name_H-M    "P 1"
_symmetry_int_tables_number       1

loop_
  _symmetry_equiv_pos_as_xyz
  'x, y, z'

loop_
  _atom_site_label
  _atom_site_occupancy
  _atom_site_fract_x
  _atom_site_fract_y
  _atom_site_fract_z
  _atom_site_thermal_displace_type
  _atom_site_B_iso_or_equiv
  _atom_site_type_symbol
  Mn1      1.0000 0.13445  0.02384  0.17883  Biso   1.000  Mn
  Hf1      1.0000 0.13892  0.02108  0.67105  Biso   1.000  Hf
  Hf2      1.0000 0.13959  0.52092  0.17144  Biso   1.000  Hf
  Hf3      1.0000 0.13907  0.52107  0.67207  Biso   1.000  Hf
  Hf4      1.0000 0.13984  0.22982  0.41947  Biso   1.000  Hf
  Hf5      1.0000 0.13795  0.22393  0.92574  Biso   1.000  Hf
  Hf6      1.0000 0.13837  0.73059  0.41988  Biso   1.000  Hf
  Hf7      1.0000 0.14023  0.73034  0.92186  Biso   1.000  Hf
  Hf8      1.0000 0.35892  0.26821  0.17205  Biso   1.000  Hf
  Hf9      1.0000 0.36087  0.27151  0.67235  Biso   1.000  Hf
  Hf10     1.0000 0.35691  0.77526  0.17055  Biso   1.000  Hf
  Hf11     1.0000 0.36157  0.77132  0.67099  Biso   1.000  Hf
  Hf12     1.0000 0.36120  0.48001  0.42156  Biso   1.000  Hf
  Hf13     1.0000 0.36102  0.47808  0.92193  Biso   1.000  Hf
  Hf14     1.0000 0.35867  0.97953  0.41905  Biso   1.000  Hf
  Hf15     1.0000 0.35878  0.97751  0.92433  Biso   1.000  Hf
  Hf16     1.0000 0.63871  0.02185  0.07756  Biso   1.000  Hf
  Hf17     1.0000 0.63777  0.02076  0.57746  Biso   1.000  Hf
  Hf18     1.0000 0.63833  0.52162  0.07967  Biso   1.000  Hf
  Hf19     1.0000 0.63912  0.52126  0.57975  Biso   1.000  Hf
  Hf20     1.0000 0.63805  0.22914  0.32856  Biso   1.000  Hf
  Hf21     1.0000 0.63896  0.22928  0.82906  Biso   1.000  Hf
  Hf22     1.0000 0.63788  0.72946  0.32744  Biso   1.000  Hf
  Hf23     1.0000 0.63888  0.72919  0.82986  Biso   1.000  Hf
  Hf24     1.0000 0.86427  0.26850  0.08097  Biso   1.000  Hf
  Hf25     1.0000 0.86115  0.27079  0.57814  Biso   1.000  Hf
  Hf26     1.0000 0.86567  0.77302  0.07826  Biso   1.000  Hf
  Hf27     1.0000 0.86046  0.77106  0.57803  Biso   1.000  Hf
  Hf28     1.0000 0.86077  0.47957  0.32855  Biso   1.000  Hf
  Hf29     1.0000 0.86204  0.47817  0.83048  Biso   1.000  Hf
  Hf30     1.0000 0.86405  0.98092  0.32629  Biso   1.000  Hf
  Hf31     1.0000 0.86060  0.97907  0.82745  Biso   1.000  Hf
  O1       1.0000 0.03498  0.15808  0.08815  Biso   1.000  O
  O2       1.0000 0.03125  0.16089  0.57712  Biso   1.000  O
  O3       1.0000 0.03403  0.66584  0.08469  Biso   1.000  O
  O4       1.0000 0.03285  0.66552  0.58280  Biso   1.000  O
  O5       1.0000 0.03841  0.08608  0.32141  Biso   1.000  O
  O6       1.0000 0.03151  0.08565  0.83050  Biso   1.000  O
  O7       1.0000 0.03335  0.58424  0.33377  Biso   1.000  O
  O8       1.0000 0.03373  0.58381  0.83504  Biso   1.000  O
  O9       1.0000 0.46590  0.41581  0.08608  Biso   1.000  O
  O10      1.0000 0.46572  0.41767  0.58550  Biso   1.000  O
  O11      1.0000 0.46861  0.91526  0.08432  Biso   1.000  O
  O12      1.0000 0.46550  0.91693  0.58408  Biso   1.000  O
  O13      1.0000 0.46385  0.33105  0.33629  Biso   1.000  O
  O14      1.0000 0.46686  0.33376  0.83498  Biso   1.000  O
  O15      1.0000 0.46429  0.83427  0.33413  Biso   1.000  O
  O16      1.0000 0.46563  0.83335  0.83570  Biso   1.000  O
  O17      1.0000 0.27175  0.12062  0.29229  Biso   1.000  O
  O18      1.0000 0.27689  0.12343  0.79813  Biso   1.000  O
  O19      1.0000 0.27621  0.62624  0.29500  Biso   1.000  O
  O20      1.0000 0.27721  0.62363  0.79500  Biso   1.000  O
  O21      1.0000 0.26767  0.11748  0.05492  Biso   1.000  O
  O22      1.0000 0.27696  0.12724  0.54468  Biso   1.000  O
  O23      1.0000 0.27686  0.62595  0.04491  Biso   1.000  O
  O24      1.0000 0.27669  0.62691  0.54467  Biso   1.000  O
  O25      1.0000 0.22364  0.37492  0.29496  Biso   1.000  O
  O26      1.0000 0.22314  0.37300  0.79578  Biso   1.000  O
  O27      1.0000 0.21830  0.88041  0.28992  Biso   1.000  O
  O28      1.0000 0.22310  0.87378  0.79393  Biso   1.000  O
  O29      1.0000 0.22410  0.37338  0.04542  Biso   1.000  O
  O30      1.0000 0.22277  0.37619  0.54457  Biso   1.000  O
  O31      1.0000 0.22124  0.87681  0.04538  Biso   1.000  O
  O32      1.0000 0.22274  0.87650  0.54330  Biso   1.000  O
  O33      1.0000 0.53283  0.16630  0.16573  Biso   1.000  O
  O34      1.0000 0.53343  0.16661  0.66565  Biso   1.000  O
  O35      1.0000 0.53292  0.66840  0.16481  Biso   1.000  O
  O36      1.0000 0.53441  0.66748  0.66532  Biso   1.000  O
  O37      1.0000 0.53273  0.08331  0.41466  Biso   1.000  O
  O38      1.0000 0.53077  0.08593  0.91775  Biso   1.000  O
  O39      1.0000 0.53428  0.58326  0.41483  Biso   1.000  O
  O40      1.0000 0.53470  0.58219  0.91507  Biso   1.000  O
  O41      1.0000 0.96750  0.41579  0.16602  Biso   1.000  O
  O42      1.0000 0.96766  0.41345  0.66744  Biso   1.000  O
  O43      1.0000 0.98188  0.92251  0.16419  Biso   1.000  O
  O44      1.0000 0.96716  0.91488  0.66540  Biso   1.000  O
  O45      1.0000 0.96643  0.33331  0.41465  Biso   1.000  O
  O46      1.0000 0.96827  0.33175  0.91877  Biso   1.000  O
  O47      1.0000 0.96667  0.83578  0.41447  Biso   1.000  O
  O48      1.0000 0.96722  0.83470  0.91556  Biso   1.000  O
  O49      1.0000 0.77646  0.12389  0.95434  Biso   1.000  O
  O50      1.0000 0.77792  0.12328  0.45303  Biso   1.000  O
  O51      1.0000 0.77840  0.62558  0.95706  Biso   1.000  O
  O52      1.0000 0.77640  0.62400  0.45526  Biso   1.000  O
  O53      1.0000 0.77566  0.12596  0.20457  Biso   1.000  O
  O54      1.0000 0.77627  0.12607  0.70397  Biso   1.000  O
  O55      1.0000 0.77697  0.62683  0.20540  Biso   1.000  O
  O56      1.0000 0.77744  0.62585  0.70637  Biso   1.000  O
  O57      1.0000 0.72468  0.37372  0.95640  Biso   1.000  O
  O58      1.0000 0.72300  0.37342  0.45602  Biso   1.000  O
  O59      1.0000 0.72381  0.87442  0.95494  Biso   1.000  O
  O60      1.0000 0.72307  0.87418  0.45376  Biso   1.000  O
  O61      1.0000 0.72390  0.37585  0.20582  Biso   1.000  O
  O62      1.0000 0.72361  0.37651  0.70590  Biso   1.000  O
  O63      1.0000 0.73190  0.87721  0.20421  Biso   1.000  O
  O64      1.0000 0.72289  0.87615  0.70457  Biso   1.000  O
