data_image0
_cell_length_a       10.053
_cell_length_b       10.2424
_cell_length_c       10.4845
_cell_angle_alpha    89.6713
_cell_angle_beta     90.4013
_cell_angle_gamma    89.8946

_symmetry_space_group_name_H-M    "P 1"
_symmetry_int_tables_number       1

loop_
  _symmetry_equiv_pos_as_xyz
  'x, y, z'

loop_
  _atom_site_label
  _atom_site_occupancy
  _atom_site_fract_x
  _atom_site_fract_y
  _atom_site_fract_z
  _atom_site_thermal_displace_type
  _atom_site_B_iso_or_equiv
  _atom_site_type_symbol
  Hf1      1.0000 0.13995  0.01976  0.17143  Biso   1.000  Hf
  Hf2      1.0000 0.13623  0.22953  0.42239  Biso   1.000  Hf
  Hf3      1.0000 0.35611  0.26884  0.17550  Biso   1.000  Hf
  Hf4      1.0000 0.36047  0.48062  0.42351  Biso   1.000  Hf
  Hf5      1.0000 0.63726  0.01965  0.06922  Biso   1.000  Hf
  Hf6      1.0000 0.63329  0.23189  0.33777  Biso   1.000  Hf
  Hf7      1.0000 0.87396  0.27174  0.07441  Biso   1.000  Hf
  Hf8      1.0000 0.86205  0.48085  0.33069  Biso   1.000  Hf
  O1       1.0000 0.03898  0.16294  0.07913  Biso   1.000  O
  O2       1.0000 0.02757  0.09060  0.32782  Biso   1.000  O
  O3       1.0000 0.47670  0.40560  0.08250  Biso   1.000  O
  O4       1.0000 0.46192  0.33532  0.33659  Biso   1.000  O
  O5       1.0000 0.27108  0.12387  0.29715  Biso   1.000  O
  O6       1.0000 0.27838  0.12367  0.04361  Biso   1.000  O
  O7       1.0000 0.22096  0.37447  0.29617  Biso   1.000  O
  O8       1.0000 0.22679  0.37608  0.04476  Biso   1.000  O
  O9       1.0000 0.51358  0.14278  0.17841  Biso   1.000  O
  O10      1.0000 0.52961  0.08657  0.42444  Biso   1.000  O
  O11      1.0000 0.96896  0.41561  0.16891  Biso   1.000  O
  O12      1.0000 0.96615  0.33744  0.41950  Biso   1.000  O
  O13      1.0000 0.77758  0.12267  0.45354  Biso   1.000  O
  O14      1.0000 0.75653  0.14530  0.19303  Biso   1.000  O
  O15      1.0000 0.72359  0.37395  0.46121  Biso   1.000  O
  O16      1.0000 0.72194  0.38951  0.21235  Biso   1.000  O
  Hf9      1.0000 0.13969  0.02046  0.67044  Biso   1.000  Hf
  Hf10     1.0000 0.14399  0.22637  0.91830  Biso   1.000  Hf
  Hf11     1.0000 0.36405  0.27011  0.67177  Biso   1.000  Hf
  Hf12     1.0000 0.36252  0.47749  0.92041  Biso   1.000  Hf
  Hf13     1.0000 0.63850  0.02177  0.58062  Biso   1.000  Hf
  Hf14     1.0000 0.64027  0.22511  0.83505  Biso   1.000  Hf
  Hf15     1.0000 0.86068  0.27041  0.58143  Biso   1.000  Hf
  Hf16     1.0000 0.86253  0.47892  0.82908  Biso   1.000  Hf
  O17      1.0000 0.03236  0.16411  0.58218  Biso   1.000  O
  O18      1.0000 0.03697  0.08397  0.83088  Biso   1.000  O
  O19      1.0000 0.46749  0.41613  0.58496  Biso   1.000  O
  O20      1.0000 0.46782  0.33336  0.83554  Biso   1.000  O
  O21      1.0000 0.27865  0.12231  0.79371  Biso   1.000  O
  O22      1.0000 0.27552  0.12624  0.54528  Biso   1.000  O
  O23      1.0000 0.22567  0.37299  0.79444  Biso   1.000  O
  O24      1.0000 0.22375  0.37632  0.54547  Biso   1.000  O
  O25      1.0000 0.53448  0.16584  0.66819  Biso   1.000  O
  O26      1.0000 0.53438  0.07051  0.90452  Biso   1.000  O
  O27      1.0000 0.96664  0.41519  0.66707  Biso   1.000  O
  O28      1.0000 0.97219  0.33554  0.91351  Biso   1.000  O
  O29      1.0000 0.79040  0.11717  0.94836  Biso   1.000  O
  O30      1.0000 0.77737  0.12493  0.70319  Biso   1.000  O
  O31      1.0000 0.72360  0.37126  0.96545  Biso   1.000  O
  O32      1.0000 0.72466  0.37574  0.71142  Biso   1.000  O
  Hf17     1.0000 0.13967  0.52179  0.17227  Biso   1.000  Hf
  Hf18     1.0000 0.13762  0.72973  0.42141  Biso   1.000  Hf
  Hf19     1.0000 0.36065  0.77165  0.17240  Biso   1.000  Hf
  Hf20     1.0000 0.36139  0.97881  0.42357  Biso   1.000  Hf
  Hf21     1.0000 0.64334  0.53151  0.07947  Biso   1.000  Hf
  Hf22     1.0000 0.63884  0.73131  0.32933  Biso   1.000  Hf
  Hf23     1.0000 0.86369  0.77442  0.07841  Biso   1.000  Hf
  Hf24     1.0000 0.85999  0.98012  0.32784  Biso   1.000  Hf
  O33      1.0000 0.03397  0.66505  0.08267  Biso   1.000  O
  O34      1.0000 0.03269  0.58740  0.33202  Biso   1.000  O
  O35      1.0000 0.46653  0.90881  0.07884  Biso   1.000  O
  O36      1.0000 0.46727  0.83750  0.33252  Biso   1.000  O
  O37      1.0000 0.27525  0.62458  0.29630  Biso   1.000  O
  O38      1.0000 0.27869  0.62375  0.04595  Biso   1.000  O
  O39      1.0000 0.22310  0.87398  0.29579  Biso   1.000  O
  O40      1.0000 0.22163  0.87403  0.04583  Biso   1.000  O
  O41      1.0000 0.53115  0.66401  0.17044  Biso   1.000  O
  O42      1.0000 0.53271  0.58669  0.41870  Biso   1.000  O
  O43      1.0000 0.96618  0.91864  0.16594  Biso   1.000  O
  O44      1.0000 0.96535  0.83827  0.41511  Biso   1.000  O
  O45      1.0000 0.77613  0.62423  0.45507  Biso   1.000  O
  O46      1.0000 0.77902  0.63442  0.20551  Biso   1.000  O
  O47      1.0000 0.72290  0.87452  0.45541  Biso   1.000  O
  O48      1.0000 0.72478  0.88149  0.20518  Biso   1.000  O
  Hf25     1.0000 0.13825  0.52027  0.67091  Biso   1.000  Hf
  Hf26     1.0000 0.13954  0.72705  0.92153  Biso   1.000  Hf
  Hf27     1.0000 0.36164  0.76940  0.67164  Biso   1.000  Hf
  Hf28     1.0000 0.36051  0.97430  0.92009  Biso   1.000  Hf
  Hf29     1.0000 0.63936  0.52083  0.58003  Biso   1.000  Hf
  Hf30     1.0000 0.63942  0.72848  0.82728  Biso   1.000  Hf
  Hf31     1.0000 0.86087  0.77177  0.57824  Biso   1.000  Hf
  Hf32     1.0000 0.86422  0.97749  0.82658  Biso   1.000  Hf
  O49      1.0000 0.03209  0.66481  0.58123  Biso   1.000  O
  O50      1.0000 0.03317  0.58508  0.83147  Biso   1.000  O
  O51      1.0000 0.46727  0.91345  0.58484  Biso   1.000  O
  O52      1.0000 0.46583  0.82932  0.83278  Biso   1.000  O
  O53      1.0000 0.27677  0.62110  0.79518  Biso   1.000  O
  O54      1.0000 0.27478  0.62622  0.54547  Biso   1.000  O
  O55      1.0000 0.22374  0.87140  0.79449  Biso   1.000  O
  O56      1.0000 0.22390  0.87581  0.54466  Biso   1.000  O
  O57      1.0000 0.53304  0.66365  0.66729  Biso   1.000  O
  O58      1.0000 0.53370  0.58495  0.91837  Biso   1.000  O
  O59      1.0000 0.96898  0.91412  0.66399  Biso   1.000  O
  O60      1.0000 0.97005  0.83458  0.91661  Biso   1.000  O
  O61      1.0000 0.77927  0.62379  0.95410  Biso   1.000  O
  O62      1.0000 0.77739  0.62585  0.70458  Biso   1.000  O
  O63      1.0000 0.72564  0.87044  0.95354  Biso   1.000  O
  O64      1.0000 0.72483  0.87470  0.70468  Biso   1.000  O
  Mn1      1.0000 0.61823  0.27319  0.10438  Biso   1.000  Mn
