data_image0
_cell_length_a       9.96476
_cell_length_b       5.09642
_cell_length_c       10.3942
_cell_angle_alpha    89.7367
_cell_angle_beta     89.9478
_cell_angle_gamma    90.0483

_symmetry_space_group_name_H-M    "P 1"
_symmetry_int_tables_number       1

loop_
  _symmetry_equiv_pos_as_xyz
  'x, y, z'

loop_
  _atom_site_label
  _atom_site_occupancy
  _atom_site_fract_x
  _atom_site_fract_y
  _atom_site_fract_z
  _atom_site_thermal_displace_type
  _atom_site_B_iso_or_equiv
  _atom_site_type_symbol
  Mn1      1.0000 0.13308  0.04910  0.17997  Biso   1.000  Mn
  Hf1      1.0000 0.13926  0.04245  0.67158  Biso   1.000  Hf
  Hf2      1.0000 0.13958  0.46487  0.41793  Biso   1.000  Hf
  Hf3      1.0000 0.14026  0.45047  0.92570  Biso   1.000  Hf
  Hf4      1.0000 0.35466  0.54382  0.17086  Biso   1.000  Hf
  Hf5      1.0000 0.36126  0.54377  0.67164  Biso   1.000  Hf
  Hf6      1.0000 0.35821  0.96184  0.41842  Biso   1.000  Hf
  Hf7      1.0000 0.35849  0.95277  0.92500  Biso   1.000  Hf
  Hf8      1.0000 0.63841  0.04437  0.07856  Biso   1.000  Hf
  Hf9      1.0000 0.63776  0.04202  0.57878  Biso   1.000  Hf
  Hf10     1.0000 0.63680  0.45959  0.32731  Biso   1.000  Hf
  Hf11     1.0000 0.63919  0.45918  0.83041  Biso   1.000  Hf
  Hf12     1.0000 0.86899  0.54034  0.08098  Biso   1.000  Hf
  Hf13     1.0000 0.86033  0.54174  0.57779  Biso   1.000  Hf
  Hf14     1.0000 0.86278  0.96373  0.32714  Biso   1.000  Hf
  Hf15     1.0000 0.86155  0.95654  0.82943  Biso   1.000  Hf
  O1       1.0000 0.03619  0.31715  0.09003  Biso   1.000  O
  O2       1.0000 0.03083  0.32169  0.57591  Biso   1.000  O
  O3       1.0000 0.03733  0.17378  0.32205  Biso   1.000  O
  O4       1.0000 0.03206  0.17052  0.83156  Biso   1.000  O
  O5       1.0000 0.46824  0.83014  0.08670  Biso   1.000  O
  O6       1.0000 0.46414  0.83811  0.58541  Biso   1.000  O
  O7       1.0000 0.46086  0.66145  0.33680  Biso   1.000  O
  O8       1.0000 0.46590  0.66595  0.83650  Biso   1.000  O
  O9       1.0000 0.27065  0.24688  0.29239  Biso   1.000  O
  O10      1.0000 0.27784  0.24610  0.79801  Biso   1.000  O
  O11      1.0000 0.26766  0.23250  0.05496  Biso   1.000  O
  O12      1.0000 0.27711  0.25651  0.54419  Biso   1.000  O
  O13      1.0000 0.21846  0.76392  0.28932  Biso   1.000  O
  O14      1.0000 0.22258  0.74535  0.79431  Biso   1.000  O
  O15      1.0000 0.22344  0.74379  0.04430  Biso   1.000  O
  O16      1.0000 0.22186  0.75397  0.54261  Biso   1.000  O
  O17      1.0000 0.53256  0.33753  0.16433  Biso   1.000  O
  O18      1.0000 0.53466  0.33696  0.66468  Biso   1.000  O
  O19      1.0000 0.53381  0.16420  0.41301  Biso   1.000  O
  O20      1.0000 0.53254  0.16752  0.91661  Biso   1.000  O
  O21      1.0000 0.98436  0.84352  0.16477  Biso   1.000  O
  O22      1.0000 0.96809  0.82505  0.66684  Biso   1.000  O
  O23      1.0000 0.96608  0.67068  0.41319  Biso   1.000  O
  O24      1.0000 0.96905  0.66482  0.91873  Biso   1.000  O
  O25      1.0000 0.77897  0.25121  0.95651  Biso   1.000  O
  O26      1.0000 0.77744  0.24735  0.45331  Biso   1.000  O
  O27      1.0000 0.77613  0.25271  0.20477  Biso   1.000  O
  O28      1.0000 0.77714  0.25151  0.70536  Biso   1.000  O
  O29      1.0000 0.72504  0.74858  0.95629  Biso   1.000  O
  O30      1.0000 0.72228  0.74785  0.45478  Biso   1.000  O
  O31      1.0000 0.73304  0.75305  0.20493  Biso   1.000  O
  O32      1.0000 0.72306  0.75304  0.70536  Biso   1.000  O
