data_image0
_cell_length_a       10.1565
_cell_length_b       5.17668
_cell_length_c       10.4108
_cell_angle_alpha    90.6164
_cell_angle_beta     79.4317
_cell_angle_gamma    90.2177

_symmetry_space_group_name_H-M    "P 1"
_symmetry_int_tables_number       1

loop_
  _symmetry_equiv_pos_as_xyz
  'x, y, z'

loop_
  _atom_site_label
  _atom_site_occupancy
  _atom_site_fract_x
  _atom_site_fract_y
  _atom_site_fract_z
  _atom_site_thermal_displace_type
  _atom_site_B_iso_or_equiv
  _atom_site_type_symbol
  Hf1      1.0000 0.13318  0.05208  0.14352  Biso   1.000  Hf
  Hf2      1.0000 0.14071  0.46277  0.39297  Biso   1.000  Hf
  Hf3      1.0000 0.35090  0.55457  0.09977  Biso   1.000  Hf
  Hf4      1.0000 0.35845  0.91733  0.34717  Biso   1.000  Hf
  O1       1.0000 0.03188  0.35055  0.07925  Biso   1.000  O
  O2       1.0000 0.03262  0.16884  0.32978  Biso   1.000  O
  O3       1.0000 0.45929  0.86320  0.15942  Biso   1.000  O
  O4       1.0000 0.47269  0.65116  0.42078  Biso   1.000  O
  O5       1.0000 0.27231  0.25757  0.23547  Biso   1.000  O
  O6       1.0000 0.29053  0.25232  0.47548  Biso   1.000  O
  O7       1.0000 0.21770  0.77172  0.00284  Biso   1.000  O
  O8       1.0000 0.20565  0.75102  0.25054  Biso   1.000  O
  Hf5      1.0000 0.13739  0.04317  0.64459  Biso   1.000  Hf
  Hf6      1.0000 0.13447  0.46282  0.89406  Biso   1.000  Hf
  Hf7      1.0000 0.36246  0.54293  0.60653  Biso   1.000  Hf
  Hf8      1.0000 0.35913  0.96169  0.85377  Biso   1.000  Hf
  O9       1.0000 0.04045  0.34104  0.58074  Biso   1.000  O
  O10      1.0000 0.03483  0.15853  0.83172  Biso   1.000  O
  O11      1.0000 0.46419  0.84490  0.66914  Biso   1.000  O
  O12      1.0000 0.46183  0.65977  0.91710  Biso   1.000  O
  O13      1.0000 0.27513  0.25681  0.73694  Biso   1.000  O
  O14      1.0000 0.27266  0.25212  0.98665  Biso   1.000  O
  O15      1.0000 0.22293  0.75786  0.51107  Biso   1.000  O
  O16      1.0000 0.22321  0.74205  0.75704  Biso   1.000  O
  Hf9      1.0000 0.63639  0.04448  0.15253  Biso   1.000  Hf
  Hf10     1.0000 0.64829  0.45277  0.40273  Biso   1.000  Hf
  Hf11     1.0000 0.85728  0.54681  0.10648  Biso   1.000  Hf
  Hf12     1.0000 0.86202  0.95705  0.35618  Biso   1.000  Hf
  O17      1.0000 0.52883  0.36581  0.10932  Biso   1.000  O
  O18      1.0000 0.54460  0.12436  0.34869  Biso   1.000  O
  O19      1.0000 0.95921  0.84939  0.16642  Biso   1.000  O
  O20      1.0000 0.96400  0.66556  0.42179  Biso   1.000  O
  O21      1.0000 0.77803  0.26168  0.24392  Biso   1.000  O
  O22      1.0000 0.78141  0.23802  0.49753  Biso   1.000  O
  O23      1.0000 0.72051  0.76358  0.01344  Biso   1.000  O
  O24      1.0000 0.72352  0.74301  0.26297  Biso   1.000  O
  Hf13     1.0000 0.63930  0.04545  0.65051  Biso   1.000  Hf
  Hf14     1.0000 0.63615  0.46606  0.90195  Biso   1.000  Hf
  Hf15     1.0000 0.86322  0.54338  0.60713  Biso   1.000  Hf
  Hf16     1.0000 0.85826  0.96156  0.85784  Biso   1.000  Hf
  O25      1.0000 0.53843  0.34499  0.58920  Biso   1.000  O
  O26      1.0000 0.53546  0.15958  0.84015  Biso   1.000  O
  O27      1.0000 0.96335  0.84367  0.67130  Biso   1.000  O
  O28      1.0000 0.95872  0.65953  0.91719  Biso   1.000  O
  O29      1.0000 0.77571  0.26221  0.74626  Biso   1.000  O
  O30      1.0000 0.76824  0.24614  0.99619  Biso   1.000  O
  O31      1.0000 0.72546  0.75682  0.51512  Biso   1.000  O
  O32      1.0000 0.72254  0.74167  0.76419  Biso   1.000  O
  Mn1      1.0000 0.41781  0.37955  0.30959  Biso   1.000  Mn
