data_image0
_cell_length_a       10.0345
_cell_length_b       10.2686
_cell_length_c       10.0345
_cell_angle_alpha    89.9891
_cell_angle_beta     89.7326
_cell_angle_gamma    90.0164

_symmetry_space_group_name_H-M    "P 1"
_symmetry_int_tables_number       1

loop_
  _symmetry_equiv_pos_as_xyz
  'x, y, z'

loop_
  _atom_site_label
  _atom_site_occupancy
  _atom_site_fract_x
  _atom_site_fract_y
  _atom_site_fract_z
  _atom_site_thermal_displace_type
  _atom_site_B_iso_or_equiv
  _atom_site_type_symbol
  Hf1      1.0000 0.12250  0.96380  0.12734  Biso   1.000  Hf
  Hf2      1.0000 0.12847  0.25287  0.38285  Biso   1.000  Hf
  Hf3      1.0000 0.37981  0.25804  0.12871  Biso   1.000  Hf
  Hf4      1.0000 0.37574  0.00494  0.37698  Biso   1.000  Hf
  O1       1.0000 0.98923  0.15510  0.98826  Biso   1.000  O
  O2       1.0000 0.00494  0.08891  0.24433  Biso   1.000  O
  O3       1.0000 0.01965  0.33354  0.23010  Biso   1.000  O
  O4       1.0000 0.00551  0.40587  0.98717  Biso   1.000  O
  O5       1.0000 0.26126  0.15489  0.26044  Biso   1.000  O
  O6       1.0000 0.23867  0.09708  0.01105  Biso   1.000  O
  O7       1.0000 0.26427  0.34872  0.98558  Biso   1.000  O
  O8       1.0000 0.26254  0.40573  0.24447  Biso   1.000  O
  Hf5      1.0000 0.12408  0.99788  0.62695  Biso   1.000  Hf
  Hf6      1.0000 0.12116  0.25815  0.86993  Biso   1.000  Hf
  Hf7      1.0000 0.37256  0.25023  0.62946  Biso   1.000  Hf
  Hf8      1.0000 0.36769  0.00499  0.88211  Biso   1.000  Hf
  O9       1.0000 0.99718  0.14939  0.49588  Biso   1.000  O
  O10      1.0000 0.99504  0.10383  0.74412  Biso   1.000  O
  O11      1.0000 0.99877  0.35656  0.73805  Biso   1.000  O
  O12      1.0000 0.00752  0.40146  0.48645  Biso   1.000  O
  O13      1.0000 0.24953  0.14785  0.75476  Biso   1.000  O
  O14      1.0000 0.25033  0.10318  0.50608  Biso   1.000  O
  O15      1.0000 0.25777  0.35513  0.49798  Biso   1.000  O
  O16      1.0000 0.24945  0.40040  0.74414  Biso   1.000  O
  Hf9      1.0000 0.12485  0.49828  0.12500  Biso   1.000  Hf
  Hf10     1.0000 0.12755  0.74640  0.38009  Biso   1.000  Hf
  Hf11     1.0000 0.37804  0.74629  0.12679  Biso   1.000  Hf
  Hf12     1.0000 0.37747  0.50196  0.37781  Biso   1.000  Hf
  O17      1.0000 0.00268  0.64982  0.00357  Biso   1.000  O
  O18      1.0000 0.99838  0.58964  0.25177  Biso   1.000  O
  O19      1.0000 0.99837  0.83810  0.25144  Biso   1.000  O
  O20      1.0000 0.99007  0.89356  0.99567  Biso   1.000  O
  O21      1.0000 0.24648  0.64971  0.24725  Biso   1.000  O
  O22      1.0000 0.25160  0.59861  0.99831  Biso   1.000  O
  O23      1.0000 0.24875  0.84379  0.00107  Biso   1.000  O
  O24      1.0000 0.25411  0.89343  0.25976  Biso   1.000  O
  Hf13     1.0000 0.12224  0.50162  0.62329  Biso   1.000  Hf
  Hf14     1.0000 0.12296  0.74634  0.87179  Biso   1.000  Hf
  Hf15     1.0000 0.37490  0.75317  0.62781  Biso   1.000  Hf
  Hf16     1.0000 0.37429  0.49827  0.87558  Biso   1.000  Hf
  O25      1.0000 0.99506  0.64952  0.50228  Biso   1.000  O
  O26      1.0000 0.00120  0.60481  0.75123  Biso   1.000  O
  O27      1.0000 0.00019  0.85375  0.74859  Biso   1.000  O
  O28      1.0000 0.99939  0.89975  0.49955  Biso   1.000  O
  O29      1.0000 0.24970  0.64790  0.74736  Biso   1.000  O
  O30      1.0000 0.24597  0.60323  0.49619  Biso   1.000  O
  O31      1.0000 0.24690  0.85234  0.50669  Biso   1.000  O
  O32      1.0000 0.24805  0.89926  0.75488  Biso   1.000  O
  Hf17     1.0000 0.62280  0.99792  0.12577  Biso   1.000  Hf
  Hf18     1.0000 0.62615  0.24876  0.37785  Biso   1.000  Hf
  Hf19     1.0000 0.86689  0.25269  0.12143  Biso   1.000  Hf
  Hf20     1.0000 0.87572  0.00171  0.37406  Biso   1.000  Hf
  O33      1.0000 0.49500  0.14786  0.00028  Biso   1.000  O
  O34      1.0000 0.50542  0.10382  0.25472  Biso   1.000  O
  O35      1.0000 0.51170  0.35653  0.25105  Biso   1.000  O
  O36      1.0000 0.50572  0.40037  0.00037  Biso   1.000  O
  O37      1.0000 0.75356  0.14933  0.25255  Biso   1.000  O
  O38      1.0000 0.74367  0.10315  0.99942  Biso   1.000  O
  O39      1.0000 0.75188  0.35510  0.99207  Biso   1.000  O
  O40      1.0000 0.76338  0.40141  0.24231  Biso   1.000  O
  Hf21     1.0000 0.62223  0.00276  0.62755  Biso   1.000  Hf
  Hf22     1.0000 0.62037  0.25022  0.87727  Biso   1.000  Hf
  Hf23     1.0000 0.87201  0.24873  0.62356  Biso   1.000  Hf
  Hf24     1.0000 0.87285  0.00503  0.87398  Biso   1.000  Hf
  O41      1.0000 0.50037  0.15122  0.50357  Biso   1.000  O
  O42      1.0000 0.49659  0.10230  0.75324  Biso   1.000  O
  O43      1.0000 0.49897  0.35290  0.75086  Biso   1.000  O
  O44      1.0000 0.50498  0.40055  0.50004  Biso   1.000  O
  O45      1.0000 0.74625  0.15124  0.74940  Biso   1.000  O
  O46      1.0000 0.74891  0.10256  0.50086  Biso   1.000  O
  O47      1.0000 0.75571  0.35436  0.49409  Biso   1.000  O
  O48      1.0000 0.74977  0.40054  0.74485  Biso   1.000  O
  Hf25     1.0000 0.62661  0.50155  0.12755  Biso   1.000  Hf
  Hf26     1.0000 0.62346  0.75486  0.37699  Biso   1.000  Hf
  Hf27     1.0000 0.86964  0.74654  0.12221  Biso   1.000  Hf
  Hf28     1.0000 0.86853  0.50595  0.38130  Biso   1.000  Hf
  O49      1.0000 0.50251  0.64787  0.00009  Biso   1.000  O
  O50      1.0000 0.49874  0.60478  0.24862  Biso   1.000  O
  O51      1.0000 0.50123  0.85373  0.24958  Biso   1.000  O
  O52      1.0000 0.49493  0.89926  0.00172  Biso   1.000  O
  O53      1.0000 0.74772  0.64950  0.25479  Biso   1.000  O
  O54      1.0000 0.75368  0.60324  0.00388  Biso   1.000  O
  O55      1.0000 0.74311  0.85237  0.00285  Biso   1.000  O
  O56      1.0000 0.75024  0.89972  0.25035  Biso   1.000  O
  Hf29     1.0000 0.62210  0.50200  0.62775  Biso   1.000  Hf
  Hf30     1.0000 0.62196  0.75321  0.87485  Biso   1.000  Hf
  Hf31     1.0000 0.87275  0.75491  0.62634  Biso   1.000  Hf
  Hf32     1.0000 0.87200  0.50192  0.87238  Biso   1.000  Hf
  O57      1.0000 0.49569  0.65184  0.49882  Biso   1.000  O
  O58      1.0000 0.50003  0.60471  0.74976  Biso   1.000  O
  O59      1.0000 0.49952  0.85447  0.75025  Biso   1.000  O
  O60      1.0000 0.49893  0.90163  0.50072  Biso   1.000  O
  O61      1.0000 0.75098  0.65183  0.75413  Biso   1.000  O
  O62      1.0000 0.74566  0.60642  0.50416  Biso   1.000  O
  O63      1.0000 0.74866  0.85465  0.50111  Biso   1.000  O
  O64      1.0000 0.74906  0.90165  0.75084  Biso   1.000  O
  Mn1      1.0000 0.12271  0.19352  0.12693  Biso   1.000  Mn
