data_image0
_cell_length_a       9.9293
_cell_length_b       10.3692
_cell_length_c       9.98224
_cell_angle_alpha    90.3028
_cell_angle_beta     89.6767
_cell_angle_gamma    90.2017

_symmetry_space_group_name_H-M    "P 1"
_symmetry_int_tables_number       1

loop_
  _symmetry_equiv_pos_as_xyz
  'x, y, z'

loop_
  _atom_site_label
  _atom_site_occupancy
  _atom_site_fract_x
  _atom_site_fract_y
  _atom_site_fract_z
  _atom_site_thermal_displace_type
  _atom_site_B_iso_or_equiv
  _atom_site_type_symbol
  Mn1      1.0000 0.12120  0.03600  0.11101  Biso   1.000  Mn
  Hf1      1.0000 0.13527  0.01773  0.62767  Biso   1.000  Hf
  Hf2      1.0000 0.13394  0.51464  0.12628  Biso   1.000  Hf
  Hf3      1.0000 0.13488  0.51734  0.62644  Biso   1.000  Hf
  Hf4      1.0000 0.63443  0.01686  0.12528  Biso   1.000  Hf
  Hf5      1.0000 0.63006  0.01481  0.62354  Biso   1.000  Hf
  Hf6      1.0000 0.63406  0.51704  0.12757  Biso   1.000  Hf
  Hf7      1.0000 0.63369  0.51752  0.62518  Biso   1.000  Hf
  Hf8      1.0000 0.13346  0.22937  0.37227  Biso   1.000  Hf
  Hf9      1.0000 0.13289  0.23702  0.87604  Biso   1.000  Hf
  Hf10     1.0000 0.13677  0.73165  0.37867  Biso   1.000  Hf
  Hf11     1.0000 0.13397  0.73643  0.88037  Biso   1.000  Hf
  Hf12     1.0000 0.63382  0.23233  0.37700  Biso   1.000  Hf
  Hf13     1.0000 0.63185  0.23378  0.87398  Biso   1.000  Hf
  Hf14     1.0000 0.63607  0.73542  0.37496  Biso   1.000  Hf
  Hf15     1.0000 0.63189  0.73508  0.87629  Biso   1.000  Hf
  Hf16     1.0000 0.36567  0.26317  0.12451  Biso   1.000  Hf
  Hf17     1.0000 0.36523  0.26688  0.62529  Biso   1.000  Hf
  Hf18     1.0000 0.36508  0.76493  0.12806  Biso   1.000  Hf
  Hf19     1.0000 0.36622  0.76880  0.62946  Biso   1.000  Hf
  Hf20     1.0000 0.86402  0.26716  0.12380  Biso   1.000  Hf
  Hf21     1.0000 0.86569  0.26617  0.62504  Biso   1.000  Hf
  Hf22     1.0000 0.87236  0.76549  0.12170  Biso   1.000  Hf
  Hf23     1.0000 0.86781  0.76708  0.62465  Biso   1.000  Hf
  Hf24     1.0000 0.36700  0.48197  0.37615  Biso   1.000  Hf
  Hf25     1.0000 0.36560  0.48554  0.87606  Biso   1.000  Hf
  Hf26     1.0000 0.36294  0.98005  0.37268  Biso   1.000  Hf
  Hf27     1.0000 0.35903  0.98417  0.88391  Biso   1.000  Hf
  Hf28     1.0000 0.86602  0.48312  0.37618  Biso   1.000  Hf
  Hf29     1.0000 0.86467  0.48525  0.87471  Biso   1.000  Hf
  Hf30     1.0000 0.86925  0.98645  0.37558  Biso   1.000  Hf
  Hf31     1.0000 0.86354  0.98462  0.87328  Biso   1.000  Hf
  O1       1.0000 0.03652  0.18305  0.18675  Biso   1.000  O
  O2       1.0000 0.03398  0.18388  0.69835  Biso   1.000  O
  O3       1.0000 0.03789  0.68484  0.19501  Biso   1.000  O
  O4       1.0000 0.03709  0.68582  0.69493  Biso   1.000  O
  O5       1.0000 0.53301  0.18239  0.19802  Biso   1.000  O
  O6       1.0000 0.53607  0.18529  0.69212  Biso   1.000  O
  O7       1.0000 0.53743  0.68461  0.19640  Biso   1.000  O
  O8       1.0000 0.53565  0.68410  0.69592  Biso   1.000  O
  O9       1.0000 0.03637  0.06621  0.44857  Biso   1.000  O
  O10      1.0000 0.03498  0.06675  0.94975  Biso   1.000  O
  O11      1.0000 0.03613  0.56363  0.44607  Biso   1.000  O
  O12      1.0000 0.03398  0.56782  0.94649  Biso   1.000  O
  O13      1.0000 0.53632  0.06493  0.44309  Biso   1.000  O
  O14      1.0000 0.53114  0.06888  0.94887  Biso   1.000  O
  O15      1.0000 0.53834  0.56635  0.44266  Biso   1.000  O
  O16      1.0000 0.53586  0.56675  0.94567  Biso   1.000  O
  O17      1.0000 0.46404  0.43224  0.19298  Biso   1.000  O
  O18      1.0000 0.46284  0.43508  0.69405  Biso   1.000  O
  O19      1.0000 0.47091  0.93071  0.19730  Biso   1.000  O
  O20      1.0000 0.46244  0.93554  0.70045  Biso   1.000  O
  O21      1.0000 0.96465  0.43174  0.19555  Biso   1.000  O
  O22      1.0000 0.96340  0.43446  0.69342  Biso   1.000  O
  O23      1.0000 0.99055  0.94269  0.18507  Biso   1.000  O
  O24      1.0000 0.96404  0.93548  0.69379  Biso   1.000  O
  O25      1.0000 0.46492  0.31607  0.44520  Biso   1.000  O
  O26      1.0000 0.46036  0.31507  0.94277  Biso   1.000  O
  O27      1.0000 0.46879  0.81808  0.45180  Biso   1.000  O
  O28      1.0000 0.45910  0.81726  0.94403  Biso   1.000  O
  O29      1.0000 0.96315  0.31310  0.44166  Biso   1.000  O
  O30      1.0000 0.96196  0.31776  0.94300  Biso   1.000  O
  O31      1.0000 0.96522  0.81741  0.44080  Biso   1.000  O
  O32      1.0000 0.96004  0.81698  0.93963  Biso   1.000  O
  O33      1.0000 0.25594  0.10307  0.24080  Biso   1.000  O
  O34      1.0000 0.27100  0.11973  0.75108  Biso   1.000  O
  O35      1.0000 0.26937  0.60867  0.24998  Biso   1.000  O
  O36      1.0000 0.26998  0.61974  0.75217  Biso   1.000  O
  O37      1.0000 0.77272  0.11710  0.24744  Biso   1.000  O
  O38      1.0000 0.76771  0.11681  0.74769  Biso   1.000  O
  O39      1.0000 0.77318  0.61676  0.24913  Biso   1.000  O
  O40      1.0000 0.77010  0.61859  0.74966  Biso   1.000  O
  O41      1.0000 0.27224  0.13234  0.49592  Biso   1.000  O
  O42      1.0000 0.26099  0.13309  0.00179  Biso   1.000  O
  O43      1.0000 0.27356  0.63165  0.50153  Biso   1.000  O
  O44      1.0000 0.26923  0.63353  0.00091  Biso   1.000  O
  O45      1.0000 0.77169  0.13174  0.49806  Biso   1.000  O
  O46      1.0000 0.76888  0.13381  0.99696  Biso   1.000  O
  O47      1.0000 0.77071  0.63372  0.49939  Biso   1.000  O
  O48      1.0000 0.77005  0.63474  0.00020  Biso   1.000  O
  O49      1.0000 0.22841  0.38103  0.49923  Biso   1.000  O
  O50      1.0000 0.22883  0.38365  0.99945  Biso   1.000  O
  O51      1.0000 0.22956  0.88204  0.50620  Biso   1.000  O
  O52      1.0000 0.22140  0.88976  0.01423  Biso   1.000  O
  O53      1.0000 0.72988  0.38221  0.50011  Biso   1.000  O
  O54      1.0000 0.72782  0.38332  0.99913  Biso   1.000  O
  O55      1.0000 0.73265  0.88422  0.49775  Biso   1.000  O
  O56      1.0000 0.72803  0.88414  0.99797  Biso   1.000  O
  O57      1.0000 0.23162  0.36123  0.24895  Biso   1.000  O
  O58      1.0000 0.22822  0.36930  0.74980  Biso   1.000  O
  O59      1.0000 0.24691  0.85001  0.26398  Biso   1.000  O
  O60      1.0000 0.22757  0.87025  0.75639  Biso   1.000  O
  O61      1.0000 0.72821  0.36695  0.24952  Biso   1.000  O
  O62      1.0000 0.72856  0.36804  0.74915  Biso   1.000  O
  O63      1.0000 0.74338  0.86808  0.24659  Biso   1.000  O
  O64      1.0000 0.72900  0.86734  0.74821  Biso   1.000  O
