data_image0
_cell_length_a       10.0517
_cell_length_b       10.4593
_cell_length_c       10.0963
_cell_angle_alpha    89.9112
_cell_angle_beta     90.0609
_cell_angle_gamma    89.97

_symmetry_space_group_name_H-M    "P 1"
_symmetry_int_tables_number       1

loop_
  _symmetry_equiv_pos_as_xyz
  'x, y, z'

loop_
  _atom_site_label
  _atom_site_occupancy
  _atom_site_fract_x
  _atom_site_fract_y
  _atom_site_fract_z
  _atom_site_thermal_displace_type
  _atom_site_B_iso_or_equiv
  _atom_site_type_symbol
  Zr1      1.0000 0.13410  0.01964  0.12245  Biso   1.000  Zr
  Zr2      1.0000 0.13458  0.23142  0.38010  Biso   1.000  Zr
  Zr3      1.0000 0.36716  0.26301  0.12290  Biso   1.000  Zr
  Zr4      1.0000 0.36728  0.48408  0.37367  Biso   1.000  Zr
  O1       1.0000 0.01822  0.17534  0.21384  Biso   1.000  O
  O2       1.0000 0.03529  0.06502  0.45001  Biso   1.000  O
  O3       1.0000 0.46253  0.43299  0.19442  Biso   1.000  O
  O4       1.0000 0.46586  0.31698  0.44553  Biso   1.000  O
  O5       1.0000 0.26735  0.11609  0.25010  Biso   1.000  O
  O6       1.0000 0.27111  0.13215  0.49931  Biso   1.000  O
  O7       1.0000 0.23263  0.38372  0.49770  Biso   1.000  O
  O8       1.0000 0.22482  0.36533  0.24507  Biso   1.000  O
  Zr5      1.0000 0.13419  0.01310  0.62571  Biso   1.000  Zr
  Zr6      1.0000 0.13898  0.22901  0.86879  Biso   1.000  Zr
  Zr7      1.0000 0.36860  0.26551  0.62417  Biso   1.000  Zr
  Zr8      1.0000 0.36708  0.48404  0.87440  Biso   1.000  Zr
  O9       1.0000 0.03410  0.17943  0.69404  Biso   1.000  O
  O10      1.0000 0.03600  0.06453  0.94356  Biso   1.000  O
  O11      1.0000 0.46804  0.43248  0.69626  Biso   1.000  O
  O12      1.0000 0.46531  0.31641  0.94361  Biso   1.000  O
  O13      1.0000 0.27141  0.11399  0.74569  Biso   1.000  O
  O14      1.0000 0.27911  0.12722  0.99292  Biso   1.000  O
  O15      1.0000 0.22871  0.38334  0.99862  Biso   1.000  O
  O16      1.0000 0.23438  0.36594  0.74666  Biso   1.000  O
  Zr9      1.0000 0.13565  0.53364  0.12265  Biso   1.000  Zr
  Zr10     1.0000 0.13524  0.73613  0.37787  Biso   1.000  Zr
  Zr11     1.0000 0.36648  0.76821  0.12612  Biso   1.000  Zr
  Zr12     1.0000 0.36579  0.98428  0.37543  Biso   1.000  Zr
  O17      1.0000 0.03090  0.68655  0.20291  Biso   1.000  O
  O18      1.0000 0.03468  0.56744  0.44670  Biso   1.000  O
  O19      1.0000 0.46446  0.93310  0.19561  Biso   1.000  O
  O20      1.0000 0.46594  0.81559  0.44366  Biso   1.000  O
  O21      1.0000 0.27422  0.62301  0.25049  Biso   1.000  O
  O22      1.0000 0.26983  0.63242  0.49899  Biso   1.000  O
  O23      1.0000 0.23269  0.88268  0.49914  Biso   1.000  O
  O24      1.0000 0.22979  0.86857  0.24893  Biso   1.000  O
  Zr13     1.0000 0.13432  0.51430  0.62503  Biso   1.000  Zr
  Zr14     1.0000 0.13381  0.73678  0.87220  Biso   1.000  Zr
  Zr15     1.0000 0.36907  0.76356  0.62385  Biso   1.000  Zr
  Zr16     1.0000 0.36845  0.98114  0.87411  Biso   1.000  Zr
  O25      1.0000 0.03648  0.68229  0.69304  Biso   1.000  O
  O26      1.0000 0.03409  0.57114  0.94479  Biso   1.000  O
  O27      1.0000 0.46791  0.93102  0.69369  Biso   1.000  O
  O28      1.0000 0.46810  0.81688  0.94644  Biso   1.000  O
  O29      1.0000 0.27006  0.61491  0.74764  Biso   1.000  O
  O30      1.0000 0.27220  0.63740  0.99515  Biso   1.000  O
  O31      1.0000 0.23075  0.88284  0.99845  Biso   1.000  O
  O32      1.0000 0.23431  0.86462  0.74743  Biso   1.000  O
  Zr17     1.0000 0.63197  0.01318  0.12387  Biso   1.000  Zr
  Zr18     1.0000 0.63231  0.23185  0.37618  Biso   1.000  Zr
  Zr19     1.0000 0.85244  0.26205  0.12667  Biso   1.000  Zr
  Zr20     1.0000 0.86794  0.48293  0.37522  Biso   1.000  Zr
  O33      1.0000 0.53362  0.18011  0.19711  Biso   1.000  O
  O34      1.0000 0.53450  0.06577  0.44666  Biso   1.000  O
  O35      1.0000 0.96805  0.42807  0.19433  Biso   1.000  O
  O36      1.0000 0.96810  0.31901  0.45001  Biso   1.000  O
  O37      1.0000 0.76262  0.11273  0.24958  Biso   1.000  O
  O38      1.0000 0.77051  0.13324  0.49778  Biso   1.000  O
  O39      1.0000 0.73263  0.38306  0.49966  Biso   1.000  O
  O40      1.0000 0.72640  0.36796  0.25124  Biso   1.000  O
  Zr21     1.0000 0.63558  0.01393  0.62448  Biso   1.000  Zr
  Zr22     1.0000 0.63251  0.23253  0.87329  Biso   1.000  Zr
  Zr23     1.0000 0.86683  0.26472  0.62536  Biso   1.000  Zr
  Zr24     1.0000 0.86674  0.48309  0.87746  Biso   1.000  Zr
  O41      1.0000 0.53689  0.18255  0.69357  Biso   1.000  O
  O42      1.0000 0.53712  0.06550  0.94308  Biso   1.000  O
  O43      1.0000 0.96897  0.42970  0.70270  Biso   1.000  O
  O44      1.0000 0.97262  0.31612  0.95779  Biso   1.000  O
  O45      1.0000 0.77049  0.11491  0.74771  Biso   1.000  O
  O46      1.0000 0.76861  0.13064  0.99680  Biso   1.000  O
  O47      1.0000 0.72825  0.38198  0.99830  Biso   1.000  O
  O48      1.0000 0.73367  0.36526  0.74992  Biso   1.000  O
  Zr25     1.0000 0.63206  0.51587  0.12573  Biso   1.000  Zr
  Zr26     1.0000 0.63454  0.73330  0.37473  Biso   1.000  Zr
  Zr27     1.0000 0.86515  0.76621  0.12540  Biso   1.000  Zr
  Zr28     1.0000 0.86819  0.98467  0.37352  Biso   1.000  Zr
  O49      1.0000 0.53638  0.68315  0.19407  Biso   1.000  O
  O50      1.0000 0.53395  0.56586  0.44547  Biso   1.000  O
  O51      1.0000 0.96464  0.93363  0.19358  Biso   1.000  O
  O52      1.0000 0.96635  0.81817  0.44682  Biso   1.000  O
  O53      1.0000 0.76983  0.61464  0.24845  Biso   1.000  O
  O54      1.0000 0.76928  0.63259  0.49849  Biso   1.000  O
  O55      1.0000 0.73236  0.88326  0.49755  Biso   1.000  O
  O56      1.0000 0.73065  0.86498  0.24835  Biso   1.000  O
  Zr29     1.0000 0.63582  0.51439  0.62550  Biso   1.000  Zr
  Zr30     1.0000 0.63503  0.73304  0.87509  Biso   1.000  Zr
  Zr31     1.0000 0.86735  0.76466  0.62439  Biso   1.000  Zr
  Zr32     1.0000 0.86699  0.98243  0.87510  Biso   1.000  Zr
  O57      1.0000 0.53727  0.68195  0.69483  Biso   1.000  O
  O58      1.0000 0.53519  0.56615  0.94416  Biso   1.000  O
  O59      1.0000 0.96778  0.92944  0.69820  Biso   1.000  O
  O60      1.0000 0.96540  0.81570  0.94623  Biso   1.000  O
  O61      1.0000 0.77169  0.61442  0.74927  Biso   1.000  O
  O62      1.0000 0.76946  0.63171  0.99902  Biso   1.000  O
  O63      1.0000 0.73111  0.88174  0.99816  Biso   1.000  O
  O64      1.0000 0.73246  0.86466  0.74810  Biso   1.000  O
  Mn1      1.0000 0.09657  0.30984  0.10832  Biso   1.000  Mn
