data_image0
_cell_length_a       10.1657
_cell_length_b       10.3108
_cell_length_c       5.30024
_cell_angle_alpha    89.4306
_cell_angle_beta     91.0024
_cell_angle_gamma    89.8011

_symmetry_space_group_name_H-M    "P 1"
_symmetry_int_tables_number       1

loop_
  _symmetry_equiv_pos_as_xyz
  'x, y, z'

loop_
  _atom_site_label
  _atom_site_occupancy
  _atom_site_fract_x
  _atom_site_fract_y
  _atom_site_fract_z
  _atom_site_thermal_displace_type
  _atom_site_B_iso_or_equiv
  _atom_site_type_symbol
  Zr1      1.0000 0.14106  0.01913  0.33999  Biso   1.000  Zr
  Zr2      1.0000 0.14132  0.22682  0.83627  Biso   1.000  Zr
  Zr3      1.0000 0.35819  0.26900  0.35043  Biso   1.000  Zr
  Zr4      1.0000 0.36186  0.47908  0.84526  Biso   1.000  Zr
  Zr5      1.0000 0.63820  0.01953  0.14323  Biso   1.000  Zr
  Zr6      1.0000 0.63440  0.22823  0.69049  Biso   1.000  Zr
  Zr7      1.0000 0.87434  0.27002  0.15375  Biso   1.000  Zr
  Zr8      1.0000 0.86446  0.48155  0.66041  Biso   1.000  Zr
  O1       1.0000 0.03572  0.15594  0.14382  Biso   1.000  O
  O2       1.0000 0.02945  0.09404  0.64115  Biso   1.000  O
  O3       1.0000 0.47927  0.40297  0.16427  Biso   1.000  O
  O4       1.0000 0.46371  0.33615  0.67302  Biso   1.000  O
  O5       1.0000 0.27275  0.12259  0.59074  Biso   1.000  O
  O6       1.0000 0.27613  0.12388  0.08814  Biso   1.000  O
  O7       1.0000 0.22347  0.37407  0.59136  Biso   1.000  O
  O8       1.0000 0.22781  0.37595  0.09095  Biso   1.000  O
  O9       1.0000 0.51550  0.14480  0.35360  Biso   1.000  O
  O10      1.0000 0.52838  0.07524  0.83097  Biso   1.000  O
  O11      1.0000 0.97009  0.41316  0.34205  Biso   1.000  O
  O12      1.0000 0.97262  0.34114  0.83711  Biso   1.000  O
  O13      1.0000 0.78859  0.11685  0.89172  Biso   1.000  O
  O14      1.0000 0.75588  0.14535  0.38628  Biso   1.000  O
  O15      1.0000 0.72246  0.36959  0.94742  Biso   1.000  O
  O16      1.0000 0.72179  0.38800  0.44081  Biso   1.000  O
  Zr9      1.0000 0.13917  0.52154  0.34238  Biso   1.000  Zr
  Zr10     1.0000 0.13855  0.72801  0.84267  Biso   1.000  Zr
  Zr11     1.0000 0.36164  0.77000  0.34634  Biso   1.000  Zr
  Zr12     1.0000 0.36051  0.97384  0.84635  Biso   1.000  Zr
  Zr13     1.0000 0.64340  0.53060  0.16136  Biso   1.000  Zr
  Zr14     1.0000 0.63966  0.73026  0.65596  Biso   1.000  Zr
  Zr15     1.0000 0.86354  0.77466  0.15618  Biso   1.000  Zr
  Zr16     1.0000 0.86351  0.97887  0.65222  Biso   1.000  Zr
  O17      1.0000 0.03130  0.66140  0.15413  Biso   1.000  O
  O18      1.0000 0.03128  0.59124  0.65311  Biso   1.000  O
  O19      1.0000 0.46823  0.90449  0.15790  Biso   1.000  O
  O20      1.0000 0.46854  0.83527  0.65962  Biso   1.000  O
  O21      1.0000 0.27447  0.62221  0.59383  Biso   1.000  O
  O22      1.0000 0.27570  0.62359  0.09331  Biso   1.000  O
  O23      1.0000 0.22448  0.87198  0.59219  Biso   1.000  O
  O24      1.0000 0.22289  0.87316  0.09282  Biso   1.000  O
  O25      1.0000 0.52945  0.65879  0.34907  Biso   1.000  O
  O26      1.0000 0.53095  0.59008  0.84696  Biso   1.000  O
  O27      1.0000 0.97011  0.91365  0.33318  Biso   1.000  O
  O28      1.0000 0.97036  0.84126  0.83599  Biso   1.000  O
  O29      1.0000 0.77766  0.62355  0.90591  Biso   1.000  O
  O30      1.0000 0.77899  0.63378  0.40789  Biso   1.000  O
  O31      1.0000 0.72631  0.87123  0.90764  Biso   1.000  O
  O32      1.0000 0.72774  0.87976  0.40993  Biso   1.000  O
  Mn1      1.0000 0.62281  0.27387  0.22037  Biso   1.000  Mn
