data_image0
_cell_length_a       10.1321
_cell_length_b       10.3087
_cell_length_c       10.5509
_cell_angle_alpha    89.6739
_cell_angle_beta     90.4215
_cell_angle_gamma    89.8976

_symmetry_space_group_name_H-M    "P 1"
_symmetry_int_tables_number       1

loop_
  _symmetry_equiv_pos_as_xyz
  'x, y, z'

loop_
  _atom_site_label
  _atom_site_occupancy
  _atom_site_fract_x
  _atom_site_fract_y
  _atom_site_fract_z
  _atom_site_thermal_displace_type
  _atom_site_B_iso_or_equiv
  _atom_site_type_symbol
  Zr1      1.0000 0.13975  0.01975  0.17117  Biso   1.000  Zr
  Zr2      1.0000 0.13621  0.22939  0.42228  Biso   1.000  Zr
  Zr3      1.0000 0.35499  0.26934  0.17536  Biso   1.000  Zr
  Zr4      1.0000 0.36046  0.48067  0.42351  Biso   1.000  Zr
  Zr5      1.0000 0.63755  0.01944  0.06925  Biso   1.000  Zr
  Zr6      1.0000 0.63297  0.23233  0.33765  Biso   1.000  Zr
  Zr7      1.0000 0.87411  0.27224  0.07556  Biso   1.000  Zr
  Zr8      1.0000 0.86234  0.48081  0.33094  Biso   1.000  Zr
  O1       1.0000 0.03765  0.16095  0.07733  Biso   1.000  O
  O2       1.0000 0.02634  0.09237  0.32617  Biso   1.000  O
  O3       1.0000 0.47868  0.40193  0.08067  Biso   1.000  O
  O4       1.0000 0.46276  0.33753  0.33455  Biso   1.000  O
  O5       1.0000 0.27033  0.12427  0.29694  Biso   1.000  O
  O6       1.0000 0.27723  0.12368  0.04386  Biso   1.000  O
  O7       1.0000 0.22160  0.37499  0.29648  Biso   1.000  O
  O8       1.0000 0.22788  0.37606  0.04499  Biso   1.000  O
  O9       1.0000 0.51382  0.14497  0.17693  Biso   1.000  O
  O10      1.0000 0.52837  0.08767  0.42518  Biso   1.000  O
  O11      1.0000 0.97071  0.41454  0.17055  Biso   1.000  O
  O12      1.0000 0.96745  0.33895  0.42075  Biso   1.000  O
  O13      1.0000 0.77678  0.12301  0.45306  Biso   1.000  O
  O14      1.0000 0.75464  0.14545  0.19206  Biso   1.000  O
  O15      1.0000 0.72495  0.37472  0.46118  Biso   1.000  O
  O16      1.0000 0.72391  0.38749  0.21139  Biso   1.000  O
  Zr9      1.0000 0.13966  0.02046  0.67036  Biso   1.000  Zr
  Zr10     1.0000 0.14363  0.22630  0.91802  Biso   1.000  Zr
  Zr11     1.0000 0.36407  0.27014  0.67158  Biso   1.000  Zr
  Zr12     1.0000 0.36268  0.47728  0.92013  Biso   1.000  Zr
  Zr13     1.0000 0.63852  0.02167  0.58017  Biso   1.000  Zr
  Zr14     1.0000 0.64065  0.22499  0.83411  Biso   1.000  Zr
  Zr15     1.0000 0.86083  0.27041  0.58144  Biso   1.000  Zr
  Zr16     1.0000 0.86262  0.47871  0.82935  Biso   1.000  Zr
  O17      1.0000 0.03128  0.16247  0.58054  Biso   1.000  O
  O18      1.0000 0.03578  0.08583  0.82935  Biso   1.000  O
  O19      1.0000 0.46879  0.41438  0.58348  Biso   1.000  O
  O20      1.0000 0.46890  0.33503  0.83416  Biso   1.000  O
  O21      1.0000 0.27771  0.12261  0.79386  Biso   1.000  O
  O22      1.0000 0.27451  0.12572  0.54530  Biso   1.000  O
  O23      1.0000 0.22652  0.37326  0.79463  Biso   1.000  O
  O24      1.0000 0.22486  0.37586  0.54572  Biso   1.000  O
  O25      1.0000 0.53334  0.16427  0.66899  Biso   1.000  O
  O26      1.0000 0.53305  0.07261  0.90657  Biso   1.000  O
  O27      1.0000 0.96783  0.41361  0.66838  Biso   1.000  O
  O28      1.0000 0.97312  0.33757  0.91532  Biso   1.000  O
  O29      1.0000 0.78906  0.11763  0.94735  Biso   1.000  O
  O30      1.0000 0.77651  0.12444  0.70239  Biso   1.000  O
  O31      1.0000 0.72289  0.36990  0.96645  Biso   1.000  O
  O32      1.0000 0.72593  0.37551  0.71129  Biso   1.000  O
  Zr17     1.0000 0.13968  0.52233  0.17223  Biso   1.000  Zr
  Zr18     1.0000 0.13767  0.72977  0.42141  Biso   1.000  Zr
  Zr19     1.0000 0.36080  0.77169  0.17234  Biso   1.000  Zr
  Zr20     1.0000 0.36147  0.97853  0.42343  Biso   1.000  Zr
  Zr21     1.0000 0.64312  0.53097  0.07949  Biso   1.000  Zr
  Zr22     1.0000 0.63885  0.73116  0.32942  Biso   1.000  Zr
  Zr23     1.0000 0.86367  0.77428  0.07871  Biso   1.000  Zr
  Zr24     1.0000 0.86022  0.98017  0.32816  Biso   1.000  Zr
  O33      1.0000 0.03276  0.66348  0.08128  Biso   1.000  O
  O34      1.0000 0.03152  0.58912  0.33100  Biso   1.000  O
  O35      1.0000 0.46713  0.90779  0.07832  Biso   1.000  O
  O36      1.0000 0.46841  0.83866  0.33134  Biso   1.000  O
  O37      1.0000 0.27422  0.62507  0.29664  Biso   1.000  O
  O38      1.0000 0.27760  0.62361  0.04604  Biso   1.000  O
  O39      1.0000 0.22413  0.87443  0.29606  Biso   1.000  O
  O40      1.0000 0.22241  0.87370  0.04604  Biso   1.000  O
  O41      1.0000 0.52994  0.66191  0.17199  Biso   1.000  O
  O42      1.0000 0.53166  0.58823  0.42021  Biso   1.000  O
  O43      1.0000 0.96740  0.91674  0.16733  Biso   1.000  O
  O44      1.0000 0.96652  0.83997  0.41644  Biso   1.000  O
  O45      1.0000 0.77524  0.62478  0.45485  Biso   1.000  O
  O46      1.0000 0.77782  0.63366  0.20536  Biso   1.000  O
  O47      1.0000 0.72396  0.87479  0.45525  Biso   1.000  O
  O48      1.0000 0.72607  0.88108  0.20525  Biso   1.000  O
  Zr25     1.0000 0.13817  0.52035  0.67080  Biso   1.000  Zr
  Zr26     1.0000 0.13939  0.72701  0.92138  Biso   1.000  Zr
  Zr27     1.0000 0.36173  0.76953  0.67172  Biso   1.000  Zr
  Zr28     1.0000 0.36049  0.97445  0.92038  Biso   1.000  Zr
  Zr29     1.0000 0.63945  0.52102  0.57999  Biso   1.000  Zr
  Zr30     1.0000 0.63939  0.72830  0.82729  Biso   1.000  Zr
  Zr31     1.0000 0.86098  0.77190  0.57846  Biso   1.000  Zr
  Zr32     1.0000 0.86393  0.97746  0.82691  Biso   1.000  Zr
  O49      1.0000 0.03106  0.66345  0.57996  Biso   1.000  O
  O50      1.0000 0.03184  0.58665  0.82996  Biso   1.000  O
  O51      1.0000 0.46842  0.91167  0.58329  Biso   1.000  O
  O52      1.0000 0.46718  0.83122  0.83146  Biso   1.000  O
  O53      1.0000 0.27570  0.62143  0.79548  Biso   1.000  O
  O54      1.0000 0.27378  0.62583  0.54579  Biso   1.000  O
  O55      1.0000 0.22474  0.87178  0.79481  Biso   1.000  O
  O56      1.0000 0.22486  0.87539  0.54501  Biso   1.000  O
  O57      1.0000 0.53178  0.66179  0.66900  Biso   1.000  O
  O58      1.0000 0.53228  0.58663  0.92002  Biso   1.000  O
  O59      1.0000 0.96997  0.91263  0.66546  Biso   1.000  O
  O60      1.0000 0.97103  0.83612  0.91809  Biso   1.000  O
  O61      1.0000 0.77819  0.62354  0.95375  Biso   1.000  O
  O62      1.0000 0.77639  0.62552  0.70434  Biso   1.000  O
  O63      1.0000 0.72661  0.87044  0.95342  Biso   1.000  O
  O64      1.0000 0.72568  0.87443  0.70453  Biso   1.000  O
  Mn1      1.0000 0.62002  0.27337  0.10532  Biso   1.000  Mn
