data_image0
_cell_length_a       5.08868
_cell_length_b       10.3265
_cell_length_c       10.1264
_cell_angle_alpha    91.0848
_cell_angle_beta     87.8256
_cell_angle_gamma    89.8598

_symmetry_space_group_name_H-M    "P 1"
_symmetry_int_tables_number       1

loop_
  _symmetry_equiv_pos_as_xyz
  'x, y, z'

loop_
  _atom_site_label
  _atom_site_occupancy
  _atom_site_fract_x
  _atom_site_fract_y
  _atom_site_fract_z
  _atom_site_thermal_displace_type
  _atom_site_B_iso_or_equiv
  _atom_site_type_symbol
  Zr1      1.0000 0.24696  0.96329  0.12774  Biso   1.000  Zr
  Zr2      1.0000 0.28467  0.25064  0.37990  Biso   1.000  Zr
  Zr3      1.0000 0.73018  0.27283  0.12423  Biso   1.000  Zr
  Zr4      1.0000 0.77656  0.00703  0.37726  Biso   1.000  Zr
  O1       1.0000 0.95673  0.14576  0.99816  Biso   1.000  O
  O2       1.0000 0.09603  0.09166  0.26802  Biso   1.000  O
  O3       1.0000 0.04133  0.33844  0.23676  Biso   1.000  O
  O4       1.0000 0.94757  0.40363  0.99168  Biso   1.000  O
  O5       1.0000 0.61032  0.15853  0.27810  Biso   1.000  O
  O6       1.0000 0.46184  0.09549  0.01497  Biso   1.000  O
  O7       1.0000 0.41502  0.33700  0.02026  Biso   1.000  O
  O8       1.0000 0.51250  0.41410  0.25649  Biso   1.000  O
  Zr5      1.0000 0.25029  0.00682  0.63421  Biso   1.000  Zr
  Zr6      1.0000 0.19844  0.25579  0.87248  Biso   1.000  Zr
  Zr7      1.0000 0.73605  0.24039  0.63536  Biso   1.000  Zr
  Zr8      1.0000 0.72823  0.00006  0.88911  Biso   1.000  Zr
  O9       1.0000 0.00657  0.15266  0.50852  Biso   1.000  O
  O10      1.0000 0.97474  0.10646  0.75422  Biso   1.000  O
  O11      1.0000 0.98994  0.36265  0.73800  Biso   1.000  O
  O12      1.0000 0.05907  0.40533  0.48463  Biso   1.000  O
  O13      1.0000 0.47771  0.14744  0.76168  Biso   1.000  O
  O14      1.0000 0.50678  0.10713  0.51231  Biso   1.000  O
  O15      1.0000 0.54604  0.35962  0.50785  Biso   1.000  O
  O16      1.0000 0.48555  0.39882  0.75978  Biso   1.000  O
  Zr9      1.0000 0.23966  0.50420  0.12272  Biso   1.000  Zr
  Zr10     1.0000 0.27253  0.76254  0.38420  Biso   1.000  Zr
  Zr11     1.0000 0.74319  0.74041  0.12513  Biso   1.000  Zr
  Zr12     1.0000 0.77291  0.49567  0.38570  Biso   1.000  Zr
  O17      1.0000 0.00652  0.64658  0.98898  Biso   1.000  O
  O18      1.0000 0.92248  0.58720  0.22645  Biso   1.000  O
  O19      1.0000 0.99771  0.84074  0.25623  Biso   1.000  O
  O20      1.0000 0.97693  0.88931  0.00261  Biso   1.000  O
  O21      1.0000 0.41980  0.66020  0.22638  Biso   1.000  O
  O22      1.0000 0.50306  0.59150  0.99059  Biso   1.000  O
  O23      1.0000 0.49451  0.84099  0.99564  Biso   1.000  O
  O24      1.0000 0.52250  0.89761  0.25345  Biso   1.000  O
  Zr13     1.0000 0.27856  0.49853  0.62089  Biso   1.000  Zr
  Zr14     1.0000 0.24921  0.75033  0.86498  Biso   1.000  Zr
  Zr15     1.0000 0.76734  0.76086  0.62048  Biso   1.000  Zr
  Zr16     1.0000 0.76510  0.51253  0.85724  Biso   1.000  Zr
  O25      1.0000 0.99608  0.65250  0.48638  Biso   1.000  O
  O26      1.0000 0.02186  0.61317  0.73713  Biso   1.000  O
  O27      1.0000 0.99777  0.85870  0.75267  Biso   1.000  O
  O28      1.0000 0.02556  0.90211  0.50461  Biso   1.000  O
  O29      1.0000 0.51984  0.64947  0.74030  Biso   1.000  O
  O30      1.0000 0.50073  0.61120  0.48853  Biso   1.000  O
  O31      1.0000 0.52681  0.86225  0.50093  Biso   1.000  O
  O32      1.0000 0.49561  0.90031  0.75170  Biso   1.000  O
  Mn1      1.0000 0.23335  0.20320  0.12879  Biso   1.000  Mn
