data_image0
_cell_length_a       5.02528
_cell_length_b       10.1001
_cell_length_c       10.0987
_cell_angle_alpha    90
_cell_angle_beta     90.0008
_cell_angle_gamma    90.0008

_symmetry_space_group_name_H-M    "P 1"
_symmetry_int_tables_number       1

loop_
  _symmetry_equiv_pos_as_xyz
  'x, y, z'

loop_
  _atom_site_label
  _atom_site_occupancy
  _atom_site_fract_x
  _atom_site_fract_y
  _atom_site_fract_z
  _atom_site_thermal_displace_type
  _atom_site_B_iso_or_equiv
  _atom_site_type_symbol
  Mn1      1.0000 0.25058  0.00014  0.12530  Biso   1.000  Mn
  Zr1      1.0000 0.25059  0.00012  0.62530  Biso   1.000  Zr
  Zr2      1.0000 0.25060  0.50012  0.12530  Biso   1.000  Zr
  Zr3      1.0000 0.25059  0.50012  0.62529  Biso   1.000  Zr
  Zr4      1.0000 0.26099  0.24907  0.37425  Biso   1.000  Zr
  Zr5      1.0000 0.24019  0.24907  0.87634  Biso   1.000  Zr
  Zr6      1.0000 0.24017  0.75117  0.37424  Biso   1.000  Zr
  Zr7      1.0000 0.26100  0.75116  0.87635  Biso   1.000  Zr
  Zr8      1.0000 0.75060  0.25037  0.12530  Biso   1.000  Zr
  Zr9      1.0000 0.75059  0.25087  0.62530  Biso   1.000  Zr
  Zr10     1.0000 0.75059  0.74986  0.12529  Biso   1.000  Zr
  Zr11     1.0000 0.75060  0.74936  0.62529  Biso   1.000  Zr
  Zr12     1.0000 0.75058  0.00012  0.37552  Biso   1.000  Zr
  Zr13     1.0000 0.75061  0.00012  0.87508  Biso   1.000  Zr
  Zr14     1.0000 0.75059  0.50012  0.37610  Biso   1.000  Zr
  Zr15     1.0000 0.75059  0.50012  0.87449  Biso   1.000  Zr
  O1       1.0000 0.94335  0.15026  0.97521  Biso   1.000  O
  O2       1.0000 0.99000  0.13674  0.47949  Biso   1.000  O
  O3       1.0000 0.99017  0.64600  0.98882  Biso   1.000  O
  O4       1.0000 0.99200  0.63652  0.48904  Biso   1.000  O
  O5       1.0000 0.04623  0.10023  0.22552  Biso   1.000  O
  O6       1.0000 0.00365  0.11521  0.73249  Biso   1.000  O
  O7       1.0000 0.00358  0.60719  0.24053  Biso   1.000  O
  O8       1.0000 0.00242  0.61405  0.73937  Biso   1.000  O
  O9       1.0000 0.99018  0.35424  0.26177  Biso   1.000  O
  O10      1.0000 0.99198  0.36371  0.76155  Biso   1.000  O
  O11      1.0000 0.94327  0.84995  0.27540  Biso   1.000  O
  O12      1.0000 0.99005  0.86350  0.77111  Biso   1.000  O
  O13      1.0000 0.00358  0.39304  0.01006  Biso   1.000  O
  O14      1.0000 0.00241  0.38619  0.51122  Biso   1.000  O
  O15      1.0000 0.04627  0.90000  0.02509  Biso   1.000  O
  O16      1.0000 0.00362  0.88503  0.51811  Biso   1.000  O
  O17      1.0000 0.55785  0.15027  0.27538  Biso   1.000  O
  O18      1.0000 0.51118  0.13674  0.77111  Biso   1.000  O
  O19      1.0000 0.51100  0.64600  0.26177  Biso   1.000  O
  O20      1.0000 0.50919  0.63653  0.76155  Biso   1.000  O
  O21      1.0000 0.45497  0.10022  0.02508  Biso   1.000  O
  O22      1.0000 0.49754  0.11521  0.51811  Biso   1.000  O
  O23      1.0000 0.49760  0.60719  0.01007  Biso   1.000  O
  O24      1.0000 0.49877  0.61405  0.51122  Biso   1.000  O
  O25      1.0000 0.51101  0.35424  0.98883  Biso   1.000  O
  O26      1.0000 0.50919  0.36372  0.48904  Biso   1.000  O
  O27      1.0000 0.55791  0.84995  0.97519  Biso   1.000  O
  O28      1.0000 0.51115  0.86350  0.47948  Biso   1.000  O
  O29      1.0000 0.49761  0.39304  0.24053  Biso   1.000  O
  O30      1.0000 0.49875  0.38619  0.73938  Biso   1.000  O
  O31      1.0000 0.45490  0.90000  0.22550  Biso   1.000  O
  O32      1.0000 0.49758  0.88504  0.73248  Biso   1.000  O
