data_image0
_cell_length_a       5.12169
_cell_length_b       10.4301
_cell_length_c       10.4451
_cell_angle_alpha    90.7477
_cell_angle_beta     79.526
_cell_angle_gamma    90.2535

_symmetry_space_group_name_H-M    "P 1"
_symmetry_int_tables_number       1

loop_
  _symmetry_equiv_pos_as_xyz
  'x, y, z'

loop_
  _atom_site_label
  _atom_site_occupancy
  _atom_site_fract_x
  _atom_site_fract_y
  _atom_site_fract_z
  _atom_site_thermal_displace_type
  _atom_site_B_iso_or_equiv
  _atom_site_type_symbol
  Zr1      1.0000 0.27135  0.02051  0.15199  Biso   1.000  Zr
  Zr2      1.0000 0.30771  0.23245  0.39713  Biso   1.000  Zr
  Zr3      1.0000 0.69802  0.27846  0.10391  Biso   1.000  Zr
  Zr4      1.0000 0.71481  0.47262  0.34652  Biso   1.000  Zr
  O1       1.0000 0.04770  0.18352  0.12326  Biso   1.000  O
  O2       1.0000 0.09541  0.06461  0.34864  Biso   1.000  O
  O3       1.0000 0.90606  0.43737  0.15485  Biso   1.000  O
  O4       1.0000 0.94948  0.33125  0.41601  Biso   1.000  O
  O5       1.0000 0.55597  0.12645  0.23871  Biso   1.000  O
  O6       1.0000 0.60607  0.12961  0.47692  Biso   1.000  O
  O7       1.0000 0.43248  0.38473  0.00329  Biso   1.000  O
  O8       1.0000 0.41286  0.37958  0.25209  Biso   1.000  O
  Zr5      1.0000 0.26994  0.02008  0.64917  Biso   1.000  Zr
  Zr6      1.0000 0.27387  0.23529  0.89392  Biso   1.000  Zr
  Zr7      1.0000 0.73544  0.27223  0.60670  Biso   1.000  Zr
  Zr8      1.0000 0.72122  0.48125  0.85545  Biso   1.000  Zr
  O9       1.0000 0.09524  0.17537  0.58681  Biso   1.000  O
  O10      1.0000 0.06790  0.07848  0.84147  Biso   1.000  O
  O11      1.0000 0.93069  0.42333  0.66832  Biso   1.000  O
  O12      1.0000 0.91932  0.32567  0.91642  Biso   1.000  O
  O13      1.0000 0.54939  0.12982  0.73927  Biso   1.000  O
  O14      1.0000 0.52330  0.12491  0.99244  Biso   1.000  O
  O15      1.0000 0.46240  0.37934  0.51198  Biso   1.000  O
  O16      1.0000 0.45091  0.36980  0.75816  Biso   1.000  O
  Zr9      1.0000 0.26425  0.52545  0.14426  Biso   1.000  Zr
  Zr10     1.0000 0.27382  0.72375  0.39702  Biso   1.000  Zr
  Zr11     1.0000 0.71238  0.76995  0.10411  Biso   1.000  Zr
  Zr12     1.0000 0.72294  0.96588  0.35499  Biso   1.000  Zr
  O17      1.0000 0.06955  0.68088  0.08339  Biso   1.000  O
  O18      1.0000 0.06183  0.57909  0.33248  Biso   1.000  O
  O19      1.0000 0.92325  0.92197  0.16724  Biso   1.000  O
  O20      1.0000 0.92390  0.82147  0.42213  Biso   1.000  O
  O21      1.0000 0.54486  0.62977  0.24139  Biso   1.000  O
  O22      1.0000 0.54563  0.62015  0.49179  Biso   1.000  O
  O23      1.0000 0.44474  0.88237  0.01048  Biso   1.000  O
  O24      1.0000 0.43875  0.86632  0.25878  Biso   1.000  O
  Zr13     1.0000 0.28156  0.52261  0.64561  Biso   1.000  Zr
  Zr14     1.0000 0.26985  0.73169  0.89712  Biso   1.000  Zr
  Zr15     1.0000 0.72017  0.76957  0.60617  Biso   1.000  Zr
  Zr16     1.0000 0.71410  0.98042  0.85791  Biso   1.000  Zr
  O25      1.0000 0.06948  0.67107  0.58742  Biso   1.000  O
  O26      1.0000 0.07308  0.57748  0.83571  Biso   1.000  O
  O27      1.0000 0.92359  0.92354  0.67095  Biso   1.000  O
  O28      1.0000 0.91917  0.82913  0.91582  Biso   1.000  O
  O29      1.0000 0.55070  0.62861  0.74256  Biso   1.000  O
  O30      1.0000 0.54610  0.62411  0.99080  Biso   1.000  O
  O31      1.0000 0.44386  0.88125  0.51304  Biso   1.000  O
  O32      1.0000 0.44504  0.87186  0.76104  Biso   1.000  O
  Mn1      1.0000 0.84250  0.19495  0.30935  Biso   1.000  Mn
