data_image0
_cell_length_a       10.2016
_cell_length_b       10.3978
_cell_length_c       10.4749
_cell_angle_alpha    90.3768
_cell_angle_beta     79.9428
_cell_angle_gamma    90.1206

_symmetry_space_group_name_H-M    "P 1"
_symmetry_int_tables_number       1

loop_
  _symmetry_equiv_pos_as_xyz
  'x, y, z'

loop_
  _atom_site_label
  _atom_site_occupancy
  _atom_site_fract_x
  _atom_site_fract_y
  _atom_site_fract_z
  _atom_site_thermal_displace_type
  _atom_site_B_iso_or_equiv
  _atom_site_type_symbol
  Zr1      1.0000 0.13556  0.02266  0.14538  Biso   1.000  Zr
  Zr2      1.0000 0.14358  0.23289  0.39129  Biso   1.000  Zr
  Zr3      1.0000 0.35094  0.27756  0.10070  Biso   1.000  Zr
  Zr4      1.0000 0.35740  0.47289  0.34757  Biso   1.000  Zr
  O1       1.0000 0.03348  0.17163  0.07963  Biso   1.000  O
  O2       1.0000 0.03662  0.08013  0.33086  Biso   1.000  O
  O3       1.0000 0.45731  0.43256  0.15989  Biso   1.000  O
  O4       1.0000 0.47441  0.33010  0.41581  Biso   1.000  O
  O5       1.0000 0.27552  0.12743  0.23689  Biso   1.000  O
  O6       1.0000 0.29630  0.13075  0.47305  Biso   1.000  O
  O7       1.0000 0.21816  0.38453  0.00183  Biso   1.000  O
  O8       1.0000 0.20688  0.37893  0.25110  Biso   1.000  O
  Zr5      1.0000 0.13571  0.01984  0.64606  Biso   1.000  Zr
  Zr6      1.0000 0.13612  0.22965  0.89300  Biso   1.000  Zr
  Zr7      1.0000 0.36314  0.27248  0.60569  Biso   1.000  Zr
  Zr8      1.0000 0.35996  0.48030  0.85333  Biso   1.000  Zr
  O9       1.0000 0.04399  0.17106  0.57951  Biso   1.000  O
  O10      1.0000 0.03399  0.07864  0.83176  Biso   1.000  O
  O11      1.0000 0.46459  0.42217  0.66782  Biso   1.000  O
  O12      1.0000 0.46329  0.32860  0.91807  Biso   1.000  O
  O13      1.0000 0.27466  0.12851  0.73621  Biso   1.000  O
  O14      1.0000 0.27287  0.12356  0.98749  Biso   1.000  O
  O15      1.0000 0.22678  0.37898  0.50832  Biso   1.000  O
  O16      1.0000 0.22466  0.37062  0.75637  Biso   1.000  O
  Zr9      1.0000 0.13579  0.52510  0.14228  Biso   1.000  Zr
  Zr10     1.0000 0.13819  0.72671  0.39550  Biso   1.000  Zr
  Zr11     1.0000 0.35847  0.77027  0.10325  Biso   1.000  Zr
  Zr12     1.0000 0.36053  0.96598  0.35330  Biso   1.000  Zr
  O17      1.0000 0.03398  0.67541  0.08040  Biso   1.000  O
  O18      1.0000 0.03239  0.58370  0.32941  Biso   1.000  O
  O19      1.0000 0.46380  0.91999  0.16814  Biso   1.000  O
  O20      1.0000 0.46222  0.82031  0.42032  Biso   1.000  O
  O21      1.0000 0.27440  0.62930  0.24014  Biso   1.000  O
  O22      1.0000 0.27368  0.62017  0.49040  Biso   1.000  O
  O23      1.0000 0.22331  0.88112  0.00802  Biso   1.000  O
  O24      1.0000 0.21965  0.86704  0.25657  Biso   1.000  O
  Zr13     1.0000 0.13972  0.52202  0.64406  Biso   1.000  Zr
  Zr14     1.0000 0.13655  0.73111  0.89507  Biso   1.000  Zr
  Zr15     1.0000 0.36146  0.76979  0.60530  Biso   1.000  Zr
  Zr16     1.0000 0.36065  0.97927  0.85494  Biso   1.000  Zr
  O25      1.0000 0.03418  0.67002  0.58255  Biso   1.000  O
  O26      1.0000 0.03624  0.57927  0.83238  Biso   1.000  O
  O27      1.0000 0.46380  0.92220  0.66908  Biso   1.000  O
  O28      1.0000 0.46240  0.82905  0.91731  Biso   1.000  O
  O29      1.0000 0.27571  0.62860  0.74076  Biso   1.000  O
  O30      1.0000 0.27494  0.62396  0.98931  Biso   1.000  O
  O31      1.0000 0.22232  0.88076  0.51084  Biso   1.000  O
  O32      1.0000 0.22337  0.87114  0.75892  Biso   1.000  O
  Zr17     1.0000 0.63855  0.01992  0.15200  Biso   1.000  Zr
  Zr18     1.0000 0.64977  0.22760  0.40122  Biso   1.000  Zr
  Zr19     1.0000 0.85912  0.27250  0.10608  Biso   1.000  Zr
  Zr20     1.0000 0.86153  0.47868  0.35458  Biso   1.000  Zr
  O33      1.0000 0.52577  0.18107  0.12058  Biso   1.000  O
  O34      1.0000 0.54600  0.06424  0.34910  Biso   1.000  O
  O35      1.0000 0.96017  0.42441  0.16532  Biso   1.000  O
  O36      1.0000 0.96478  0.33189  0.41951  Biso   1.000  O
  O37      1.0000 0.77927  0.12895  0.24258  Biso   1.000  O
  O38      1.0000 0.78270  0.11862  0.49624  Biso   1.000  O
  O39      1.0000 0.72149  0.37975  0.01109  Biso   1.000  O
  O40      1.0000 0.72483  0.37103  0.26110  Biso   1.000  O
  Zr21     1.0000 0.63899  0.02182  0.64818  Biso   1.000  Zr
  Zr22     1.0000 0.63895  0.23384  0.89715  Biso   1.000  Zr
  Zr23     1.0000 0.86574  0.27113  0.60582  Biso   1.000  Zr
  Zr24     1.0000 0.86123  0.48005  0.85626  Biso   1.000  Zr
  O41      1.0000 0.53978  0.17415  0.58744  Biso   1.000  O
  O42      1.0000 0.53630  0.07956  0.83987  Biso   1.000  O
  O43      1.0000 0.96469  0.42118  0.66958  Biso   1.000  O
  O44      1.0000 0.95996  0.32766  0.91690  Biso   1.000  O
  O45      1.0000 0.77614  0.13081  0.74439  Biso   1.000  O
  O46      1.0000 0.76550  0.12259  0.99553  Biso   1.000  O
  O47      1.0000 0.72772  0.37852  0.51316  Biso   1.000  O
  O48      1.0000 0.72422  0.37035  0.76150  Biso   1.000  O
  Zr25     1.0000 0.63541  0.52261  0.14746  Biso   1.000  Zr
  Zr26     1.0000 0.63837  0.72579  0.39709  Biso   1.000  Zr
  Zr27     1.0000 0.85839  0.77157  0.10542  Biso   1.000  Zr
  Zr28     1.0000 0.86251  0.97765  0.35639  Biso   1.000  Zr
  O49      1.0000 0.53637  0.67518  0.08326  Biso   1.000  O
  O50      1.0000 0.53505  0.57575  0.33373  Biso   1.000  O
  O51      1.0000 0.96211  0.92156  0.16813  Biso   1.000  O
  O52      1.0000 0.96407  0.83045  0.42092  Biso   1.000  O
  O53      1.0000 0.77459  0.63001  0.24198  Biso   1.000  O
  O54      1.0000 0.77551  0.62048  0.49225  Biso   1.000  O
  O55      1.0000 0.72246  0.88073  0.01169  Biso   1.000  O
  O56      1.0000 0.72318  0.87062  0.26120  Biso   1.000  O
  Zr29     1.0000 0.63996  0.52182  0.64692  Biso   1.000  Zr
  Zr30     1.0000 0.63723  0.72936  0.89727  Biso   1.000  Zr
  Zr31     1.0000 0.86005  0.77139  0.60554  Biso   1.000  Zr
  Zr32     1.0000 0.85750  0.97983  0.85745  Biso   1.000  Zr
  O57      1.0000 0.53655  0.67062  0.58553  Biso   1.000  O
  O58      1.0000 0.53612  0.57837  0.83387  Biso   1.000  O
  O59      1.0000 0.96231  0.92127  0.67072  Biso   1.000  O
  O60      1.0000 0.96117  0.83044  0.91763  Biso   1.000  O
  O61      1.0000 0.77574  0.62932  0.74237  Biso   1.000  O
  O62      1.0000 0.77442  0.62164  0.99202  Biso   1.000  O
  O63      1.0000 0.72316  0.87852  0.51152  Biso   1.000  O
  O64      1.0000 0.72312  0.87187  0.76137  Biso   1.000  O
  Mn1      1.0000 0.41985  0.19425  0.30837  Biso   1.000  Mn
