data_image0
_cell_length_a       10.0376
_cell_length_b       10.2621
_cell_length_c       5.22478
_cell_angle_alpha    89.6987
_cell_angle_beta     89.9045
_cell_angle_gamma    90.0185

_symmetry_space_group_name_H-M    "P 1"
_symmetry_int_tables_number       1

loop_
  _symmetry_equiv_pos_as_xyz
  'x, y, z'

loop_
  _atom_site_label
  _atom_site_occupancy
  _atom_site_fract_x
  _atom_site_fract_y
  _atom_site_fract_z
  _atom_site_thermal_displace_type
  _atom_site_B_iso_or_equiv
  _atom_site_type_symbol
  Mn1      1.0000 0.13209  0.02381  0.35756  Biso   1.000  Mn
  Zr1      1.0000 0.14006  0.52064  0.34370  Biso   1.000  Zr
  Zr2      1.0000 0.13936  0.22470  0.84916  Biso   1.000  Zr
  Zr3      1.0000 0.14038  0.73228  0.83880  Biso   1.000  Zr
  Zr4      1.0000 0.35800  0.26767  0.34682  Biso   1.000  Zr
  Zr5      1.0000 0.35675  0.77574  0.33852  Biso   1.000  Zr
  Zr6      1.0000 0.36118  0.47904  0.84366  Biso   1.000  Zr
  Zr7      1.0000 0.35629  0.97843  0.84323  Biso   1.000  Zr
  Zr8      1.0000 0.63776  0.02155  0.15385  Biso   1.000  Zr
  Zr9      1.0000 0.63827  0.52184  0.16266  Biso   1.000  Zr
  Zr10     1.0000 0.63830  0.22993  0.65885  Biso   1.000  Zr
  Zr11     1.0000 0.63776  0.73004  0.65777  Biso   1.000  Zr
  Zr12     1.0000 0.86424  0.26835  0.16197  Biso   1.000  Zr
  Zr13     1.0000 0.86519  0.77263  0.15502  Biso   1.000  Zr
  Zr14     1.0000 0.86168  0.47905  0.66134  Biso   1.000  Zr
  Zr15     1.0000 0.86335  0.98151  0.65177  Biso   1.000  Zr
  O1       1.0000 0.03241  0.15222  0.16291  Biso   1.000  O
  O2       1.0000 0.03301  0.66503  0.16530  Biso   1.000  O
  O3       1.0000 0.03694  0.08789  0.63182  Biso   1.000  O
  O4       1.0000 0.03331  0.58406  0.66851  Biso   1.000  O
  O5       1.0000 0.46548  0.41675  0.17443  Biso   1.000  O
  O6       1.0000 0.46854  0.91540  0.16729  Biso   1.000  O
  O7       1.0000 0.46491  0.33161  0.67350  Biso   1.000  O
  O8       1.0000 0.46304  0.83419  0.67023  Biso   1.000  O
  O9       1.0000 0.27239  0.12194  0.59524  Biso   1.000  O
  O10      1.0000 0.27613  0.62690  0.58966  Biso   1.000  O
  O11      1.0000 0.26541  0.11609  0.11480  Biso   1.000  O
  O12      1.0000 0.27605  0.62550  0.08909  Biso   1.000  O
  O13      1.0000 0.22404  0.37474  0.59225  Biso   1.000  O
  O14      1.0000 0.21767  0.88240  0.57471  Biso   1.000  O
  O15      1.0000 0.22442  0.37210  0.09053  Biso   1.000  O
  O16      1.0000 0.22181  0.87529  0.08437  Biso   1.000  O
  O17      1.0000 0.53237  0.16623  0.33255  Biso   1.000  O
  O18      1.0000 0.53348  0.66964  0.32919  Biso   1.000  O
  O19      1.0000 0.52958  0.08632  0.83501  Biso   1.000  O
  O20      1.0000 0.53509  0.58209  0.82867  Biso   1.000  O
  O21      1.0000 0.96893  0.41316  0.33514  Biso   1.000  O
  O22      1.0000 0.98406  0.92208  0.32488  Biso   1.000  O
  O23      1.0000 0.96839  0.33021  0.83484  Biso   1.000  O
  O24      1.0000 0.96780  0.83678  0.82740  Biso   1.000  O
  O25      1.0000 0.77715  0.12374  0.90480  Biso   1.000  O
  O26      1.0000 0.77737  0.62653  0.91444  Biso   1.000  O
  O27      1.0000 0.77474  0.12557  0.40736  Biso   1.000  O
  O28      1.0000 0.77691  0.62614  0.41356  Biso   1.000  O
  O29      1.0000 0.72533  0.37400  0.91483  Biso   1.000  O
  O30      1.0000 0.72437  0.87549  0.90696  Biso   1.000  O
  O31      1.0000 0.72509  0.37582  0.41331  Biso   1.000  O
  O32      1.0000 0.73311  0.87687  0.40772  Biso   1.000  O
