data_image0
_cell_length_a       5.06615
_cell_length_b       10.5014
_cell_length_c       10.1349
_cell_angle_alpha    90.641
_cell_angle_beta     88.7866
_cell_angle_gamma    90.0549

_symmetry_space_group_name_H-M    "P 1"
_symmetry_int_tables_number       1

loop_
  _symmetry_equiv_pos_as_xyz
  'x, y, z'

loop_
  _atom_site_label
  _atom_site_occupancy
  _atom_site_fract_x
  _atom_site_fract_y
  _atom_site_fract_z
  _atom_site_thermal_displace_type
  _atom_site_B_iso_or_equiv
  _atom_site_type_symbol
  Zr1      1.0000 0.26355  0.00965  0.12876  Biso   1.000  Zr
  Zr2      1.0000 0.28872  0.22911  0.37903  Biso   1.000  Zr
  Zr3      1.0000 0.76231  0.24679  0.11428  Biso   1.000  Zr
  Zr4      1.0000 0.74899  0.47631  0.36742  Biso   1.000  Zr
  O1       1.0000 0.05811  0.17021  0.22226  Biso   1.000  O
  O2       1.0000 0.07552  0.06313  0.45524  Biso   1.000  O
  O3       1.0000 0.98770  0.41297  0.19911  Biso   1.000  O
  O4       1.0000 0.95752  0.31885  0.45624  Biso   1.000  O
  O5       1.0000 0.53796  0.09964  0.25068  Biso   1.000  O
  O6       1.0000 0.54979  0.13098  0.50326  Biso   1.000  O
  O7       1.0000 0.48179  0.38358  0.49615  Biso   1.000  O
  O8       1.0000 0.51334  0.34925  0.25005  Biso   1.000  O
  Zr5      1.0000 0.27315  0.01169  0.62422  Biso   1.000  Zr
  Zr6      1.0000 0.24783  0.24197  0.86630  Biso   1.000  Zr
  Zr7      1.0000 0.74078  0.26703  0.62504  Biso   1.000  Zr
  Zr8      1.0000 0.72179  0.48914  0.87034  Biso   1.000  Zr
  O9       1.0000 0.04506  0.16898  0.70370  Biso   1.000  O
  O10      1.0000 0.99388  0.08347  0.97623  Biso   1.000  O
  O11      1.0000 0.93803  0.43073  0.69846  Biso   1.000  O
  O12      1.0000 0.90548  0.32515  0.93278  Biso   1.000  O
  O13      1.0000 0.52204  0.11390  0.75505  Biso   1.000  O
  O14      1.0000 0.45754  0.15752  0.01347  Biso   1.000  O
  O15      1.0000 0.44817  0.39598  0.99464  Biso   1.000  O
  O16      1.0000 0.45822  0.36679  0.74266  Biso   1.000  O
  Zr9      1.0000 0.26143  0.53359  0.11275  Biso   1.000  Zr
  Zr10     1.0000 0.27465  0.73045  0.37367  Biso   1.000  Zr
  Zr11     1.0000 0.73692  0.76570  0.12103  Biso   1.000  Zr
  Zr12     1.0000 0.74664  0.98217  0.37698  Biso   1.000  Zr
  O17      1.0000 0.05064  0.68271  0.20501  Biso   1.000  O
  O18      1.0000 0.07146  0.56562  0.44492  Biso   1.000  O
  O19      1.0000 0.93581  0.92607  0.20241  Biso   1.000  O
  O20      1.0000 0.94528  0.81646  0.44955  Biso   1.000  O
  O21      1.0000 0.54313  0.60923  0.24053  Biso   1.000  O
  O22      1.0000 0.54347  0.63063  0.49114  Biso   1.000  O
  O23      1.0000 0.47245  0.88091  0.49506  Biso   1.000  O
  O24      1.0000 0.46183  0.85767  0.24322  Biso   1.000  O
  Zr13     1.0000 0.26731  0.51234  0.61802  Biso   1.000  Zr
  Zr14     1.0000 0.25957  0.74022  0.86490  Biso   1.000  Zr
  Zr15     1.0000 0.73627  0.75888  0.61830  Biso   1.000  Zr
  Zr16     1.0000 0.74056  0.98543  0.86672  Biso   1.000  Zr
  O25      1.0000 0.06359  0.67857  0.69421  Biso   1.000  O
  O26      1.0000 0.04603  0.57940  0.94691  Biso   1.000  O
  O27      1.0000 0.94816  0.92247  0.70309  Biso   1.000  O
  O28      1.0000 0.94387  0.82692  0.95058  Biso   1.000  O
  O29      1.0000 0.52947  0.61396  0.74008  Biso   1.000  O
  O30      1.0000 0.52669  0.64925  0.98752  Biso   1.000  O
  O31      1.0000 0.46525  0.89730  0.99076  Biso   1.000  O
  O32      1.0000 0.47105  0.86281  0.74117  Biso   1.000  O
  Mn1      1.0000 0.25078  0.29610  0.11933  Biso   1.000  Mn
