data_image0
_cell_length_a       10.0913
_cell_length_b       10.2582
_cell_length_c       5.20925
_cell_angle_alpha    89.9562
_cell_angle_beta     80.0919
_cell_angle_gamma    89.9378

_symmetry_space_group_name_H-M    "P 1"
_symmetry_int_tables_number       1

loop_
  _symmetry_equiv_pos_as_xyz
  'x, y, z'

loop_
  _atom_site_label
  _atom_site_occupancy
  _atom_site_fract_x
  _atom_site_fract_y
  _atom_site_fract_z
  _atom_site_thermal_displace_type
  _atom_site_B_iso_or_equiv
  _atom_site_type_symbol
  Mo1      1.0000 0.13878  0.02357  0.29522  Biso   1.000  Mo
  Hf1      1.0000 0.13962  0.22751  0.79230  Biso   1.000  Hf
  Hf2      1.0000 0.36003  0.27099  0.21107  Biso   1.000  Hf
  Hf3      1.0000 0.36082  0.47892  0.70910  Biso   1.000  Hf
  O1       1.0000 0.03636  0.16596  0.15779  Biso   1.000  O
  O2       1.0000 0.04069  0.07833  0.64532  Biso   1.000  O
  O3       1.0000 0.46325  0.42079  0.33768  Biso   1.000  O
  O4       1.0000 0.46218  0.32841  0.83821  Biso   1.000  O
  O5       1.0000 0.27810  0.12736  0.48607  Biso   1.000  O
  O6       1.0000 0.27507  0.11902  0.99330  Biso   1.000  O
  O7       1.0000 0.22252  0.37842  0.01923  Biso   1.000  O
  O8       1.0000 0.22310  0.37070  0.51963  Biso   1.000  O
  Hf4      1.0000 0.13915  0.52164  0.29193  Biso   1.000  Hf
  Hf5      1.0000 0.13873  0.72946  0.79131  Biso   1.000  Hf
  Hf6      1.0000 0.35895  0.77449  0.20956  Biso   1.000  Hf
  Hf7      1.0000 0.35912  0.97842  0.70989  Biso   1.000  Hf
  O9       1.0000 0.03557  0.66886  0.16031  Biso   1.000  O
  O10      1.0000 0.03583  0.57995  0.66189  Biso   1.000  O
  O11      1.0000 0.46466  0.91936  0.34190  Biso   1.000  O
  O12      1.0000 0.46276  0.83007  0.83911  Biso   1.000  O
  O13      1.0000 0.27648  0.63058  0.48217  Biso   1.000  O
  O14      1.0000 0.27677  0.62150  0.98202  Biso   1.000  O
  O15      1.0000 0.21938  0.88054  0.02073  Biso   1.000  O
  O16      1.0000 0.22011  0.87342  0.51689  Biso   1.000  O
  Hf8      1.0000 0.63850  0.02161  0.29220  Biso   1.000  Hf
  Hf9      1.0000 0.63862  0.22859  0.79168  Biso   1.000  Hf
  Hf10     1.0000 0.86171  0.27078  0.20719  Biso   1.000  Hf
  Hf11     1.0000 0.86094  0.47844  0.70760  Biso   1.000  Hf
  O17      1.0000 0.53685  0.17112  0.16425  Biso   1.000  O
  O18      1.0000 0.53588  0.07942  0.66461  Biso   1.000  O
  O19      1.0000 0.96456  0.41889  0.33775  Biso   1.000  O
  O20      1.0000 0.96411  0.32814  0.83662  Biso   1.000  O
  O21      1.0000 0.77729  0.12889  0.48049  Biso   1.000  O
  O22      1.0000 0.77762  0.12039  0.97873  Biso   1.000  O
  O23      1.0000 0.72340  0.37928  0.01818  Biso   1.000  O
  O24      1.0000 0.72310  0.37061  0.51785  Biso   1.000  O
  Hf12     1.0000 0.63861  0.52217  0.29171  Biso   1.000  Hf
  Hf13     1.0000 0.63851  0.72873  0.79345  Biso   1.000  Hf
  Hf14     1.0000 0.86233  0.77239  0.20689  Biso   1.000  Hf
  Hf15     1.0000 0.86128  0.97869  0.70502  Biso   1.000  Hf
  O25      1.0000 0.53533  0.67097  0.16305  Biso   1.000  O
  O26      1.0000 0.53638  0.57933  0.66389  Biso   1.000  O
  O27      1.0000 0.97031  0.92058  0.33151  Biso   1.000  O
  O28      1.0000 0.96352  0.83065  0.83587  Biso   1.000  O
  O29      1.0000 0.77684  0.62952  0.48157  Biso   1.000  O
  O30      1.0000 0.77711  0.62140  0.98181  Biso   1.000  O
  O31      1.0000 0.72278  0.87959  0.01778  Biso   1.000  O
  O32      1.0000 0.72637  0.87157  0.51765  Biso   1.000  O
