data_image0
_cell_length_a       5.03749
_cell_length_b       10.2591
_cell_length_c       10.428
_cell_angle_alpha    89.9456
_cell_angle_beta     80.1445
_cell_angle_gamma    89.858

_symmetry_space_group_name_H-M    "P 1"
_symmetry_int_tables_number       1

loop_
  _symmetry_equiv_pos_as_xyz
  'x, y, z'

loop_
  _atom_site_label
  _atom_site_occupancy
  _atom_site_fract_x
  _atom_site_fract_y
  _atom_site_fract_z
  _atom_site_thermal_displace_type
  _atom_site_B_iso_or_equiv
  _atom_site_type_symbol
  Mo1      1.0000 0.28352  0.02193  0.14904  Biso   1.000  Mo
  Hf1      1.0000 0.28081  0.22955  0.39479  Biso   1.000  Hf
  Hf2      1.0000 0.72428  0.27018  0.10517  Biso   1.000  Hf
  Hf3      1.0000 0.72290  0.47920  0.35344  Biso   1.000  Hf
  O1       1.0000 0.07784  0.16796  0.08323  Biso   1.000  O
  O2       1.0000 0.08442  0.07776  0.32383  Biso   1.000  O
  O3       1.0000 0.92797  0.42048  0.16849  Biso   1.000  O
  O4       1.0000 0.92660  0.32845  0.41761  Biso   1.000  O
  O5       1.0000 0.55791  0.12890  0.24189  Biso   1.000  O
  O6       1.0000 0.55724  0.12028  0.49014  Biso   1.000  O
  O7       1.0000 0.44626  0.37893  0.00996  Biso   1.000  O
  O8       1.0000 0.44731  0.37123  0.25908  Biso   1.000  O
  Hf4      1.0000 0.27669  0.02087  0.64586  Biso   1.000  Hf
  Hf5      1.0000 0.27626  0.22691  0.89721  Biso   1.000  Hf
  Hf6      1.0000 0.72157  0.27109  0.60413  Biso   1.000  Hf
  Hf7      1.0000 0.71994  0.47819  0.85510  Biso   1.000  Hf
  O9       1.0000 0.07168  0.16808  0.57773  Biso   1.000  O
  O10      1.0000 0.06795  0.08064  0.83009  Biso   1.000  O
  O11      1.0000 0.92773  0.41889  0.66940  Biso   1.000  O
  O12      1.0000 0.92595  0.32791  0.92017  Biso   1.000  O
  O13      1.0000 0.55234  0.12884  0.74138  Biso   1.000  O
  O14      1.0000 0.54811  0.11875  0.99432  Biso   1.000  O
  O15      1.0000 0.44573  0.37860  0.50917  Biso   1.000  O
  O16      1.0000 0.44520  0.37024  0.75994  Biso   1.000  O
  Hf8      1.0000 0.27805  0.52278  0.14539  Biso   1.000  Hf
  Hf9      1.0000 0.27931  0.72873  0.39588  Biso   1.000  Hf
  Hf10     1.0000 0.71960  0.77678  0.10403  Biso   1.000  Hf
  Hf11     1.0000 0.72410  0.97905  0.35219  Biso   1.000  Hf
  O17      1.0000 0.06774  0.67019  0.08120  Biso   1.000  O
  O18      1.0000 0.07328  0.57967  0.33148  Biso   1.000  O
  O19      1.0000 0.94361  0.92237  0.16535  Biso   1.000  O
  O20      1.0000 0.93002  0.83109  0.41866  Biso   1.000  O
  O21      1.0000 0.55341  0.63143  0.24064  Biso   1.000  O
  O22      1.0000 0.55505  0.62057  0.49103  Biso   1.000  O
  O23      1.0000 0.43189  0.88029  0.01013  Biso   1.000  O
  O24      1.0000 0.44740  0.87372  0.25924  Biso   1.000  O
  Hf12     1.0000 0.27768  0.52112  0.64660  Biso   1.000  Hf
  Hf13     1.0000 0.27473  0.72878  0.89698  Biso   1.000  Hf
  Hf14     1.0000 0.72151  0.77136  0.60429  Biso   1.000  Hf
  Hf15     1.0000 0.71757  0.97857  0.85495  Biso   1.000  Hf
  O25      1.0000 0.07272  0.66987  0.58080  Biso   1.000  O
  O26      1.0000 0.07072  0.57922  0.83147  Biso   1.000  O
  O27      1.0000 0.92634  0.91973  0.66932  Biso   1.000  O
  O28      1.0000 0.92177  0.83010  0.91884  Biso   1.000  O
  O29      1.0000 0.55315  0.62892  0.74123  Biso   1.000  O
  O30      1.0000 0.55288  0.62206  0.99122  Biso   1.000  O
  O31      1.0000 0.44721  0.87911  0.50861  Biso   1.000  O
  O32      1.0000 0.44403  0.87063  0.75931  Biso   1.000  O
