data_image0
_cell_length_a       10.0003
_cell_length_b       10.1811
_cell_length_c       10.0002
_cell_angle_alpha    90
_cell_angle_beta     90
_cell_angle_gamma    90

_symmetry_space_group_name_H-M    "P 1"
_symmetry_int_tables_number       1

loop_
  _symmetry_equiv_pos_as_xyz
  'x, y, z'

loop_
  _atom_site_label
  _atom_site_occupancy
  _atom_site_fract_x
  _atom_site_fract_y
  _atom_site_fract_z
  _atom_site_thermal_displace_type
  _atom_site_B_iso_or_equiv
  _atom_site_type_symbol
  Mo1      1.0000 0.12491  0.00005  0.12491  Biso   1.000  Mo
  Hf1      1.0000 0.12581  0.24984  0.37393  Biso   1.000  Hf
  Hf2      1.0000 0.37393  0.24984  0.12581  Biso   1.000  Hf
  Hf3      1.0000 0.37393  0.00002  0.37393  Biso   1.000  Hf
  O1       1.0000 0.99613  0.14464  0.99613  Biso   1.000  O
  O2       1.0000 0.00496  0.10178  0.24486  Biso   1.000  O
  O3       1.0000 0.99911  0.35250  0.25071  Biso   1.000  O
  O4       1.0000 0.00050  0.39675  0.00050  Biso   1.000  O
  O5       1.0000 0.25368  0.14464  0.25368  Biso   1.000  O
  O6       1.0000 0.24486  0.10178  0.00496  Biso   1.000  O
  O7       1.0000 0.25071  0.35250  0.99911  Biso   1.000  O
  O8       1.0000 0.24932  0.39675  0.24932  Biso   1.000  O
  Hf4      1.0000 0.12491  0.00005  0.62491  Biso   1.000  Hf
  Hf5      1.0000 0.12401  0.24984  0.87588  Biso   1.000  Hf
  Hf6      1.0000 0.37489  0.24957  0.62542  Biso   1.000  Hf
  Hf7      1.0000 0.37393  0.00008  0.87589  Biso   1.000  Hf
  O9       1.0000 0.99669  0.14736  0.49443  Biso   1.000  O
  O10      1.0000 0.00090  0.10294  0.74682  Biso   1.000  O
  O11      1.0000 0.99871  0.35239  0.75094  Biso   1.000  O
  O12      1.0000 0.00059  0.39740  0.50045  Biso   1.000  O
  O13      1.0000 0.25312  0.14736  0.75539  Biso   1.000  O
  O14      1.0000 0.24892  0.10294  0.50300  Biso   1.000  O
  O15      1.0000 0.25111  0.35240  0.49888  Biso   1.000  O
  O16      1.0000 0.24923  0.39740  0.74937  Biso   1.000  O
  Hf8      1.0000 0.12491  0.50005  0.12491  Biso   1.000  Hf
  Hf9      1.0000 0.12401  0.75027  0.37394  Biso   1.000  Hf
  Hf10     1.0000 0.37393  0.75027  0.12401  Biso   1.000  Hf
  Hf11     1.0000 0.37538  0.50006  0.37538  Biso   1.000  Hf
  O17      1.0000 0.99911  0.64761  0.99911  Biso   1.000  O
  O18      1.0000 0.00050  0.60336  0.24932  Biso   1.000  O
  O19      1.0000 0.99613  0.85547  0.25368  Biso   1.000  O
  O20      1.0000 0.00496  0.89832  0.00496  Biso   1.000  O
  O21      1.0000 0.25071  0.64761  0.25071  Biso   1.000  O
  O22      1.0000 0.24932  0.60336  0.00050  Biso   1.000  O
  O23      1.0000 0.25369  0.85547  0.99613  Biso   1.000  O
  O24      1.0000 0.24486  0.89832  0.24486  Biso   1.000  O
  Hf12     1.0000 0.12491  0.50005  0.62491  Biso   1.000  Hf
  Hf13     1.0000 0.12581  0.75027  0.87588  Biso   1.000  Hf
  Hf14     1.0000 0.37489  0.75054  0.62440  Biso   1.000  Hf
  Hf15     1.0000 0.37539  0.50005  0.87443  Biso   1.000  Hf
  O25      1.0000 0.99871  0.64771  0.49888  Biso   1.000  O
  O26      1.0000 0.00059  0.60271  0.74937  Biso   1.000  O
  O27      1.0000 0.99669  0.85275  0.75539  Biso   1.000  O
  O28      1.0000 0.00090  0.89717  0.50300  Biso   1.000  O
  O29      1.0000 0.25111  0.64771  0.75094  Biso   1.000  O
  O30      1.0000 0.24923  0.60270  0.50045  Biso   1.000  O
  O31      1.0000 0.25312  0.85275  0.49443  Biso   1.000  O
  O32      1.0000 0.24892  0.89717  0.74682  Biso   1.000  O
  Hf16     1.0000 0.62491  0.00005  0.12491  Biso   1.000  Hf
  Hf17     1.0000 0.62542  0.24957  0.37489  Biso   1.000  Hf
  Hf18     1.0000 0.87588  0.24984  0.12401  Biso   1.000  Hf
  Hf19     1.0000 0.87589  0.00008  0.37393  Biso   1.000  Hf
  O33      1.0000 0.49443  0.14736  0.99669  Biso   1.000  O
  O34      1.0000 0.50300  0.10294  0.24892  Biso   1.000  O
  O35      1.0000 0.49888  0.35240  0.25111  Biso   1.000  O
  O36      1.0000 0.50045  0.39740  0.00059  Biso   1.000  O
  O37      1.0000 0.75539  0.14736  0.25312  Biso   1.000  O
  O38      1.0000 0.74682  0.10294  0.00090  Biso   1.000  O
  O39      1.0000 0.75094  0.35239  0.99871  Biso   1.000  O
  O40      1.0000 0.74937  0.39740  0.24923  Biso   1.000  O
  Hf20     1.0000 0.62491  0.00005  0.62491  Biso   1.000  Hf
  Hf21     1.0000 0.62440  0.24957  0.87492  Biso   1.000  Hf
  Hf22     1.0000 0.87492  0.24957  0.62440  Biso   1.000  Hf
  Hf23     1.0000 0.87589  0.00002  0.87589  Biso   1.000  Hf
  O41      1.0000 0.49726  0.14735  0.49726  Biso   1.000  O
  O42      1.0000 0.50122  0.10277  0.74860  Biso   1.000  O
  O43      1.0000 0.49876  0.35300  0.75106  Biso   1.000  O
  O44      1.0000 0.50067  0.39708  0.50067  Biso   1.000  O
  O45      1.0000 0.75255  0.14735  0.75255  Biso   1.000  O
  O46      1.0000 0.74860  0.10277  0.50122  Biso   1.000  O
  O47      1.0000 0.75106  0.35300  0.49876  Biso   1.000  O
  O48      1.0000 0.74915  0.39708  0.74915  Biso   1.000  O
  Hf24     1.0000 0.62491  0.50005  0.12491  Biso   1.000  Hf
  Hf25     1.0000 0.62440  0.75054  0.37489  Biso   1.000  Hf
  Hf26     1.0000 0.87588  0.75027  0.12581  Biso   1.000  Hf
  Hf27     1.0000 0.87443  0.50005  0.37539  Biso   1.000  Hf
  O49      1.0000 0.49888  0.64771  0.99871  Biso   1.000  O
  O50      1.0000 0.50045  0.60270  0.24923  Biso   1.000  O
  O51      1.0000 0.49443  0.85275  0.25312  Biso   1.000  O
  O52      1.0000 0.50300  0.89717  0.00090  Biso   1.000  O
  O53      1.0000 0.75094  0.64771  0.25111  Biso   1.000  O
  O54      1.0000 0.74937  0.60271  0.00059  Biso   1.000  O
  O55      1.0000 0.75539  0.85274  0.99669  Biso   1.000  O
  O56      1.0000 0.74682  0.89717  0.24892  Biso   1.000  O
  Hf28     1.0000 0.62491  0.50005  0.62491  Biso   1.000  Hf
  Hf29     1.0000 0.62542  0.75054  0.87492  Biso   1.000  Hf
  Hf30     1.0000 0.87492  0.75054  0.62542  Biso   1.000  Hf
  Hf31     1.0000 0.87443  0.50006  0.87443  Biso   1.000  Hf
  O57      1.0000 0.49876  0.64711  0.49876  Biso   1.000  O
  O58      1.0000 0.50067  0.60302  0.74915  Biso   1.000  O
  O59      1.0000 0.49726  0.85275  0.75255  Biso   1.000  O
  O60      1.0000 0.50122  0.89734  0.50122  Biso   1.000  O
  O61      1.0000 0.75106  0.64711  0.75106  Biso   1.000  O
  O62      1.0000 0.74915  0.60302  0.50067  Biso   1.000  O
  O63      1.0000 0.75255  0.85275  0.49726  Biso   1.000  O
  O64      1.0000 0.74860  0.89734  0.74860  Biso   1.000  O
