data_image0
_cell_length_a       10.0605
_cell_length_b       10.2224
_cell_length_c       10.5366
_cell_angle_alpha    90.0438
_cell_angle_beta     90.696
_cell_angle_gamma    90.1528

_symmetry_space_group_name_H-M    "P 1"
_symmetry_int_tables_number       1

loop_
  _symmetry_equiv_pos_as_xyz
  'x, y, z'

loop_
  _atom_site_label
  _atom_site_occupancy
  _atom_site_fract_x
  _atom_site_fract_y
  _atom_site_fract_z
  _atom_site_thermal_displace_type
  _atom_site_B_iso_or_equiv
  _atom_site_type_symbol
  Hf1      1.0000 0.13939  0.02178  0.17288  Biso   1.000  Hf
  Hf2      1.0000 0.13753  0.22986  0.42298  Biso   1.000  Hf
  Hf3      1.0000 0.36292  0.26641  0.17795  Biso   1.000  Hf
  Hf4      1.0000 0.35926  0.47978  0.42397  Biso   1.000  Hf
  Hf5      1.0000 0.64171  0.00387  0.07485  Biso   1.000  Hf
  Hf6      1.0000 0.63044  0.22782  0.33464  Biso   1.000  Hf
  Hf7      1.0000 0.87273  0.27075  0.07179  Biso   1.000  Hf
  Hf8      1.0000 0.86024  0.47843  0.32809  Biso   1.000  Hf
  O1       1.0000 0.03505  0.15962  0.07622  Biso   1.000  O
  O2       1.0000 0.02612  0.09268  0.32624  Biso   1.000  O
  O3       1.0000 0.46833  0.41553  0.07715  Biso   1.000  O
  O4       1.0000 0.46305  0.33698  0.33828  Biso   1.000  O
  O5       1.0000 0.26929  0.12440  0.30039  Biso   1.000  O
  O6       1.0000 0.27518  0.12300  0.04751  Biso   1.000  O
  O7       1.0000 0.22093  0.37518  0.29744  Biso   1.000  O
  O8       1.0000 0.22431  0.37615  0.04433  Biso   1.000  O
  O9       1.0000 0.51137  0.12204  0.19839  Biso   1.000  O
  O10      1.0000 0.52473  0.09618  0.43811  Biso   1.000  O
  O11      1.0000 0.96681  0.41369  0.16906  Biso   1.000  O
  O12      1.0000 0.96734  0.33832  0.41874  Biso   1.000  O
  O13      1.0000 0.77574  0.12180  0.45093  Biso   1.000  O
  O14      1.0000 0.75943  0.13577  0.19065  Biso   1.000  O
  O15      1.0000 0.72488  0.37454  0.45888  Biso   1.000  O
  O16      1.0000 0.71485  0.38421  0.20848  Biso   1.000  O
  Hf9      1.0000 0.14067  0.02214  0.67137  Biso   1.000  Hf
  Hf10     1.0000 0.14410  0.22760  0.92070  Biso   1.000  Hf
  Hf11     1.0000 0.36460  0.27103  0.67377  Biso   1.000  Hf
  Hf12     1.0000 0.36065  0.47952  0.91947  Biso   1.000  Hf
  Hf13     1.0000 0.63970  0.02032  0.57950  Biso   1.000  Hf
  Hf14     1.0000 0.64326  0.22767  0.82711  Biso   1.000  Hf
  Hf15     1.0000 0.86225  0.27115  0.57769  Biso   1.000  Hf
  Hf16     1.0000 0.86374  0.47963  0.82756  Biso   1.000  Hf
  O17      1.0000 0.03179  0.16233  0.57978  Biso   1.000  O
  O18      1.0000 0.03622  0.08649  0.82863  Biso   1.000  O
  O19      1.0000 0.47082  0.40937  0.58031  Biso   1.000  O
  O20      1.0000 0.47352  0.34495  0.82714  Biso   1.000  O
  O21      1.0000 0.27862  0.12489  0.79720  Biso   1.000  O
  O22      1.0000 0.27528  0.12626  0.54768  Biso   1.000  O
  O23      1.0000 0.22607  0.37342  0.79403  Biso   1.000  O
  O24      1.0000 0.22426  0.37696  0.54681  Biso   1.000  O
  O25      1.0000 0.52807  0.15044  0.68338  Biso   1.000  O
  O26      1.0000 0.52274  0.11109  0.94534  Biso   1.000  O
  O27      1.0000 0.96796  0.41466  0.66732  Biso   1.000  O
  O28      1.0000 0.97179  0.33625  0.91353  Biso   1.000  O
  O29      1.0000 0.78564  0.11669  0.94300  Biso   1.000  O
  O30      1.0000 0.77807  0.12580  0.69939  Biso   1.000  O
  O31      1.0000 0.72554  0.37677  0.95992  Biso   1.000  O
  O32      1.0000 0.72595  0.37539  0.70732  Biso   1.000  O
  Hf17     1.0000 0.14049  0.51891  0.17217  Biso   1.000  Hf
  Hf18     1.0000 0.13761  0.72890  0.42108  Biso   1.000  Hf
  Hf19     1.0000 0.35975  0.77079  0.17335  Biso   1.000  Hf
  Hf20     1.0000 0.36209  0.97934  0.42386  Biso   1.000  Hf
  Hf21     1.0000 0.64037  0.53358  0.07675  Biso   1.000  Hf
  Hf22     1.0000 0.63823  0.72914  0.32982  Biso   1.000  Hf
  Hf23     1.0000 0.86746  0.77021  0.07811  Biso   1.000  Hf
  Hf24     1.0000 0.86133  0.97926  0.32754  Biso   1.000  Hf
  O33      1.0000 0.03491  0.66224  0.08080  Biso   1.000  O
  O34      1.0000 0.03093  0.58743  0.33032  Biso   1.000  O
  O35      1.0000 0.47148  0.89650  0.07060  Biso   1.000  O
  O36      1.0000 0.47074  0.84344  0.32731  Biso   1.000  O
  O37      1.0000 0.27480  0.62458  0.29608  Biso   1.000  O
  O38      1.0000 0.27696  0.62512  0.04567  Biso   1.000  O
  O39      1.0000 0.22333  0.87334  0.29560  Biso   1.000  O
  O40      1.0000 0.22462  0.87689  0.04594  Biso   1.000  O
  O41      1.0000 0.52927  0.66055  0.17484  Biso   1.000  O
  O42      1.0000 0.52983  0.59029  0.42263  Biso   1.000  O
  O43      1.0000 0.96767  0.91561  0.16739  Biso   1.000  O
  O44      1.0000 0.96701  0.83915  0.41657  Biso   1.000  O
  O45      1.0000 0.77597  0.62356  0.45337  Biso   1.000  O
  O46      1.0000 0.77798  0.62978  0.20361  Biso   1.000  O
  O47      1.0000 0.72398  0.87428  0.45529  Biso   1.000  O
  O48      1.0000 0.72859  0.87265  0.20699  Biso   1.000  O
  Hf25     1.0000 0.13895  0.52173  0.67059  Biso   1.000  Hf
  Hf26     1.0000 0.14107  0.72871  0.92151  Biso   1.000  Hf
  Hf27     1.0000 0.36268  0.77302  0.67223  Biso   1.000  Hf
  Hf28     1.0000 0.36236  0.97910  0.92477  Biso   1.000  Hf
  Hf29     1.0000 0.63895  0.52060  0.57804  Biso   1.000  Hf
  Hf30     1.0000 0.63975  0.72919  0.82487  Biso   1.000  Hf
  Hf31     1.0000 0.86212  0.77146  0.57706  Biso   1.000  Hf
  Hf32     1.0000 0.86647  0.97721  0.82555  Biso   1.000  Hf
  O49      1.0000 0.03204  0.66345  0.57948  Biso   1.000  O
  O50      1.0000 0.03356  0.58719  0.82999  Biso   1.000  O
  O51      1.0000 0.47186  0.90546  0.57644  Biso   1.000  O
  O52      1.0000 0.47586  0.84954  0.82384  Biso   1.000  O
  O53      1.0000 0.27656  0.62502  0.79509  Biso   1.000  O
  O54      1.0000 0.27494  0.62697  0.54568  Biso   1.000  O
  O55      1.0000 0.22696  0.87390  0.79637  Biso   1.000  O
  O56      1.0000 0.22529  0.87687  0.54527  Biso   1.000  O
  O57      1.0000 0.52986  0.65931  0.67173  Biso   1.000  O
  O58      1.0000 0.52945  0.59596  0.92157  Biso   1.000  O
  O59      1.0000 0.97167  0.91233  0.66519  Biso   1.000  O
  O60      1.0000 0.97186  0.83624  0.91830  Biso   1.000  O
  O61      1.0000 0.77865  0.62486  0.95179  Biso   1.000  O
  O62      1.0000 0.77682  0.62598  0.70303  Biso   1.000  O
  O63      1.0000 0.72875  0.86997  0.95285  Biso   1.000  O
  O64      1.0000 0.72783  0.87427  0.70381  Biso   1.000  O
  Mo1      1.0000 0.60622  0.25680  0.08864  Biso   1.000  Mo
