data_image0
_cell_length_a       5.08997
_cell_length_b       10.2518
_cell_length_c       10.6444
_cell_angle_alpha    89.3739
_cell_angle_beta     80.4833
_cell_angle_gamma    90.3067

_symmetry_space_group_name_H-M    "P 1"
_symmetry_int_tables_number       1

loop_
  _symmetry_equiv_pos_as_xyz
  'x, y, z'

loop_
  _atom_site_label
  _atom_site_occupancy
  _atom_site_fract_x
  _atom_site_fract_y
  _atom_site_fract_z
  _atom_site_thermal_displace_type
  _atom_site_B_iso_or_equiv
  _atom_site_type_symbol
  Hf1      1.0000 0.27824  0.01936  0.14309  Biso   1.000  Hf
  Hf2      1.0000 0.26551  0.24080  0.41194  Biso   1.000  Hf
  Hf3      1.0000 0.72721  0.26416  0.08881  Biso   1.000  Hf
  Hf4      1.0000 0.71219  0.49240  0.36099  Biso   1.000  Hf
  O1       1.0000 0.06657  0.15187  0.06253  Biso   1.000  O
  O2       1.0000 0.07308  0.08842  0.32691  Biso   1.000  O
  O3       1.0000 0.95746  0.39002  0.18932  Biso   1.000  O
  O4       1.0000 0.95463  0.36803  0.44402  Biso   1.000  O
  O5       1.0000 0.56955  0.11452  0.22177  Biso   1.000  O
  O6       1.0000 0.56379  0.12136  0.48168  Biso   1.000  O
  O7       1.0000 0.44611  0.37814  0.00891  Biso   1.000  O
  O8       1.0000 0.47750  0.36565  0.26275  Biso   1.000  O
  Hf5      1.0000 0.27344  0.02268  0.64434  Biso   1.000  Hf
  Hf6      1.0000 0.27630  0.22674  0.89005  Biso   1.000  Hf
  Hf7      1.0000 0.71637  0.27977  0.60686  Biso   1.000  Hf
  Hf8      1.0000 0.71698  0.48026  0.85701  Biso   1.000  Hf
  O9       1.0000 0.05832  0.16632  0.58131  Biso   1.000  O
  O10      1.0000 0.06192  0.08743  0.82001  Biso   1.000  O
  O11      1.0000 0.92987  0.41410  0.68462  Biso   1.000  O
  O12      1.0000 0.94524  0.34317  0.92399  Biso   1.000  O
  O13      1.0000 0.54672  0.12920  0.73488  Biso   1.000  O
  O14      1.0000 0.55016  0.12046  0.97903  Biso   1.000  O
  O15      1.0000 0.43571  0.38869  0.52352  Biso   1.000  O
  O16      1.0000 0.44691  0.37400  0.76277  Biso   1.000  O
  Hf9      1.0000 0.27536  0.51656  0.14796  Biso   1.000  Hf
  Hf10     1.0000 0.26554  0.72965  0.39755  Biso   1.000  Hf
  Hf11     1.0000 0.72389  0.76930  0.10520  Biso   1.000  Hf
  Hf12     1.0000 0.71707  0.97093  0.35324  Biso   1.000  Hf
  O17      1.0000 0.05743  0.65285  0.07315  Biso   1.000  O
  O18      1.0000 0.06193  0.59372  0.31851  Biso   1.000  O
  O19      1.0000 0.94133  0.90461  0.18088  Biso   1.000  O
  O20      1.0000 0.93193  0.83861  0.43086  Biso   1.000  O
  O21      1.0000 0.54854  0.62547  0.23956  Biso   1.000  O
  O22      1.0000 0.53774  0.62872  0.49378  Biso   1.000  O
  O23      1.0000 0.45020  0.87710  0.01247  Biso   1.000  O
  O24      1.0000 0.44609  0.86621  0.26077  Biso   1.000  O
  Hf13     1.0000 0.26522  0.52685  0.65158  Biso   1.000  Hf
  Hf14     1.0000 0.27371  0.72822  0.89889  Biso   1.000  Hf
  Hf15     1.0000 0.71591  0.77347  0.60730  Biso   1.000  Hf
  Hf16     1.0000 0.72322  0.97726  0.85294  Biso   1.000  Hf
  O25      1.0000 0.05036  0.66122  0.57390  Biso   1.000  O
  O26      1.0000 0.05547  0.59381  0.82592  Biso   1.000  O
  O27      1.0000 0.93451  0.91124  0.67753  Biso   1.000  O
  O28      1.0000 0.93583  0.83958  0.93011  Biso   1.000  O
  O29      1.0000 0.54507  0.63069  0.74315  Biso   1.000  O
  O30      1.0000 0.54658  0.62191  0.99206  Biso   1.000  O
  O31      1.0000 0.44328  0.87952  0.51189  Biso   1.000  O
  O32      1.0000 0.44490  0.87293  0.76202  Biso   1.000  O
  Mo1      1.0000 0.78305  0.23975  0.32339  Biso   1.000  Mo
