data_image0
_cell_length_a       5.07476
_cell_length_b       10.4136
_cell_length_c       10.1086
_cell_angle_alpha    88.262
_cell_angle_beta     87.4805
_cell_angle_gamma    91.5033

_symmetry_space_group_name_H-M    "P 1"
_symmetry_int_tables_number       1

loop_
  _symmetry_equiv_pos_as_xyz
  'x, y, z'

loop_
  _atom_site_label
  _atom_site_occupancy
  _atom_site_fract_x
  _atom_site_fract_y
  _atom_site_fract_z
  _atom_site_thermal_displace_type
  _atom_site_B_iso_or_equiv
  _atom_site_type_symbol
  Hf1      1.0000 0.27240  0.94795  0.12685  Biso   1.000  Hf
  Hf2      1.0000 0.30166  0.24133  0.36765  Biso   1.000  Hf
  Hf3      1.0000 0.76194  0.28844  0.11487  Biso   1.000  Hf
  Hf4      1.0000 0.77825  0.99845  0.37291  Biso   1.000  Hf
  O1       1.0000 0.93478  0.16036  0.98480  Biso   1.000  O
  O2       1.0000 0.08659  0.07264  0.26120  Biso   1.000  O
  O3       1.0000 0.06893  0.33013  0.23228  Biso   1.000  O
  O4       1.0000 0.99466  0.41942  0.98543  Biso   1.000  O
  O5       1.0000 0.58319  0.15139  0.24690  Biso   1.000  O
  O6       1.0000 0.44323  0.07195  0.97852  Biso   1.000  O
  O7       1.0000 0.47224  0.33826  0.98575  Biso   1.000  O
  O8       1.0000 0.53336  0.40332  0.25236  Biso   1.000  O
  Hf5      1.0000 0.24008  0.01834  0.63250  Biso   1.000  Hf
  Hf6      1.0000 0.19976  0.26981  0.85564  Biso   1.000  Hf
  Hf7      1.0000 0.74607  0.24570  0.60535  Biso   1.000  Hf
  Hf8      1.0000 0.74724  0.99579  0.88722  Biso   1.000  Hf
  O9       1.0000 0.01875  0.15049  0.49646  Biso   1.000  O
  O10      1.0000 0.94619  0.11094  0.74024  Biso   1.000  O
  O11      1.0000 0.92364  0.36429  0.73957  Biso   1.000  O
  O12      1.0000 0.96475  0.39916  0.48916  Biso   1.000  O
  O13      1.0000 0.43361  0.17597  0.72396  Biso   1.000  O
  O14      1.0000 0.52210  0.10468  0.49264  Biso   1.000  O
  O15      1.0000 0.47114  0.36275  0.50521  Biso   1.000  O
  O16      1.0000 0.41694  0.42966  0.75712  Biso   1.000  O
  Hf9      1.0000 0.24782  0.50009  0.12776  Biso   1.000  Hf
  Hf10     1.0000 0.27632  0.76035  0.39505  Biso   1.000  Hf
  Hf11     1.0000 0.77054  0.72923  0.13049  Biso   1.000  Hf
  Hf12     1.0000 0.70429  0.51270  0.39016  Biso   1.000  Hf
  O17      1.0000 0.08656  0.65787  0.02000  Biso   1.000  O
  O18      1.0000 0.95872  0.57497  0.24418  Biso   1.000  O
  O19      1.0000 0.02220  0.82396  0.25832  Biso   1.000  O
  O20      1.0000 0.98970  0.89080  0.00285  Biso   1.000  O
  O21      1.0000 0.47258  0.64504  0.26577  Biso   1.000  O
  O22      1.0000 0.58203  0.57837  0.03001  Biso   1.000  O
  O23      1.0000 0.51550  0.82839  0.00076  Biso   1.000  O
  O24      1.0000 0.54415  0.88798  0.25635  Biso   1.000  O
  Hf13     1.0000 0.19103  0.49827  0.61419  Biso   1.000  Hf
  Hf14     1.0000 0.24476  0.76325  0.86727  Biso   1.000  Hf
  Hf15     1.0000 0.76090  0.76383  0.63090  Biso   1.000  Hf
  Hf16     1.0000 0.71574  0.50394  0.86097  Biso   1.000  Hf
  O25      1.0000 0.97625  0.65060  0.50001  Biso   1.000  O
  O26      1.0000 0.01536  0.61578  0.75376  Biso   1.000  O
  O27      1.0000 0.99814  0.86704  0.75116  Biso   1.000  O
  O28      1.0000 0.02931  0.90267  0.50227  Biso   1.000  O
  O29      1.0000 0.54155  0.67005  0.77805  Biso   1.000  O
  O30      1.0000 0.47386  0.61684  0.52091  Biso   1.000  O
  O31      1.0000 0.53072  0.86057  0.50491  Biso   1.000  O
  O32      1.0000 0.49266  0.91654  0.75129  Biso   1.000  O
  Mo1      1.0000 0.26343  0.18974  0.11138  Biso   1.000  Mo
