data_image0
_cell_length_a       10.0318
_cell_length_b       5.26921
_cell_length_c       10.1071
_cell_angle_alpha    89.1556
_cell_angle_beta     89.1072
_cell_angle_gamma    90.1307

_symmetry_space_group_name_H-M    "P 1"
_symmetry_int_tables_number       1

loop_
  _symmetry_equiv_pos_as_xyz
  'x, y, z'

loop_
  _atom_site_label
  _atom_site_occupancy
  _atom_site_fract_x
  _atom_site_fract_y
  _atom_site_fract_z
  _atom_site_thermal_displace_type
  _atom_site_B_iso_or_equiv
  _atom_site_type_symbol
  Hf1      1.0000 0.12396  0.12564  0.11154  Biso   1.000  Hf
  Hf2      1.0000 0.13721  0.44860  0.38796  Biso   1.000  Hf
  Hf3      1.0000 0.38174  0.54067  0.12509  Biso   1.000  Hf
  Hf4      1.0000 0.36583  0.95456  0.37644  Biso   1.000  Hf
  O1       1.0000 0.00711  0.37073  0.23432  Biso   1.000  O
  O2       1.0000 0.03976  0.11047  0.45079  Biso   1.000  O
  O3       1.0000 0.47484  0.85614  0.20576  Biso   1.000  O
  O4       1.0000 0.46970  0.62259  0.45242  Biso   1.000  O
  O5       1.0000 0.26860  0.20640  0.25189  Biso   1.000  O
  O6       1.0000 0.27527  0.24827  0.50462  Biso   1.000  O
  O7       1.0000 0.23295  0.75080  0.50589  Biso   1.000  O
  O8       1.0000 0.24510  0.68893  0.26045  Biso   1.000  O
  Hf5      1.0000 0.13552  0.01196  0.62771  Biso   1.000  Hf
  Hf6      1.0000 0.11640  0.45859  0.85070  Biso   1.000  Hf
  Hf7      1.0000 0.36858  0.51775  0.62727  Biso   1.000  Hf
  Hf8      1.0000 0.37929  0.96671  0.86594  Biso   1.000  Hf
  O9       1.0000 0.03222  0.34842  0.67379  Biso   1.000  O
  O10      1.0000 0.02994  0.12598  0.92346  Biso   1.000  O
  O11      1.0000 0.47162  0.84488  0.69262  Biso   1.000  O
  O12      1.0000 0.47335  0.64290  0.94361  Biso   1.000  O
  O13      1.0000 0.26508  0.21838  0.75180  Biso   1.000  O
  O14      1.0000 0.24912  0.37674  0.99729  Biso   1.000  O
  O15      1.0000 0.25644  0.86965  0.01607  Biso   1.000  O
  O16      1.0000 0.23737  0.72240  0.75464  Biso   1.000  O
  Hf9      1.0000 0.63549  0.02637  0.12826  Biso   1.000  Hf
  Hf10     1.0000 0.63339  0.45925  0.37428  Biso   1.000  Hf
  Hf11     1.0000 0.85445  0.52439  0.12217  Biso   1.000  Hf
  Hf12     1.0000 0.87459  0.96383  0.37024  Biso   1.000  Hf
  O17      1.0000 0.53732  0.35600  0.20100  Biso   1.000  O
  O18      1.0000 0.53395  0.12500  0.44803  Biso   1.000  O
  O19      1.0000 0.97042  0.87419  0.19021  Biso   1.000  O
  O20      1.0000 0.96951  0.63579  0.44857  Biso   1.000  O
  O21      1.0000 0.76431  0.21672  0.24836  Biso   1.000  O
  O22      1.0000 0.76980  0.26541  0.49500  Biso   1.000  O
  O23      1.0000 0.73543  0.76690  0.49723  Biso   1.000  O
  O24      1.0000 0.73303  0.72658  0.25125  Biso   1.000  O
  Hf13     1.0000 0.63615  0.02414  0.61904  Biso   1.000  Hf
  Hf14     1.0000 0.63393  0.45834  0.87319  Biso   1.000  Hf
  Hf15     1.0000 0.86387  0.52882  0.61762  Biso   1.000  Hf
  Hf16     1.0000 0.86000  0.95911  0.87031  Biso   1.000  Hf
  O25      1.0000 0.53015  0.34090  0.70429  Biso   1.000  O
  O26      1.0000 0.52668  0.14742  0.95814  Biso   1.000  O
  O27      1.0000 0.96960  0.83833  0.70140  Biso   1.000  O
  O28      1.0000 0.96281  0.64226  0.94903  Biso   1.000  O
  O29      1.0000 0.76851  0.22361  0.74408  Biso   1.000  O
  O30      1.0000 0.76874  0.25897  0.99495  Biso   1.000  O
  O31      1.0000 0.72457  0.76274  0.99826  Biso   1.000  O
  O32      1.0000 0.73022  0.72386  0.74708  Biso   1.000  O
  Mo1      1.0000 0.11136  0.62521  0.10266  Biso   1.000  Mo
