data_image0
_cell_length_a       10.0964
_cell_length_b       10.2665
_cell_length_c       10.4351
_cell_angle_alpha    89.9747
_cell_angle_beta     80.2451
_cell_angle_gamma    89.9573

_symmetry_space_group_name_H-M    "P 1"
_symmetry_int_tables_number       1

loop_
  _symmetry_equiv_pos_as_xyz
  'x, y, z'

loop_
  _atom_site_label
  _atom_site_occupancy
  _atom_site_fract_x
  _atom_site_fract_y
  _atom_site_fract_z
  _atom_site_thermal_displace_type
  _atom_site_B_iso_or_equiv
  _atom_site_type_symbol
  Mo1      1.0000 0.13984  0.02317  0.14860  Biso   1.000  Mo
  Hf1      1.0000 0.14006  0.22923  0.39521  Biso   1.000  Hf
  Hf2      1.0000 0.36029  0.27104  0.10478  Biso   1.000  Hf
  Hf3      1.0000 0.36163  0.47909  0.35406  Biso   1.000  Hf
  O1       1.0000 0.03706  0.16640  0.08109  Biso   1.000  O
  O2       1.0000 0.04038  0.07977  0.32353  Biso   1.000  O
  O3       1.0000 0.46363  0.42019  0.16899  Biso   1.000  O
  O4       1.0000 0.46381  0.33020  0.41944  Biso   1.000  O
  O5       1.0000 0.27784  0.12769  0.24111  Biso   1.000  O
  O6       1.0000 0.27738  0.12110  0.49116  Biso   1.000  O
  O7       1.0000 0.22281  0.37886  0.00980  Biso   1.000  O
  O8       1.0000 0.22374  0.37104  0.25950  Biso   1.000  O
  Hf4      1.0000 0.13886  0.02122  0.64574  Biso   1.000  Hf
  Hf5      1.0000 0.13838  0.22711  0.89694  Biso   1.000  Hf
  Hf6      1.0000 0.36111  0.27150  0.60462  Biso   1.000  Hf
  Hf7      1.0000 0.36040  0.47856  0.85450  Biso   1.000  Hf
  O9       1.0000 0.03511  0.16734  0.57738  Biso   1.000  O
  O10      1.0000 0.03490  0.08123  0.82884  Biso   1.000  O
  O11      1.0000 0.46366  0.42024  0.66937  Biso   1.000  O
  O12      1.0000 0.46239  0.32879  0.91918  Biso   1.000  O
  O13      1.0000 0.27681  0.12896  0.74205  Biso   1.000  O
  O14      1.0000 0.27423  0.11864  0.99551  Biso   1.000  O
  O15      1.0000 0.22298  0.37884  0.50927  Biso   1.000  O
  O16      1.0000 0.22287  0.37040  0.75972  Biso   1.000  O
  Hf8      1.0000 0.13919  0.52164  0.14585  Biso   1.000  Hf
  Hf9      1.0000 0.13887  0.72890  0.39561  Biso   1.000  Hf
  Hf10     1.0000 0.35844  0.77471  0.10461  Biso   1.000  Hf
  Hf11     1.0000 0.36070  0.97844  0.35364  Biso   1.000  Hf
  O17      1.0000 0.03580  0.66861  0.08016  Biso   1.000  O
  O18      1.0000 0.03593  0.58033  0.33063  Biso   1.000  O
  O19      1.0000 0.46511  0.91914  0.17057  Biso   1.000  O
  O20      1.0000 0.46457  0.83016  0.41928  Biso   1.000  O
  O21      1.0000 0.27647  0.63064  0.24084  Biso   1.000  O
  O22      1.0000 0.27695  0.62084  0.49072  Biso   1.000  O
  O23      1.0000 0.21813  0.88108  0.01009  Biso   1.000  O
  O24      1.0000 0.22059  0.87308  0.25858  Biso   1.000  O
  Hf12     1.0000 0.13882  0.52135  0.64601  Biso   1.000  Hf
  Hf13     1.0000 0.13872  0.72892  0.89592  Biso   1.000  Hf
  Hf14     1.0000 0.36137  0.77138  0.60405  Biso   1.000  Hf
  Hf15     1.0000 0.35952  0.97859  0.85530  Biso   1.000  Hf
  O25      1.0000 0.03571  0.66933  0.58016  Biso   1.000  O
  O26      1.0000 0.03570  0.58022  0.83046  Biso   1.000  O
  O27      1.0000 0.46338  0.91989  0.66990  Biso   1.000  O
  O28      1.0000 0.46210  0.83061  0.92002  Biso   1.000  O
  O29      1.0000 0.27671  0.62908  0.74064  Biso   1.000  O
  O30      1.0000 0.27662  0.62153  0.99077  Biso   1.000  O
  O31      1.0000 0.22343  0.87893  0.50900  Biso   1.000  O
  O32      1.0000 0.22297  0.87084  0.75919  Biso   1.000  O
  Hf16     1.0000 0.63894  0.02188  0.14587  Biso   1.000  Hf
  Hf17     1.0000 0.63910  0.22857  0.39566  Biso   1.000  Hf
  Hf18     1.0000 0.86220  0.27067  0.10427  Biso   1.000  Hf
  Hf19     1.0000 0.86104  0.47855  0.35365  Biso   1.000  Hf
  O33      1.0000 0.53605  0.17023  0.08121  Biso   1.000  O
  O34      1.0000 0.53654  0.08010  0.33109  Biso   1.000  O
  O35      1.0000 0.96460  0.41925  0.16938  Biso   1.000  O
  O36      1.0000 0.96388  0.32931  0.41837  Biso   1.000  O
  O37      1.0000 0.77761  0.12887  0.24047  Biso   1.000  O
  O38      1.0000 0.77784  0.12023  0.48963  Biso   1.000  O
  O39      1.0000 0.72333  0.37926  0.00938  Biso   1.000  O
  O40      1.0000 0.72338  0.37062  0.25904  Biso   1.000  O
  Hf20     1.0000 0.63840  0.02109  0.64601  Biso   1.000  Hf
  Hf21     1.0000 0.63849  0.22856  0.89592  Biso   1.000  Hf
  Hf22     1.0000 0.86090  0.27113  0.60368  Biso   1.000  Hf
  Hf23     1.0000 0.86091  0.47839  0.85448  Biso   1.000  Hf
  O41      1.0000 0.53674  0.17041  0.58109  Biso   1.000  O
  O42      1.0000 0.53523  0.07985  0.83147  Biso   1.000  O
  O43      1.0000 0.96427  0.41845  0.66965  Biso   1.000  O
  O44      1.0000 0.96447  0.32980  0.92033  Biso   1.000  O
  O45      1.0000 0.77611  0.12904  0.74025  Biso   1.000  O
  O46      1.0000 0.77645  0.12108  0.99029  Biso   1.000  O
  O47      1.0000 0.72341  0.37909  0.50936  Biso   1.000  O
  O48      1.0000 0.72305  0.37081  0.75949  Biso   1.000  O
  Hf24     1.0000 0.63861  0.52228  0.14547  Biso   1.000  Hf
  Hf25     1.0000 0.63963  0.72881  0.39573  Biso   1.000  Hf
  Hf26     1.0000 0.86287  0.77255  0.10360  Biso   1.000  Hf
  Hf27     1.0000 0.86211  0.97883  0.35269  Biso   1.000  Hf
  O49      1.0000 0.53449  0.67053  0.08113  Biso   1.000  O
  O50      1.0000 0.53666  0.58005  0.33101  Biso   1.000  O
  O51      1.0000 0.97122  0.91987  0.16728  Biso   1.000  O
  O52      1.0000 0.96453  0.83166  0.41947  Biso   1.000  O
  O53      1.0000 0.77702  0.62964  0.24028  Biso   1.000  O
  O54      1.0000 0.77716  0.62086  0.49059  Biso   1.000  O
  O55      1.0000 0.72265  0.87944  0.00958  Biso   1.000  O
  O56      1.0000 0.72708  0.87174  0.25889  Biso   1.000  O
  Hf28     1.0000 0.63898  0.52141  0.64617  Biso   1.000  Hf
  Hf29     1.0000 0.63787  0.72859  0.89690  Biso   1.000  Hf
  Hf30     1.0000 0.86071  0.77143  0.60429  Biso   1.000  Hf
  Hf31     1.0000 0.86054  0.97858  0.85401  Biso   1.000  Hf
  O57      1.0000 0.53671  0.67013  0.58072  Biso   1.000  O
  O58      1.0000 0.53578  0.57988  0.83119  Biso   1.000  O
  O59      1.0000 0.96398  0.91923  0.66934  Biso   1.000  O
  O60      1.0000 0.96326  0.82997  0.91880  Biso   1.000  O
  O61      1.0000 0.77662  0.62902  0.74106  Biso   1.000  O
  O62      1.0000 0.77664  0.62141  0.99090  Biso   1.000  O
  O63      1.0000 0.72341  0.87929  0.50895  Biso   1.000  O
  O64      1.0000 0.72260  0.87073  0.75952  Biso   1.000  O
