data_image0
_cell_length_a       10.1941
_cell_length_b       10.2589
_cell_length_c       10.5336
_cell_angle_alpha    89.8879
_cell_angle_beta     79.5961
_cell_angle_gamma    90.1121

_symmetry_space_group_name_H-M    "P 1"
_symmetry_int_tables_number       1

loop_
  _symmetry_equiv_pos_as_xyz
  'x, y, z'

loop_
  _atom_site_label
  _atom_site_occupancy
  _atom_site_fract_x
  _atom_site_fract_y
  _atom_site_fract_z
  _atom_site_thermal_displace_type
  _atom_site_B_iso_or_equiv
  _atom_site_type_symbol
  Hf1      1.0000 0.13613  0.02058  0.14583  Biso   1.000  Hf
  Hf2      1.0000 0.12765  0.22726  0.39442  Biso   1.000  Hf
  Hf3      1.0000 0.35711  0.27151  0.10215  Biso   1.000  Hf
  Hf4      1.0000 0.35883  0.49591  0.34978  Biso   1.000  Hf
  O1       1.0000 0.03302  0.16503  0.07570  Biso   1.000  O
  O2       1.0000 0.02941  0.08265  0.32330  Biso   1.000  O
  O3       1.0000 0.47606  0.39058  0.19712  Biso   1.000  O
  O4       1.0000 0.48987  0.37794  0.44918  Biso   1.000  O
  O5       1.0000 0.27616  0.12583  0.24396  Biso   1.000  O
  O6       1.0000 0.28136  0.11466  0.48918  Biso   1.000  O
  O7       1.0000 0.22264  0.37885  0.00427  Biso   1.000  O
  O8       1.0000 0.21349  0.37572  0.25046  Biso   1.000  O
  Hf5      1.0000 0.13975  0.02201  0.64611  Biso   1.000  Hf
  Hf6      1.0000 0.13780  0.22862  0.89469  Biso   1.000  Hf
  Hf7      1.0000 0.37055  0.27328  0.60779  Biso   1.000  Hf
  Hf8      1.0000 0.36088  0.47949  0.85523  Biso   1.000  Hf
  O9       1.0000 0.03507  0.16500  0.57554  Biso   1.000  O
  O10      1.0000 0.03294  0.08478  0.82551  Biso   1.000  O
  O11      1.0000 0.47325  0.40758  0.69027  Biso   1.000  O
  O12      1.0000 0.47143  0.34689  0.93552  Biso   1.000  O
  O13      1.0000 0.27554  0.12828  0.74258  Biso   1.000  O
  O14      1.0000 0.27446  0.12214  0.99112  Biso   1.000  O
  O15      1.0000 0.24094  0.36980  0.49259  Biso   1.000  O
  O16      1.0000 0.22375  0.37346  0.75586  Biso   1.000  O
  Hf9      1.0000 0.13632  0.52070  0.14346  Biso   1.000  Hf
  Hf10     1.0000 0.13202  0.72862  0.39688  Biso   1.000  Hf
  Hf11     1.0000 0.36078  0.77093  0.10084  Biso   1.000  Hf
  Hf12     1.0000 0.35894  0.96636  0.35318  Biso   1.000  Hf
  O17      1.0000 0.03027  0.66513  0.07358  Biso   1.000  O
  O18      1.0000 0.03117  0.58664  0.32417  Biso   1.000  O
  O19      1.0000 0.46807  0.90711  0.17533  Biso   1.000  O
  O20      1.0000 0.46773  0.83600  0.42800  Biso   1.000  O
  O21      1.0000 0.27256  0.63057  0.23846  Biso   1.000  O
  O22      1.0000 0.27004  0.62438  0.49343  Biso   1.000  O
  O23      1.0000 0.22358  0.87866  0.00924  Biso   1.000  O
  O24      1.0000 0.22090  0.86954  0.25862  Biso   1.000  O
  Hf13     1.0000 0.13913  0.52013  0.64528  Biso   1.000  Hf
  Hf14     1.0000 0.13695  0.72836  0.89499  Biso   1.000  Hf
  Hf15     1.0000 0.36118  0.77157  0.60592  Biso   1.000  Hf
  Hf16     1.0000 0.36129  0.97917  0.85426  Biso   1.000  Hf
  O25      1.0000 0.02932  0.66259  0.57633  Biso   1.000  O
  O26      1.0000 0.03371  0.58533  0.82245  Biso   1.000  O
  O27      1.0000 0.46741  0.91315  0.67573  Biso   1.000  O
  O28      1.0000 0.46822  0.83779  0.92509  Biso   1.000  O
  O29      1.0000 0.27539  0.62782  0.73986  Biso   1.000  O
  O30      1.0000 0.27330  0.62297  0.98951  Biso   1.000  O
  O31      1.0000 0.22198  0.87532  0.51074  Biso   1.000  O
  O32      1.0000 0.22391  0.87195  0.75999  Biso   1.000  O
  Hf17     1.0000 0.63875  0.02145  0.14334  Biso   1.000  Hf
  Hf18     1.0000 0.63761  0.23376  0.40258  Biso   1.000  Hf
  Hf19     1.0000 0.86043  0.27154  0.10527  Biso   1.000  Hf
  Hf20     1.0000 0.85993  0.47921  0.35405  Biso   1.000  Hf
  O33      1.0000 0.52819  0.15702  0.07230  Biso   1.000  O
  O34      1.0000 0.53216  0.08328  0.32297  Biso   1.000  O
  O35      1.0000 0.96406  0.41635  0.17111  Biso   1.000  O
  O36      1.0000 0.96476  0.33743  0.42330  Biso   1.000  O
  O37      1.0000 0.77419  0.12794  0.23878  Biso   1.000  O
  O38      1.0000 0.77935  0.12002  0.49173  Biso   1.000  O
  O39      1.0000 0.72466  0.37716  0.01195  Biso   1.000  O
  O40      1.0000 0.72591  0.37388  0.26181  Biso   1.000  O
  Hf21     1.0000 0.64048  0.02053  0.64734  Biso   1.000  Hf
  Hf22     1.0000 0.63690  0.22833  0.89814  Biso   1.000  Hf
  Hf23     1.0000 0.86008  0.27093  0.60639  Biso   1.000  Hf
  Hf24     1.0000 0.86144  0.47719  0.85408  Biso   1.000  Hf
  O41      1.0000 0.53957  0.16634  0.58367  Biso   1.000  O
  O42      1.0000 0.53166  0.08785  0.82651  Biso   1.000  O
  O43      1.0000 0.96942  0.41257  0.67234  Biso   1.000  O
  O44      1.0000 0.96608  0.33443  0.92221  Biso   1.000  O
  O45      1.0000 0.77585  0.12790  0.74156  Biso   1.000  O
  O46      1.0000 0.77450  0.12156  0.98942  Biso   1.000  O
  O47      1.0000 0.72944  0.37921  0.51472  Biso   1.000  O
  O48      1.0000 0.72627  0.37153  0.76255  Biso   1.000  O
  Hf25     1.0000 0.63921  0.52019  0.14754  Biso   1.000  Hf
  Hf26     1.0000 0.63945  0.72878  0.39602  Biso   1.000  Hf
  Hf27     1.0000 0.86039  0.77156  0.10270  Biso   1.000  Hf
  Hf28     1.0000 0.85643  0.97925  0.35331  Biso   1.000  Hf
  O49      1.0000 0.52707  0.65302  0.07078  Biso   1.000  O
  O50      1.0000 0.53022  0.60021  0.31600  Biso   1.000  O
  O51      1.0000 0.96496  0.91480  0.17088  Biso   1.000  O
  O52      1.0000 0.96355  0.83609  0.42289  Biso   1.000  O
  O53      1.0000 0.77494  0.62796  0.23852  Biso   1.000  O
  O54      1.0000 0.77444  0.62262  0.48878  Biso   1.000  O
  O55      1.0000 0.72334  0.87741  0.00985  Biso   1.000  O
  O56      1.0000 0.72255  0.87160  0.25985  Biso   1.000  O
  Hf29     1.0000 0.63776  0.52191  0.64668  Biso   1.000  Hf
  Hf30     1.0000 0.63794  0.72649  0.89596  Biso   1.000  Hf
  Hf31     1.0000 0.86041  0.77210  0.60436  Biso   1.000  Hf
  Hf32     1.0000 0.86094  0.97834  0.85340  Biso   1.000  Hf
  O57      1.0000 0.53005  0.65946  0.57344  Biso   1.000  O
  O58      1.0000 0.53018  0.59199  0.82282  Biso   1.000  O
  O59      1.0000 0.96697  0.91530  0.67227  Biso   1.000  O
  O60      1.0000 0.96541  0.83462  0.92128  Biso   1.000  O
  O61      1.0000 0.77491  0.62747  0.73943  Biso   1.000  O
  O62      1.0000 0.77437  0.62044  0.98950  Biso   1.000  O
  O63      1.0000 0.72246  0.87773  0.51062  Biso   1.000  O
  O64      1.0000 0.72469  0.87085  0.76047  Biso   1.000  O
  Mo1      1.0000 0.39477  0.24377  0.35602  Biso   1.000  Mo
