data_image0
_cell_length_a       10.1606
_cell_length_b       10.331
_cell_length_c       5.23185
_cell_angle_alpha    89.9454
_cell_angle_beta     80.1188
_cell_angle_gamma    89.9226

_symmetry_space_group_name_H-M    "P 1"
_symmetry_int_tables_number       1

loop_
  _symmetry_equiv_pos_as_xyz
  'x, y, z'

loop_
  _atom_site_label
  _atom_site_occupancy
  _atom_site_fract_x
  _atom_site_fract_y
  _atom_site_fract_z
  _atom_site_thermal_displace_type
  _atom_site_B_iso_or_equiv
  _atom_site_type_symbol
  Mo1      1.0000 0.13863  0.02366  0.29424  Biso   1.000  Mo
  Zr1      1.0000 0.13948  0.22713  0.79106  Biso   1.000  Zr
  Zr2      1.0000 0.35999  0.27103  0.21218  Biso   1.000  Zr
  Zr3      1.0000 0.36084  0.47907  0.71035  Biso   1.000  Zr
  O1       1.0000 0.03669  0.16493  0.15900  Biso   1.000  O
  O2       1.0000 0.04186  0.07653  0.64275  Biso   1.000  O
  O3       1.0000 0.46331  0.42135  0.33688  Biso   1.000  O
  O4       1.0000 0.46211  0.32785  0.83745  Biso   1.000  O
  O5       1.0000 0.27691  0.12630  0.48503  Biso   1.000  O
  O6       1.0000 0.27372  0.11880  0.99540  Biso   1.000  O
  O7       1.0000 0.22309  0.37817  0.01932  Biso   1.000  O
  O8       1.0000 0.22395  0.37071  0.51982  Biso   1.000  O
  Zr4      1.0000 0.13920  0.52160  0.29106  Biso   1.000  Zr
  Zr5      1.0000 0.13871  0.72989  0.79033  Biso   1.000  Zr
  Zr6      1.0000 0.35876  0.77478  0.21089  Biso   1.000  Zr
  Zr7      1.0000 0.35892  0.97880  0.71131  Biso   1.000  Zr
  O9       1.0000 0.03543  0.66896  0.16048  Biso   1.000  O
  O10      1.0000 0.03577  0.57958  0.66273  Biso   1.000  O
  O11      1.0000 0.46474  0.91974  0.34161  Biso   1.000  O
  O12      1.0000 0.46214  0.82949  0.83835  Biso   1.000  O
  O13      1.0000 0.27574  0.63090  0.48262  Biso   1.000  O
  O14      1.0000 0.27619  0.62195  0.98227  Biso   1.000  O
  O15      1.0000 0.21904  0.88138  0.02265  Biso   1.000  O
  O16      1.0000 0.21960  0.87486  0.51650  Biso   1.000  O
  Zr8      1.0000 0.63842  0.02161  0.29129  Biso   1.000  Zr
  Zr9      1.0000 0.63871  0.22880  0.79072  Biso   1.000  Zr
  Zr10     1.0000 0.86211  0.27053  0.20804  Biso   1.000  Zr
  Zr11     1.0000 0.86099  0.47862  0.70859  Biso   1.000  Zr
  O17      1.0000 0.53682  0.17161  0.16527  Biso   1.000  O
  O18      1.0000 0.53560  0.07932  0.66564  Biso   1.000  O
  O19      1.0000 0.96498  0.41891  0.33725  Biso   1.000  O
  O20      1.0000 0.96422  0.32724  0.83604  Biso   1.000  O
  O21      1.0000 0.77688  0.12864  0.48063  Biso   1.000  O
  O22      1.0000 0.77710  0.12044  0.97863  Biso   1.000  O
  O23      1.0000 0.72414  0.37909  0.01807  Biso   1.000  O
  O24      1.0000 0.72389  0.37082  0.51759  Biso   1.000  O
  Zr12     1.0000 0.63866  0.52222  0.29081  Biso   1.000  Zr
  Zr13     1.0000 0.63841  0.72893  0.79274  Biso   1.000  Zr
  Zr14     1.0000 0.86269  0.77267  0.20769  Biso   1.000  Zr
  Zr15     1.0000 0.86139  0.97881  0.70570  Biso   1.000  Zr
  O25      1.0000 0.53513  0.67154  0.16407  Biso   1.000  O
  O26      1.0000 0.53628  0.57892  0.66502  Biso   1.000  O
  O27      1.0000 0.97210  0.92094  0.32843  Biso   1.000  O
  O28      1.0000 0.96338  0.83017  0.83445  Biso   1.000  O
  O29      1.0000 0.77622  0.62952  0.48199  Biso   1.000  O
  O30      1.0000 0.77639  0.62165  0.98201  Biso   1.000  O
  O31      1.0000 0.72319  0.87949  0.01757  Biso   1.000  O
  O32      1.0000 0.72750  0.87209  0.51745  Biso   1.000  O
