data_image0
_cell_length_a       10.161
_cell_length_b       5.1598
_cell_length_c       10.4892
_cell_angle_alpha    89.9479
_cell_angle_beta     80.1176
_cell_angle_gamma    89.8193

_symmetry_space_group_name_H-M    "P 1"
_symmetry_int_tables_number       1

loop_
  _symmetry_equiv_pos_as_xyz
  'x, y, z'

loop_
  _atom_site_label
  _atom_site_occupancy
  _atom_site_fract_x
  _atom_site_fract_y
  _atom_site_fract_z
  _atom_site_thermal_displace_type
  _atom_site_B_iso_or_equiv
  _atom_site_type_symbol
  Mo1      1.0000 0.13816  0.04566  0.14827  Biso   1.000  Mo
  Zr1      1.0000 0.13956  0.45946  0.39425  Biso   1.000  Zr
  Zr2      1.0000 0.35736  0.55079  0.10559  Biso   1.000  Zr
  Zr3      1.0000 0.36119  0.95903  0.35363  Biso   1.000  Zr
  O1       1.0000 0.03786  0.32545  0.08110  Biso   1.000  O
  O2       1.0000 0.03937  0.15970  0.32213  Biso   1.000  O
  O3       1.0000 0.46644  0.83740  0.17104  Biso   1.000  O
  O4       1.0000 0.46532  0.66319  0.41987  Biso   1.000  O
  O5       1.0000 0.27481  0.25657  0.23910  Biso   1.000  O
  O6       1.0000 0.27676  0.24403  0.49064  Biso   1.000  O
  O7       1.0000 0.21575  0.76184  0.01117  Biso   1.000  O
  O8       1.0000 0.22290  0.74775  0.25890  Biso   1.000  O
  Zr4      1.0000 0.13845  0.04268  0.64547  Biso   1.000  Zr
  Zr5      1.0000 0.13929  0.45482  0.89678  Biso   1.000  Zr
  Zr6      1.0000 0.36126  0.54393  0.60483  Biso   1.000  Zr
  Zr7      1.0000 0.35815  0.95831  0.85656  Biso   1.000  Zr
  O9       1.0000 0.03343  0.33071  0.57548  Biso   1.000  O
  O10      1.0000 0.03328  0.16535  0.82770  Biso   1.000  O
  O11      1.0000 0.46356  0.83985  0.67051  Biso   1.000  O
  O12      1.0000 0.45987  0.65961  0.92043  Biso   1.000  O
  O13      1.0000 0.27601  0.25728  0.74182  Biso   1.000  O
  O14      1.0000 0.27362  0.23933  0.99652  Biso   1.000  O
  O15      1.0000 0.22356  0.75695  0.50865  Biso   1.000  O
  O16      1.0000 0.22324  0.74186  0.75955  Biso   1.000  O
  Zr8      1.0000 0.63883  0.04620  0.14487  Biso   1.000  Zr
  Zr9      1.0000 0.63999  0.45824  0.39483  Biso   1.000  Zr
  Zr10     1.0000 0.86473  0.54294  0.10374  Biso   1.000  Zr
  Zr11     1.0000 0.86212  0.95804  0.35330  Biso   1.000  Zr
  O17      1.0000 0.53392  0.34160  0.08136  Biso   1.000  O
  O18      1.0000 0.53634  0.16334  0.33066  Biso   1.000  O
  O19      1.0000 0.97782  0.82971  0.16788  Biso   1.000  O
  O20      1.0000 0.96476  0.66241  0.41913  Biso   1.000  O
  O21      1.0000 0.77801  0.25668  0.23987  Biso   1.000  O
  O22      1.0000 0.77740  0.24102  0.48963  Biso   1.000  O
  O23      1.0000 0.72324  0.75924  0.00950  Biso   1.000  O
  O24      1.0000 0.72958  0.74369  0.25847  Biso   1.000  O
  Zr12     1.0000 0.63791  0.04242  0.64619  Biso   1.000  Zr
  Zr13     1.0000 0.63723  0.45756  0.89674  Biso   1.000  Zr
  Zr14     1.0000 0.86016  0.54210  0.60463  Biso   1.000  Zr
  Zr15     1.0000 0.86053  0.95647  0.85488  Biso   1.000  Zr
  O25      1.0000 0.53664  0.34086  0.58058  Biso   1.000  O
  O26      1.0000 0.53379  0.16078  0.83198  Biso   1.000  O
  O27      1.0000 0.96523  0.83287  0.67042  Biso   1.000  O
  O28      1.0000 0.96477  0.66027  0.92102  Biso   1.000  O
  O29      1.0000 0.77480  0.25718  0.74079  Biso   1.000  O
  O30      1.0000 0.77592  0.24443  0.99036  Biso   1.000  O
  O31      1.0000 0.72418  0.75808  0.50925  Biso   1.000  O
  O32      1.0000 0.72287  0.74231  0.75991  Biso   1.000  O
