data_image0
_cell_length_a       10.1553
_cell_length_b       5.17225
_cell_length_c       10.6337
_cell_angle_alpha    90.1493
_cell_angle_beta     91.1896
_cell_angle_gamma    90.4371

_symmetry_space_group_name_H-M    "P 1"
_symmetry_int_tables_number       1

loop_
  _symmetry_equiv_pos_as_xyz
  'x, y, z'

loop_
  _atom_site_label
  _atom_site_occupancy
  _atom_site_fract_x
  _atom_site_fract_y
  _atom_site_fract_z
  _atom_site_thermal_displace_type
  _atom_site_B_iso_or_equiv
  _atom_site_type_symbol
  Zr1      1.0000 0.14089  0.03997  0.17237  Biso   1.000  Zr
  Zr2      1.0000 0.13716  0.45992  0.42138  Biso   1.000  Zr
  Zr3      1.0000 0.36288  0.53434  0.17757  Biso   1.000  Zr
  Zr4      1.0000 0.35991  0.96023  0.42527  Biso   1.000  Zr
  Zr5      1.0000 0.64539  0.03321  0.07188  Biso   1.000  Zr
  Zr6      1.0000 0.63063  0.45735  0.33712  Biso   1.000  Zr
  Zr7      1.0000 0.87683  0.53905  0.07417  Biso   1.000  Zr
  Zr8      1.0000 0.86121  0.95653  0.32970  Biso   1.000  Zr
  O1       1.0000 0.03560  0.31156  0.07297  Biso   1.000  O
  O2       1.0000 0.02479  0.18876  0.32368  Biso   1.000  O
  O3       1.0000 0.47129  0.80174  0.06289  Biso   1.000  O
  O4       1.0000 0.46619  0.68622  0.33323  Biso   1.000  O
  O5       1.0000 0.26834  0.25167  0.29933  Biso   1.000  O
  O6       1.0000 0.27510  0.24653  0.04661  Biso   1.000  O
  O7       1.0000 0.22218  0.75094  0.29690  Biso   1.000  O
  O8       1.0000 0.22535  0.75355  0.04400  Biso   1.000  O
  O9       1.0000 0.51241  0.25075  0.19944  Biso   1.000  O
  O10      1.0000 0.52313  0.19599  0.44133  Biso   1.000  O
  O11      1.0000 0.96817  0.82749  0.17021  Biso   1.000  O
  O12      1.0000 0.96793  0.68277  0.41865  Biso   1.000  O
  O13      1.0000 0.77475  0.24356  0.45070  Biso   1.000  O
  O14      1.0000 0.76093  0.27898  0.19182  Biso   1.000  O
  O15      1.0000 0.72671  0.75006  0.46171  Biso   1.000  O
  O16      1.0000 0.72164  0.76010  0.21235  Biso   1.000  O
  Zr9      1.0000 0.14064  0.04620  0.66892  Biso   1.000  Zr
  Zr10     1.0000 0.14496  0.45608  0.92009  Biso   1.000  Zr
  Zr11     1.0000 0.36611  0.54687  0.67426  Biso   1.000  Zr
  Zr12     1.0000 0.35985  0.96260  0.92078  Biso   1.000  Zr
  Zr13     1.0000 0.63967  0.03918  0.57990  Biso   1.000  Zr
  Zr14     1.0000 0.64380  0.45431  0.82599  Biso   1.000  Zr
  Zr15     1.0000 0.86273  0.54123  0.57789  Biso   1.000  Zr
  Zr16     1.0000 0.86914  0.95396  0.82524  Biso   1.000  Zr
  O17      1.0000 0.03064  0.32164  0.57569  Biso   1.000  O
  O18      1.0000 0.03562  0.17799  0.82455  Biso   1.000  O
  O19      1.0000 0.47453  0.80414  0.57515  Biso   1.000  O
  O20      1.0000 0.47916  0.71070  0.82167  Biso   1.000  O
  O21      1.0000 0.27690  0.25424  0.79582  Biso   1.000  O
  O22      1.0000 0.27328  0.25386  0.54680  Biso   1.000  O
  O23      1.0000 0.22923  0.75022  0.79450  Biso   1.000  O
  O24      1.0000 0.22686  0.75416  0.54637  Biso   1.000  O
  O25      1.0000 0.52553  0.29601  0.68727  Biso   1.000  O
  O26      1.0000 0.52014  0.24227  0.94888  Biso   1.000  O
  O27      1.0000 0.97273  0.82347  0.66545  Biso   1.000  O
  O28      1.0000 0.97528  0.67336  0.91552  Biso   1.000  O
  O29      1.0000 0.78535  0.22910  0.94075  Biso   1.000  O
  O30      1.0000 0.77686  0.24999  0.69871  Biso   1.000  O
  O31      1.0000 0.72988  0.73835  0.96005  Biso   1.000  O
  O32      1.0000 0.73040  0.74577  0.70798  Biso   1.000  O
  Mo1      1.0000 0.61001  0.51340  0.09176  Biso   1.000  Mo
