data_image0
_cell_length_a       10.1115
_cell_length_b       5.29172
_cell_length_c       10.177
_cell_angle_alpha    88.9706
_cell_angle_beta     89.0386
_cell_angle_gamma    90.1534

_symmetry_space_group_name_H-M    "P 1"
_symmetry_int_tables_number       1

loop_
  _symmetry_equiv_pos_as_xyz
  'x, y, z'

loop_
  _atom_site_label
  _atom_site_occupancy
  _atom_site_fract_x
  _atom_site_fract_y
  _atom_site_fract_z
  _atom_site_thermal_displace_type
  _atom_site_B_iso_or_equiv
  _atom_site_type_symbol
  Zr1      1.0000 0.12501  0.12548  0.11119  Biso   1.000  Zr
  Zr2      1.0000 0.13794  0.45183  0.38619  Biso   1.000  Zr
  Zr3      1.0000 0.38099  0.53547  0.12447  Biso   1.000  Zr
  Zr4      1.0000 0.36688  0.95711  0.37492  Biso   1.000  Zr
  O1       1.0000 0.00785  0.37144  0.23361  Biso   1.000  O
  O2       1.0000 0.03938  0.11195  0.45012  Biso   1.000  O
  O3       1.0000 0.47597  0.85120  0.20662  Biso   1.000  O
  O4       1.0000 0.47208  0.62496  0.45407  Biso   1.000  O
  O5       1.0000 0.27166  0.21082  0.24958  Biso   1.000  O
  O6       1.0000 0.27428  0.24984  0.50273  Biso   1.000  O
  O7       1.0000 0.23523  0.75201  0.50307  Biso   1.000  O
  O8       1.0000 0.24349  0.69498  0.25642  Biso   1.000  O
  Zr5      1.0000 0.13584  0.00857  0.62619  Biso   1.000  Zr
  Zr6      1.0000 0.11421  0.46522  0.84715  Biso   1.000  Zr
  Zr7      1.0000 0.36936  0.51466  0.62639  Biso   1.000  Zr
  Zr8      1.0000 0.37923  0.97067  0.86505  Biso   1.000  Zr
  O9       1.0000 0.02872  0.33834  0.67482  Biso   1.000  O
  O10      1.0000 0.02644  0.13313  0.92591  Biso   1.000  O
  O11      1.0000 0.47429  0.83944  0.69565  Biso   1.000  O
  O12      1.0000 0.47427  0.64722  0.94570  Biso   1.000  O
  O13      1.0000 0.26210  0.21678  0.74992  Biso   1.000  O
  O14      1.0000 0.24622  0.38059  0.99499  Biso   1.000  O
  O15      1.0000 0.25275  0.86666  0.01145  Biso   1.000  O
  O16      1.0000 0.23997  0.72054  0.75112  Biso   1.000  O
  Zr9      1.0000 0.63489  0.02538  0.12786  Biso   1.000  Zr
  Zr10     1.0000 0.63352  0.46116  0.37334  Biso   1.000  Zr
  Zr11     1.0000 0.85486  0.52344  0.12146  Biso   1.000  Zr
  Zr12     1.0000 0.87568  0.96587  0.36866  Biso   1.000  Zr
  O17      1.0000 0.53621  0.35266  0.20369  Biso   1.000  O
  O18      1.0000 0.53258  0.12662  0.45020  Biso   1.000  O
  O19      1.0000 0.97328  0.87034  0.19083  Biso   1.000  O
  O20      1.0000 0.97167  0.63735  0.45007  Biso   1.000  O
  O21      1.0000 0.76399  0.21555  0.24693  Biso   1.000  O
  O22      1.0000 0.76887  0.26654  0.49347  Biso   1.000  O
  O23      1.0000 0.73767  0.76882  0.49604  Biso   1.000  O
  O24      1.0000 0.73437  0.72621  0.25015  Biso   1.000  O
  Zr13     1.0000 0.63621  0.02059  0.61854  Biso   1.000  Zr
  Zr14     1.0000 0.63211  0.46057  0.87300  Biso   1.000  Zr
  Zr15     1.0000 0.86365  0.52587  0.61674  Biso   1.000  Zr
  Zr16     1.0000 0.86030  0.96099  0.87000  Biso   1.000  Zr
  O25      1.0000 0.52653  0.33325  0.70813  Biso   1.000  O
  O26      1.0000 0.52224  0.15309  0.96213  Biso   1.000  O
  O27      1.0000 0.97519  0.82553  0.70652  Biso   1.000  O
  O28      1.0000 0.96498  0.64683  0.95255  Biso   1.000  O
  O29      1.0000 0.76655  0.22061  0.74246  Biso   1.000  O
  O30      1.0000 0.76569  0.26142  0.99334  Biso   1.000  O
  O31      1.0000 0.72533  0.76526  0.99665  Biso   1.000  O
  O32      1.0000 0.73229  0.72117  0.74559  Biso   1.000  O
  Mo1      1.0000 0.11111  0.62417  0.10203  Biso   1.000  Mo
