data_image0
_cell_length_a       5.18121
_cell_length_b       10.3025
_cell_length_c       10.6373
_cell_angle_alpha    89.8683
_cell_angle_beta     78.9437
_cell_angle_gamma    90.3401

_symmetry_space_group_name_H-M    "P 1"
_symmetry_int_tables_number       1

loop_
  _symmetry_equiv_pos_as_xyz
  'x, y, z'

loop_
  _atom_site_label
  _atom_site_occupancy
  _atom_site_fract_x
  _atom_site_fract_y
  _atom_site_fract_z
  _atom_site_thermal_displace_type
  _atom_site_B_iso_or_equiv
  _atom_site_type_symbol
  Zr1      1.0000 0.27432  0.02116  0.14346  Biso   1.000  Zr
  Zr2      1.0000 0.25403  0.23349  0.40008  Biso   1.000  Zr
  Zr3      1.0000 0.71548  0.27208  0.10248  Biso   1.000  Zr
  Zr4      1.0000 0.71453  0.49656  0.34934  Biso   1.000  Zr
  O1       1.0000 0.05237  0.15320  0.06847  Biso   1.000  O
  O2       1.0000 0.05089  0.08775  0.31615  Biso   1.000  O
  O3       1.0000 0.95291  0.38530  0.20075  Biso   1.000  O
  O4       1.0000 0.97512  0.37884  0.44943  Biso   1.000  O
  O5       1.0000 0.55013  0.12723  0.24533  Biso   1.000  O
  O6       1.0000 0.57263  0.11426  0.49162  Biso   1.000  O
  O7       1.0000 0.45061  0.37671  0.00547  Biso   1.000  O
  O8       1.0000 0.44044  0.38117  0.25090  Biso   1.000  O
  Zr5      1.0000 0.28240  0.02089  0.64776  Biso   1.000  Zr
  Zr6      1.0000 0.27193  0.22866  0.89672  Biso   1.000  Zr
  Zr7      1.0000 0.73936  0.27120  0.60862  Biso   1.000  Zr
  Zr8      1.0000 0.72252  0.47815  0.85451  Biso   1.000  Zr
  O9       1.0000 0.07831  0.16191  0.57940  Biso   1.000  O
  O10      1.0000 0.05652  0.09202  0.82242  Biso   1.000  O
  O11      1.0000 0.95567  0.40066  0.69271  Biso   1.000  O
  O12      1.0000 0.94804  0.35141  0.93801  Biso   1.000  O
  O13      1.0000 0.54647  0.12688  0.74523  Biso   1.000  O
  O14      1.0000 0.54351  0.12288  0.99156  Biso   1.000  O
  O15      1.0000 0.49027  0.36973  0.49524  Biso   1.000  O
  O16      1.0000 0.45501  0.37440  0.75718  Biso   1.000  O
  Zr9      1.0000 0.27216  0.51925  0.14493  Biso   1.000  Zr
  Zr10     1.0000 0.26408  0.72859  0.39687  Biso   1.000  Zr
  Zr11     1.0000 0.72050  0.77094  0.10017  Biso   1.000  Zr
  Zr12     1.0000 0.71169  0.96677  0.35287  Biso   1.000  Zr
  O17      1.0000 0.04001  0.64752  0.06361  Biso   1.000  O
  O18      1.0000 0.05060  0.60598  0.30949  Biso   1.000  O
  O19      1.0000 0.93931  0.90287  0.17686  Biso   1.000  O
  O20      1.0000 0.93586  0.84196  0.43124  Biso   1.000  O
  O21      1.0000 0.53781  0.63039  0.23777  Biso   1.000  O
  O22      1.0000 0.53215  0.62608  0.49262  Biso   1.000  O
  O23      1.0000 0.44946  0.87692  0.00940  Biso   1.000  O
  O24      1.0000 0.44224  0.87163  0.25858  Biso   1.000  O
  Zr13     1.0000 0.27436  0.51980  0.64543  Biso   1.000  Zr
  Zr14     1.0000 0.27059  0.72578  0.89497  Biso   1.000  Zr
  Zr15     1.0000 0.72080  0.77148  0.60658  Biso   1.000  Zr
  Zr16     1.0000 0.72247  0.97862  0.85417  Biso   1.000  Zr
  O25      1.0000 0.04521  0.65217  0.56875  Biso   1.000  O
  O26      1.0000 0.05426  0.59719  0.81358  Biso   1.000  O
  O27      1.0000 0.94120  0.90847  0.67872  Biso   1.000  O
  O28      1.0000 0.94009  0.84190  0.92737  Biso   1.000  O
  O29      1.0000 0.54379  0.62574  0.73958  Biso   1.000  O
  O30      1.0000 0.53811  0.62263  0.98930  Biso   1.000  O
  O31      1.0000 0.44488  0.87415  0.51144  Biso   1.000  O
  O32      1.0000 0.45241  0.87162  0.76074  Biso   1.000  O
  Mo1      1.0000 0.78511  0.24514  0.35707  Biso   1.000  Mo
