data_image0
_cell_length_a       10.0801
_cell_length_b       10.2901
_cell_length_c       10.5041
_cell_angle_alpha    89.9777
_cell_angle_beta     89.9308
_cell_angle_gamma    89.9666

_symmetry_space_group_name_H-M    "P 1"
_symmetry_int_tables_number       1

loop_
  _symmetry_equiv_pos_as_xyz
  'x, y, z'

loop_
  _atom_site_label
  _atom_site_occupancy
  _atom_site_fract_x
  _atom_site_fract_y
  _atom_site_fract_z
  _atom_site_thermal_displace_type
  _atom_site_B_iso_or_equiv
  _atom_site_type_symbol
  Mo1      1.0000 0.13944  0.02300  0.17482  Biso   1.000  Mo
  Zr1      1.0000 0.13965  0.22979  0.42030  Biso   1.000  Zr
  Zr2      1.0000 0.36041  0.27031  0.17173  Biso   1.000  Zr
  Zr3      1.0000 0.36135  0.47961  0.42120  Biso   1.000  Zr
  Zr4      1.0000 0.63863  0.02160  0.07796  Biso   1.000  Zr
  Zr5      1.0000 0.63875  0.22888  0.32876  Biso   1.000  Zr
  Zr6      1.0000 0.86283  0.26992  0.07965  Biso   1.000  Zr
  Zr7      1.0000 0.86086  0.47910  0.32855  Biso   1.000  Zr
  O1       1.0000 0.03383  0.16085  0.08514  Biso   1.000  O
  O2       1.0000 0.03824  0.08247  0.32746  Biso   1.000  O
  O3       1.0000 0.46695  0.41526  0.08437  Biso   1.000  O
  O4       1.0000 0.46666  0.33390  0.33431  Biso   1.000  O
  O5       1.0000 0.27615  0.12227  0.29500  Biso   1.000  O
  O6       1.0000 0.27218  0.12198  0.05032  Biso   1.000  O
  O7       1.0000 0.22474  0.37473  0.29497  Biso   1.000  O
  O8       1.0000 0.22464  0.37465  0.04513  Biso   1.000  O
  O9       1.0000 0.53280  0.16531  0.16680  Biso   1.000  O
  O10      1.0000 0.53264  0.08477  0.41661  Biso   1.000  O
  O11      1.0000 0.96798  0.41479  0.16674  Biso   1.000  O
  O12      1.0000 0.96702  0.33355  0.41521  Biso   1.000  O
  O13      1.0000 0.77712  0.12337  0.45376  Biso   1.000  O
  O14      1.0000 0.77621  0.12555  0.20478  Biso   1.000  O
  O15      1.0000 0.72419  0.37384  0.45549  Biso   1.000  O
  O16      1.0000 0.72451  0.37560  0.20522  Biso   1.000  O
  Zr8      1.0000 0.13861  0.02109  0.67106  Biso   1.000  Zr
  Zr9      1.0000 0.13834  0.22668  0.92266  Biso   1.000  Zr
  Zr10     1.0000 0.36115  0.27137  0.67161  Biso   1.000  Zr
  Zr11     1.0000 0.36102  0.47881  0.92158  Biso   1.000  Zr
  Zr12     1.0000 0.63851  0.02103  0.57829  Biso   1.000  Zr
  Zr13     1.0000 0.63879  0.22934  0.82901  Biso   1.000  Zr
  Zr14     1.0000 0.86130  0.27081  0.57846  Biso   1.000  Zr
  Zr15     1.0000 0.86144  0.47862  0.82962  Biso   1.000  Zr
  O17      1.0000 0.03172  0.16264  0.57942  Biso   1.000  O
  O18      1.0000 0.03119  0.08600  0.83103  Biso   1.000  O
  O19      1.0000 0.46693  0.41598  0.58398  Biso   1.000  O
  O20      1.0000 0.46725  0.33495  0.83385  Biso   1.000  O
  O21      1.0000 0.27569  0.12401  0.79671  Biso   1.000  O
  O22      1.0000 0.27611  0.12626  0.54544  Biso   1.000  O
  O23      1.0000 0.22396  0.37379  0.79534  Biso   1.000  O
  O24      1.0000 0.22398  0.37564  0.54457  Biso   1.000  O
  O25      1.0000 0.53261  0.16545  0.66671  Biso   1.000  O
  O26      1.0000 0.53094  0.08612  0.91746  Biso   1.000  O
  O27      1.0000 0.96793  0.41369  0.66719  Biso   1.000  O
  O28      1.0000 0.96821  0.33368  0.91791  Biso   1.000  O
  O29      1.0000 0.77505  0.12434  0.95440  Biso   1.000  O
  O30      1.0000 0.77553  0.12578  0.70428  Biso   1.000  O
  O31      1.0000 0.72483  0.37438  0.95558  Biso   1.000  O
  O32      1.0000 0.72433  0.37597  0.70538  Biso   1.000  O
  Zr16     1.0000 0.13904  0.52122  0.17113  Biso   1.000  Zr
  Zr17     1.0000 0.13838  0.72910  0.42102  Biso   1.000  Zr
  Zr18     1.0000 0.35827  0.77478  0.17116  Biso   1.000  Zr
  Zr19     1.0000 0.36029  0.97910  0.42110  Biso   1.000  Zr
  Zr20     1.0000 0.63835  0.52179  0.07938  Biso   1.000  Zr
  Zr21     1.0000 0.63794  0.72903  0.32798  Biso   1.000  Zr
  Zr22     1.0000 0.86342  0.77242  0.07840  Biso   1.000  Zr
  Zr23     1.0000 0.86202  0.97898  0.32739  Biso   1.000  Zr
  O33      1.0000 0.03261  0.66425  0.08309  Biso   1.000  O
  O34      1.0000 0.03238  0.58471  0.33317  Biso   1.000  O
  O35      1.0000 0.46785  0.91477  0.08241  Biso   1.000  O
  O36      1.0000 0.46630  0.83607  0.33263  Biso   1.000  O
  O37      1.0000 0.27549  0.62546  0.29505  Biso   1.000  O
  O38      1.0000 0.27586  0.62699  0.04504  Biso   1.000  O
  O39      1.0000 0.21973  0.87654  0.29399  Biso   1.000  O
  O40      1.0000 0.21935  0.87868  0.04606  Biso   1.000  O
  O41      1.0000 0.53158  0.66678  0.16619  Biso   1.000  O
  O42      1.0000 0.53279  0.58495  0.41637  Biso   1.000  O
  O43      1.0000 0.97602  0.91675  0.16501  Biso   1.000  O
  O44      1.0000 0.96740  0.83581  0.41629  Biso   1.000  O
  O45      1.0000 0.77539  0.62426  0.45504  Biso   1.000  O
  O46      1.0000 0.77541  0.62616  0.20519  Biso   1.000  O
  O47      1.0000 0.72409  0.87432  0.45404  Biso   1.000  O
  O48      1.0000 0.72836  0.87662  0.20462  Biso   1.000  O
  Zr24     1.0000 0.13880  0.52103  0.67164  Biso   1.000  Zr
  Zr25     1.0000 0.13909  0.72957  0.92151  Biso   1.000  Zr
  Zr26     1.0000 0.36137  0.77108  0.67130  Biso   1.000  Zr
  Zr27     1.0000 0.36014  0.97831  0.92239  Biso   1.000  Zr
  Zr28     1.0000 0.63892  0.52118  0.57938  Biso   1.000  Zr
  Zr29     1.0000 0.63886  0.72897  0.82949  Biso   1.000  Zr
  Zr30     1.0000 0.86069  0.77103  0.57844  Biso   1.000  Zr
  Zr31     1.0000 0.86084  0.97886  0.82817  Biso   1.000  Zr
  O49      1.0000 0.03192  0.66453  0.58284  Biso   1.000  O
  O50      1.0000 0.03253  0.58487  0.83354  Biso   1.000  O
  O51      1.0000 0.46728  0.91533  0.58355  Biso   1.000  O
  O52      1.0000 0.46690  0.83464  0.83402  Biso   1.000  O
  O53      1.0000 0.27584  0.62408  0.79511  Biso   1.000  O
  O54      1.0000 0.27571  0.62588  0.54521  Biso   1.000  O
  O55      1.0000 0.22414  0.87422  0.79496  Biso   1.000  O
  O56      1.0000 0.22423  0.87559  0.54490  Biso   1.000  O
  O57      1.0000 0.53307  0.66570  0.66656  Biso   1.000  O
  O58      1.0000 0.53306  0.58413  0.91637  Biso   1.000  O
  O59      1.0000 0.96764  0.91450  0.66632  Biso   1.000  O
  O60      1.0000 0.96704  0.83464  0.91595  Biso   1.000  O
  O61      1.0000 0.77636  0.62494  0.95586  Biso   1.000  O
  O62      1.0000 0.77603  0.62551  0.70560  Biso   1.000  O
  O63      1.0000 0.72392  0.87460  0.95467  Biso   1.000  O
  O64      1.0000 0.72403  0.87572  0.70466  Biso   1.000  O
