data_image0
_cell_length_a       10.1377
_cell_length_b       10.2836
_cell_length_c       10.6011
_cell_angle_alpha    90.0404
_cell_angle_beta     90.6627
_cell_angle_gamma    90.1783

_symmetry_space_group_name_H-M    "P 1"
_symmetry_int_tables_number       1

loop_
  _symmetry_equiv_pos_as_xyz
  'x, y, z'

loop_
  _atom_site_label
  _atom_site_occupancy
  _atom_site_fract_x
  _atom_site_fract_y
  _atom_site_fract_z
  _atom_site_thermal_displace_type
  _atom_site_B_iso_or_equiv
  _atom_site_type_symbol
  Zr1      1.0000 0.13941  0.02208  0.17255  Biso   1.000  Zr
  Zr2      1.0000 0.13753  0.22978  0.42279  Biso   1.000  Zr
  Zr3      1.0000 0.36322  0.26680  0.17769  Biso   1.000  Zr
  Zr4      1.0000 0.35922  0.47995  0.42391  Biso   1.000  Zr
  Zr5      1.0000 0.64203  0.00340  0.07464  Biso   1.000  Zr
  Zr6      1.0000 0.63027  0.22823  0.33516  Biso   1.000  Zr
  Zr7      1.0000 0.87269  0.27115  0.07345  Biso   1.000  Zr
  Zr8      1.0000 0.86048  0.47841  0.32850  Biso   1.000  Zr
  O1       1.0000 0.03338  0.15723  0.07402  Biso   1.000  O
  O2       1.0000 0.02442  0.09516  0.32390  Biso   1.000  O
  O3       1.0000 0.47105  0.41096  0.07329  Biso   1.000  O
  O4       1.0000 0.46414  0.33941  0.33653  Biso   1.000  O
  O5       1.0000 0.26836  0.12463  0.30028  Biso   1.000  O
  O6       1.0000 0.27418  0.12315  0.04743  Biso   1.000  O
  O7       1.0000 0.22179  0.37575  0.29772  Biso   1.000  O
  O8       1.0000 0.22525  0.37616  0.04436  Biso   1.000  O
  O9       1.0000 0.51154  0.12271  0.19866  Biso   1.000  O
  O10      1.0000 0.52297  0.09843  0.44048  Biso   1.000  O
  O11      1.0000 0.96833  0.41246  0.17104  Biso   1.000  O
  O12      1.0000 0.96863  0.34024  0.42033  Biso   1.000  O
  O13      1.0000 0.77450  0.12203  0.45081  Biso   1.000  O
  O14      1.0000 0.75767  0.13570  0.19027  Biso   1.000  O
  O15      1.0000 0.72626  0.37529  0.45916  Biso   1.000  O
  O16      1.0000 0.71615  0.38206  0.20763  Biso   1.000  O
  Zr9      1.0000 0.14051  0.02231  0.67135  Biso   1.000  Zr
  Zr10     1.0000 0.14375  0.22759  0.92066  Biso   1.000  Zr
  Zr11     1.0000 0.36457  0.27115  0.67350  Biso   1.000  Zr
  Zr12     1.0000 0.36052  0.47929  0.91894  Biso   1.000  Zr
  Zr13     1.0000 0.63937  0.02017  0.57928  Biso   1.000  Zr
  Zr14     1.0000 0.64280  0.22716  0.82653  Biso   1.000  Zr
  Zr15     1.0000 0.86231  0.27117  0.57796  Biso   1.000  Zr
  Zr16     1.0000 0.86385  0.47915  0.82806  Biso   1.000  Zr
  O17      1.0000 0.03026  0.16024  0.57765  Biso   1.000  O
  O18      1.0000 0.03436  0.08910  0.82658  Biso   1.000  O
  O19      1.0000 0.47222  0.40727  0.57854  Biso   1.000  O
  O20      1.0000 0.47442  0.34681  0.82513  Biso   1.000  O
  O21      1.0000 0.27725  0.12537  0.79733  Biso   1.000  O
  O22      1.0000 0.27408  0.12593  0.54768  Biso   1.000  O
  O23      1.0000 0.22696  0.37389  0.79405  Biso   1.000  O
  O24      1.0000 0.22534  0.37658  0.54702  Biso   1.000  O
  O25      1.0000 0.52611  0.14747  0.68601  Biso   1.000  O
  O26      1.0000 0.52080  0.11563  0.94943  Biso   1.000  O
  O27      1.0000 0.96923  0.41279  0.66898  Biso   1.000  O
  O28      1.0000 0.97259  0.33848  0.91579  Biso   1.000  O
  O29      1.0000 0.78329  0.11683  0.94244  Biso   1.000  O
  O30      1.0000 0.77660  0.12543  0.69889  Biso   1.000  O
  O31      1.0000 0.72454  0.37472  0.96118  Biso   1.000  O
  O32      1.0000 0.72706  0.37505  0.70756  Biso   1.000  O
  Zr17     1.0000 0.14083  0.51920  0.17209  Biso   1.000  Zr
  Zr18     1.0000 0.13762  0.72900  0.42092  Biso   1.000  Zr
  Zr19     1.0000 0.36005  0.77111  0.17302  Biso   1.000  Zr
  Zr20     1.0000 0.36227  0.97914  0.42350  Biso   1.000  Zr
  Zr21     1.0000 0.64029  0.53339  0.07647  Biso   1.000  Zr
  Zr22     1.0000 0.63822  0.72894  0.32978  Biso   1.000  Zr
  Zr23     1.0000 0.86804  0.77004  0.07851  Biso   1.000  Zr
  Zr24     1.0000 0.86153  0.97936  0.32782  Biso   1.000  Zr
  O33      1.0000 0.03381  0.66023  0.07904  Biso   1.000  O
  O34      1.0000 0.02974  0.58943  0.32900  Biso   1.000  O
  O35      1.0000 0.47269  0.89440  0.06841  Biso   1.000  O
  O36      1.0000 0.47235  0.84563  0.32478  Biso   1.000  O
  O37      1.0000 0.27386  0.62518  0.29617  Biso   1.000  O
  O38      1.0000 0.27616  0.62483  0.04571  Biso   1.000  O
  O39      1.0000 0.22462  0.87381  0.29568  Biso   1.000  O
  O40      1.0000 0.22612  0.87676  0.04591  Biso   1.000  O
  O41      1.0000 0.52781  0.65752  0.17687  Biso   1.000  O
  O42      1.0000 0.52860  0.59258  0.42489  Biso   1.000  O
  O43      1.0000 0.96945  0.91332  0.16920  Biso   1.000  O
  O44      1.0000 0.96841  0.84135  0.41823  Biso   1.000  O
  O45      1.0000 0.77493  0.62409  0.45320  Biso   1.000  O
  O46      1.0000 0.77666  0.62886  0.20344  Biso   1.000  O
  O47      1.0000 0.72506  0.87454  0.45516  Biso   1.000  O
  O48      1.0000 0.73019  0.87210  0.20690  Biso   1.000  O
  Zr25     1.0000 0.13873  0.52202  0.67033  Biso   1.000  Zr
  Zr26     1.0000 0.14117  0.72880  0.92125  Biso   1.000  Zr
  Zr27     1.0000 0.36291  0.77343  0.67221  Biso   1.000  Zr
  Zr28     1.0000 0.36317  0.97959  0.92469  Biso   1.000  Zr
  Zr29     1.0000 0.63888  0.52087  0.57826  Biso   1.000  Zr
  Zr30     1.0000 0.63972  0.72898  0.82496  Biso   1.000  Zr
  Zr31     1.0000 0.86218  0.77173  0.57732  Biso   1.000  Zr
  Zr32     1.0000 0.86620  0.97720  0.82610  Biso   1.000  Zr
  O49      1.0000 0.03068  0.66184  0.57785  Biso   1.000  O
  O50      1.0000 0.03197  0.58916  0.82820  Biso   1.000  O
  O51      1.0000 0.47339  0.90261  0.57357  Biso   1.000  O
  O52      1.0000 0.47742  0.85207  0.82168  Biso   1.000  O
  O53      1.0000 0.27535  0.62539  0.79506  Biso   1.000  O
  O54      1.0000 0.27374  0.62680  0.54581  Biso   1.000  O
  O55      1.0000 0.22838  0.87457  0.79660  Biso   1.000  O
  O56      1.0000 0.22647  0.87675  0.54545  Biso   1.000  O
  O57      1.0000 0.52835  0.65725  0.67409  Biso   1.000  O
  O58      1.0000 0.52804  0.59840  0.92376  Biso   1.000  O
  O59      1.0000 0.97290  0.91040  0.66719  Biso   1.000  O
  O60      1.0000 0.97360  0.83823  0.92011  Biso   1.000  O
  O61      1.0000 0.77771  0.62411  0.95163  Biso   1.000  O
  O62      1.0000 0.77558  0.62563  0.70290  Biso   1.000  O
  O63      1.0000 0.73052  0.86936  0.95283  Biso   1.000  O
  O64      1.0000 0.72881  0.87405  0.70376  Biso   1.000  O
  Mo1      1.0000 0.60729  0.25536  0.08979  Biso   1.000  Mo
