data_image0
_cell_length_a       10.1679
_cell_length_b       10.3411
_cell_length_c       10.486
_cell_angle_alpha    89.968
_cell_angle_beta     80.2848
_cell_angle_gamma    89.9441

_symmetry_space_group_name_H-M    "P 1"
_symmetry_int_tables_number       1

loop_
  _symmetry_equiv_pos_as_xyz
  'x, y, z'

loop_
  _atom_site_label
  _atom_site_occupancy
  _atom_site_fract_x
  _atom_site_fract_y
  _atom_site_fract_z
  _atom_site_thermal_displace_type
  _atom_site_B_iso_or_equiv
  _atom_site_type_symbol
  Mo1      1.0000 0.13984  0.02311  0.14836  Biso   1.000  Mo
  Zr1      1.0000 0.13992  0.22924  0.39449  Biso   1.000  Zr
  Zr2      1.0000 0.36043  0.27107  0.10531  Biso   1.000  Zr
  Zr3      1.0000 0.36178  0.47930  0.35461  Biso   1.000  Zr
  O1       1.0000 0.03724  0.16499  0.08195  Biso   1.000  O
  O2       1.0000 0.04131  0.07872  0.32220  Biso   1.000  O
  O3       1.0000 0.46397  0.42040  0.16880  Biso   1.000  O
  O4       1.0000 0.46417  0.33031  0.41936  Biso   1.000  O
  O5       1.0000 0.27643  0.12682  0.24024  Biso   1.000  O
  O6       1.0000 0.27683  0.12147  0.49104  Biso   1.000  O
  O7       1.0000 0.22347  0.37856  0.00991  Biso   1.000  O
  O8       1.0000 0.22474  0.37114  0.25957  Biso   1.000  O
  Zr4      1.0000 0.13877  0.02115  0.64520  Biso   1.000  Zr
  Zr5      1.0000 0.13847  0.22686  0.89667  Biso   1.000  Zr
  Zr6      1.0000 0.36111  0.27151  0.60508  Biso   1.000  Zr
  Zr7      1.0000 0.36033  0.47864  0.85502  Biso   1.000  Zr
  O9       1.0000 0.03454  0.16675  0.57667  Biso   1.000  O
  O10      1.0000 0.03431  0.08154  0.82844  Biso   1.000  O
  O11      1.0000 0.46387  0.42036  0.66925  Biso   1.000  O
  O12      1.0000 0.46245  0.32848  0.91900  Biso   1.000  O
  O13      1.0000 0.27609  0.12869  0.74221  Biso   1.000  O
  O14      1.0000 0.27285  0.11826  0.99644  Biso   1.000  O
  O15      1.0000 0.22361  0.37864  0.50922  Biso   1.000  O
  O16      1.0000 0.22352  0.37049  0.75978  Biso   1.000  O
  Zr8      1.0000 0.13916  0.52157  0.14545  Biso   1.000  Zr
  Zr9      1.0000 0.13883  0.72913  0.39506  Biso   1.000  Zr
  Zr10     1.0000 0.35804  0.77507  0.10510  Biso   1.000  Zr
  Zr11     1.0000 0.36060  0.97859  0.35405  Biso   1.000  Zr
  O17      1.0000 0.03556  0.66838  0.08020  Biso   1.000  O
  O18      1.0000 0.03568  0.58026  0.33081  Biso   1.000  O
  O19      1.0000 0.46531  0.91918  0.17060  Biso   1.000  O
  O20      1.0000 0.46491  0.83023  0.41911  Biso   1.000  O
  O21      1.0000 0.27569  0.63093  0.24095  Biso   1.000  O
  O22      1.0000 0.27634  0.62114  0.49077  Biso   1.000  O
  O23      1.0000 0.21729  0.88191  0.01082  Biso   1.000  O
  O24      1.0000 0.22018  0.87435  0.25817  Biso   1.000  O
  Zr12     1.0000 0.13881  0.52128  0.64553  Biso   1.000  Zr
  Zr13     1.0000 0.13872  0.72907  0.89552  Biso   1.000  Zr
  Zr14     1.0000 0.36144  0.77133  0.60458  Biso   1.000  Zr
  Zr15     1.0000 0.35941  0.97883  0.85590  Biso   1.000  Zr
  O25      1.0000 0.03533  0.66919  0.58010  Biso   1.000  O
  O26      1.0000 0.03534  0.58027  0.83054  Biso   1.000  O
  O27      1.0000 0.46362  0.92000  0.66978  Biso   1.000  O
  O28      1.0000 0.46157  0.83041  0.91997  Biso   1.000  O
  O29      1.0000 0.27601  0.62884  0.74069  Biso   1.000  O
  O30      1.0000 0.27595  0.62188  0.99084  Biso   1.000  O
  O31      1.0000 0.22416  0.87868  0.50891  Biso   1.000  O
  O32      1.0000 0.22365  0.87108  0.75924  Biso   1.000  O
  Zr16     1.0000 0.63895  0.02189  0.14541  Biso   1.000  Zr
  Zr17     1.0000 0.63916  0.22869  0.39509  Biso   1.000  Zr
  Zr18     1.0000 0.86272  0.27035  0.10483  Biso   1.000  Zr
  Zr19     1.0000 0.86104  0.47873  0.35409  Biso   1.000  Zr
  O33      1.0000 0.53584  0.17036  0.08139  Biso   1.000  O
  O34      1.0000 0.53609  0.08044  0.33109  Biso   1.000  O
  O35      1.0000 0.96509  0.41909  0.16934  Biso   1.000  O
  O36      1.0000 0.96401  0.32905  0.41806  Biso   1.000  O
  O37      1.0000 0.77716  0.12855  0.24054  Biso   1.000  O
  O38      1.0000 0.77732  0.12032  0.48952  Biso   1.000  O
  O39      1.0000 0.72417  0.37905  0.00937  Biso   1.000  O
  O40      1.0000 0.72421  0.37081  0.25898  Biso   1.000  O
  Zr20     1.0000 0.63826  0.02100  0.64552  Biso   1.000  Zr
  Zr21     1.0000 0.63852  0.22869  0.89547  Biso   1.000  Zr
  Zr22     1.0000 0.86089  0.27104  0.60412  Biso   1.000  Zr
  Zr23     1.0000 0.86099  0.47839  0.85511  Biso   1.000  Zr
  O41      1.0000 0.53655  0.17055  0.58124  Biso   1.000  O
  O42      1.0000 0.53484  0.07979  0.83177  Biso   1.000  O
  O43      1.0000 0.96473  0.41808  0.66973  Biso   1.000  O
  O44      1.0000 0.96505  0.32957  0.92069  Biso   1.000  O
  O45      1.0000 0.77532  0.12882  0.74024  Biso   1.000  O
  O46      1.0000 0.77577  0.12128  0.99030  Biso   1.000  O
  O47      1.0000 0.72411  0.37889  0.50940  Biso   1.000  O
  O48      1.0000 0.72376  0.37108  0.75953  Biso   1.000  O
  Zr24     1.0000 0.63871  0.52240  0.14495  Biso   1.000  Zr
  Zr25     1.0000 0.63972  0.72904  0.39523  Biso   1.000  Zr
  Zr26     1.0000 0.86336  0.77293  0.10404  Biso   1.000  Zr
  Zr27     1.0000 0.86243  0.97895  0.35312  Biso   1.000  Zr
  O49      1.0000 0.53402  0.67074  0.08136  Biso   1.000  O
  O50      1.0000 0.53648  0.58010  0.33118  Biso   1.000  O
  O51      1.0000 0.97344  0.91979  0.16642  Biso   1.000  O
  O52      1.0000 0.96479  0.83171  0.41933  Biso   1.000  O
  O53      1.0000 0.77643  0.62965  0.24035  Biso   1.000  O
  O54      1.0000 0.77647  0.62109  0.49069  Biso   1.000  O
  O55      1.0000 0.72305  0.87929  0.00957  Biso   1.000  O
  O56      1.0000 0.72847  0.87231  0.25883  Biso   1.000  O
  Zr28     1.0000 0.63892  0.52135  0.64576  Biso   1.000  Zr
  Zr29     1.0000 0.63768  0.72864  0.89662  Biso   1.000  Zr
  Zr30     1.0000 0.86065  0.77129  0.60486  Biso   1.000  Zr
  Zr31     1.0000 0.86044  0.97862  0.85446  Biso   1.000  Zr
  O57      1.0000 0.53649  0.67026  0.58086  Biso   1.000  O
  O58      1.0000 0.53540  0.57982  0.83144  Biso   1.000  O
  O59      1.0000 0.96432  0.91900  0.66925  Biso   1.000  O
  O60      1.0000 0.96348  0.82994  0.91867  Biso   1.000  O
  O61      1.0000 0.77587  0.62876  0.74123  Biso   1.000  O
  O62      1.0000 0.77592  0.62168  0.99092  Biso   1.000  O
  O63      1.0000 0.72414  0.87907  0.50895  Biso   1.000  O
  O64      1.0000 0.72312  0.87093  0.75957  Biso   1.000  O
