data_image0
_cell_length_a       10.0539
_cell_length_b       10.1966
_cell_length_c       10.0538
_cell_angle_alpha    90
_cell_angle_beta     90
_cell_angle_gamma    90

_symmetry_space_group_name_H-M    "P 1"
_symmetry_int_tables_number       1

loop_
  _symmetry_equiv_pos_as_xyz
  'x, y, z'

loop_
  _atom_site_label
  _atom_site_occupancy
  _atom_site_fract_x
  _atom_site_fract_y
  _atom_site_fract_z
  _atom_site_thermal_displace_type
  _atom_site_B_iso_or_equiv
  _atom_site_type_symbol
  Mo1      1.0000 0.12540  0.00008  0.12540  Biso   1.000  Mo
  Zr1      1.0000 0.12636  0.24966  0.37454  Biso   1.000  Zr
  Zr2      1.0000 0.37454  0.24966  0.12636  Biso   1.000  Zr
  Zr3      1.0000 0.37454  0.00007  0.37454  Biso   1.000  Zr
  O1       1.0000 0.99692  0.14327  0.99692  Biso   1.000  O
  O2       1.0000 0.00647  0.10199  0.24432  Biso   1.000  O
  O3       1.0000 0.99864  0.35364  0.25215  Biso   1.000  O
  O4       1.0000 0.00147  0.39532  0.00147  Biso   1.000  O
  O5       1.0000 0.25387  0.14327  0.25387  Biso   1.000  O
  O6       1.0000 0.24432  0.10199  0.00647  Biso   1.000  O
  O7       1.0000 0.25216  0.35364  0.99864  Biso   1.000  O
  O8       1.0000 0.24932  0.39532  0.24932  Biso   1.000  O
  Zr4      1.0000 0.12540  0.00007  0.62540  Biso   1.000  Zr
  Zr5      1.0000 0.12443  0.24966  0.87625  Biso   1.000  Zr
  Zr6      1.0000 0.37543  0.24977  0.62582  Biso   1.000  Zr
  Zr7      1.0000 0.37454  0.00008  0.87625  Biso   1.000  Zr
  O9       1.0000 0.99667  0.14564  0.49450  Biso   1.000  O
  O10      1.0000 0.00191  0.10482  0.74722  Biso   1.000  O
  O11      1.0000 0.99866  0.35422  0.75219  Biso   1.000  O
  O12      1.0000 0.00127  0.39563  0.50153  Biso   1.000  O
  O13      1.0000 0.25412  0.14564  0.75629  Biso   1.000  O
  O14      1.0000 0.24888  0.10483  0.50357  Biso   1.000  O
  O15      1.0000 0.25213  0.35421  0.49861  Biso   1.000  O
  O16      1.0000 0.24952  0.39563  0.74926  Biso   1.000  O
  Zr8      1.0000 0.12540  0.50008  0.12540  Biso   1.000  Zr
  Zr9      1.0000 0.12443  0.75049  0.37454  Biso   1.000  Zr
  Zr10     1.0000 0.37454  0.75049  0.12443  Biso   1.000  Zr
  Zr11     1.0000 0.37580  0.50028  0.37580  Biso   1.000  Zr
  O17      1.0000 0.99864  0.64651  0.99864  Biso   1.000  O
  O18      1.0000 0.00147  0.60484  0.24932  Biso   1.000  O
  O19      1.0000 0.99692  0.85688  0.25388  Biso   1.000  O
  O20      1.0000 0.00647  0.89816  0.00647  Biso   1.000  O
  O21      1.0000 0.25216  0.64651  0.25216  Biso   1.000  O
  O22      1.0000 0.24932  0.60484  0.00147  Biso   1.000  O
  O23      1.0000 0.25388  0.85688  0.99692  Biso   1.000  O
  O24      1.0000 0.24432  0.89816  0.24432  Biso   1.000  O
  Zr12     1.0000 0.12540  0.50008  0.62540  Biso   1.000  Zr
  Zr13     1.0000 0.12636  0.75049  0.87625  Biso   1.000  Zr
  Zr14     1.0000 0.37543  0.75038  0.62497  Biso   1.000  Zr
  Zr15     1.0000 0.37580  0.49987  0.87500  Biso   1.000  Zr
  O25      1.0000 0.99866  0.64594  0.49860  Biso   1.000  O
  O26      1.0000 0.00127  0.60452  0.74926  Biso   1.000  O
  O27      1.0000 0.99667  0.85451  0.75629  Biso   1.000  O
  O28      1.0000 0.00191  0.89533  0.50357  Biso   1.000  O
  O29      1.0000 0.25213  0.64594  0.75219  Biso   1.000  O
  O30      1.0000 0.24952  0.60452  0.50153  Biso   1.000  O
  O31      1.0000 0.25412  0.85451  0.49450  Biso   1.000  O
  O32      1.0000 0.24888  0.89533  0.74722  Biso   1.000  O
  Zr16     1.0000 0.62540  0.00008  0.12540  Biso   1.000  Zr
  Zr17     1.0000 0.62582  0.24978  0.37543  Biso   1.000  Zr
  Zr18     1.0000 0.87625  0.24966  0.12443  Biso   1.000  Zr
  Zr19     1.0000 0.87625  0.00008  0.37454  Biso   1.000  Zr
  O33      1.0000 0.49450  0.14564  0.99667  Biso   1.000  O
  O34      1.0000 0.50358  0.10482  0.24888  Biso   1.000  O
  O35      1.0000 0.49861  0.35422  0.25213  Biso   1.000  O
  O36      1.0000 0.50153  0.39563  0.00127  Biso   1.000  O
  O37      1.0000 0.75629  0.14564  0.25412  Biso   1.000  O
  O38      1.0000 0.74722  0.10483  0.00191  Biso   1.000  O
  O39      1.0000 0.75219  0.35422  0.99866  Biso   1.000  O
  O40      1.0000 0.74926  0.39563  0.24952  Biso   1.000  O
  Zr20     1.0000 0.62540  0.00007  0.62540  Biso   1.000  Zr
  Zr21     1.0000 0.62497  0.24978  0.87536  Biso   1.000  Zr
  Zr22     1.0000 0.87536  0.24977  0.62497  Biso   1.000  Zr
  Zr23     1.0000 0.87625  0.00007  0.87625  Biso   1.000  Zr
  O41      1.0000 0.49717  0.14554  0.49717  Biso   1.000  O
  O42      1.0000 0.50211  0.10473  0.74868  Biso   1.000  O
  O43      1.0000 0.49884  0.35482  0.75195  Biso   1.000  O
  O44      1.0000 0.50143  0.39534  0.50144  Biso   1.000  O
  O45      1.0000 0.75362  0.14554  0.75362  Biso   1.000  O
  O46      1.0000 0.74868  0.10473  0.50211  Biso   1.000  O
  O47      1.0000 0.75195  0.35482  0.49884  Biso   1.000  O
  O48      1.0000 0.74936  0.39534  0.74936  Biso   1.000  O
  Zr24     1.0000 0.62540  0.50008  0.12540  Biso   1.000  Zr
  Zr25     1.0000 0.62497  0.75038  0.37543  Biso   1.000  Zr
  Zr26     1.0000 0.87625  0.75049  0.12636  Biso   1.000  Zr
  Zr27     1.0000 0.87500  0.49987  0.37580  Biso   1.000  Zr
  O49      1.0000 0.49860  0.64594  0.99866  Biso   1.000  O
  O50      1.0000 0.50153  0.60452  0.24952  Biso   1.000  O
  O51      1.0000 0.49450  0.85451  0.25412  Biso   1.000  O
  O52      1.0000 0.50357  0.89533  0.00191  Biso   1.000  O
  O53      1.0000 0.75219  0.64594  0.25213  Biso   1.000  O
  O54      1.0000 0.74926  0.60452  0.00127  Biso   1.000  O
  O55      1.0000 0.75629  0.85451  0.99667  Biso   1.000  O
  O56      1.0000 0.74722  0.89533  0.24888  Biso   1.000  O
  Zr28     1.0000 0.62540  0.50008  0.62540  Biso   1.000  Zr
  Zr29     1.0000 0.62582  0.75038  0.87536  Biso   1.000  Zr
  Zr30     1.0000 0.87536  0.75038  0.62582  Biso   1.000  Zr
  Zr31     1.0000 0.87500  0.50028  0.87500  Biso   1.000  Zr
  O57      1.0000 0.49884  0.64533  0.49884  Biso   1.000  O
  O58      1.0000 0.50143  0.60481  0.74936  Biso   1.000  O
  O59      1.0000 0.49717  0.85461  0.75362  Biso   1.000  O
  O60      1.0000 0.50211  0.89542  0.50211  Biso   1.000  O
  O61      1.0000 0.75196  0.64533  0.75195  Biso   1.000  O
  O62      1.0000 0.74936  0.60481  0.50143  Biso   1.000  O
  O63      1.0000 0.75362  0.85461  0.49717  Biso   1.000  O
  O64      1.0000 0.74868  0.89542  0.74868  Biso   1.000  O
