data_image0
_cell_length_a       10.0737
_cell_length_b       10.2167
_cell_length_c       10.1397
_cell_angle_alpha    90.8338
_cell_angle_beta     93.7708
_cell_angle_gamma    90.161

_symmetry_space_group_name_H-M    "P 1"
_symmetry_int_tables_number       1

loop_
  _symmetry_equiv_pos_as_xyz
  'x, y, z'

loop_
  _atom_site_label
  _atom_site_occupancy
  _atom_site_fract_x
  _atom_site_fract_y
  _atom_site_fract_z
  _atom_site_thermal_displace_type
  _atom_site_B_iso_or_equiv
  _atom_site_type_symbol
  Hf1      1.0000 0.14487  0.98961  0.13196  Biso   1.000  Hf
  Hf2      1.0000 0.12669  0.23113  0.36205  Biso   1.000  Hf
  Hf3      1.0000 0.35650  0.26388  0.11902  Biso   1.000  Hf
  Hf4      1.0000 0.38042  0.01075  0.38588  Biso   1.000  Hf
  O1       1.0000 0.97229  0.18683  0.96808  Biso   1.000  O
  O2       1.0000 0.04126  0.05770  0.28845  Biso   1.000  O
  O3       1.0000 0.96842  0.33766  0.29328  Biso   1.000  O
  O4       1.0000 0.95140  0.42682  0.04079  Biso   1.000  O
  O5       1.0000 0.26688  0.13908  0.24821  Biso   1.000  O
  O6       1.0000 0.24373  0.11582  0.99245  Biso   1.000  O
  O7       1.0000 0.21180  0.36214  0.00027  Biso   1.000  O
  O8       1.0000 0.22471  0.38969  0.24867  Biso   1.000  O
  Hf5      1.0000 0.13402  0.99465  0.62416  Biso   1.000  Hf
  Hf6      1.0000 0.13255  0.24459  0.85174  Biso   1.000  Hf
  Hf7      1.0000 0.36761  0.25799  0.62228  Biso   1.000  Hf
  Hf8      1.0000 0.37765  0.01363  0.88685  Biso   1.000  Hf
  O9       1.0000 0.00041  0.15472  0.50432  Biso   1.000  O
  O10      1.0000 0.00695  0.09781  0.74274  Biso   1.000  O
  O11      1.0000 0.97258  0.34884  0.78157  Biso   1.000  O
  O12      1.0000 0.96519  0.41152  0.53696  Biso   1.000  O
  O13      1.0000 0.25689  0.14157  0.74409  Biso   1.000  O
  O14      1.0000 0.25249  0.10815  0.49965  Biso   1.000  O
  O15      1.0000 0.22618  0.35561  0.50022  Biso   1.000  O
  O16      1.0000 0.22911  0.39478  0.74961  Biso   1.000  O
  Hf9      1.0000 0.12299  0.51302  0.11597  Biso   1.000  Hf
  Hf10     1.0000 0.13252  0.75065  0.37552  Biso   1.000  Hf
  Hf11     1.0000 0.37655  0.73798  0.13716  Biso   1.000  Hf
  Hf12     1.0000 0.36683  0.49099  0.37641  Biso   1.000  Hf
  O17      1.0000 0.00307  0.66108  0.98841  Biso   1.000  O
  O18      1.0000 0.99810  0.59526  0.25041  Biso   1.000  O
  O19      1.0000 0.04661  0.82546  0.20469  Biso   1.000  O
  O20      1.0000 0.03685  0.92698  0.96242  Biso   1.000  O
  O21      1.0000 0.25223  0.63646  0.25253  Biso   1.000  O
  O22      1.0000 0.24864  0.61307  0.00076  Biso   1.000  O
  O23      1.0000 0.27768  0.86225  0.00413  Biso   1.000  O
  O24      1.0000 0.28810  0.88458  0.25504  Biso   1.000  O
  Hf13     1.0000 0.12387  0.51102  0.61677  Biso   1.000  Hf
  Hf14     1.0000 0.13470  0.76141  0.87695  Biso   1.000  Hf
  Hf15     1.0000 0.37640  0.74196  0.63279  Biso   1.000  Hf
  Hf16     1.0000 0.37087  0.50315  0.87491  Biso   1.000  Hf
  O25      1.0000 0.00395  0.64991  0.49124  Biso   1.000  O
  O26      1.0000 0.00056  0.60155  0.74524  Biso   1.000  O
  O27      1.0000 0.03348  0.84217  0.71892  Biso   1.000  O
  O28      1.0000 0.02322  0.89621  0.47684  Biso   1.000  O
  O29      1.0000 0.25328  0.64539  0.75238  Biso   1.000  O
  O30      1.0000 0.24985  0.60720  0.50066  Biso   1.000  O
  O31      1.0000 0.27014  0.85798  0.50169  Biso   1.000  O
  O32      1.0000 0.27536  0.89466  0.75143  Biso   1.000  O
  Hf17     1.0000 0.63238  0.00119  0.12839  Biso   1.000  Hf
  Hf18     1.0000 0.62749  0.23808  0.37350  Biso   1.000  Hf
  Hf19     1.0000 0.84874  0.27507  0.13122  Biso   1.000  Hf
  Hf20     1.0000 0.87682  0.00414  0.38078  Biso   1.000  Hf
  O33      1.0000 0.49431  0.15775  0.01422  Biso   1.000  O
  O34      1.0000 0.52097  0.08347  0.26584  Biso   1.000  O
  O35      1.0000 0.46702  0.33310  0.29062  Biso   1.000  O
  O36      1.0000 0.45199  0.42338  0.04646  Biso   1.000  O
  O37      1.0000 0.75998  0.14712  0.25568  Biso   1.000  O
  O38      1.0000 0.74831  0.10475  0.99824  Biso   1.000  O
  O39      1.0000 0.69552  0.35578  0.02095  Biso   1.000  O
  O40      1.0000 0.72573  0.39860  0.26459  Biso   1.000  O
  Hf21     1.0000 0.62501  0.00443  0.62676  Biso   1.000  Hf
  Hf22     1.0000 0.62446  0.23982  0.87121  Biso   1.000  Hf
  Hf23     1.0000 0.87498  0.24895  0.62248  Biso   1.000  Hf
  Hf24     1.0000 0.87174  0.00692  0.87124  Biso   1.000  Hf
  O41      1.0000 0.50126  0.15514  0.51249  Biso   1.000  O
  O42      1.0000 0.50685  0.09388  0.75711  Biso   1.000  O
  O43      1.0000 0.46437  0.33871  0.79426  Biso   1.000  O
  O44      1.0000 0.46682  0.41298  0.54220  Biso   1.000  O
  O45      1.0000 0.75211  0.15074  0.75056  Biso   1.000  O
  O46      1.0000 0.75157  0.10096  0.50103  Biso   1.000  O
  O47      1.0000 0.71894  0.34763  0.52337  Biso   1.000  O
  O48      1.0000 0.72103  0.40454  0.77536  Biso   1.000  O
  Hf25     1.0000 0.62318  0.51463  0.12153  Biso   1.000  Hf
  Hf26     1.0000 0.62251  0.74109  0.37878  Biso   1.000  Hf
  Hf27     1.0000 0.87498  0.74343  0.12406  Biso   1.000  Hf
  Hf28     1.0000 0.87735  0.50318  0.37401  Biso   1.000  Hf
  O49      1.0000 0.50106  0.65573  0.99979  Biso   1.000  O
  O50      1.0000 0.49719  0.59322  0.26067  Biso   1.000  O
  O51      1.0000 0.54450  0.83329  0.21211  Biso   1.000  O
  O52      1.0000 0.53489  0.91083  0.96625  Biso   1.000  O
  O53      1.0000 0.75170  0.64828  0.24742  Biso   1.000  O
  O54      1.0000 0.74659  0.60599  0.99728  Biso   1.000  O
  O55      1.0000 0.78549  0.84718  0.96624  Biso   1.000  O
  O56      1.0000 0.79640  0.90781  0.21486  Biso   1.000  O
  Hf29     1.0000 0.62987  0.50820  0.62418  Biso   1.000  Hf
  Hf30     1.0000 0.62531  0.74751  0.87658  Biso   1.000  Hf
  Hf31     1.0000 0.87895  0.74818  0.61991  Biso   1.000  Hf
  Hf32     1.0000 0.87669  0.51144  0.86761  Biso   1.000  Hf
  O57      1.0000 0.50160  0.65126  0.50402  Biso   1.000  O
  O58      1.0000 0.50090  0.59610  0.75833  Biso   1.000  O
  O59      1.0000 0.53540  0.84105  0.71645  Biso   1.000  O
  O60      1.0000 0.53011  0.90333  0.47019  Biso   1.000  O
  O61      1.0000 0.75449  0.65382  0.74502  Biso   1.000  O
  O62      1.0000 0.74871  0.60026  0.49817  Biso   1.000  O
  O63      1.0000 0.77913  0.84358  0.46537  Biso   1.000  O
  O64      1.0000 0.78514  0.90844  0.71382  Biso   1.000  O
  N1       1.0000 0.01424  0.15757  0.09305  Biso   1.000  N
