data_image0
_cell_length_a       10.011
_cell_length_b       10.3499
_cell_length_c       4.99013
_cell_angle_alpha    88.6845
_cell_angle_beta     89.7667
_cell_angle_gamma    89.8299

_symmetry_space_group_name_H-M    "P 1"
_symmetry_int_tables_number       1

loop_
  _symmetry_equiv_pos_as_xyz
  'x, y, z'

loop_
  _atom_site_label
  _atom_site_occupancy
  _atom_site_fract_x
  _atom_site_fract_y
  _atom_site_fract_z
  _atom_site_thermal_displace_type
  _atom_site_B_iso_or_equiv
  _atom_site_type_symbol
  N1       1.0000 0.06567  0.01255  0.21760  Biso   1.000  N
  Hf1      1.0000 0.14162  0.23738  0.75584  Biso   1.000  Hf
  Hf2      1.0000 0.36442  0.26468  0.25118  Biso   1.000  Hf
  Hf3      1.0000 0.36980  0.48600  0.74991  Biso   1.000  Hf
  O1       1.0000 0.99095  0.16321  0.53086  Biso   1.000  O
  O2       1.0000 0.03099  0.05684  0.99157  Biso   1.000  O
  O3       1.0000 0.46453  0.43398  0.38661  Biso   1.000  O
  O4       1.0000 0.46699  0.31893  0.88505  Biso   1.000  O
  O5       1.0000 0.27626  0.12953  0.51148  Biso   1.000  O
  O6       1.0000 0.27729  0.13710  0.98902  Biso   1.000  O
  O7       1.0000 0.23344  0.38682  0.00086  Biso   1.000  O
  O8       1.0000 0.22802  0.36782  0.50042  Biso   1.000  O
  Hf4      1.0000 0.13333  0.51575  0.25041  Biso   1.000  Hf
  Hf5      1.0000 0.13773  0.73510  0.74965  Biso   1.000  Hf
  Hf6      1.0000 0.36295  0.76754  0.24917  Biso   1.000  Hf
  Hf7      1.0000 0.35849  0.98290  0.74953  Biso   1.000  Hf
  O9       1.0000 0.03654  0.68806  0.37962  Biso   1.000  O
  O10      1.0000 0.02866  0.57139  0.90123  Biso   1.000  O
  O11      1.0000 0.47270  0.92846  0.40567  Biso   1.000  O
  O12      1.0000 0.47310  0.82071  0.90368  Biso   1.000  O
  O13      1.0000 0.26678  0.61352  0.49494  Biso   1.000  O
  O14      1.0000 0.27277  0.63052  0.99636  Biso   1.000  O
  O15      1.0000 0.23141  0.87572  0.00118  Biso   1.000  O
  O16      1.0000 0.24411  0.85886  0.51725  Biso   1.000  O
  Hf8      1.0000 0.62748  0.01107  0.22982  Biso   1.000  Hf
  Hf9      1.0000 0.62861  0.23151  0.74235  Biso   1.000  Hf
  Hf10     1.0000 0.86505  0.26304  0.26607  Biso   1.000  Hf
  Hf11     1.0000 0.86721  0.48049  0.75383  Biso   1.000  Hf
  O17      1.0000 0.53698  0.18506  0.37339  Biso   1.000  O
  O18      1.0000 0.53413  0.06677  0.88048  Biso   1.000  O
  O19      1.0000 0.97125  0.42440  0.41702  Biso   1.000  O
  O20      1.0000 0.97833  0.31832  0.94296  Biso   1.000  O
  O21      1.0000 0.75453  0.10868  0.47697  Biso   1.000  O
  O22      1.0000 0.77745  0.13450  0.97867  Biso   1.000  O
  O23      1.0000 0.73258  0.38165  0.00245  Biso   1.000  O
  O24      1.0000 0.73246  0.36482  0.50179  Biso   1.000  O
  Hf12     1.0000 0.63269  0.51544  0.24634  Biso   1.000  Hf
  Hf13     1.0000 0.63264  0.73859  0.73116  Biso   1.000  Hf
  Hf14     1.0000 0.86820  0.75806  0.21508  Biso   1.000  Hf
  Hf15     1.0000 0.86579  0.99499  0.72800  Biso   1.000  Hf
  O25      1.0000 0.53779  0.68305  0.38510  Biso   1.000  O
  O26      1.0000 0.53839  0.56866  0.88267  Biso   1.000  O
  O27      1.0000 0.97890  0.93902  0.32434  Biso   1.000  O
  O28      1.0000 0.96634  0.82603  0.85364  Biso   1.000  O
  O29      1.0000 0.77385  0.61179  0.48354  Biso   1.000  O
  O30      1.0000 0.76781  0.63510  0.98117  Biso   1.000  O
  O31      1.0000 0.73346  0.88725  0.97536  Biso   1.000  O
  O32      1.0000 0.75132  0.86461  0.47714  Biso   1.000  O
