data_image0
_cell_length_a       10.1796
_cell_length_b       5.11042
_cell_length_c       10.4575
_cell_angle_alpha    89.7275
_cell_angle_beta     80.3188
_cell_angle_gamma    89.6745

_symmetry_space_group_name_H-M    "P 1"
_symmetry_int_tables_number       1

loop_
  _symmetry_equiv_pos_as_xyz
  'x, y, z'

loop_
  _atom_site_label
  _atom_site_occupancy
  _atom_site_fract_x
  _atom_site_fract_y
  _atom_site_fract_z
  _atom_site_thermal_displace_type
  _atom_site_B_iso_or_equiv
  _atom_site_type_symbol
  N1       1.0000 0.04136  0.11507  0.17528  Biso   1.000  N
  Hf1      1.0000 0.15308  0.46553  0.38982  Biso   1.000  Hf
  Hf2      1.0000 0.35177  0.54271  0.10497  Biso   1.000  Hf
  Hf3      1.0000 0.35623  0.95983  0.34641  Biso   1.000  Hf
  O1       1.0000 0.03292  0.31350  0.09577  Biso   1.000  O
  O2       1.0000 0.02618  0.18870  0.30012  Biso   1.000  O
  O3       1.0000 0.46892  0.82757  0.17145  Biso   1.000  O
  O4       1.0000 0.46691  0.66331  0.42140  Biso   1.000  O
  O5       1.0000 0.28630  0.27104  0.25052  Biso   1.000  O
  O6       1.0000 0.27733  0.23932  0.49352  Biso   1.000  O
  O7       1.0000 0.22946  0.74216  0.99939  Biso   1.000  O
  O8       1.0000 0.22814  0.73987  0.26122  Biso   1.000  O
  Hf4      1.0000 0.14169  0.04076  0.64456  Biso   1.000  Hf
  Hf5      1.0000 0.15446  0.45822  0.89373  Biso   1.000  Hf
  Hf6      1.0000 0.36496  0.54223  0.60293  Biso   1.000  Hf
  Hf7      1.0000 0.35814  0.95566  0.86057  Biso   1.000  Hf
  O9       1.0000 0.02977  0.29855  0.55939  Biso   1.000  O
  O10      1.0000 0.03622  0.17012  0.82564  Biso   1.000  O
  O11      1.0000 0.46780  0.82818  0.67424  Biso   1.000  O
  O12      1.0000 0.47441  0.67980  0.92415  Biso   1.000  O
  O13      1.0000 0.27769  0.25260  0.73654  Biso   1.000  O
  O14      1.0000 0.28949  0.25827  0.97931  Biso   1.000  O
  O15      1.0000 0.22427  0.75246  0.50799  Biso   1.000  O
  O16      1.0000 0.22685  0.73783  0.75552  Biso   1.000  O
  Hf8      1.0000 0.63243  0.04349  0.14646  Biso   1.000  Hf
  Hf9      1.0000 0.63397  0.45035  0.39695  Biso   1.000  Hf
  Hf10     1.0000 0.84893  0.53375  0.09821  Biso   1.000  Hf
  Hf11     1.0000 0.84918  0.94911  0.36424  Biso   1.000  Hf
  O17      1.0000 0.53857  0.34002  0.07942  Biso   1.000  O
  O18      1.0000 0.53937  0.15218  0.33062  Biso   1.000  O
  O19      1.0000 0.96581  0.91171  0.16581  Biso   1.000  O
  O20      1.0000 0.96884  0.67437  0.41700  Biso   1.000  O
  O21      1.0000 0.77648  0.25430  0.24085  Biso   1.000  O
  O22      1.0000 0.77552  0.23499  0.49162  Biso   1.000  O
  O23      1.0000 0.72679  0.76367  0.00915  Biso   1.000  O
  O24      1.0000 0.73449  0.73750  0.25830  Biso   1.000  O
  Hf12     1.0000 0.63757  0.03534  0.65147  Biso   1.000  Hf
  Hf13     1.0000 0.63541  0.45677  0.89542  Biso   1.000  Hf
  Hf14     1.0000 0.86579  0.53153  0.60304  Biso   1.000  Hf
  Hf15     1.0000 0.86952  0.95022  0.85274  Biso   1.000  Hf
  O25      1.0000 0.53745  0.33007  0.57906  Biso   1.000  O
  O26      1.0000 0.53783  0.16418  0.82886  Biso   1.000  O
  O27      1.0000 0.97354  0.80663  0.67698  Biso   1.000  O
  O28      1.0000 0.97138  0.65805  0.93550  Biso   1.000  O
  O29      1.0000 0.78125  0.24851  0.74017  Biso   1.000  O
  O30      1.0000 0.78073  0.24685  0.99158  Biso   1.000  O
  O31      1.0000 0.72418  0.74674  0.51231  Biso   1.000  O
  O32      1.0000 0.73061  0.73640  0.75980  Biso   1.000  O
