data_image0
_cell_length_a       10.1029
_cell_length_b       10.2956
_cell_length_c       10.4526
_cell_angle_alpha    90.1192
_cell_angle_beta     80.4823
_cell_angle_gamma    90.1415

_symmetry_space_group_name_H-M    "P 1"
_symmetry_int_tables_number       1

loop_
  _symmetry_equiv_pos_as_xyz
  'x, y, z'

loop_
  _atom_site_label
  _atom_site_occupancy
  _atom_site_fract_x
  _atom_site_fract_y
  _atom_site_fract_z
  _atom_site_thermal_displace_type
  _atom_site_B_iso_or_equiv
  _atom_site_type_symbol
  Hf1      1.0000 0.13821  0.02117  0.14696  Biso   1.000  Hf
  Hf2      1.0000 0.14183  0.22824  0.39566  Biso   1.000  Hf
  Hf3      1.0000 0.36097  0.27101  0.10695  Biso   1.000  Hf
  Hf4      1.0000 0.35408  0.48418  0.34748  Biso   1.000  Hf
  O1       1.0000 0.03480  0.16926  0.08122  Biso   1.000  O
  O2       1.0000 0.03592  0.07973  0.33131  Biso   1.000  O
  O3       1.0000 0.46035  0.42727  0.16260  Biso   1.000  O
  O4       1.0000 0.48997  0.38209  0.44655  Biso   1.000  O
  O5       1.0000 0.27701  0.12786  0.24210  Biso   1.000  O
  O6       1.0000 0.27622  0.11658  0.49306  Biso   1.000  O
  O7       1.0000 0.22226  0.37806  0.00951  Biso   1.000  O
  O8       1.0000 0.21658  0.37193  0.25663  Biso   1.000  O
  Hf5      1.0000 0.13695  0.01892  0.64624  Biso   1.000  Hf
  Hf6      1.0000 0.13695  0.22761  0.89779  Biso   1.000  Hf
  Hf7      1.0000 0.35600  0.26876  0.60923  Biso   1.000  Hf
  Hf8      1.0000 0.36005  0.47659  0.85656  Biso   1.000  Hf
  O9       1.0000 0.03777  0.16904  0.58039  Biso   1.000  O
  O10      1.0000 0.03510  0.07895  0.83067  Biso   1.000  O
  O11      1.0000 0.46469  0.41169  0.67895  Biso   1.000  O
  O12      1.0000 0.46274  0.32863  0.92270  Biso   1.000  O
  O13      1.0000 0.27541  0.12925  0.74223  Biso   1.000  O
  O14      1.0000 0.27604  0.12037  0.99200  Biso   1.000  O
  O15      1.0000 0.22639  0.37832  0.51021  Biso   1.000  O
  O16      1.0000 0.22107  0.36980  0.76049  Biso   1.000  O
  Hf9      1.0000 0.13571  0.52040  0.14408  Biso   1.000  Hf
  Hf10     1.0000 0.13595  0.72944  0.39602  Biso   1.000  Hf
  Hf11     1.0000 0.35981  0.77131  0.10295  Biso   1.000  Hf
  Hf12     1.0000 0.36284  0.97637  0.35503  Biso   1.000  Hf
  O17      1.0000 0.03458  0.66972  0.07951  Biso   1.000  O
  O18      1.0000 0.03465  0.57981  0.32996  Biso   1.000  O
  O19      1.0000 0.46213  0.91978  0.16798  Biso   1.000  O
  O20      1.0000 0.46107  0.82564  0.41995  Biso   1.000  O
  O21      1.0000 0.27318  0.62987  0.23941  Biso   1.000  O
  O22      1.0000 0.27215  0.62064  0.49010  Biso   1.000  O
  O23      1.0000 0.22219  0.87895  0.00953  Biso   1.000  O
  O24      1.0000 0.22278  0.87016  0.25967  Biso   1.000  O
  Hf13     1.0000 0.13752  0.52141  0.64555  Biso   1.000  Hf
  Hf14     1.0000 0.13763  0.72818  0.89538  Biso   1.000  Hf
  Hf15     1.0000 0.36036  0.76921  0.60394  Biso   1.000  Hf
  Hf16     1.0000 0.35983  0.97795  0.85466  Biso   1.000  Hf
  O25      1.0000 0.03318  0.66882  0.58062  Biso   1.000  O
  O26      1.0000 0.03507  0.57978  0.83004  Biso   1.000  O
  O27      1.0000 0.46225  0.91886  0.66888  Biso   1.000  O
  O28      1.0000 0.46254  0.83029  0.91824  Biso   1.000  O
  O29      1.0000 0.27598  0.62741  0.74028  Biso   1.000  O
  O30      1.0000 0.27479  0.62061  0.99039  Biso   1.000  O
  O31      1.0000 0.22196  0.87734  0.51002  Biso   1.000  O
  O32      1.0000 0.22238  0.87000  0.75963  Biso   1.000  O
  Hf17     1.0000 0.63826  0.01866  0.14604  Biso   1.000  Hf
  Hf18     1.0000 0.63927  0.22578  0.39317  Biso   1.000  Hf
  Hf19     1.0000 0.85919  0.27072  0.10401  Biso   1.000  Hf
  Hf20     1.0000 0.86085  0.47644  0.35480  Biso   1.000  Hf
  O33      1.0000 0.53633  0.16979  0.08380  Biso   1.000  O
  O34      1.0000 0.54584  0.06254  0.33435  Biso   1.000  O
  O35      1.0000 0.96080  0.41973  0.16871  Biso   1.000  O
  O36      1.0000 0.96613  0.32900  0.41896  Biso   1.000  O
  O37      1.0000 0.77734  0.12920  0.24033  Biso   1.000  O
  O38      1.0000 0.77562  0.11850  0.49068  Biso   1.000  O
  O39      1.0000 0.72258  0.37880  0.00919  Biso   1.000  O
  O40      1.0000 0.72032  0.37055  0.25941  Biso   1.000  O
  Hf21     1.0000 0.63671  0.02161  0.64409  Biso   1.000  Hf
  Hf22     1.0000 0.63767  0.22795  0.89656  Biso   1.000  Hf
  Hf23     1.0000 0.86230  0.26953  0.60403  Biso   1.000  Hf
  Hf24     1.0000 0.86029  0.47739  0.85406  Biso   1.000  Hf
  O41      1.0000 0.53261  0.17035  0.57594  Biso   1.000  O
  O42      1.0000 0.53419  0.08108  0.82880  Biso   1.000  O
  O43      1.0000 0.96368  0.41843  0.66993  Biso   1.000  O
  O44      1.0000 0.96283  0.32951  0.91975  Biso   1.000  O
  O45      1.0000 0.77518  0.12796  0.73997  Biso   1.000  O
  O46      1.0000 0.77563  0.12002  0.99008  Biso   1.000  O
  O47      1.0000 0.72815  0.37676  0.51082  Biso   1.000  O
  O48      1.0000 0.72320  0.36905  0.76040  Biso   1.000  O
  Hf25     1.0000 0.63881  0.52336  0.14328  Biso   1.000  Hf
  Hf26     1.0000 0.63789  0.72672  0.39458  Biso   1.000  Hf
  Hf27     1.0000 0.86046  0.77074  0.10354  Biso   1.000  Hf
  Hf28     1.0000 0.86011  0.97777  0.35388  Biso   1.000  Hf
  O49      1.0000 0.53555  0.67129  0.07740  Biso   1.000  O
  O50      1.0000 0.53139  0.58737  0.32128  Biso   1.000  O
  O51      1.0000 0.96356  0.91928  0.16936  Biso   1.000  O
  O52      1.0000 0.96141  0.82965  0.41980  Biso   1.000  O
  O53      1.0000 0.77645  0.62741  0.23997  Biso   1.000  O
  O54      1.0000 0.77444  0.61905  0.48979  Biso   1.000  O
  O55      1.0000 0.72263  0.87832  0.00844  Biso   1.000  O
  O56      1.0000 0.72457  0.86764  0.25787  Biso   1.000  O
  Hf29     1.0000 0.63780  0.51824  0.64637  Biso   1.000  Hf
  Hf30     1.0000 0.63754  0.72832  0.89429  Biso   1.000  Hf
  Hf31     1.0000 0.85824  0.77024  0.60376  Biso   1.000  Hf
  Hf32     1.0000 0.85948  0.97792  0.85371  Biso   1.000  Hf
  O57      1.0000 0.53335  0.66377  0.57850  Biso   1.000  O
  O58      1.0000 0.53474  0.57969  0.83027  Biso   1.000  O
  O59      1.0000 0.96192  0.91877  0.66893  Biso   1.000  O
  O60      1.0000 0.96281  0.82987  0.91868  Biso   1.000  O
  O61      1.0000 0.77494  0.62766  0.73964  Biso   1.000  O
  O62      1.0000 0.77574  0.62068  0.98917  Biso   1.000  O
  O63      1.0000 0.72079  0.87785  0.50905  Biso   1.000  O
  O64      1.0000 0.72117  0.87052  0.75812  Biso   1.000  O
  N1       1.0000 0.44268  0.29125  0.36803  Biso   1.000  N
