data_image0
_cell_length_a       10.0148
_cell_length_b       5.14195
_cell_length_c       10.4463
_cell_angle_alpha    89.6966
_cell_angle_beta     89.6596
_cell_angle_gamma    90.2179

_symmetry_space_group_name_H-M    "P 1"
_symmetry_int_tables_number       1

loop_
  _symmetry_equiv_pos_as_xyz
  'x, y, z'

loop_
  _atom_site_label
  _atom_site_occupancy
  _atom_site_fract_x
  _atom_site_fract_y
  _atom_site_fract_z
  _atom_site_thermal_displace_type
  _atom_site_B_iso_or_equiv
  _atom_site_type_symbol
  Hf1      1.0000 0.14066  0.04729  0.17096  Biso   1.000  Hf
  Hf2      1.0000 0.14084  0.46421  0.42046  Biso   1.000  Hf
  Hf3      1.0000 0.36210  0.55292  0.16700  Biso   1.000  Hf
  Hf4      1.0000 0.36497  0.96411  0.42012  Biso   1.000  Hf
  Hf5      1.0000 0.64366  0.03303  0.07256  Biso   1.000  Hf
  Hf6      1.0000 0.64657  0.46716  0.33919  Biso   1.000  Hf
  Hf7      1.0000 0.86169  0.54028  0.08039  Biso   1.000  Hf
  Hf8      1.0000 0.86368  0.96262  0.32924  Biso   1.000  Hf
  O1       1.0000 0.03463  0.33694  0.08543  Biso   1.000  O
  O2       1.0000 0.03403  0.17209  0.33473  Biso   1.000  O
  O3       1.0000 0.45830  0.87145  0.08554  Biso   1.000  O
  O4       1.0000 0.47199  0.67439  0.32992  Biso   1.000  O
  O5       1.0000 0.27534  0.25916  0.29456  Biso   1.000  O
  O6       1.0000 0.27718  0.25765  0.04239  Biso   1.000  O
  O7       1.0000 0.22660  0.75923  0.29434  Biso   1.000  O
  O8       1.0000 0.22235  0.75466  0.04386  Biso   1.000  O
  O9       1.0000 0.52016  0.27150  0.19654  Biso   1.000  O
  O10      1.0000 0.53683  0.17697  0.42236  Biso   1.000  O
  O11      1.0000 0.96677  0.83785  0.16527  Biso   1.000  O
  O12      1.0000 0.96694  0.66863  0.41513  Biso   1.000  O
  O13      1.0000 0.78016  0.25127  0.45935  Biso   1.000  O
  O14      1.0000 0.77302  0.25640  0.20854  Biso   1.000  O
  O15      1.0000 0.72558  0.75265  0.45972  Biso   1.000  O
  O16      1.0000 0.72558  0.75304  0.20818  Biso   1.000  O
  Hf9      1.0000 0.14214  0.04492  0.67005  Biso   1.000  Hf
  Hf10     1.0000 0.13994  0.46066  0.92051  Biso   1.000  Hf
  Hf11     1.0000 0.36375  0.54258  0.67061  Biso   1.000  Hf
  Hf12     1.0000 0.36229  0.96080  0.91775  Biso   1.000  Hf
  Hf13     1.0000 0.64080  0.04686  0.58437  Biso   1.000  Hf
  Hf14     1.0000 0.63932  0.45663  0.83280  Biso   1.000  Hf
  Hf15     1.0000 0.86480  0.54491  0.58229  Biso   1.000  Hf
  Hf16     1.0000 0.86471  0.95959  0.82925  Biso   1.000  Hf
  O17      1.0000 0.03726  0.33925  0.58568  Biso   1.000  O
  O18      1.0000 0.03751  0.16672  0.83445  Biso   1.000  O
  O19      1.0000 0.46742  0.84023  0.58649  Biso   1.000  O
  O20      1.0000 0.46335  0.64976  0.84018  Biso   1.000  O
  O21      1.0000 0.27874  0.24922  0.79267  Biso   1.000  O
  O22      1.0000 0.27939  0.25635  0.54324  Biso   1.000  O
  O23      1.0000 0.22522  0.74994  0.79284  Biso   1.000  O
  O24      1.0000 0.22674  0.75613  0.54280  Biso   1.000  O
  O25      1.0000 0.53872  0.34678  0.66378  Biso   1.000  O
  O26      1.0000 0.54460  0.12743  0.89508  Biso   1.000  O
  O27      1.0000 0.96901  0.83859  0.66427  Biso   1.000  O
  O28      1.0000 0.96791  0.66657  0.91535  Biso   1.000  O
  O29      1.0000 0.78399  0.24535  0.95469  Biso   1.000  O
  O30      1.0000 0.77925  0.25432  0.70743  Biso   1.000  O
  O31      1.0000 0.72762  0.74689  0.95672  Biso   1.000  O
  O32      1.0000 0.72579  0.75175  0.70869  Biso   1.000  O
  N1       1.0000 0.54895  0.41291  0.08747  Biso   1.000  N
