data_image0
_cell_length_a       10.0729
_cell_length_b       5.09798
_cell_length_c       10.4589
_cell_angle_alpha    89.5336
_cell_angle_beta     90.012
_cell_angle_gamma    89.6766

_symmetry_space_group_name_H-M    "P 1"
_symmetry_int_tables_number       1

loop_
  _symmetry_equiv_pos_as_xyz
  'x, y, z'

loop_
  _atom_site_label
  _atom_site_occupancy
  _atom_site_fract_x
  _atom_site_fract_y
  _atom_site_fract_z
  _atom_site_thermal_displace_type
  _atom_site_B_iso_or_equiv
  _atom_site_type_symbol
  N1       1.0000 0.04318  0.12067  0.18460  Biso   1.000  N
  Hf1      1.0000 0.15245  0.47011  0.41868  Biso   1.000  Hf
  Hf2      1.0000 0.35044  0.54087  0.17209  Biso   1.000  Hf
  Hf3      1.0000 0.35856  0.96170  0.41507  Biso   1.000  Hf
  Hf4      1.0000 0.63210  0.04112  0.07917  Biso   1.000  Hf
  Hf5      1.0000 0.63202  0.45405  0.32743  Biso   1.000  Hf
  Hf6      1.0000 0.84931  0.53179  0.07091  Biso   1.000  Hf
  Hf7      1.0000 0.84923  0.95285  0.33740  Biso   1.000  Hf
  O1       1.0000 0.03343  0.31877  0.10168  Biso   1.000  O
  O2       1.0000 0.02495  0.19739  0.30568  Biso   1.000  O
  O3       1.0000 0.47193  0.81959  0.08358  Biso   1.000  O
  O4       1.0000 0.47455  0.68617  0.32834  Biso   1.000  O
  O5       1.0000 0.28466  0.26450  0.30738  Biso   1.000  O
  O6       1.0000 0.28972  0.26272  0.03581  Biso   1.000  O
  O7       1.0000 0.22864  0.74660  0.30078  Biso   1.000  O
  O8       1.0000 0.23146  0.73470  0.03818  Biso   1.000  O
  O9       1.0000 0.53362  0.33096  0.16658  Biso   1.000  O
  O10      1.0000 0.53701  0.16579  0.41753  Biso   1.000  O
  O11      1.0000 0.97070  0.91496  0.16207  Biso   1.000  O
  O12      1.0000 0.96949  0.67974  0.41352  Biso   1.000  O
  O13      1.0000 0.77741  0.23908  0.45686  Biso   1.000  O
  O14      1.0000 0.77609  0.24908  0.20650  Biso   1.000  O
  O15      1.0000 0.72341  0.73691  0.45684  Biso   1.000  O
  O16      1.0000 0.73715  0.74998  0.20406  Biso   1.000  O
  Hf8      1.0000 0.14153  0.04063  0.67176  Biso   1.000  Hf
  Hf9      1.0000 0.15508  0.45373  0.92288  Biso   1.000  Hf
  Hf10     1.0000 0.36392  0.54169  0.67149  Biso   1.000  Hf
  Hf11     1.0000 0.35832  0.95289  0.92882  Biso   1.000  Hf
  Hf12     1.0000 0.63664  0.03378  0.58140  Biso   1.000  Hf
  Hf13     1.0000 0.63704  0.45358  0.82667  Biso   1.000  Hf
  Hf14     1.0000 0.86548  0.53047  0.57767  Biso   1.000  Hf
  Hf15     1.0000 0.86894  0.94689  0.82768  Biso   1.000  Hf
  O17      1.0000 0.02930  0.29743  0.56549  Biso   1.000  O
  O18      1.0000 0.03352  0.17196  0.83204  Biso   1.000  O
  O19      1.0000 0.46765  0.82680  0.58179  Biso   1.000  O
  O20      1.0000 0.46996  0.66813  0.83125  Biso   1.000  O
  O21      1.0000 0.27752  0.23862  0.79196  Biso   1.000  O
  O22      1.0000 0.27789  0.25308  0.54878  Biso   1.000  O
  O23      1.0000 0.22583  0.73904  0.79352  Biso   1.000  O
  O24      1.0000 0.22452  0.75210  0.54562  Biso   1.000  O
  O25      1.0000 0.53582  0.32710  0.66632  Biso   1.000  O
  O26      1.0000 0.53801  0.16133  0.91581  Biso   1.000  O
  O27      1.0000 0.97454  0.80273  0.67374  Biso   1.000  O
  O28      1.0000 0.97312  0.66041  0.93244  Biso   1.000  O
  O29      1.0000 0.77947  0.24608  0.95811  Biso   1.000  O
  O30      1.0000 0.77953  0.24183  0.70649  Biso   1.000  O
  O31      1.0000 0.72533  0.74578  0.95327  Biso   1.000  O
  O32      1.0000 0.72952  0.74383  0.70428  Biso   1.000  O
