data_image0
_cell_length_a       9.99572
_cell_length_b       5.19325
_cell_length_c       10.0025
_cell_angle_alpha    89.358
_cell_angle_beta     89.817
_cell_angle_gamma    89.5676

_symmetry_space_group_name_H-M    "P 1"
_symmetry_int_tables_number       1

loop_
  _symmetry_equiv_pos_as_xyz
  'x, y, z'

loop_
  _atom_site_label
  _atom_site_occupancy
  _atom_site_fract_x
  _atom_site_fract_y
  _atom_site_fract_z
  _atom_site_thermal_displace_type
  _atom_site_B_iso_or_equiv
  _atom_site_type_symbol
  N1       1.0000 0.06156  0.04316  0.09498  Biso   1.000  N
  Hf1      1.0000 0.13891  0.47167  0.37149  Biso   1.000  Hf
  Hf2      1.0000 0.36341  0.53062  0.12814  Biso   1.000  Hf
  Hf3      1.0000 0.36199  0.96856  0.37235  Biso   1.000  Hf
  O1       1.0000 0.02856  0.42506  0.20406  Biso   1.000  O
  O2       1.0000 0.03151  0.14515  0.45281  Biso   1.000  O
  O3       1.0000 0.47809  0.85605  0.20386  Biso   1.000  O
  O4       1.0000 0.47099  0.63908  0.45431  Biso   1.000  O
  O5       1.0000 0.28504  0.25382  0.25636  Biso   1.000  O
  O6       1.0000 0.26965  0.26505  0.50418  Biso   1.000  O
  O7       1.0000 0.22978  0.76774  0.50442  Biso   1.000  O
  O8       1.0000 0.24642  0.72583  0.26027  Biso   1.000  O
  Hf4      1.0000 0.13419  0.03540  0.62778  Biso   1.000  Hf
  Hf5      1.0000 0.14499  0.47488  0.88424  Biso   1.000  Hf
  Hf6      1.0000 0.36404  0.53648  0.62728  Biso   1.000  Hf
  Hf7      1.0000 0.36300  0.96831  0.88459  Biso   1.000  Hf
  O9       1.0000 0.02809  0.34799  0.71468  Biso   1.000  O
  O10      1.0000 0.03132  0.10755  0.97394  Biso   1.000  O
  O11      1.0000 0.46106  0.86852  0.69830  Biso   1.000  O
  O12      1.0000 0.46864  0.63635  0.94509  Biso   1.000  O
  O13      1.0000 0.26688  0.23528  0.75204  Biso   1.000  O
  O14      1.0000 0.28225  0.27244  0.99499  Biso   1.000  O
  O15      1.0000 0.23374  0.75551  0.00286  Biso   1.000  O
  O16      1.0000 0.22774  0.73659  0.75439  Biso   1.000  O
  Hf8      1.0000 0.63591  0.02691  0.12620  Biso   1.000  Hf
  Hf9      1.0000 0.63154  0.47539  0.37018  Biso   1.000  Hf
  Hf10     1.0000 0.86195  0.51618  0.11626  Biso   1.000  Hf
  Hf11     1.0000 0.86377  0.97931  0.38637  Biso   1.000  Hf
  O17      1.0000 0.54766  0.37224  0.18837  Biso   1.000  O
  O18      1.0000 0.53713  0.14013  0.44042  Biso   1.000  O
  O19      1.0000 0.97655  0.91271  0.15365  Biso   1.000  O
  O20      1.0000 0.96946  0.64806  0.44872  Biso   1.000  O
  O21      1.0000 0.77660  0.22262  0.24553  Biso   1.000  O
  O22      1.0000 0.76870  0.27404  0.49559  Biso   1.000  O
  O23      1.0000 0.73125  0.77219  0.49972  Biso   1.000  O
  O24      1.0000 0.75273  0.73508  0.24920  Biso   1.000  O
  Hf12     1.0000 0.62375  0.02978  0.62050  Biso   1.000  Hf
  Hf13     1.0000 0.62866  0.45587  0.87384  Biso   1.000  Hf
  Hf14     1.0000 0.87090  0.52304  0.62377  Biso   1.000  Hf
  Hf15     1.0000 0.85426  0.94629  0.86537  Biso   1.000  Hf
  O25      1.0000 0.53190  0.36440  0.69626  Biso   1.000  O
  O26      1.0000 0.53900  0.12496  0.94675  Biso   1.000  O
  O27      1.0000 0.96542  0.85678  0.69618  Biso   1.000  O
  O28      1.0000 0.96427  0.62117  0.94057  Biso   1.000  O
  O29      1.0000 0.76370  0.21705  0.74290  Biso   1.000  O
  O30      1.0000 0.77563  0.25091  0.99307  Biso   1.000  O
  O31      1.0000 0.72706  0.75421  0.99643  Biso   1.000  O
  O32      1.0000 0.73065  0.71811  0.74669  Biso   1.000  O
