data_image0
_cell_length_a       5.097
_cell_length_b       10.1848
_cell_length_c       10.4806
_cell_angle_alpha    89.9889
_cell_angle_beta     80.0409
_cell_angle_gamma    89.8127

_symmetry_space_group_name_H-M    "P 1"
_symmetry_int_tables_number       1

loop_
  _symmetry_equiv_pos_as_xyz
  'x, y, z'

loop_
  _atom_site_label
  _atom_site_occupancy
  _atom_site_fract_x
  _atom_site_fract_y
  _atom_site_fract_z
  _atom_site_thermal_displace_type
  _atom_site_B_iso_or_equiv
  _atom_site_type_symbol
  N1       1.0000 0.09236  0.05431  0.16959  Biso   1.000  N
  Hf1      1.0000 0.29291  0.23124  0.39539  Biso   1.000  Hf
  Hf2      1.0000 0.69212  0.26827  0.10778  Biso   1.000  Hf
  Hf3      1.0000 0.72455  0.47716  0.35083  Biso   1.000  Hf
  O1       1.0000 0.06296  0.15019  0.08996  Biso   1.000  O
  O2       1.0000 0.07152  0.09241  0.29455  Biso   1.000  O
  O3       1.0000 0.92608  0.41043  0.17309  Biso   1.000  O
  O4       1.0000 0.93650  0.33329  0.42241  Biso   1.000  O
  O5       1.0000 0.58116  0.13942  0.25688  Biso   1.000  O
  O6       1.0000 0.54547  0.11828  0.49645  Biso   1.000  O
  O7       1.0000 0.44135  0.37892  0.00988  Biso   1.000  O
  O8       1.0000 0.43305  0.37396  0.25832  Biso   1.000  O
  Hf4      1.0000 0.27341  0.01778  0.64886  Biso   1.000  Hf
  Hf5      1.0000 0.29293  0.22616  0.89288  Biso   1.000  Hf
  Hf6      1.0000 0.73168  0.26800  0.60221  Biso   1.000  Hf
  Hf7      1.0000 0.73712  0.47380  0.85641  Biso   1.000  Hf
  O9       1.0000 0.05698  0.14827  0.55934  Biso   1.000  O
  O10      1.0000 0.06883  0.08864  0.82494  Biso   1.000  O
  O11      1.0000 0.94978  0.40493  0.67726  Biso   1.000  O
  O12      1.0000 0.94229  0.33197  0.93400  Biso   1.000  O
  O13      1.0000 0.55331  0.12589  0.73712  Biso   1.000  O
  O14      1.0000 0.57056  0.13294  0.98000  Biso   1.000  O
  O15      1.0000 0.45161  0.37414  0.50876  Biso   1.000  O
  O16      1.0000 0.46101  0.36850  0.75976  Biso   1.000  O
  Hf8      1.0000 0.26610  0.52182  0.14475  Biso   1.000  Hf
  Hf9      1.0000 0.28324  0.72630  0.39346  Biso   1.000  Hf
  Hf10     1.0000 0.71148  0.77013  0.09683  Biso   1.000  Hf
  Hf11     1.0000 0.70171  0.97763  0.36103  Biso   1.000  Hf
  O17      1.0000 0.06889  0.67280  0.08030  Biso   1.000  O
  O18      1.0000 0.05999  0.58615  0.32611  Biso   1.000  O
  O19      1.0000 0.93999  0.95139  0.16638  Biso   1.000  O
  O20      1.0000 0.94800  0.84303  0.42174  Biso   1.000  O
  O21      1.0000 0.54483  0.62230  0.23715  Biso   1.000  O
  O22      1.0000 0.55522  0.61958  0.48900  Biso   1.000  O
  O23      1.0000 0.46837  0.87090  0.99894  Biso   1.000  O
  O24      1.0000 0.49782  0.85968  0.26394  Biso   1.000  O
  Hf12     1.0000 0.28352  0.52130  0.64810  Biso   1.000  Hf
  Hf13     1.0000 0.28556  0.73372  0.89713  Biso   1.000  Hf
  Hf14     1.0000 0.72942  0.76999  0.60379  Biso   1.000  Hf
  Hf15     1.0000 0.71813  0.97928  0.85831  Biso   1.000  Hf
  O25      1.0000 0.07036  0.66073  0.57512  Biso   1.000  O
  O26      1.0000 0.07427  0.58303  0.82785  Biso   1.000  O
  O27      1.0000 0.93504  0.90954  0.67775  Biso   1.000  O
  O28      1.0000 0.94916  0.84121  0.92629  Biso   1.000  O
  O29      1.0000 0.56132  0.62610  0.73991  Biso   1.000  O
  O30      1.0000 0.55828  0.61881  0.99190  Biso   1.000  O
  O31      1.0000 0.44836  0.87507  0.51148  Biso   1.000  O
  O32      1.0000 0.45119  0.87070  0.75615  Biso   1.000  O
