data_image0
_cell_length_a       10.1473
_cell_length_b       10.2682
_cell_length_c       5.25902
_cell_angle_alpha    90.2876
_cell_angle_beta     80.5238
_cell_angle_gamma    90.6558

_symmetry_space_group_name_H-M    "P 1"
_symmetry_int_tables_number       1

loop_
  _symmetry_equiv_pos_as_xyz
  'x, y, z'

loop_
  _atom_site_label
  _atom_site_occupancy
  _atom_site_fract_x
  _atom_site_fract_y
  _atom_site_fract_z
  _atom_site_thermal_displace_type
  _atom_site_B_iso_or_equiv
  _atom_site_type_symbol
  Hf1      1.0000 0.13499  0.01769  0.28700  Biso   1.000  Hf
  Hf2      1.0000 0.13686  0.22630  0.78891  Biso   1.000  Hf
  Hf3      1.0000 0.35813  0.26576  0.21441  Biso   1.000  Hf
  Hf4      1.0000 0.35177  0.48269  0.70969  Biso   1.000  Hf
  O1       1.0000 0.03378  0.16278  0.15078  Biso   1.000  O
  O2       1.0000 0.03319  0.07866  0.65134  Biso   1.000  O
  O3       1.0000 0.47134  0.38857  0.39933  Biso   1.000  O
  O4       1.0000 0.48089  0.44427  0.98124  Biso   1.000  O
  O5       1.0000 0.27378  0.12605  0.47663  Biso   1.000  O
  O6       1.0000 0.27490  0.11923  0.97634  Biso   1.000  O
  O7       1.0000 0.22189  0.37556  0.02015  Biso   1.000  O
  O8       1.0000 0.21923  0.36936  0.51633  Biso   1.000  O
  Hf5      1.0000 0.13470  0.51928  0.28534  Biso   1.000  Hf
  Hf6      1.0000 0.13352  0.72696  0.78750  Biso   1.000  Hf
  Hf7      1.0000 0.35859  0.76989  0.20360  Biso   1.000  Hf
  Hf8      1.0000 0.35903  0.97628  0.70626  Biso   1.000  Hf
  O9       1.0000 0.02751  0.66123  0.14860  Biso   1.000  O
  O10      1.0000 0.03100  0.58113  0.64787  Biso   1.000  O
  O11      1.0000 0.46299  0.91274  0.34604  Biso   1.000  O
  O12      1.0000 0.46330  0.83545  0.84518  Biso   1.000  O
  O13      1.0000 0.27283  0.62550  0.47381  Biso   1.000  O
  O14      1.0000 0.26692  0.62393  0.97795  Biso   1.000  O
  O15      1.0000 0.22077  0.87724  0.01660  Biso   1.000  O
  O16      1.0000 0.22113  0.86843  0.51672  Biso   1.000  O
  Hf9      1.0000 0.63651  0.01684  0.28436  Biso   1.000  Hf
  Hf10     1.0000 0.64950  0.21693  0.78240  Biso   1.000  Hf
  Hf11     1.0000 0.86117  0.26768  0.20443  Biso   1.000  Hf
  Hf12     1.0000 0.85822  0.47385  0.70235  Biso   1.000  Hf
  O17      1.0000 0.53281  0.15880  0.14282  Biso   1.000  O
  O18      1.0000 0.53218  0.08468  0.64417  Biso   1.000  O
  O19      1.0000 0.96425  0.41213  0.34097  Biso   1.000  O
  O20      1.0000 0.96461  0.33001  0.83965  Biso   1.000  O
  O21      1.0000 0.77816  0.12102  0.47175  Biso   1.000  O
  O22      1.0000 0.77869  0.11354  0.97619  Biso   1.000  O
  O23      1.0000 0.72589  0.37039  0.01656  Biso   1.000  O
  O24      1.0000 0.72459  0.36401  0.51601  Biso   1.000  O
  Hf13     1.0000 0.62829  0.51447  0.27695  Biso   1.000  Hf
  Hf14     1.0000 0.63313  0.72423  0.78017  Biso   1.000  Hf
  Hf15     1.0000 0.85512  0.76457  0.20207  Biso   1.000  Hf
  Hf16     1.0000 0.86068  0.97119  0.70211  Biso   1.000  Hf
  O25      1.0000 0.52986  0.66488  0.14303  Biso   1.000  O
  O26      1.0000 0.52283  0.59439  0.61982  Biso   1.000  O
  O27      1.0000 0.96312  0.90964  0.33967  Biso   1.000  O
  O28      1.0000 0.96129  0.82845  0.84135  Biso   1.000  O
  O29      1.0000 0.76966  0.62019  0.46602  Biso   1.000  O
  O30      1.0000 0.76898  0.61601  0.96533  Biso   1.000  O
  O31      1.0000 0.72066  0.87407  0.01358  Biso   1.000  O
  O32      1.0000 0.72082  0.86574  0.51306  Biso   1.000  O
  N1       1.0000 0.47474  0.33384  0.84275  Biso   1.000  N
