data_image0
_cell_length_a       10.1569
_cell_length_b       10.23
_cell_length_c       5.02846
_cell_angle_alpha    90.0935
_cell_angle_beta     92.7218
_cell_angle_gamma    90.9759

_symmetry_space_group_name_H-M    "P 1"
_symmetry_int_tables_number       1

loop_
  _symmetry_equiv_pos_as_xyz
  'x, y, z'

loop_
  _atom_site_label
  _atom_site_occupancy
  _atom_site_fract_x
  _atom_site_fract_y
  _atom_site_fract_z
  _atom_site_thermal_displace_type
  _atom_site_B_iso_or_equiv
  _atom_site_type_symbol
  Hf1      1.0000 0.13344  0.99024  0.30339  Biso   1.000  Hf
  Hf2      1.0000 0.12296  0.27413  0.69313  Biso   1.000  Hf
  Hf3      1.0000 0.36488  0.23353  0.25410  Biso   1.000  Hf
  Hf4      1.0000 0.38779  0.00934  0.75808  Biso   1.000  Hf
  O1       1.0000 0.97307  0.18654  0.96329  Biso   1.000  O
  O2       1.0000 0.99282  0.11183  0.50070  Biso   1.000  O
  O3       1.0000 0.00099  0.36496  0.40556  Biso   1.000  O
  O4       1.0000 0.04256  0.42957  0.90138  Biso   1.000  O
  O5       1.0000 0.25388  0.14107  0.54297  Biso   1.000  O
  O6       1.0000 0.29780  0.05325  0.09769  Biso   1.000  O
  O7       1.0000 0.29278  0.33104  0.92876  Biso   1.000  O
  O8       1.0000 0.24938  0.39252  0.44595  Biso   1.000  O
  Hf5      1.0000 0.11387  0.51625  0.24702  Biso   1.000  Hf
  Hf6      1.0000 0.13256  0.73896  0.75693  Biso   1.000  Hf
  Hf7      1.0000 0.37675  0.74214  0.25051  Biso   1.000  Hf
  Hf8      1.0000 0.37485  0.49260  0.73914  Biso   1.000  Hf
  O9       1.0000 0.99154  0.66124  0.00826  Biso   1.000  O
  O10      1.0000 0.99657  0.61415  0.50009  Biso   1.000  O
  O11      1.0000 0.99534  0.85856  0.56160  Biso   1.000  O
  O12      1.0000 0.97344  0.92648  0.07491  Biso   1.000  O
  O13      1.0000 0.25114  0.63925  0.50409  Biso   1.000  O
  O14      1.0000 0.25569  0.59126  0.99494  Biso   1.000  O
  O15      1.0000 0.20840  0.82287  0.10389  Biso   1.000  O
  O16      1.0000 0.24581  0.88998  0.60148  Biso   1.000  O
  Hf9      1.0000 0.61907  0.00155  0.25511  Biso   1.000  Hf
  Hf10     1.0000 0.62281  0.26098  0.75012  Biso   1.000  Hf
  Hf11     1.0000 0.85317  0.24385  0.28256  Biso   1.000  Hf
  Hf12     1.0000 0.86910  0.00160  0.75845  Biso   1.000  Hf
  O17      1.0000 0.50947  0.15627  0.00371  Biso   1.000  O
  O18      1.0000 0.50405  0.10897  0.50359  Biso   1.000  O
  O19      1.0000 0.50175  0.35399  0.46189  Biso   1.000  O
  O20      1.0000 0.53472  0.41368  0.94608  Biso   1.000  O
  O21      1.0000 0.74526  0.14318  0.53729  Biso   1.000  O
  O22      1.0000 0.74960  0.10215  0.03238  Biso   1.000  O
  O23      1.0000 0.77940  0.35499  0.97518  Biso   1.000  O
  O24      1.0000 0.75105  0.39679  0.48798  Biso   1.000  O
  Hf13     1.0000 0.62245  0.50776  0.25794  Biso   1.000  Hf
  Hf14     1.0000 0.61977  0.74886  0.75476  Biso   1.000  Hf
  Hf15     1.0000 0.87373  0.76392  0.26554  Biso   1.000  Hf
  Hf16     1.0000 0.86931  0.51389  0.76257  Biso   1.000  Hf
  O25      1.0000 0.49572  0.64838  0.99652  Biso   1.000  O
  O26      1.0000 0.49841  0.60507  0.49279  Biso   1.000  O
  O27      1.0000 0.49518  0.85821  0.50995  Biso   1.000  O
  O28      1.0000 0.49314  0.88950  0.01201  Biso   1.000  O
  O29      1.0000 0.74838  0.65054  0.51656  Biso   1.000  O
  O30      1.0000 0.74927  0.60735  0.01623  Biso   1.000  O
  O31      1.0000 0.74193  0.85582  0.99595  Biso   1.000  O
  O32      1.0000 0.74776  0.89734  0.49484  Biso   1.000  O
  N1       1.0000 0.09771  0.15622  0.03323  Biso   1.000  N
