data_image0
_cell_length_a       10.0517
_cell_length_b       10.2408
_cell_length_c       5.24716
_cell_angle_alpha    89.8493
_cell_angle_beta     89.7903
_cell_angle_gamma    90.5904

_symmetry_space_group_name_H-M    "P 1"
_symmetry_int_tables_number       1

loop_
  _symmetry_equiv_pos_as_xyz
  'x, y, z'

loop_
  _atom_site_label
  _atom_site_occupancy
  _atom_site_fract_x
  _atom_site_fract_y
  _atom_site_fract_z
  _atom_site_thermal_displace_type
  _atom_site_B_iso_or_equiv
  _atom_site_type_symbol
  Hf1      1.0000 0.14261  0.02503  0.33528  Biso   1.000  Hf
  Hf2      1.0000 0.13809  0.23191  0.83918  Biso   1.000  Hf
  Hf3      1.0000 0.35044  0.28291  0.33836  Biso   1.000  Hf
  Hf4      1.0000 0.36318  0.48333  0.83703  Biso   1.000  Hf
  Hf5      1.0000 0.64828  0.01697  0.15797  Biso   1.000  Hf
  Hf6      1.0000 0.64171  0.23416  0.66295  Biso   1.000  Hf
  Hf7      1.0000 0.86296  0.27367  0.15516  Biso   1.000  Hf
  Hf8      1.0000 0.86410  0.48245  0.65247  Biso   1.000  Hf
  O1       1.0000 0.03395  0.16990  0.16456  Biso   1.000  O
  O2       1.0000 0.03550  0.08774  0.66065  Biso   1.000  O
  O3       1.0000 0.46894  0.41366  0.15488  Biso   1.000  O
  O4       1.0000 0.46836  0.34218  0.65387  Biso   1.000  O
  O5       1.0000 0.27542  0.13253  0.58531  Biso   1.000  O
  O6       1.0000 0.27550  0.13179  0.08397  Biso   1.000  O
  O7       1.0000 0.22132  0.38096  0.58841  Biso   1.000  O
  O8       1.0000 0.22123  0.38419  0.08350  Biso   1.000  O
  O9       1.0000 0.52312  0.05744  0.48035  Biso   1.000  O
  O10      1.0000 0.52806  0.11275  0.89386  Biso   1.000  O
  O11      1.0000 0.96836  0.41986  0.32853  Biso   1.000  O
  O12      1.0000 0.96731  0.33785  0.82861  Biso   1.000  O
  O13      1.0000 0.78026  0.12505  0.90650  Biso   1.000  O
  O14      1.0000 0.77921  0.12952  0.41045  Biso   1.000  O
  O15      1.0000 0.72526  0.37612  0.90763  Biso   1.000  O
  O16      1.0000 0.72524  0.37812  0.40809  Biso   1.000  O
  Hf9      1.0000 0.13917  0.52845  0.33820  Biso   1.000  Hf
  Hf10     1.0000 0.14424  0.73559  0.83476  Biso   1.000  Hf
  Hf11     1.0000 0.36643  0.77527  0.33183  Biso   1.000  Hf
  Hf12     1.0000 0.37107  0.98654  0.82872  Biso   1.000  Hf
  Hf13     1.0000 0.64063  0.52299  0.15436  Biso   1.000  Hf
  Hf14     1.0000 0.64116  0.73002  0.65118  Biso   1.000  Hf
  Hf15     1.0000 0.86624  0.77280  0.14946  Biso   1.000  Hf
  Hf16     1.0000 0.86515  0.98155  0.65036  Biso   1.000  Hf
  O17      1.0000 0.03747  0.67090  0.15935  Biso   1.000  O
  O18      1.0000 0.03449  0.59109  0.66059  Biso   1.000  O
  O19      1.0000 0.47714  0.90557  0.13154  Biso   1.000  O
  O20      1.0000 0.47154  0.83663  0.65493  Biso   1.000  O
  O21      1.0000 0.27862  0.62859  0.58371  Biso   1.000  O
  O22      1.0000 0.27950  0.63146  0.08303  Biso   1.000  O
  O23      1.0000 0.22986  0.87946  0.57577  Biso   1.000  O
  O24      1.0000 0.23006  0.88338  0.07587  Biso   1.000  O
  O25      1.0000 0.53438  0.66291  0.33451  Biso   1.000  O
  O26      1.0000 0.53514  0.58869  0.83534  Biso   1.000  O
  O27      1.0000 0.97099  0.91933  0.32416  Biso   1.000  O
  O28      1.0000 0.97150  0.83816  0.82564  Biso   1.000  O
  O29      1.0000 0.77867  0.62607  0.90542  Biso   1.000  O
  O30      1.0000 0.77872  0.62686  0.40402  Biso   1.000  O
  O31      1.0000 0.72798  0.87666  0.90348  Biso   1.000  O
  O32      1.0000 0.73274  0.87261  0.40483  Biso   1.000  O
  N1       1.0000 0.52433  0.16632  0.33402  Biso   1.000  N
