data_image0
_cell_length_a       4.99727
_cell_length_b       10.3471
_cell_length_c       9.99555
_cell_angle_alpha    89.9051
_cell_angle_beta     89.0995
_cell_angle_gamma    90.0391

_symmetry_space_group_name_H-M    "P 1"
_symmetry_int_tables_number       1

loop_
  _symmetry_equiv_pos_as_xyz
  'x, y, z'

loop_
  _atom_site_label
  _atom_site_occupancy
  _atom_site_fract_x
  _atom_site_fract_y
  _atom_site_fract_z
  _atom_site_thermal_displace_type
  _atom_site_B_iso_or_equiv
  _atom_site_type_symbol
  N1       1.0000 0.08805  0.05379  0.11405  Biso   1.000  N
  Hf1      1.0000 0.28953  0.22958  0.37895  Biso   1.000  Hf
  Hf2      1.0000 0.70211  0.26853  0.12118  Biso   1.000  Hf
  Hf3      1.0000 0.74161  0.48156  0.37607  Biso   1.000  Hf
  O1       1.0000 0.08596  0.17072  0.17309  Biso   1.000  O
  O2       1.0000 0.07502  0.06886  0.44506  Biso   1.000  O
  O3       1.0000 0.92579  0.42484  0.19604  Biso   1.000  O
  O4       1.0000 0.94003  0.31414  0.44676  Biso   1.000  O
  O5       1.0000 0.58577  0.13469  0.26063  Biso   1.000  O
  O6       1.0000 0.54002  0.13023  0.50570  Biso   1.000  O
  O7       1.0000 0.46789  0.37912  0.49959  Biso   1.000  O
  O8       1.0000 0.43857  0.36947  0.24842  Biso   1.000  O
  Hf4      1.0000 0.25776  0.01129  0.62611  Biso   1.000  Hf
  Hf5      1.0000 0.27570  0.23455  0.87756  Biso   1.000  Hf
  Hf6      1.0000 0.73997  0.26276  0.62741  Biso   1.000  Hf
  Hf7      1.0000 0.73781  0.48229  0.87346  Biso   1.000  Hf
  O9       1.0000 0.05625  0.17547  0.71059  Biso   1.000  O
  O10      1.0000 0.05114  0.06395  0.98288  Biso   1.000  O
  O11      1.0000 0.93510  0.43115  0.69306  Biso   1.000  O
  O12      1.0000 0.93258  0.31769  0.94445  Biso   1.000  O
  O13      1.0000 0.52197  0.11155  0.74893  Biso   1.000  O
  O14      1.0000 0.54931  0.13739  0.99038  Biso   1.000  O
  O15      1.0000 0.45460  0.38380  0.99937  Biso   1.000  O
  O16      1.0000 0.46360  0.36396  0.74988  Biso   1.000  O
  Hf8      1.0000 0.26066  0.51744  0.12901  Biso   1.000  Hf
  Hf9      1.0000 0.28738  0.73713  0.37276  Biso   1.000  Hf
  Hf10     1.0000 0.73148  0.75790  0.11360  Biso   1.000  Hf
  Hf11     1.0000 0.73016  0.98840  0.37676  Biso   1.000  Hf
  O17      1.0000 0.07969  0.69207  0.19484  Biso   1.000  O
  O18      1.0000 0.08060  0.56595  0.44144  Biso   1.000  O
  O19      1.0000 0.95596  0.96313  0.17646  Biso   1.000  O
  O20      1.0000 0.95233  0.82284  0.44854  Biso   1.000  O
  O21      1.0000 0.54445  0.60945  0.24639  Biso   1.000  O
  O22      1.0000 0.55005  0.63286  0.49714  Biso   1.000  O
  O23      1.0000 0.46795  0.88368  0.50100  Biso   1.000  O
  O24      1.0000 0.53793  0.85441  0.25881  Biso   1.000  O
  Hf12     1.0000 0.27201  0.51766  0.62277  Biso   1.000  Hf
  Hf13     1.0000 0.26946  0.73306  0.87800  Biso   1.000  Hf
  Hf14     1.0000 0.74155  0.76725  0.62425  Biso   1.000  Hf
  Hf15     1.0000 0.69660  0.97789  0.88139  Biso   1.000  Hf
  O25      1.0000 0.07367  0.68142  0.69376  Biso   1.000  O
  O26      1.0000 0.06227  0.56855  0.95045  Biso   1.000  O
  O27      1.0000 0.92179  0.93296  0.70137  Biso   1.000  O
  O28      1.0000 0.93092  0.81881  0.94000  Biso   1.000  O
  O29      1.0000 0.54294  0.61567  0.74786  Biso   1.000  O
  O30      1.0000 0.53778  0.62536  0.99838  Biso   1.000  O
  O31      1.0000 0.46029  0.86926  0.99749  Biso   1.000  O
  O32      1.0000 0.45201  0.86602  0.74790  Biso   1.000  O
