data_image0
_cell_length_a       10.098
_cell_length_b       10.3318
_cell_length_c       10.5043
_cell_angle_alpha    89.9138
_cell_angle_beta     89.9177
_cell_angle_gamma    90.1031

_symmetry_space_group_name_H-M    "P 1"
_symmetry_int_tables_number       1

loop_
  _symmetry_equiv_pos_as_xyz
  'x, y, z'

loop_
  _atom_site_label
  _atom_site_occupancy
  _atom_site_fract_x
  _atom_site_fract_y
  _atom_site_fract_z
  _atom_site_thermal_displace_type
  _atom_site_B_iso_or_equiv
  _atom_site_type_symbol
  Zr1      1.0000 0.13879  0.02302  0.17140  Biso   1.000  Zr
  Zr2      1.0000 0.13877  0.23083  0.42154  Biso   1.000  Zr
  Zr3      1.0000 0.36037  0.27340  0.16835  Biso   1.000  Zr
  Zr4      1.0000 0.36338  0.47903  0.41969  Biso   1.000  Zr
  Zr5      1.0000 0.64548  0.01524  0.07225  Biso   1.000  Zr
  Zr6      1.0000 0.64370  0.23211  0.33320  Biso   1.000  Zr
  Zr7      1.0000 0.85979  0.27132  0.07974  Biso   1.000  Zr
  Zr8      1.0000 0.86355  0.48093  0.32927  Biso   1.000  Zr
  O1       1.0000 0.03332  0.16733  0.08411  Biso   1.000  O
  O2       1.0000 0.03170  0.08542  0.33472  Biso   1.000  O
  O3       1.0000 0.45693  0.43537  0.09075  Biso   1.000  O
  O4       1.0000 0.46979  0.33165  0.33011  Biso   1.000  O
  O5       1.0000 0.27130  0.12836  0.29614  Biso   1.000  O
  O6       1.0000 0.27794  0.12644  0.04393  Biso   1.000  O
  O7       1.0000 0.22606  0.37774  0.29527  Biso   1.000  O
  O8       1.0000 0.22309  0.37581  0.04460  Biso   1.000  O
  O9       1.0000 0.51016  0.11682  0.19489  Biso   1.000  O
  O10      1.0000 0.53290  0.09131  0.42479  Biso   1.000  O
  O11      1.0000 0.96813  0.41631  0.16607  Biso   1.000  O
  O12      1.0000 0.96719  0.33533  0.41687  Biso   1.000  O
  O13      1.0000 0.77737  0.12512  0.45709  Biso   1.000  O
  O14      1.0000 0.77366  0.12604  0.20765  Biso   1.000  O
  O15      1.0000 0.72497  0.37369  0.45666  Biso   1.000  O
  O16      1.0000 0.72634  0.37899  0.20784  Biso   1.000  O
  Zr9      1.0000 0.14075  0.02206  0.67034  Biso   1.000  Zr
  Zr10     1.0000 0.13901  0.22973  0.92088  Biso   1.000  Zr
  Zr11     1.0000 0.36265  0.27167  0.67222  Biso   1.000  Zr
  Zr12     1.0000 0.36158  0.48198  0.92115  Biso   1.000  Zr
  Zr13     1.0000 0.63975  0.02282  0.58149  Biso   1.000  Zr
  Zr14     1.0000 0.63901  0.22933  0.83260  Biso   1.000  Zr
  Zr15     1.0000 0.86268  0.27160  0.58137  Biso   1.000  Zr
  Zr16     1.0000 0.86181  0.47984  0.83030  Biso   1.000  Zr
  O17      1.0000 0.03413  0.16747  0.58510  Biso   1.000  O
  O18      1.0000 0.03530  0.08391  0.83350  Biso   1.000  O
  O19      1.0000 0.46863  0.41584  0.58302  Biso   1.000  O
  O20      1.0000 0.46670  0.33297  0.83868  Biso   1.000  O
  O21      1.0000 0.27679  0.12485  0.79447  Biso   1.000  O
  O22      1.0000 0.27654  0.12726  0.54540  Biso   1.000  O
  O23      1.0000 0.22503  0.37505  0.79459  Biso   1.000  O
  O24      1.0000 0.22600  0.37655  0.54469  Biso   1.000  O
  O25      1.0000 0.53450  0.16816  0.66878  Biso   1.000  O
  O26      1.0000 0.53710  0.07479  0.90765  Biso   1.000  O
  O27      1.0000 0.96748  0.41743  0.66629  Biso   1.000  O
  O28      1.0000 0.96655  0.33381  0.91587  Biso   1.000  O
  O29      1.0000 0.78158  0.12316  0.95354  Biso   1.000  O
  O30      1.0000 0.77667  0.12672  0.70634  Biso   1.000  O
  O31      1.0000 0.72459  0.37569  0.95745  Biso   1.000  O
  O32      1.0000 0.72472  0.37612  0.70718  Biso   1.000  O
  Zr17     1.0000 0.14050  0.52191  0.17073  Biso   1.000  Zr
  Zr18     1.0000 0.14079  0.73034  0.42011  Biso   1.000  Zr
  Zr19     1.0000 0.36235  0.77324  0.17006  Biso   1.000  Zr
  Zr20     1.0000 0.36280  0.98217  0.42127  Biso   1.000  Zr
  Zr21     1.0000 0.63714  0.52296  0.08033  Biso   1.000  Zr
  Zr22     1.0000 0.63974  0.73102  0.32892  Biso   1.000  Zr
  Zr23     1.0000 0.86374  0.77008  0.07942  Biso   1.000  Zr
  Zr24     1.0000 0.86193  0.97950  0.32931  Biso   1.000  Zr
  O33      1.0000 0.03407  0.66641  0.08415  Biso   1.000  O
  O34      1.0000 0.03482  0.58536  0.33342  Biso   1.000  O
  O35      1.0000 0.47028  0.91039  0.07542  Biso   1.000  O
  O36      1.0000 0.46945  0.83924  0.33226  Biso   1.000  O
  O37      1.0000 0.27761  0.62626  0.29394  Biso   1.000  O
  O38      1.0000 0.27506  0.62875  0.04326  Biso   1.000  O
  O39      1.0000 0.22630  0.87679  0.29420  Biso   1.000  O
  O40      1.0000 0.22447  0.87761  0.04429  Biso   1.000  O
  O41      1.0000 0.53606  0.67164  0.16531  Biso   1.000  O
  O42      1.0000 0.53490  0.58377  0.41434  Biso   1.000  O
  O43      1.0000 0.96794  0.91732  0.16558  Biso   1.000  O
  O44      1.0000 0.96801  0.83370  0.41491  Biso   1.000  O
  O45      1.0000 0.77686  0.62477  0.45565  Biso   1.000  O
  O46      1.0000 0.77655  0.62643  0.20581  Biso   1.000  O
  O47      1.0000 0.72515  0.87580  0.45569  Biso   1.000  O
  O48      1.0000 0.72768  0.87497  0.20479  Biso   1.000  O
  Zr25     1.0000 0.13981  0.52149  0.67045  Biso   1.000  Zr
  Zr26     1.0000 0.13953  0.72984  0.92012  Biso   1.000  Zr
  Zr27     1.0000 0.36258  0.77099  0.66904  Biso   1.000  Zr
  Zr28     1.0000 0.36127  0.97731  0.91863  Biso   1.000  Zr
  Zr29     1.0000 0.64014  0.52151  0.57933  Biso   1.000  Zr
  Zr30     1.0000 0.63987  0.72889  0.82761  Biso   1.000  Zr
  Zr31     1.0000 0.86283  0.77162  0.57832  Biso   1.000  Zr
  Zr32     1.0000 0.86423  0.97914  0.82746  Biso   1.000  Zr
  O49      1.0000 0.03507  0.66726  0.58379  Biso   1.000  O
  O50      1.0000 0.03422  0.58413  0.83428  Biso   1.000  O
  O51      1.0000 0.46809  0.91687  0.58364  Biso   1.000  O
  O52      1.0000 0.46725  0.83182  0.83122  Biso   1.000  O
  O53      1.0000 0.27635  0.62514  0.79327  Biso   1.000  O
  O54      1.0000 0.27738  0.62572  0.54287  Biso   1.000  O
  O55      1.0000 0.22540  0.87449  0.79313  Biso   1.000  O
  O56      1.0000 0.22623  0.87700  0.54330  Biso   1.000  O
  O57      1.0000 0.53463  0.66637  0.66370  Biso   1.000  O
  O58      1.0000 0.53526  0.58307  0.91338  Biso   1.000  O
  O59      1.0000 0.96898  0.91703  0.66416  Biso   1.000  O
  O60      1.0000 0.96868  0.83421  0.91555  Biso   1.000  O
  O61      1.0000 0.77622  0.62518  0.95556  Biso   1.000  O
  O62      1.0000 0.77696  0.62594  0.70521  Biso   1.000  O
  O63      1.0000 0.72766  0.87306  0.95386  Biso   1.000  O
  O64      1.0000 0.72651  0.87569  0.70504  Biso   1.000  O
  N1       1.0000 0.55461  0.20733  0.10978  Biso   1.000  N
