data_image0
_cell_length_a       5.01909
_cell_length_b       10.4494
_cell_length_c       10.1441
_cell_angle_alpha    89.6743
_cell_angle_beta     89.0262
_cell_angle_gamma    90.6758

_symmetry_space_group_name_H-M    "P 1"
_symmetry_int_tables_number       1

loop_
  _symmetry_equiv_pos_as_xyz
  'x, y, z'

loop_
  _atom_site_label
  _atom_site_occupancy
  _atom_site_fract_x
  _atom_site_fract_y
  _atom_site_fract_z
  _atom_site_thermal_displace_type
  _atom_site_B_iso_or_equiv
  _atom_site_type_symbol
  Zr1      1.0000 0.28899  0.00433  0.11583  Biso   1.000  Zr
  Zr2      1.0000 0.28824  0.23681  0.39566  Biso   1.000  Zr
  Zr3      1.0000 0.69909  0.27071  0.11604  Biso   1.000  Zr
  Zr4      1.0000 0.74163  0.48532  0.37352  Biso   1.000  Zr
  O1       1.0000 0.99802  0.19788  0.24733  Biso   1.000  O
  O2       1.0000 0.08251  0.06647  0.45313  Biso   1.000  O
  O3       1.0000 0.91436  0.43678  0.18623  Biso   1.000  O
  O4       1.0000 0.94833  0.32495  0.45462  Biso   1.000  O
  O5       1.0000 0.50653  0.11744  0.25007  Biso   1.000  O
  O6       1.0000 0.56399  0.13458  0.50272  Biso   1.000  O
  O7       1.0000 0.47945  0.38571  0.50444  Biso   1.000  O
  O8       1.0000 0.44142  0.36982  0.25551  Biso   1.000  O
  Zr5      1.0000 0.28205  0.01634  0.62865  Biso   1.000  Zr
  Zr6      1.0000 0.26225  0.23261  0.87634  Biso   1.000  Zr
  Zr7      1.0000 0.74600  0.27074  0.63278  Biso   1.000  Zr
  Zr8      1.0000 0.73178  0.48716  0.87434  Biso   1.000  Zr
  O9       1.0000 0.08867  0.18772  0.69000  Biso   1.000  O
  O10      1.0000 0.09830  0.05392  0.92308  Biso   1.000  O
  O11      1.0000 0.92941  0.44098  0.69411  Biso   1.000  O
  O12      1.0000 0.90670  0.31563  0.92428  Biso   1.000  O
  O13      1.0000 0.55052  0.11972  0.74939  Biso   1.000  O
  O14      1.0000 0.55419  0.12670  0.99419  Biso   1.000  O
  O15      1.0000 0.44610  0.38359  0.99996  Biso   1.000  O
  O16      1.0000 0.45691  0.36986  0.75121  Biso   1.000  O
  Zr9      1.0000 0.26557  0.51861  0.12874  Biso   1.000  Zr
  Zr10     1.0000 0.27892  0.73692  0.37611  Biso   1.000  Zr
  Zr11     1.0000 0.74242  0.76411  0.12415  Biso   1.000  Zr
  Zr12     1.0000 0.74602  0.99043  0.37318  Biso   1.000  Zr
  O17      1.0000 0.07835  0.68730  0.19548  Biso   1.000  O
  O18      1.0000 0.07727  0.56927  0.44270  Biso   1.000  O
  O19      1.0000 0.93470  0.94157  0.19062  Biso   1.000  O
  O20      1.0000 0.93650  0.82006  0.43930  Biso   1.000  O
  O21      1.0000 0.54376  0.61824  0.24918  Biso   1.000  O
  O22      1.0000 0.54626  0.63484  0.49713  Biso   1.000  O
  O23      1.0000 0.47126  0.88639  0.49693  Biso   1.000  O
  O24      1.0000 0.47528  0.86597  0.24670  Biso   1.000  O
  Zr13     1.0000 0.27338  0.51759  0.62507  Biso   1.000  Zr
  Zr14     1.0000 0.27368  0.73221  0.87383  Biso   1.000  Zr
  Zr15     1.0000 0.74247  0.76686  0.62100  Biso   1.000  Zr
  Zr16     1.0000 0.74324  0.98316  0.86934  Biso   1.000  Zr
  O25      1.0000 0.07774  0.68615  0.69256  Biso   1.000  O
  O26      1.0000 0.07194  0.56673  0.94573  Biso   1.000  O
  O27      1.0000 0.93641  0.93314  0.68986  Biso   1.000  O
  O28      1.0000 0.94149  0.81579  0.94539  Biso   1.000  O
  O29      1.0000 0.54268  0.61832  0.74718  Biso   1.000  O
  O30      1.0000 0.54088  0.63243  0.99965  Biso   1.000  O
  O31      1.0000 0.47638  0.87677  0.99469  Biso   1.000  O
  O32      1.0000 0.47121  0.86657  0.74664  Biso   1.000  O
  N1       1.0000 0.07468  0.18393  0.12318  Biso   1.000  N
