data_image0
_cell_length_a       10.1778
_cell_length_b       10.3735
_cell_length_c       10.5035
_cell_angle_alpha    90.1236
_cell_angle_beta     80.531
_cell_angle_gamma    90.1498

_symmetry_space_group_name_H-M    "P 1"
_symmetry_int_tables_number       1

loop_
  _symmetry_equiv_pos_as_xyz
  'x, y, z'

loop_
  _atom_site_label
  _atom_site_occupancy
  _atom_site_fract_x
  _atom_site_fract_y
  _atom_site_fract_z
  _atom_site_thermal_displace_type
  _atom_site_B_iso_or_equiv
  _atom_site_type_symbol
  Zr1      1.0000 0.13820  0.02114  0.14654  Biso   1.000  Zr
  Zr2      1.0000 0.14170  0.22837  0.39532  Biso   1.000  Zr
  Zr3      1.0000 0.36110  0.27100  0.10763  Biso   1.000  Zr
  Zr4      1.0000 0.35387  0.48462  0.34778  Biso   1.000  Zr
  O1       1.0000 0.03454  0.16932  0.08135  Biso   1.000  O
  O2       1.0000 0.03563  0.07972  0.33154  Biso   1.000  O
  O3       1.0000 0.46069  0.42693  0.16323  Biso   1.000  O
  O4       1.0000 0.49107  0.38126  0.44471  Biso   1.000  O
  O5       1.0000 0.27628  0.12779  0.24217  Biso   1.000  O
  O6       1.0000 0.27510  0.11671  0.49312  Biso   1.000  O
  O7       1.0000 0.22301  0.37784  0.00950  Biso   1.000  O
  O8       1.0000 0.21712  0.37221  0.25667  Biso   1.000  O
  Zr5      1.0000 0.13679  0.01889  0.64575  Biso   1.000  Zr
  Zr6      1.0000 0.13697  0.22773  0.89730  Biso   1.000  Zr
  Zr7      1.0000 0.35622  0.26842  0.60935  Biso   1.000  Zr
  Zr8      1.0000 0.36002  0.47660  0.85687  Biso   1.000  Zr
  O9       1.0000 0.03737  0.16931  0.58073  Biso   1.000  O
  O10      1.0000 0.03475  0.07893  0.83086  Biso   1.000  O
  O11      1.0000 0.46501  0.41148  0.67871  Biso   1.000  O
  O12      1.0000 0.46317  0.32893  0.92283  Biso   1.000  O
  O13      1.0000 0.27469  0.12906  0.74219  Biso   1.000  O
  O14      1.0000 0.27532  0.12059  0.99205  Biso   1.000  O
  O15      1.0000 0.22712  0.37842  0.51028  Biso   1.000  O
  O16      1.0000 0.22167  0.37009  0.76049  Biso   1.000  O
  Zr9      1.0000 0.13555  0.52032  0.14344  Biso   1.000  Zr
  Zr10     1.0000 0.13587  0.72965  0.39559  Biso   1.000  Zr
  Zr11     1.0000 0.35985  0.77129  0.10337  Biso   1.000  Zr
  Zr12     1.0000 0.36298  0.97657  0.35550  Biso   1.000  Zr
  O17      1.0000 0.03424  0.66978  0.07966  Biso   1.000  O
  O18      1.0000 0.03433  0.57975  0.33016  Biso   1.000  O
  O19      1.0000 0.46239  0.91974  0.16779  Biso   1.000  O
  O20      1.0000 0.46144  0.82591  0.41994  Biso   1.000  O
  O21      1.0000 0.27231  0.62969  0.23938  Biso   1.000  O
  O22      1.0000 0.27134  0.62113  0.49023  Biso   1.000  O
  O23      1.0000 0.22285  0.87871  0.00955  Biso   1.000  O
  O24      1.0000 0.22354  0.87044  0.25972  Biso   1.000  O
  Zr13     1.0000 0.13746  0.52134  0.64514  Biso   1.000  Zr
  Zr14     1.0000 0.13758  0.72831  0.89485  Biso   1.000  Zr
  Zr15     1.0000 0.36033  0.76928  0.60444  Biso   1.000  Zr
  Zr16     1.0000 0.35982  0.97809  0.85521  Biso   1.000  Zr
  O25      1.0000 0.03279  0.66892  0.58086  Biso   1.000  O
  O26      1.0000 0.03469  0.57979  0.83029  Biso   1.000  O
  O27      1.0000 0.46268  0.91887  0.66881  Biso   1.000  O
  O28      1.0000 0.46281  0.83045  0.91812  Biso   1.000  O
  O29      1.0000 0.27519  0.62734  0.74026  Biso   1.000  O
  O30      1.0000 0.27399  0.62075  0.99031  Biso   1.000  O
  O31      1.0000 0.22269  0.87718  0.51002  Biso   1.000  O
  O32      1.0000 0.22306  0.87029  0.75961  Biso   1.000  O
  Zr17     1.0000 0.63821  0.01864  0.14560  Biso   1.000  Zr
  Zr18     1.0000 0.63974  0.22587  0.39294  Biso   1.000  Zr
  Zr19     1.0000 0.85925  0.27058  0.10448  Biso   1.000  Zr
  Zr20     1.0000 0.86098  0.47658  0.35533  Biso   1.000  Zr
  O33      1.0000 0.53591  0.16976  0.08383  Biso   1.000  O
  O34      1.0000 0.54553  0.06277  0.33408  Biso   1.000  O
  O35      1.0000 0.96098  0.41983  0.16860  Biso   1.000  O
  O36      1.0000 0.96637  0.32900  0.41884  Biso   1.000  O
  O37      1.0000 0.77702  0.12879  0.24030  Biso   1.000  O
  O38      1.0000 0.77488  0.11862  0.49084  Biso   1.000  O
  O39      1.0000 0.72323  0.37865  0.00921  Biso   1.000  O
  O40      1.0000 0.72098  0.37049  0.25936  Biso   1.000  O
  Zr21     1.0000 0.63674  0.02137  0.64380  Biso   1.000  Zr
  Zr22     1.0000 0.63754  0.22812  0.89610  Biso   1.000  Zr
  Zr23     1.0000 0.86229  0.26954  0.60468  Biso   1.000  Zr
  Zr24     1.0000 0.86028  0.47749  0.85464  Biso   1.000  Zr
  O41      1.0000 0.53231  0.17032  0.57593  Biso   1.000  O
  O42      1.0000 0.53376  0.08126  0.82885  Biso   1.000  O
  O43      1.0000 0.96390  0.41858  0.66987  Biso   1.000  O
  O44      1.0000 0.96310  0.32949  0.91964  Biso   1.000  O
  O45      1.0000 0.77441  0.12781  0.74009  Biso   1.000  O
  O46      1.0000 0.77481  0.12027  0.99014  Biso   1.000  O
  O47      1.0000 0.72879  0.37660  0.51078  Biso   1.000  O
  O48      1.0000 0.72384  0.36937  0.76038  Biso   1.000  O
  Zr25     1.0000 0.63877  0.52328  0.14299  Biso   1.000  Zr
  Zr26     1.0000 0.63783  0.72683  0.39417  Biso   1.000  Zr
  Zr27     1.0000 0.86050  0.77069  0.10403  Biso   1.000  Zr
  Zr28     1.0000 0.86020  0.97780  0.35439  Biso   1.000  Zr
  O49      1.0000 0.53497  0.67095  0.07720  Biso   1.000  O
  O50      1.0000 0.53096  0.58784  0.32125  Biso   1.000  O
  O51      1.0000 0.96397  0.91925  0.16934  Biso   1.000  O
  O52      1.0000 0.96168  0.82956  0.41970  Biso   1.000  O
  O53      1.0000 0.77567  0.62718  0.24008  Biso   1.000  O
  O54      1.0000 0.77368  0.61924  0.48993  Biso   1.000  O
  O55      1.0000 0.72330  0.87807  0.00849  Biso   1.000  O
  O56      1.0000 0.72528  0.86791  0.25790  Biso   1.000  O
  Zr29     1.0000 0.63764  0.51826  0.64584  Biso   1.000  Zr
  Zr30     1.0000 0.63739  0.72830  0.89385  Biso   1.000  Zr
  Zr31     1.0000 0.85828  0.77011  0.60433  Biso   1.000  Zr
  Zr32     1.0000 0.85950  0.97804  0.85428  Biso   1.000  Zr
  O57      1.0000 0.53289  0.66366  0.57851  Biso   1.000  O
  O58      1.0000 0.53423  0.57992  0.83005  Biso   1.000  O
  O59      1.0000 0.96210  0.91892  0.66880  Biso   1.000  O
  O60      1.0000 0.96311  0.82989  0.91859  Biso   1.000  O
  O61      1.0000 0.77413  0.62746  0.73974  Biso   1.000  O
  O62      1.0000 0.77497  0.62090  0.98931  Biso   1.000  O
  O63      1.0000 0.72157  0.87763  0.50911  Biso   1.000  O
  O64      1.0000 0.72184  0.87072  0.75822  Biso   1.000  O
  N1       1.0000 0.44209  0.29132  0.36973  Biso   1.000  N
