data_image0
_cell_length_a       10.1463
_cell_length_b       5.13318
_cell_length_c       10.5181
_cell_angle_alpha    89.5314
_cell_angle_beta     90.0961
_cell_angle_gamma    89.7074

_symmetry_space_group_name_H-M    "P 1"
_symmetry_int_tables_number       1

loop_
  _symmetry_equiv_pos_as_xyz
  'x, y, z'

loop_
  _atom_site_label
  _atom_site_occupancy
  _atom_site_fract_x
  _atom_site_fract_y
  _atom_site_fract_z
  _atom_site_thermal_displace_type
  _atom_site_B_iso_or_equiv
  _atom_site_type_symbol
  N1       1.0000 0.04170  0.11870  0.18371  Biso   1.000  N
  Zr1      1.0000 0.14141  0.04099  0.67128  Biso   1.000  Zr
  Zr2      1.0000 0.15241  0.47015  0.41835  Biso   1.000  Zr
  Zr3      1.0000 0.15536  0.45362  0.92279  Biso   1.000  Zr
  Zr4      1.0000 0.35060  0.54110  0.17198  Biso   1.000  Zr
  Zr5      1.0000 0.36411  0.54198  0.67122  Biso   1.000  Zr
  Zr6      1.0000 0.35862  0.96215  0.41490  Biso   1.000  Zr
  Zr7      1.0000 0.35876  0.95316  0.92814  Biso   1.000  Zr
  Zr8      1.0000 0.63245  0.04192  0.07984  Biso   1.000  Zr
  Zr9      1.0000 0.63669  0.03391  0.58207  Biso   1.000  Zr
  Zr10     1.0000 0.63203  0.45447  0.32799  Biso   1.000  Zr
  Zr11     1.0000 0.63746  0.45386  0.82733  Biso   1.000  Zr
  Zr12     1.0000 0.84981  0.53402  0.07177  Biso   1.000  Zr
  Zr13     1.0000 0.86552  0.53029  0.57825  Biso   1.000  Zr
  Zr14     1.0000 0.84923  0.95343  0.33831  Biso   1.000  Zr
  Zr15     1.0000 0.86915  0.94711  0.82801  Biso   1.000  Zr
  O1       1.0000 0.03320  0.31274  0.10050  Biso   1.000  O
  O2       1.0000 0.02830  0.29509  0.56389  Biso   1.000  O
  O3       1.0000 0.02530  0.19649  0.30363  Biso   1.000  O
  O4       1.0000 0.03279  0.17348  0.83053  Biso   1.000  O
  O5       1.0000 0.47288  0.81801  0.08250  Biso   1.000  O
  O6       1.0000 0.46842  0.82534  0.58102  Biso   1.000  O
  O7       1.0000 0.47484  0.68726  0.32770  Biso   1.000  O
  O8       1.0000 0.47117  0.66996  0.83036  Biso   1.000  O
  O9       1.0000 0.28389  0.26518  0.30747  Biso   1.000  O
  O10      1.0000 0.27669  0.23965  0.79180  Biso   1.000  O
  O11      1.0000 0.28870  0.26200  0.03547  Biso   1.000  O
  O12      1.0000 0.27695  0.25270  0.54870  Biso   1.000  O
  O13      1.0000 0.22908  0.74622  0.30072  Biso   1.000  O
  O14      1.0000 0.22709  0.74022  0.79350  Biso   1.000  O
  O15      1.0000 0.23235  0.73421  0.03782  Biso   1.000  O
  O16      1.0000 0.22542  0.75156  0.54543  Biso   1.000  O
  O17      1.0000 0.53264  0.32865  0.16760  Biso   1.000  O
  O18      1.0000 0.53516  0.32552  0.66721  Biso   1.000  O
  O19      1.0000 0.53625  0.16745  0.41833  Biso   1.000  O
  O20      1.0000 0.53727  0.16378  0.91663  Biso   1.000  O
  O21      1.0000 0.97021  0.91314  0.16182  Biso   1.000  O
  O22      1.0000 0.97536  0.80068  0.67457  Biso   1.000  O
  O23      1.0000 0.96958  0.68128  0.41400  Biso   1.000  O
  O24      1.0000 0.97345  0.66040  0.93302  Biso   1.000  O
  O25      1.0000 0.77859  0.24865  0.95850  Biso   1.000  O
  O26      1.0000 0.77626  0.23968  0.45704  Biso   1.000  O
  O27      1.0000 0.77561  0.24976  0.20683  Biso   1.000  O
  O28      1.0000 0.77868  0.24122  0.70664  Biso   1.000  O
  O29      1.0000 0.72668  0.74793  0.95366  Biso   1.000  O
  O30      1.0000 0.72407  0.73738  0.45763  Biso   1.000  O
  O31      1.0000 0.73712  0.75023  0.20486  Biso   1.000  O
  O32      1.0000 0.73068  0.74327  0.70467  Biso   1.000  O
