data_image0
_cell_length_a       10.2079
_cell_length_b       10.3559
_cell_length_c       5.2768
_cell_angle_alpha    90.1744
_cell_angle_beta     80.4311
_cell_angle_gamma    90.3158

_symmetry_space_group_name_H-M    "P 1"
_symmetry_int_tables_number       1

loop_
  _symmetry_equiv_pos_as_xyz
  'x, y, z'

loop_
  _atom_site_label
  _atom_site_occupancy
  _atom_site_fract_x
  _atom_site_fract_y
  _atom_site_fract_z
  _atom_site_thermal_displace_type
  _atom_site_B_iso_or_equiv
  _atom_site_type_symbol
  Zr1      1.0000 0.13613  0.01831  0.29228  Biso   1.000  Zr
  Zr2      1.0000 0.13970  0.22712  0.79180  Biso   1.000  Zr
  Zr3      1.0000 0.35614  0.26708  0.21564  Biso   1.000  Zr
  Zr4      1.0000 0.35219  0.48278  0.70074  Biso   1.000  Zr
  O1       1.0000 0.03504  0.16599  0.15757  Biso   1.000  O
  O2       1.0000 0.03375  0.08040  0.65798  Biso   1.000  O
  O3       1.0000 0.46684  0.40652  0.36139  Biso   1.000  O
  O4       1.0000 0.49302  0.39236  0.90372  Biso   1.000  O
  O5       1.0000 0.27543  0.12773  0.48269  Biso   1.000  O
  O6       1.0000 0.27293  0.11551  0.98494  Biso   1.000  O
  O7       1.0000 0.22353  0.37817  0.02172  Biso   1.000  O
  O8       1.0000 0.21724  0.37087  0.51456  Biso   1.000  O
  Zr5      1.0000 0.13408  0.52043  0.28664  Biso   1.000  Zr
  Zr6      1.0000 0.13433  0.72902  0.79012  Biso   1.000  Zr
  Zr7      1.0000 0.35933  0.76885  0.20510  Biso   1.000  Zr
  Zr8      1.0000 0.36154  0.97556  0.70977  Biso   1.000  Zr
  O9       1.0000 0.02935  0.66599  0.15521  Biso   1.000  O
  O10      1.0000 0.03195  0.58168  0.65557  Biso   1.000  O
  O11      1.0000 0.46331  0.91438  0.33914  Biso   1.000  O
  O12      1.0000 0.46257  0.83033  0.84306  Biso   1.000  O
  O13      1.0000 0.27150  0.62688  0.47655  Biso   1.000  O
  O14      1.0000 0.26862  0.62164  0.97893  Biso   1.000  O
  O15      1.0000 0.22210  0.87580  0.02028  Biso   1.000  O
  O16      1.0000 0.22297  0.86957  0.51939  Biso   1.000  O
  Zr9      1.0000 0.63624  0.01910  0.28772  Biso   1.000  Zr
  Zr10     1.0000 0.63926  0.22644  0.78817  Biso   1.000  Zr
  Zr11     1.0000 0.86144  0.26851  0.20935  Biso   1.000  Zr
  Zr12     1.0000 0.86059  0.47515  0.71084  Biso   1.000  Zr
  O17      1.0000 0.53200  0.16771  0.15296  Biso   1.000  O
  O18      1.0000 0.54039  0.06972  0.65667  Biso   1.000  O
  O19      1.0000 0.96225  0.41585  0.34306  Biso   1.000  O
  O20      1.0000 0.96698  0.33025  0.84123  Biso   1.000  O
  O21      1.0000 0.77506  0.12740  0.48008  Biso   1.000  O
  O22      1.0000 0.77388  0.11766  0.98042  Biso   1.000  O
  O23      1.0000 0.73031  0.37547  0.02271  Biso   1.000  O
  O24      1.0000 0.72171  0.36955  0.52263  Biso   1.000  O
  Zr13     1.0000 0.63729  0.51949  0.28637  Biso   1.000  Zr
  Zr14     1.0000 0.63583  0.72553  0.78422  Biso   1.000  Zr
  Zr15     1.0000 0.85738  0.76954  0.20671  Biso   1.000  Zr
  Zr16     1.0000 0.85854  0.97684  0.70766  Biso   1.000  Zr
  O25      1.0000 0.52851  0.65763  0.13974  Biso   1.000  O
  O26      1.0000 0.52638  0.59258  0.62973  Biso   1.000  O
  O27      1.0000 0.96299  0.91561  0.34115  Biso   1.000  O
  O28      1.0000 0.96191  0.83168  0.84193  Biso   1.000  O
  O29      1.0000 0.77272  0.62490  0.47659  Biso   1.000  O
  O30      1.0000 0.77180  0.61925  0.97575  Biso   1.000  O
  O31      1.0000 0.72087  0.87578  0.01671  Biso   1.000  O
  O32      1.0000 0.72315  0.86819  0.51439  Biso   1.000  O
  N1       1.0000 0.44166  0.29573  0.77267  Biso   1.000  N
