data_image0
_cell_length_a       10.0403
_cell_length_b       5.22898
_cell_length_c       10.1361
_cell_angle_alpha    89.5259
_cell_angle_beta     88.9795
_cell_angle_gamma    90.6294

_symmetry_space_group_name_H-M    "P 1"
_symmetry_int_tables_number       1

loop_
  _symmetry_equiv_pos_as_xyz
  'x, y, z'

loop_
  _atom_site_label
  _atom_site_occupancy
  _atom_site_fract_x
  _atom_site_fract_y
  _atom_site_fract_z
  _atom_site_thermal_displace_type
  _atom_site_B_iso_or_equiv
  _atom_site_type_symbol
  Zr1      1.0000 0.14604  0.00744  0.12133  Biso   1.000  Zr
  Zr2      1.0000 0.14427  0.47414  0.39830  Biso   1.000  Zr
  Zr3      1.0000 0.36552  0.52149  0.12832  Biso   1.000  Zr
  Zr4      1.0000 0.37066  0.97162  0.37576  Biso   1.000  Zr
  O1       1.0000 0.00907  0.42198  0.24078  Biso   1.000  O
  O2       1.0000 0.03983  0.13738  0.45070  Biso   1.000  O
  O3       1.0000 0.45985  0.87018  0.19111  Biso   1.000  O
  O4       1.0000 0.46751  0.63636  0.44421  Biso   1.000  O
  O5       1.0000 0.25858  0.23277  0.25494  Biso   1.000  O
  O6       1.0000 0.27991  0.26323  0.50644  Biso   1.000  O
  O7       1.0000 0.23761  0.77248  0.50673  Biso   1.000  O
  O8       1.0000 0.23055  0.72413  0.25498  Biso   1.000  O
  Zr5      1.0000 0.13821  0.03487  0.63389  Biso   1.000  Zr
  Zr6      1.0000 0.13297  0.45851  0.88050  Biso   1.000  Zr
  Zr7      1.0000 0.37132  0.53576  0.63087  Biso   1.000  Zr
  Zr8      1.0000 0.37037  0.96463  0.87585  Biso   1.000  Zr
  O9       1.0000 0.04385  0.37976  0.68876  Biso   1.000  O
  O10      1.0000 0.04980  0.10213  0.92112  Biso   1.000  O
  O11      1.0000 0.46932  0.86933  0.69569  Biso   1.000  O
  O12      1.0000 0.46641  0.62892  0.94511  Biso   1.000  O
  O13      1.0000 0.27467  0.23935  0.75374  Biso   1.000  O
  O14      1.0000 0.27973  0.24834  0.00128  Biso   1.000  O
  O15      1.0000 0.23336  0.74632  0.00036  Biso   1.000  O
  O16      1.0000 0.23256  0.73439  0.75393  Biso   1.000  O
  Zr9      1.0000 0.63345  0.03695  0.12546  Biso   1.000  Zr
  Zr10     1.0000 0.63804  0.47306  0.37525  Biso   1.000  Zr
  Zr11     1.0000 0.85528  0.54841  0.11154  Biso   1.000  Zr
  Zr12     1.0000 0.87200  0.97884  0.37217  Biso   1.000  Zr
  O17      1.0000 0.53269  0.36696  0.19753  Biso   1.000  O
  O18      1.0000 0.53961  0.13302  0.44315  Biso   1.000  O
  O19      1.0000 0.96407  0.88983  0.18508  Biso   1.000  O
  O20      1.0000 0.97230  0.65133  0.44922  Biso   1.000  O
  O21      1.0000 0.76735  0.24210  0.24471  Biso   1.000  O
  O22      1.0000 0.77457  0.27365  0.49482  Biso   1.000  O
  O23      1.0000 0.73568  0.77141  0.49636  Biso   1.000  O
  O24      1.0000 0.72750  0.74800  0.24854  Biso   1.000  O
  Zr13     1.0000 0.63957  0.03419  0.62230  Biso   1.000  Zr
  Zr14     1.0000 0.63394  0.46937  0.87122  Biso   1.000  Zr
  Zr15     1.0000 0.87166  0.53940  0.62388  Biso   1.000  Zr
  Zr16     1.0000 0.86798  0.97449  0.86825  Biso   1.000  Zr
  O25      1.0000 0.54007  0.36887  0.69194  Biso   1.000  O
  O26      1.0000 0.53836  0.13190  0.94278  Biso   1.000  O
  O27      1.0000 0.96236  0.87877  0.68728  Biso   1.000  O
  O28      1.0000 0.95500  0.62909  0.92260  Biso   1.000  O
  O29      1.0000 0.77229  0.23895  0.74436  Biso   1.000  O
  O30      1.0000 0.76848  0.26840  0.99426  Biso   1.000  O
  O31      1.0000 0.72753  0.77240  0.99604  Biso   1.000  O
  O32      1.0000 0.73130  0.73951  0.74570  Biso   1.000  O
  N1       1.0000 0.04094  0.36381  0.11858  Biso   1.000  N
