data_image0
_cell_length_a       10.125
_cell_length_b       10.3125
_cell_length_c       5.27438
_cell_angle_alpha    89.9139
_cell_angle_beta     89.9623
_cell_angle_gamma    90.2235

_symmetry_space_group_name_H-M    "P 1"
_symmetry_int_tables_number       1

loop_
  _symmetry_equiv_pos_as_xyz
  'x, y, z'

loop_
  _atom_site_label
  _atom_site_occupancy
  _atom_site_fract_x
  _atom_site_fract_y
  _atom_site_fract_z
  _atom_site_thermal_displace_type
  _atom_site_B_iso_or_equiv
  _atom_site_type_symbol
  Zr1      1.0000 0.14000  0.02438  0.34302  Biso   1.000  Zr
  Zr2      1.0000 0.13845  0.23182  0.84433  Biso   1.000  Zr
  Zr3      1.0000 0.36022  0.27329  0.34074  Biso   1.000  Zr
  Zr4      1.0000 0.36378  0.48179  0.84000  Biso   1.000  Zr
  Zr5      1.0000 0.64720  0.01681  0.14960  Biso   1.000  Zr
  Zr6      1.0000 0.64368  0.23332  0.66357  Biso   1.000  Zr
  Zr7      1.0000 0.86120  0.27228  0.16059  Biso   1.000  Zr
  Zr8      1.0000 0.86434  0.48187  0.65765  Biso   1.000  Zr
  O1       1.0000 0.03288  0.16651  0.16546  Biso   1.000  O
  O2       1.0000 0.03237  0.08796  0.66449  Biso   1.000  O
  O3       1.0000 0.46256  0.42773  0.16814  Biso   1.000  O
  O4       1.0000 0.47013  0.33428  0.66227  Biso   1.000  O
  O5       1.0000 0.27010  0.12994  0.59444  Biso   1.000  O
  O6       1.0000 0.27768  0.12784  0.09183  Biso   1.000  O
  O7       1.0000 0.22644  0.37907  0.59221  Biso   1.000  O
  O8       1.0000 0.22541  0.37694  0.09158  Biso   1.000  O
  O9       1.0000 0.50899  0.10382  0.40749  Biso   1.000  O
  O10      1.0000 0.53122  0.09559  0.85427  Biso   1.000  O
  O11      1.0000 0.97019  0.41557  0.33564  Biso   1.000  O
  O12      1.0000 0.96773  0.33801  0.83667  Biso   1.000  O
  O13      1.0000 0.78083  0.12468  0.90798  Biso   1.000  O
  O14      1.0000 0.77773  0.12630  0.41489  Biso   1.000  O
  O15      1.0000 0.72479  0.37487  0.91229  Biso   1.000  O
  O16      1.0000 0.72809  0.38026  0.41390  Biso   1.000  O
  Zr9      1.0000 0.14156  0.52301  0.34112  Biso   1.000  Zr
  Zr10     1.0000 0.14187  0.73130  0.83895  Biso   1.000  Zr
  Zr11     1.0000 0.36429  0.77424  0.33631  Biso   1.000  Zr
  Zr12     1.0000 0.36319  0.98118  0.83870  Biso   1.000  Zr
  Zr13     1.0000 0.63881  0.52390  0.15717  Biso   1.000  Zr
  Zr14     1.0000 0.64083  0.73116  0.65226  Biso   1.000  Zr
  Zr15     1.0000 0.86595  0.77094  0.15502  Biso   1.000  Zr
  Zr16     1.0000 0.86488  0.97994  0.65460  Biso   1.000  Zr
  O17      1.0000 0.03532  0.66544  0.16226  Biso   1.000  O
  O18      1.0000 0.03485  0.58852  0.66184  Biso   1.000  O
  O19      1.0000 0.47462  0.90540  0.13654  Biso   1.000  O
  O20      1.0000 0.47359  0.84499  0.64657  Biso   1.000  O
  O21      1.0000 0.27823  0.62794  0.58582  Biso   1.000  O
  O22      1.0000 0.27682  0.62852  0.08425  Biso   1.000  O
  O23      1.0000 0.22835  0.87730  0.58615  Biso   1.000  O
  O24      1.0000 0.22761  0.87963  0.08632  Biso   1.000  O
  O25      1.0000 0.53497  0.66694  0.33349  Biso   1.000  O
  O26      1.0000 0.53457  0.58834  0.82996  Biso   1.000  O
  O27      1.0000 0.97157  0.91542  0.33240  Biso   1.000  O
  O28      1.0000 0.97142  0.83663  0.83314  Biso   1.000  O
  O29      1.0000 0.77716  0.62576  0.90831  Biso   1.000  O
  O30      1.0000 0.77744  0.62735  0.40832  Biso   1.000  O
  O31      1.0000 0.72903  0.87536  0.90578  Biso   1.000  O
  O32      1.0000 0.73086  0.87464  0.40648  Biso   1.000  O
  N1       1.0000 0.55435  0.20196  0.25577  Biso   1.000  N
