data_image0
_cell_length_a       5.03534
_cell_length_b       10.4071
_cell_length_c       10.0625
_cell_angle_alpha    89.9321
_cell_angle_beta     89.0469
_cell_angle_gamma    90.0404

_symmetry_space_group_name_H-M    "P 1"
_symmetry_int_tables_number       1

loop_
  _symmetry_equiv_pos_as_xyz
  'x, y, z'

loop_
  _atom_site_label
  _atom_site_occupancy
  _atom_site_fract_x
  _atom_site_fract_y
  _atom_site_fract_z
  _atom_site_thermal_displace_type
  _atom_site_B_iso_or_equiv
  _atom_site_type_symbol
  N1       1.0000 0.08771  0.05438  0.11432  Biso   1.000  N
  Zr1      1.0000 0.25720  0.01029  0.62506  Biso   1.000  Zr
  Zr2      1.0000 0.26104  0.51719  0.12874  Biso   1.000  Zr
  Zr3      1.0000 0.27200  0.51680  0.62222  Biso   1.000  Zr
  Zr4      1.0000 0.28927  0.23035  0.37792  Biso   1.000  Zr
  Zr5      1.0000 0.27476  0.23532  0.87661  Biso   1.000  Zr
  Zr6      1.0000 0.28842  0.73794  0.37210  Biso   1.000  Zr
  Zr7      1.0000 0.26927  0.73406  0.87757  Biso   1.000  Zr
  Zr8      1.0000 0.70265  0.26844  0.12030  Biso   1.000  Zr
  Zr9      1.0000 0.74070  0.26182  0.62655  Biso   1.000  Zr
  Zr10     1.0000 0.73395  0.75753  0.11245  Biso   1.000  Zr
  Zr11     1.0000 0.74250  0.76627  0.62352  Biso   1.000  Zr
  Zr12     1.0000 0.74248  0.48248  0.37554  Biso   1.000  Zr
  Zr13     1.0000 0.73852  0.48331  0.87285  Biso   1.000  Zr
  Zr14     1.0000 0.73112  0.98903  0.37589  Biso   1.000  Zr
  Zr15     1.0000 0.69691  0.97877  0.88011  Biso   1.000  Zr
  O1       1.0000 0.08785  0.16988  0.17376  Biso   1.000  O
  O2       1.0000 0.05261  0.17407  0.71212  Biso   1.000  O
  O3       1.0000 0.07901  0.69184  0.19548  Biso   1.000  O
  O4       1.0000 0.07106  0.68029  0.69478  Biso   1.000  O
  O5       1.0000 0.07272  0.07023  0.44566  Biso   1.000  O
  O6       1.0000 0.04932  0.06497  0.98464  Biso   1.000  O
  O7       1.0000 0.07928  0.56691  0.44200  Biso   1.000  O
  O8       1.0000 0.05859  0.57044  0.95217  Biso   1.000  O
  O9       1.0000 0.92815  0.42417  0.19668  Biso   1.000  O
  O10      1.0000 0.93797  0.42997  0.69391  Biso   1.000  O
  O11      1.0000 0.96065  0.96329  0.17647  Biso   1.000  O
  O12      1.0000 0.92387  0.93199  0.70147  Biso   1.000  O
  O13      1.0000 0.94270  0.31517  0.44731  Biso   1.000  O
  O14      1.0000 0.93490  0.31914  0.94522  Biso   1.000  O
  O15      1.0000 0.95526  0.82379  0.44900  Biso   1.000  O
  O16      1.0000 0.93227  0.82006  0.94012  Biso   1.000  O
  O17      1.0000 0.58599  0.13430  0.25929  Biso   1.000  O
  O18      1.0000 0.51944  0.11087  0.74736  Biso   1.000  O
  O19      1.0000 0.54343  0.60919  0.24550  Biso   1.000  O
  O20      1.0000 0.54046  0.61485  0.74685  Biso   1.000  O
  O21      1.0000 0.53776  0.13087  0.50431  Biso   1.000  O
  O22      1.0000 0.54757  0.13884  0.98851  Biso   1.000  O
  O23      1.0000 0.54861  0.63351  0.49627  Biso   1.000  O
  O24      1.0000 0.53516  0.62666  0.99727  Biso   1.000  O
  O25      1.0000 0.47066  0.37991  0.49857  Biso   1.000  O
  O26      1.0000 0.45717  0.38490  0.99839  Biso   1.000  O
  O27      1.0000 0.47070  0.88416  0.49976  Biso   1.000  O
  O28      1.0000 0.46258  0.87056  0.99607  Biso   1.000  O
  O29      1.0000 0.44154  0.36939  0.24768  Biso   1.000  O
  O30      1.0000 0.46646  0.36322  0.74870  Biso   1.000  O
  O31      1.0000 0.54087  0.85396  0.25767  Biso   1.000  O
  O32      1.0000 0.45458  0.86514  0.74650  Biso   1.000  O
