data_image0
_cell_length_a       10.1935
_cell_length_b       5.06252
_cell_length_c       10.2749
_cell_angle_alpha    89.822
_cell_angle_beta     89.3849
_cell_angle_gamma    91.7678

_symmetry_space_group_name_H-M    "P 1"
_symmetry_int_tables_number       1

loop_
  _symmetry_equiv_pos_as_xyz
  'x, y, z'

loop_
  _atom_site_label
  _atom_site_occupancy
  _atom_site_fract_x
  _atom_site_fract_y
  _atom_site_fract_z
  _atom_site_thermal_displace_type
  _atom_site_B_iso_or_equiv
  _atom_site_type_symbol
  Zr1      1.0000 0.09666  0.02949  0.13111  Biso   1.000  Zr
  Zr2      1.0000 0.11577  0.49912  0.37237  Biso   1.000  Zr
  Zr3      1.0000 0.36515  0.42655  0.10322  Biso   1.000  Zr
  Zr4      1.0000 0.38338  0.03870  0.38363  Biso   1.000  Zr
  O1       1.0000 0.99043  0.24985  0.97925  Biso   1.000  O
  O2       1.0000 0.99117  0.28807  0.23335  Biso   1.000  O
  O3       1.0000 0.99598  0.78088  0.27150  Biso   1.000  O
  O4       1.0000 0.00943  0.74335  0.01252  Biso   1.000  O
  O5       1.0000 0.24104  0.22894  0.26315  Biso   1.000  O
  O6       1.0000 0.23956  0.16300  0.00373  Biso   1.000  O
  O7       1.0000 0.28298  0.65268  0.94596  Biso   1.000  O
  O8       1.0000 0.33784  0.76280  0.21995  Biso   1.000  O
  Zr5      1.0000 0.12273  0.00388  0.60804  Biso   1.000  Zr
  Zr6      1.0000 0.11827  0.49231  0.86212  Biso   1.000  Zr
  Zr7      1.0000 0.37950  0.49735  0.63334  Biso   1.000  Zr
  Zr8      1.0000 0.36076  0.98757  0.85817  Biso   1.000  Zr
  O9       1.0000 0.99439  0.23560  0.47810  Biso   1.000  O
  O10      1.0000 0.99764  0.24316  0.72544  Biso   1.000  O
  O11      1.0000 0.99385  0.74040  0.76598  Biso   1.000  O
  O12      1.0000 0.98955  0.73354  0.51826  Biso   1.000  O
  O13      1.0000 0.24565  0.24337  0.75701  Biso   1.000  O
  O14      1.0000 0.24263  0.29291  0.51441  Biso   1.000  O
  O15      1.0000 0.22515  0.80502  0.44884  Biso   1.000  O
  O16      1.0000 0.23916  0.74901  0.71280  Biso   1.000  O
  Zr9      1.0000 0.61791  0.98508  0.13514  Biso   1.000  Zr
  Zr10     1.0000 0.63346  0.49290  0.36655  Biso   1.000  Zr
  Zr11     1.0000 0.86888  0.50406  0.11614  Biso   1.000  Zr
  Zr12     1.0000 0.86340  0.99077  0.37916  Biso   1.000  Zr
  O17      1.0000 0.49322  0.18464  0.98131  Biso   1.000  O
  O18      1.0000 0.50003  0.27159  0.23243  Biso   1.000  O
  O19      1.0000 0.54153  0.82731  0.31465  Biso   1.000  O
  O20      1.0000 0.52550  0.66984  0.04658  Biso   1.000  O
  O21      1.0000 0.74990  0.23735  0.26841  Biso   1.000  O
  O22      1.0000 0.74094  0.24744  0.02381  Biso   1.000  O
  O23      1.0000 0.75801  0.74218  0.97945  Biso   1.000  O
  O24      1.0000 0.75635  0.73936  0.22925  Biso   1.000  O
  Zr13     1.0000 0.62604  0.98482  0.63834  Biso   1.000  Zr
  Zr14     1.0000 0.62179  0.47898  0.88718  Biso   1.000  Zr
  Zr15     1.0000 0.86870  0.48823  0.62740  Biso   1.000  Zr
  Zr16     1.0000 0.87542  0.98655  0.87063  Biso   1.000  Zr
  O25      1.0000 0.49091  0.33160  0.48302  Biso   1.000  O
  O26      1.0000 0.49916  0.24609  0.73535  Biso   1.000  O
  O27      1.0000 0.50082  0.73489  0.78410  Biso   1.000  O
  O28      1.0000 0.46212  0.83667  0.55023  Biso   1.000  O
  O29      1.0000 0.74775  0.22868  0.77408  Biso   1.000  O
  O30      1.0000 0.74260  0.24151  0.52038  Biso   1.000  O
  O31      1.0000 0.73945  0.74389  0.49026  Biso   1.000  O
  O32      1.0000 0.74455  0.72693  0.73456  Biso   1.000  O
  N1       1.0000 0.21855  0.69962  0.17904  Biso   1.000  N
