data_image0
_cell_length_a       10.2214
_cell_length_b       10.3101
_cell_length_c       10.5294
_cell_angle_alpha    90.0317
_cell_angle_beta     80.2828
_cell_angle_gamma    89.8872

_symmetry_space_group_name_H-M    "P 1"
_symmetry_int_tables_number       1

loop_
  _symmetry_equiv_pos_as_xyz
  'x, y, z'

loop_
  _atom_site_label
  _atom_site_occupancy
  _atom_site_fract_x
  _atom_site_fract_y
  _atom_site_fract_z
  _atom_site_thermal_displace_type
  _atom_site_B_iso_or_equiv
  _atom_site_type_symbol
  N1       1.0000 0.04057  0.05503  0.17007  Biso   1.000  N
  Zr1      1.0000 0.13978  0.01922  0.64370  Biso   1.000  Zr
  Zr2      1.0000 0.13944  0.52084  0.14440  Biso   1.000  Zr
  Zr3      1.0000 0.14040  0.52271  0.64652  Biso   1.000  Zr
  Zr4      1.0000 0.63865  0.02195  0.14500  Biso   1.000  Zr
  Zr5      1.0000 0.63622  0.02026  0.64972  Biso   1.000  Zr
  Zr6      1.0000 0.63220  0.52240  0.14575  Biso   1.000  Zr
  Zr7      1.0000 0.64069  0.52008  0.64663  Biso   1.000  Zr
  Zr8      1.0000 0.14888  0.23103  0.39385  Biso   1.000  Zr
  Zr9      1.0000 0.14776  0.22628  0.89255  Biso   1.000  Zr
  Zr10     1.0000 0.14233  0.72864  0.39256  Biso   1.000  Zr
  Zr11     1.0000 0.14412  0.73343  0.89611  Biso   1.000  Zr
  Zr12     1.0000 0.63627  0.22830  0.39610  Biso   1.000  Zr
  Zr13     1.0000 0.63787  0.22872  0.89475  Biso   1.000  Zr
  Zr14     1.0000 0.63732  0.72581  0.39615  Biso   1.000  Zr
  Zr15     1.0000 0.63762  0.72961  0.89619  Biso   1.000  Zr
  Zr16     1.0000 0.35585  0.26334  0.10593  Biso   1.000  Zr
  Zr17     1.0000 0.36328  0.27043  0.60506  Biso   1.000  Zr
  Zr18     1.0000 0.35641  0.77752  0.10459  Biso   1.000  Zr
  Zr19     1.0000 0.36334  0.77215  0.60355  Biso   1.000  Zr
  Zr20     1.0000 0.85053  0.27631  0.10733  Biso   1.000  Zr
  Zr21     1.0000 0.86426  0.26905  0.60215  Biso   1.000  Zr
  Zr22     1.0000 0.85995  0.76392  0.09814  Biso   1.000  Zr
  Zr23     1.0000 0.86248  0.76918  0.60605  Biso   1.000  Zr
  Zr24     1.0000 0.36022  0.47806  0.35207  Biso   1.000  Zr
  Zr25     1.0000 0.36320  0.47787  0.85620  Biso   1.000  Zr
  Zr26     1.0000 0.35889  0.97880  0.35079  Biso   1.000  Zr
  Zr27     1.0000 0.35784  0.97868  0.85913  Biso   1.000  Zr
  Zr28     1.0000 0.86314  0.47765  0.35435  Biso   1.000  Zr
  Zr29     1.0000 0.86721  0.47479  0.85476  Biso   1.000  Zr
  Zr30     1.0000 0.84986  0.97628  0.36465  Biso   1.000  Zr
  Zr31     1.0000 0.86298  0.97945  0.85395  Biso   1.000  Zr
  O1       1.0000 0.02898  0.14734  0.08814  Biso   1.000  O
  O2       1.0000 0.02844  0.14892  0.55747  Biso   1.000  O
  O3       1.0000 0.03551  0.67366  0.08270  Biso   1.000  O
  O4       1.0000 0.03360  0.66372  0.57742  Biso   1.000  O
  O5       1.0000 0.53687  0.16787  0.07931  Biso   1.000  O
  O6       1.0000 0.53541  0.16725  0.57984  Biso   1.000  O
  O7       1.0000 0.53363  0.66733  0.07736  Biso   1.000  O
  O8       1.0000 0.53572  0.66430  0.57733  Biso   1.000  O
  O9       1.0000 0.02720  0.09537  0.29332  Biso   1.000  O
  O10      1.0000 0.03365  0.08801  0.82393  Biso   1.000  O
  O11      1.0000 0.03246  0.58521  0.32675  Biso   1.000  O
  O12      1.0000 0.03644  0.58097  0.82949  Biso   1.000  O
  O13      1.0000 0.54049  0.07850  0.33035  Biso   1.000  O
  O14      1.0000 0.53569  0.08354  0.82925  Biso   1.000  O
  O15      1.0000 0.53222  0.58248  0.32840  Biso   1.000  O
  O16      1.0000 0.53529  0.58459  0.82722  Biso   1.000  O
  O17      1.0000 0.46393  0.41405  0.17226  Biso   1.000  O
  O18      1.0000 0.46784  0.41631  0.67208  Biso   1.000  O
  O19      1.0000 0.47099  0.91592  0.17237  Biso   1.000  O
  O20      1.0000 0.46641  0.91476  0.67515  Biso   1.000  O
  O21      1.0000 0.96533  0.41308  0.17247  Biso   1.000  O
  O22      1.0000 0.97319  0.40650  0.67597  Biso   1.000  O
  O23      1.0000 0.96607  0.95172  0.16546  Biso   1.000  O
  O24      1.0000 0.96710  0.91257  0.67355  Biso   1.000  O
  O25      1.0000 0.46495  0.33228  0.42219  Biso   1.000  O
  O26      1.0000 0.46891  0.33638  0.92309  Biso   1.000  O
  O27      1.0000 0.46951  0.83401  0.42330  Biso   1.000  O
  O28      1.0000 0.47406  0.84012  0.92446  Biso   1.000  O
  O29      1.0000 0.96878  0.33265  0.42089  Biso   1.000  O
  O30      1.0000 0.96872  0.32872  0.93198  Biso   1.000  O
  O31      1.0000 0.96833  0.84046  0.41966  Biso   1.000  O
  O32      1.0000 0.96684  0.83356  0.92279  Biso   1.000  O
  O33      1.0000 0.28673  0.13814  0.25424  Biso   1.000  O
  O34      1.0000 0.27535  0.12691  0.73739  Biso   1.000  O
  O35      1.0000 0.27521  0.62456  0.23840  Biso   1.000  O
  O36      1.0000 0.27709  0.62869  0.73974  Biso   1.000  O
  O37      1.0000 0.77777  0.12979  0.24140  Biso   1.000  O
  O38      1.0000 0.77703  0.12768  0.73920  Biso   1.000  O
  O39      1.0000 0.77336  0.62658  0.23934  Biso   1.000  O
  O40      1.0000 0.77883  0.62640  0.74104  Biso   1.000  O
  O41      1.0000 0.27600  0.12062  0.49479  Biso   1.000  O
  O42      1.0000 0.28506  0.13222  0.97879  Biso   1.000  O
  O43      1.0000 0.27601  0.62029  0.48965  Biso   1.000  O
  O44      1.0000 0.27545  0.61794  0.99085  Biso   1.000  O
  O45      1.0000 0.77355  0.11922  0.49140  Biso   1.000  O
  O46      1.0000 0.77694  0.12327  0.99034  Biso   1.000  O
  O47      1.0000 0.77681  0.62057  0.49015  Biso   1.000  O
  O48      1.0000 0.77899  0.62293  0.99160  Biso   1.000  O
  O49      1.0000 0.22185  0.37659  0.01000  Biso   1.000  O
  O50      1.0000 0.22378  0.37621  0.50829  Biso   1.000  O
  O51      1.0000 0.23333  0.86996  0.99852  Biso   1.000  O
  O52      1.0000 0.22561  0.87752  0.50979  Biso   1.000  O
  O53      1.0000 0.72457  0.38141  0.00963  Biso   1.000  O
  O54      1.0000 0.72759  0.37647  0.51042  Biso   1.000  O
  O55      1.0000 0.72716  0.87952  0.01016  Biso   1.000  O
  O56      1.0000 0.72259  0.87595  0.51208  Biso   1.000  O
  O57      1.0000 0.22050  0.37435  0.25804  Biso   1.000  O
  O58      1.0000 0.22755  0.36919  0.75967  Biso   1.000  O
  O59      1.0000 0.23465  0.86255  0.26533  Biso   1.000  O
  O60      1.0000 0.22414  0.87202  0.75628  Biso   1.000  O
  O61      1.0000 0.72143  0.37194  0.26062  Biso   1.000  O
  O62      1.0000 0.72866  0.37076  0.75973  Biso   1.000  O
  O63      1.0000 0.73756  0.86920  0.25837  Biso   1.000  O
  O64      1.0000 0.72674  0.87059  0.76003  Biso   1.000  O
