data_image0
_cell_length_a       10.0355
_cell_length_b       10.4406
_cell_length_c       10.0999
_cell_angle_alpha    89.806
_cell_angle_beta     89.4766
_cell_angle_gamma    90.3368

_symmetry_space_group_name_H-M    "P 1"
_symmetry_int_tables_number       1

loop_
  _symmetry_equiv_pos_as_xyz
  'x, y, z'

loop_
  _atom_site_label
  _atom_site_occupancy
  _atom_site_fract_x
  _atom_site_fract_y
  _atom_site_fract_z
  _atom_site_thermal_displace_type
  _atom_site_B_iso_or_equiv
  _atom_site_type_symbol
  Zr1      1.0000 0.14411  0.00361  0.11737  Biso   1.000  Zr
  Zr2      1.0000 0.14342  0.23605  0.39721  Biso   1.000  Zr
  Zr3      1.0000 0.36146  0.26409  0.12856  Biso   1.000  Zr
  Zr4      1.0000 0.36844  0.48527  0.37564  Biso   1.000  Zr
  O1       1.0000 0.00558  0.20153  0.24299  Biso   1.000  O
  O2       1.0000 0.03790  0.06703  0.45317  Biso   1.000  O
  O3       1.0000 0.46063  0.43416  0.19276  Biso   1.000  O
  O4       1.0000 0.46538  0.31709  0.44560  Biso   1.000  O
  O5       1.0000 0.25697  0.11680  0.25375  Biso   1.000  O
  O6       1.0000 0.27869  0.13061  0.50610  Biso   1.000  O
  O7       1.0000 0.23666  0.38502  0.50649  Biso   1.000  O
  O8       1.0000 0.22554  0.36504  0.25548  Biso   1.000  O
  Zr5      1.0000 0.13682  0.01592  0.63170  Biso   1.000  Zr
  Zr6      1.0000 0.13204  0.23173  0.88090  Biso   1.000  Zr
  Zr7      1.0000 0.36903  0.26796  0.63228  Biso   1.000  Zr
  Zr8      1.0000 0.36542  0.48321  0.87832  Biso   1.000  Zr
  O9       1.0000 0.04169  0.18809  0.69026  Biso   1.000  O
  O10      1.0000 0.04802  0.05247  0.92255  Biso   1.000  O
  O11      1.0000 0.46622  0.43443  0.69785  Biso   1.000  O
  O12      1.0000 0.46220  0.31472  0.94402  Biso   1.000  O
  O13      1.0000 0.27277  0.11977  0.75286  Biso   1.000  O
  O14      1.0000 0.27883  0.12652  0.00004  Biso   1.000  O
  O15      1.0000 0.22777  0.38032  0.00352  Biso   1.000  O
  O16      1.0000 0.22899  0.36779  0.75424  Biso   1.000  O
  Zr9      1.0000 0.13344  0.51636  0.12758  Biso   1.000  Zr
  Zr10     1.0000 0.13514  0.73481  0.37627  Biso   1.000  Zr
  Zr11     1.0000 0.36946  0.76221  0.12485  Biso   1.000  Zr
  Zr12     1.0000 0.36759  0.98465  0.37491  Biso   1.000  Zr
  O17      1.0000 0.03773  0.68704  0.19278  Biso   1.000  O
  O18      1.0000 0.03724  0.56758  0.44260  Biso   1.000  O
  O19      1.0000 0.46336  0.93427  0.19234  Biso   1.000  O
  O20      1.0000 0.46617  0.81738  0.44306  Biso   1.000  O
  O21      1.0000 0.27016  0.61598  0.24968  Biso   1.000  O
  O22      1.0000 0.27081  0.63387  0.49909  Biso   1.000  O
  O23      1.0000 0.23116  0.88400  0.49888  Biso   1.000  O
  O24      1.0000 0.23471  0.86381  0.24817  Biso   1.000  O
  Zr13     1.0000 0.13453  0.51722  0.62693  Biso   1.000  Zr
  Zr14     1.0000 0.13477  0.73202  0.87468  Biso   1.000  Zr
  Zr15     1.0000 0.36836  0.76572  0.62414  Biso   1.000  Zr
  Zr16     1.0000 0.37072  0.98362  0.87294  Biso   1.000  Zr
  O25      1.0000 0.03734  0.68601  0.69302  Biso   1.000  O
  O26      1.0000 0.03712  0.56471  0.94313  Biso   1.000  O
  O27      1.0000 0.46727  0.93417  0.69228  Biso   1.000  O
  O28      1.0000 0.46823  0.81632  0.94486  Biso   1.000  O
  O29      1.0000 0.27083  0.61659  0.74954  Biso   1.000  O
  O30      1.0000 0.26981  0.63077  0.99967  Biso   1.000  O
  O31      1.0000 0.23591  0.87621  0.99562  Biso   1.000  O
  O32      1.0000 0.23340  0.86642  0.74848  Biso   1.000  O
  Zr17     1.0000 0.63389  0.01553  0.12353  Biso   1.000  Zr
  Zr18     1.0000 0.63381  0.23457  0.37478  Biso   1.000  Zr
  Zr19     1.0000 0.85386  0.27319  0.11251  Biso   1.000  Zr
  Zr20     1.0000 0.86767  0.48419  0.37340  Biso   1.000  Zr
  O33      1.0000 0.53046  0.18277  0.19487  Biso   1.000  O
  O34      1.0000 0.53792  0.06539  0.44303  Biso   1.000  O
  O35      1.0000 0.95917  0.43782  0.18579  Biso   1.000  O
  O36      1.0000 0.97148  0.32349  0.45186  Biso   1.000  O
  O37      1.0000 0.76474  0.11800  0.24485  Biso   1.000  O
  O38      1.0000 0.77236  0.13643  0.49605  Biso   1.000  O
  O39      1.0000 0.73269  0.38370  0.49785  Biso   1.000  O
  O40      1.0000 0.72477  0.37214  0.24966  Biso   1.000  O
  Zr21     1.0000 0.63749  0.01659  0.62303  Biso   1.000  Zr
  Zr22     1.0000 0.63211  0.23483  0.87198  Biso   1.000  Zr
  Zr23     1.0000 0.86940  0.26862  0.62652  Biso   1.000  Zr
  Zr24     1.0000 0.86606  0.48810  0.87186  Biso   1.000  Zr
  O41      1.0000 0.53856  0.18400  0.69266  Biso   1.000  O
  O42      1.0000 0.53927  0.06495  0.94089  Biso   1.000  O
  O43      1.0000 0.96194  0.44027  0.69034  Biso   1.000  O
  O44      1.0000 0.95394  0.31648  0.92298  Biso   1.000  O
  O45      1.0000 0.77204  0.11762  0.74597  Biso   1.000  O
  O46      1.0000 0.76912  0.13263  0.99368  Biso   1.000  O
  O47      1.0000 0.72489  0.38588  0.99636  Biso   1.000  O
  O48      1.0000 0.72920  0.36920  0.74686  Biso   1.000  O
  Zr25     1.0000 0.63280  0.51853  0.12710  Biso   1.000  Zr
  Zr26     1.0000 0.63734  0.73631  0.37578  Biso   1.000  Zr
  Zr27     1.0000 0.86753  0.76742  0.12493  Biso   1.000  Zr
  Zr28     1.0000 0.87018  0.99012  0.37310  Biso   1.000  Zr
  O49      1.0000 0.53698  0.68463  0.19692  Biso   1.000  O
  O50      1.0000 0.53671  0.56722  0.44416  Biso   1.000  O
  O51      1.0000 0.96720  0.94094  0.19146  Biso   1.000  O
  O52      1.0000 0.96491  0.81856  0.43951  Biso   1.000  O
  O53      1.0000 0.77087  0.61976  0.24873  Biso   1.000  O
  O54      1.0000 0.77128  0.63377  0.49720  Biso   1.000  O
  O55      1.0000 0.73368  0.88539  0.49705  Biso   1.000  O
  O56      1.0000 0.73245  0.86906  0.24775  Biso   1.000  O
  Zr29     1.0000 0.63551  0.51625  0.62416  Biso   1.000  Zr
  Zr30     1.0000 0.63553  0.73435  0.87468  Biso   1.000  Zr
  Zr31     1.0000 0.86832  0.76690  0.62210  Biso   1.000  Zr
  Zr32     1.0000 0.86725  0.98365  0.87156  Biso   1.000  Zr
  O57      1.0000 0.53675  0.68424  0.69339  Biso   1.000  O
  O58      1.0000 0.53424  0.56786  0.94652  Biso   1.000  O
  O59      1.0000 0.96420  0.93300  0.69062  Biso   1.000  O
  O60      1.0000 0.96599  0.81502  0.94411  Biso   1.000  O
  O61      1.0000 0.76960  0.61897  0.74674  Biso   1.000  O
  O62      1.0000 0.76965  0.63442  0.99909  Biso   1.000  O
  O63      1.0000 0.73245  0.88298  0.99818  Biso   1.000  O
  O64      1.0000 0.73218  0.86750  0.74729  Biso   1.000  O
  N1       1.0000 0.04092  0.18383  0.11873  Biso   1.000  N
