data_image0
_cell_length_a       10.102
_cell_length_b       5.17301
_cell_length_c       10.5226
_cell_angle_alpha    89.8301
_cell_angle_beta     89.8012
_cell_angle_gamma    90.2024

_symmetry_space_group_name_H-M    "P 1"
_symmetry_int_tables_number       1

loop_
  _symmetry_equiv_pos_as_xyz
  'x, y, z'

loop_
  _atom_site_label
  _atom_site_occupancy
  _atom_site_fract_x
  _atom_site_fract_y
  _atom_site_fract_z
  _atom_site_thermal_displace_type
  _atom_site_B_iso_or_equiv
  _atom_site_type_symbol
  Zr1      1.0000 0.14047  0.04788  0.17103  Biso   1.000  Zr
  Zr2      1.0000 0.14073  0.46432  0.42061  Biso   1.000  Zr
  Zr3      1.0000 0.36148  0.55140  0.16751  Biso   1.000  Zr
  Zr4      1.0000 0.36498  0.96431  0.42030  Biso   1.000  Zr
  Zr5      1.0000 0.64384  0.03365  0.07294  Biso   1.000  Zr
  Zr6      1.0000 0.64501  0.46754  0.33411  Biso   1.000  Zr
  Zr7      1.0000 0.86226  0.54068  0.08011  Biso   1.000  Zr
  Zr8      1.0000 0.86412  0.96273  0.32932  Biso   1.000  Zr
  O1       1.0000 0.03415  0.33439  0.08354  Biso   1.000  O
  O2       1.0000 0.03297  0.17524  0.33326  Biso   1.000  O
  O3       1.0000 0.46008  0.85997  0.08040  Biso   1.000  O
  O4       1.0000 0.47271  0.67550  0.32792  Biso   1.000  O
  O5       1.0000 0.27294  0.26051  0.29536  Biso   1.000  O
  O6       1.0000 0.27757  0.25892  0.04259  Biso   1.000  O
  O7       1.0000 0.22824  0.76071  0.29466  Biso   1.000  O
  O8       1.0000 0.22298  0.75555  0.04408  Biso   1.000  O
  O9       1.0000 0.51356  0.24422  0.19891  Biso   1.000  O
  O10      1.0000 0.53461  0.18336  0.42477  Biso   1.000  O
  O11      1.0000 0.96923  0.83416  0.16624  Biso   1.000  O
  O12      1.0000 0.96849  0.67175  0.41640  Biso   1.000  O
  O13      1.0000 0.77851  0.25155  0.45747  Biso   1.000  O
  O14      1.0000 0.77442  0.25455  0.20810  Biso   1.000  O
  O15      1.0000 0.72590  0.75097  0.45724  Biso   1.000  O
  O16      1.0000 0.72954  0.75586  0.20737  Biso   1.000  O
  Zr9      1.0000 0.14165  0.04534  0.66974  Biso   1.000  Zr
  Zr10     1.0000 0.13989  0.46152  0.92016  Biso   1.000  Zr
  Zr11     1.0000 0.36399  0.54340  0.67018  Biso   1.000  Zr
  Zr12     1.0000 0.36152  0.96128  0.91777  Biso   1.000  Zr
  Zr13     1.0000 0.64115  0.04682  0.58220  Biso   1.000  Zr
  Zr14     1.0000 0.64002  0.45799  0.83089  Biso   1.000  Zr
  Zr15     1.0000 0.86430  0.54476  0.58071  Biso   1.000  Zr
  Zr16     1.0000 0.86480  0.95979  0.82874  Biso   1.000  Zr
  O17      1.0000 0.03578  0.33620  0.58404  Biso   1.000  O
  O18      1.0000 0.03621  0.16952  0.83311  Biso   1.000  O
  O19      1.0000 0.46976  0.83316  0.58256  Biso   1.000  O
  O20      1.0000 0.46689  0.66146  0.83529  Biso   1.000  O
  O21      1.0000 0.27722  0.25190  0.79284  Biso   1.000  O
  O22      1.0000 0.27806  0.25467  0.54359  Biso   1.000  O
  O23      1.0000 0.22602  0.75088  0.79286  Biso   1.000  O
  O24      1.0000 0.22791  0.75566  0.54320  Biso   1.000  O
  O25      1.0000 0.53617  0.33738  0.66656  Biso   1.000  O
  O26      1.0000 0.54009  0.14660  0.90379  Biso   1.000  O
  O27      1.0000 0.96980  0.83566  0.66511  Biso   1.000  O
  O28      1.0000 0.96850  0.66916  0.91600  Biso   1.000  O
  O29      1.0000 0.78211  0.24725  0.95389  Biso   1.000  O
  O30      1.0000 0.77816  0.25393  0.70618  Biso   1.000  O
  O31      1.0000 0.72778  0.74795  0.95600  Biso   1.000  O
  O32      1.0000 0.72706  0.75215  0.70691  Biso   1.000  O
  N1       1.0000 0.55508  0.41623  0.10872  Biso   1.000  N
