data_image0
_cell_length_a       10.0035
_cell_length_b       10.4094
_cell_length_c       5.06116
_cell_angle_alpha    90.2237
_cell_angle_beta     89.7549
_cell_angle_gamma    89.6479

_symmetry_space_group_name_H-M    "P 1"
_symmetry_int_tables_number       1

loop_
  _symmetry_equiv_pos_as_xyz
  'x, y, z'

loop_
  _atom_site_label
  _atom_site_occupancy
  _atom_site_fract_x
  _atom_site_fract_y
  _atom_site_fract_z
  _atom_site_thermal_displace_type
  _atom_site_B_iso_or_equiv
  _atom_site_type_symbol
  Hf1      1.0000 0.12802  0.00457  0.24268  Biso   1.000  Hf
  Hf2      1.0000 0.13341  0.22935  0.71541  Biso   1.000  Hf
  Hf3      1.0000 0.39312  0.26027  0.22797  Biso   1.000  Hf
  Hf4      1.0000 0.36907  0.48473  0.73647  Biso   1.000  Hf
  O1       1.0000 0.01114  0.16293  0.41605  Biso   1.000  O
  O2       1.0000 0.03560  0.06525  0.89754  Biso   1.000  O
  O3       1.0000 0.46981  0.43065  0.38319  Biso   1.000  O
  O4       1.0000 0.46878  0.32602  0.88230  Biso   1.000  O
  O5       1.0000 0.25856  0.10787  0.48088  Biso   1.000  O
  O6       1.0000 0.26218  0.14510  0.98818  Biso   1.000  O
  O7       1.0000 0.23114  0.39701  0.96960  Biso   1.000  O
  O8       1.0000 0.23917  0.36040  0.47351  Biso   1.000  O
  Hf5      1.0000 0.13977  0.52904  0.24193  Biso   1.000  Hf
  Hf6      1.0000 0.13516  0.73808  0.74543  Biso   1.000  Hf
  Hf7      1.0000 0.37228  0.76848  0.24485  Biso   1.000  Hf
  Hf8      1.0000 0.36951  0.99174  0.74431  Biso   1.000  Hf
  O9       1.0000 0.03304  0.68090  0.39731  Biso   1.000  O
  O10      1.0000 0.03420  0.57218  0.89302  Biso   1.000  O
  O11      1.0000 0.46910  0.92799  0.40697  Biso   1.000  O
  O12      1.0000 0.47092  0.82488  0.89663  Biso   1.000  O
  O13      1.0000 0.27273  0.61861  0.49197  Biso   1.000  O
  O14      1.0000 0.26902  0.64204  0.99271  Biso   1.000  O
  O15      1.0000 0.23659  0.88864  0.98722  Biso   1.000  O
  O16      1.0000 0.23199  0.86290  0.48832  Biso   1.000  O
  Hf9      1.0000 0.63382  0.01541  0.26215  Biso   1.000  Hf
  Hf10     1.0000 0.63608  0.23151  0.77550  Biso   1.000  Hf
  Hf11     1.0000 0.84763  0.26292  0.25721  Biso   1.000  Hf
  Hf12     1.0000 0.87357  0.48082  0.74676  Biso   1.000  Hf
  O17      1.0000 0.51899  0.16654  0.46451  Biso   1.000  O
  O18      1.0000 0.51955  0.07911  0.95047  Biso   1.000  O
  O19      1.0000 0.97466  0.42328  0.38951  Biso   1.000  O
  O20      1.0000 0.96706  0.31274  0.89119  Biso   1.000  O
  O21      1.0000 0.76152  0.11555  0.50829  Biso   1.000  O
  O22      1.0000 0.77554  0.12460  0.00160  Biso   1.000  O
  O23      1.0000 0.73697  0.38652  0.99926  Biso   1.000  O
  O24      1.0000 0.72603  0.36621  0.50725  Biso   1.000  O
  Hf13     1.0000 0.63558  0.51717  0.24901  Biso   1.000  Hf
  Hf14     1.0000 0.63471  0.73310  0.75312  Biso   1.000  Hf
  Hf15     1.0000 0.86337  0.76345  0.25107  Biso   1.000  Hf
  Hf16     1.0000 0.86900  0.98240  0.75293  Biso   1.000  Hf
  O25      1.0000 0.53652  0.68158  0.39643  Biso   1.000  O
  O26      1.0000 0.53306  0.57135  0.89695  Biso   1.000  O
  O27      1.0000 0.96626  0.92326  0.40294  Biso   1.000  O
  O28      1.0000 0.97039  0.81988  0.90684  Biso   1.000  O
  O29      1.0000 0.77291  0.61349  0.49600  Biso   1.000  O
  O30      1.0000 0.77065  0.63291  0.99441  Biso   1.000  O
  O31      1.0000 0.73135  0.88264  0.00216  Biso   1.000  O
  O32      1.0000 0.73164  0.86430  0.50284  Biso   1.000  O
  Na1      1.0000 0.11414  0.28084  0.19062  Biso   1.000  Na
