data_image0
_cell_length_a       10.1404
_cell_length_b       10.2815
_cell_length_c       10.5072
_cell_angle_alpha    90.0143
_cell_angle_beta     79.6673
_cell_angle_gamma    90.1372

_symmetry_space_group_name_H-M    "P 1"
_symmetry_int_tables_number       1

loop_
  _symmetry_equiv_pos_as_xyz
  'x, y, z'

loop_
  _atom_site_label
  _atom_site_occupancy
  _atom_site_fract_x
  _atom_site_fract_y
  _atom_site_fract_z
  _atom_site_thermal_displace_type
  _atom_site_B_iso_or_equiv
  _atom_site_type_symbol
  Hf1      1.0000 0.13689  0.02231  0.14628  Biso   1.000  Hf
  Hf2      1.0000 0.13642  0.22807  0.39489  Biso   1.000  Hf
  Hf3      1.0000 0.34810  0.27573  0.08711  Biso   1.000  Hf
  Hf4      1.0000 0.35834  0.48418  0.35571  Biso   1.000  Hf
  O1       1.0000 0.03446  0.16937  0.07883  Biso   1.000  O
  O2       1.0000 0.03424  0.08084  0.33000  Biso   1.000  O
  O3       1.0000 0.46120  0.41574  0.17123  Biso   1.000  O
  O4       1.0000 0.47300  0.34109  0.42904  Biso   1.000  O
  O5       1.0000 0.27617  0.13003  0.23600  Biso   1.000  O
  O6       1.0000 0.28096  0.12315  0.48492  Biso   1.000  O
  O7       1.0000 0.21525  0.38357  0.00378  Biso   1.000  O
  O8       1.0000 0.22295  0.37050  0.25739  Biso   1.000  O
  Hf5      1.0000 0.13894  0.02174  0.64493  Biso   1.000  Hf
  Hf6      1.0000 0.13383  0.22803  0.89197  Biso   1.000  Hf
  Hf7      1.0000 0.36171  0.27335  0.60450  Biso   1.000  Hf
  Hf8      1.0000 0.35824  0.48208  0.85144  Biso   1.000  Hf
  O9       1.0000 0.03796  0.17015  0.58037  Biso   1.000  O
  O10      1.0000 0.03308  0.08080  0.82838  Biso   1.000  O
  O11      1.0000 0.46456  0.41927  0.67277  Biso   1.000  O
  O12      1.0000 0.46280  0.33403  0.91761  Biso   1.000  O
  O13      1.0000 0.27544  0.12838  0.73793  Biso   1.000  O
  O14      1.0000 0.27293  0.12290  0.98561  Biso   1.000  O
  O15      1.0000 0.22463  0.38015  0.50774  Biso   1.000  O
  O16      1.0000 0.22193  0.37104  0.75719  Biso   1.000  O
  Hf9      1.0000 0.13676  0.52391  0.14718  Biso   1.000  Hf
  Hf10     1.0000 0.13698  0.72872  0.39744  Biso   1.000  Hf
  Hf11     1.0000 0.35984  0.77252  0.10418  Biso   1.000  Hf
  Hf12     1.0000 0.36040  0.97162  0.35614  Biso   1.000  Hf
  O17      1.0000 0.03370  0.66937  0.08101  Biso   1.000  O
  O18      1.0000 0.03441  0.58156  0.33066  Biso   1.000  O
  O19      1.0000 0.46475  0.91755  0.17316  Biso   1.000  O
  O20      1.0000 0.46407  0.82892  0.42264  Biso   1.000  O
  O21      1.0000 0.27572  0.62937  0.24184  Biso   1.000  O
  O22      1.0000 0.27511  0.62317  0.49182  Biso   1.000  O
  O23      1.0000 0.22263  0.88069  0.01048  Biso   1.000  O
  O24      1.0000 0.22154  0.87072  0.26042  Biso   1.000  O
  Hf13     1.0000 0.13787  0.52213  0.64650  Biso   1.000  Hf
  Hf14     1.0000 0.13702  0.72927  0.89727  Biso   1.000  Hf
  Hf15     1.0000 0.36101  0.77156  0.60583  Biso   1.000  Hf
  Hf16     1.0000 0.35985  0.97803  0.85354  Biso   1.000  Hf
  O25      1.0000 0.03373  0.66846  0.58066  Biso   1.000  O
  O26      1.0000 0.03461  0.58167  0.83083  Biso   1.000  O
  O27      1.0000 0.46466  0.91813  0.67173  Biso   1.000  O
  O28      1.0000 0.46410  0.83292  0.92200  Biso   1.000  O
  O29      1.0000 0.27550  0.62933  0.74093  Biso   1.000  O
  O30      1.0000 0.27518  0.62305  0.99138  Biso   1.000  O
  O31      1.0000 0.22290  0.87879  0.51078  Biso   1.000  O
  O32      1.0000 0.22200  0.87101  0.76023  Biso   1.000  O
  Hf17     1.0000 0.63995  0.02021  0.14788  Biso   1.000  Hf
  Hf18     1.0000 0.65138  0.22746  0.40715  Biso   1.000  Hf
  Hf19     1.0000 0.85945  0.27199  0.10610  Biso   1.000  Hf
  Hf20     1.0000 0.86042  0.47854  0.35516  Biso   1.000  Hf
  O33      1.0000 0.52922  0.16764  0.08081  Biso   1.000  O
  O34      1.0000 0.54181  0.07454  0.33781  Biso   1.000  O
  O35      1.0000 0.96378  0.41868  0.17165  Biso   1.000  O
  O36      1.0000 0.96319  0.33089  0.42175  Biso   1.000  O
  O37      1.0000 0.77853  0.12889  0.24375  Biso   1.000  O
  O38      1.0000 0.78239  0.11877  0.49608  Biso   1.000  O
  O39      1.0000 0.72032  0.37837  0.01278  Biso   1.000  O
  O40      1.0000 0.72144  0.36942  0.26355  Biso   1.000  O
  Hf21     1.0000 0.63907  0.02098  0.64930  Biso   1.000  Hf
  Hf22     1.0000 0.63788  0.22801  0.89888  Biso   1.000  Hf
  Hf23     1.0000 0.86289  0.27202  0.60880  Biso   1.000  Hf
  Hf24     1.0000 0.85900  0.47916  0.85647  Biso   1.000  Hf
  O41      1.0000 0.53708  0.16908  0.58346  Biso   1.000  O
  O42      1.0000 0.53350  0.08224  0.83127  Biso   1.000  O
  O43      1.0000 0.96449  0.41937  0.67247  Biso   1.000  O
  O44      1.0000 0.96046  0.33049  0.92051  Biso   1.000  O
  O45      1.0000 0.77607  0.12947  0.74423  Biso   1.000  O
  O46      1.0000 0.77424  0.12044  0.99334  Biso   1.000  O
  O47      1.0000 0.72588  0.37855  0.51447  Biso   1.000  O
  O48      1.0000 0.72235  0.37149  0.76293  Biso   1.000  O
  Hf25     1.0000 0.63604  0.52116  0.14756  Biso   1.000  Hf
  Hf26     1.0000 0.63930  0.72728  0.39785  Biso   1.000  Hf
  Hf27     1.0000 0.85902  0.77106  0.10543  Biso   1.000  Hf
  Hf28     1.0000 0.86019  0.97636  0.35485  Biso   1.000  Hf
  O49      1.0000 0.53280  0.66725  0.08025  Biso   1.000  O
  O50      1.0000 0.53313  0.58357  0.32940  Biso   1.000  O
  O51      1.0000 0.96331  0.91797  0.17151  Biso   1.000  O
  O52      1.0000 0.96389  0.83114  0.42178  Biso   1.000  O
  O53      1.0000 0.77554  0.62748  0.24182  Biso   1.000  O
  O54      1.0000 0.77594  0.62033  0.49179  Biso   1.000  O
  O55      1.0000 0.72174  0.87846  0.01167  Biso   1.000  O
  O56      1.0000 0.72212  0.86966  0.26052  Biso   1.000  O
  Hf29     1.0000 0.63873  0.52223  0.64867  Biso   1.000  Hf
  Hf30     1.0000 0.63747  0.72837  0.89801  Biso   1.000  Hf
  Hf31     1.0000 0.86002  0.77195  0.60569  Biso   1.000  Hf
  Hf32     1.0000 0.85925  0.97768  0.85558  Biso   1.000  Hf
  O57      1.0000 0.53440  0.66748  0.58096  Biso   1.000  O
  O58      1.0000 0.53326  0.58348  0.83020  Biso   1.000  O
  O59      1.0000 0.96375  0.91867  0.67135  Biso   1.000  O
  O60      1.0000 0.96321  0.83167  0.92191  Biso   1.000  O
  O61      1.0000 0.77585  0.62955  0.74236  Biso   1.000  O
  O62      1.0000 0.77468  0.62092  0.99231  Biso   1.000  O
  O63      1.0000 0.72242  0.87829  0.51142  Biso   1.000  O
  O64      1.0000 0.72202  0.87133  0.76170  Biso   1.000  O
  Na1      1.0000 0.45007  0.23091  0.27551  Biso   1.000  Na
