data_image0
_cell_length_a       5.09658
_cell_length_b       10.2736
_cell_length_c       10.474
_cell_angle_alpha    89.9165
_cell_angle_beta     79.8417
_cell_angle_gamma    90.1519

_symmetry_space_group_name_H-M    "P 1"
_symmetry_int_tables_number       1

loop_
  _symmetry_equiv_pos_as_xyz
  'x, y, z'

loop_
  _atom_site_label
  _atom_site_occupancy
  _atom_site_fract_x
  _atom_site_fract_y
  _atom_site_fract_z
  _atom_site_thermal_displace_type
  _atom_site_B_iso_or_equiv
  _atom_site_type_symbol
  Na1      1.0000 0.28724  0.01567  0.14674  Biso   1.000  Na
  Hf1      1.0000 0.27921  0.01966  0.64610  Biso   1.000  Hf
  Hf2      1.0000 0.27640  0.51948  0.14446  Biso   1.000  Hf
  Hf3      1.0000 0.27948  0.52164  0.64624  Biso   1.000  Hf
  Hf4      1.0000 0.28137  0.22833  0.39515  Biso   1.000  Hf
  Hf5      1.0000 0.27899  0.22671  0.89905  Biso   1.000  Hf
  Hf6      1.0000 0.27984  0.72752  0.39443  Biso   1.000  Hf
  Hf7      1.0000 0.28406  0.73037  0.89619  Biso   1.000  Hf
  Hf8      1.0000 0.70901  0.26443  0.10432  Biso   1.000  Hf
  Hf9      1.0000 0.71759  0.27071  0.60420  Biso   1.000  Hf
  Hf10     1.0000 0.71585  0.77225  0.10391  Biso   1.000  Hf
  Hf11     1.0000 0.72189  0.77235  0.60255  Biso   1.000  Hf
  Hf12     1.0000 0.71813  0.47794  0.35239  Biso   1.000  Hf
  Hf13     1.0000 0.72032  0.47810  0.85425  Biso   1.000  Hf
  Hf14     1.0000 0.71816  0.98082  0.35056  Biso   1.000  Hf
  Hf15     1.0000 0.71614  0.97983  0.85643  Biso   1.000  Hf
  O1       1.0000 0.06560  0.17901  0.07844  Biso   1.000  O
  O2       1.0000 0.06551  0.16795  0.58284  Biso   1.000  O
  O3       1.0000 0.06602  0.66549  0.07755  Biso   1.000  O
  O4       1.0000 0.06643  0.66511  0.57890  Biso   1.000  O
  O5       1.0000 0.05666  0.08586  0.34658  Biso   1.000  O
  O6       1.0000 0.07004  0.08262  0.82896  Biso   1.000  O
  O7       1.0000 0.06257  0.58430  0.32701  Biso   1.000  O
  O8       1.0000 0.06661  0.58452  0.82732  Biso   1.000  O
  O9       1.0000 0.92642  0.41523  0.17036  Biso   1.000  O
  O10      1.0000 0.93348  0.41547  0.67082  Biso   1.000  O
  O11      1.0000 0.90752  0.91781  0.17113  Biso   1.000  O
  O12      1.0000 0.93178  0.91563  0.67216  Biso   1.000  O
  O13      1.0000 0.93160  0.33555  0.42243  Biso   1.000  O
  O14      1.0000 0.93699  0.33735  0.91888  Biso   1.000  O
  O15      1.0000 0.93647  0.83429  0.42142  Biso   1.000  O
  O16      1.0000 0.94435  0.83763  0.92107  Biso   1.000  O
  O17      1.0000 0.56945  0.13688  0.25186  Biso   1.000  O
  O18      1.0000 0.55101  0.12714  0.73899  Biso   1.000  O
  O19      1.0000 0.54939  0.62378  0.23856  Biso   1.000  O
  O20      1.0000 0.55318  0.62901  0.73928  Biso   1.000  O
  O21      1.0000 0.54605  0.12185  0.49470  Biso   1.000  O
  O22      1.0000 0.57274  0.12948  0.98032  Biso   1.000  O
  O23      1.0000 0.55144  0.62127  0.48967  Biso   1.000  O
  O24      1.0000 0.55008  0.61755  0.98941  Biso   1.000  O
  O25      1.0000 0.44633  0.37913  0.00844  Biso   1.000  O
  O26      1.0000 0.44737  0.37926  0.50964  Biso   1.000  O
  O27      1.0000 0.46738  0.86890  0.99869  Biso   1.000  O
  O28      1.0000 0.44902  0.87820  0.50955  Biso   1.000  O
  O29      1.0000 0.43824  0.37338  0.25937  Biso   1.000  O
  O30      1.0000 0.44930  0.37102  0.75889  Biso   1.000  O
  O31      1.0000 0.45919  0.86181  0.26389  Biso   1.000  O
  O32      1.0000 0.44811  0.87170  0.75587  Biso   1.000  O
