data_image0
_cell_length_a       10.1149
_cell_length_b       5.10804
_cell_length_c       10.4668
_cell_angle_alpha    89.9334
_cell_angle_beta     89.6347
_cell_angle_gamma    90.0855

_symmetry_space_group_name_H-M    "P 1"
_symmetry_int_tables_number       1

loop_
  _symmetry_equiv_pos_as_xyz
  'x, y, z'

loop_
  _atom_site_label
  _atom_site_occupancy
  _atom_site_fract_x
  _atom_site_fract_y
  _atom_site_fract_z
  _atom_site_thermal_displace_type
  _atom_site_B_iso_or_equiv
  _atom_site_type_symbol
  Na1      1.0000 0.14113  0.02952  0.17216  Biso   1.000  Na
  Hf1      1.0000 0.14079  0.04010  0.67357  Biso   1.000  Hf
  Hf2      1.0000 0.14497  0.45863  0.42099  Biso   1.000  Hf
  Hf3      1.0000 0.14226  0.45762  0.92796  Biso   1.000  Hf
  Hf4      1.0000 0.35573  0.53558  0.17193  Biso   1.000  Hf
  Hf5      1.0000 0.36001  0.54235  0.67335  Biso   1.000  Hf
  Hf6      1.0000 0.35848  0.95849  0.41969  Biso   1.000  Hf
  Hf7      1.0000 0.35777  0.95738  0.92593  Biso   1.000  Hf
  Hf8      1.0000 0.63743  0.03993  0.07744  Biso   1.000  Hf
  Hf9      1.0000 0.63764  0.04137  0.57595  Biso   1.000  Hf
  Hf10     1.0000 0.63857  0.45967  0.32623  Biso   1.000  Hf
  Hf11     1.0000 0.63721  0.45731  0.82681  Biso   1.000  Hf
  Hf12     1.0000 0.85899  0.54078  0.07534  Biso   1.000  Hf
  Hf13     1.0000 0.85956  0.54116  0.57611  Biso   1.000  Hf
  Hf14     1.0000 0.86255  0.96037  0.32558  Biso   1.000  Hf
  Hf15     1.0000 0.85860  0.95881  0.82642  Biso   1.000  Hf
  O1       1.0000 0.02659  0.33713  0.07775  Biso   1.000  O
  O2       1.0000 0.03042  0.32640  0.58515  Biso   1.000  O
  O3       1.0000 0.02125  0.19268  0.34742  Biso   1.000  O
  O4       1.0000 0.02804  0.17972  0.83026  Biso   1.000  O
  O5       1.0000 0.47049  0.82290  0.08288  Biso   1.000  O
  O6       1.0000 0.46827  0.82578  0.58227  Biso   1.000  O
  O7       1.0000 0.47302  0.68003  0.33184  Biso   1.000  O
  O8       1.0000 0.46847  0.67227  0.83163  Biso   1.000  O
  O9       1.0000 0.28440  0.25495  0.30600  Biso   1.000  O
  O10      1.0000 0.27350  0.24690  0.79593  Biso   1.000  O
  O11      1.0000 0.28690  0.25952  0.03979  Biso   1.000  O
  O12      1.0000 0.27511  0.25121  0.54940  Biso   1.000  O
  O13      1.0000 0.23228  0.73552  0.30213  Biso   1.000  O
  O14      1.0000 0.22423  0.74958  0.79497  Biso   1.000  O
  O15      1.0000 0.23442  0.73444  0.04009  Biso   1.000  O
  O16      1.0000 0.22456  0.75239  0.54835  Biso   1.000  O
  O17      1.0000 0.53265  0.32664  0.16656  Biso   1.000  O
  O18      1.0000 0.53115  0.32692  0.66604  Biso   1.000  O
  O19      1.0000 0.53263  0.17127  0.41590  Biso   1.000  O
  O20      1.0000 0.53271  0.16908  0.91549  Biso   1.000  O
  O21      1.0000 0.95915  0.80936  0.17273  Biso   1.000  O
  O22      1.0000 0.96871  0.82504  0.66684  Biso   1.000  O
  O23      1.0000 0.97202  0.68256  0.42012  Biso   1.000  O
  O24      1.0000 0.96960  0.68334  0.91612  Biso   1.000  O
  O25      1.0000 0.77393  0.24527  0.95156  Biso   1.000  O
  O26      1.0000 0.77274  0.25413  0.45440  Biso   1.000  O
  O27      1.0000 0.77500  0.25199  0.20321  Biso   1.000  O
  O28      1.0000 0.77404  0.25124  0.70254  Biso   1.000  O
  O29      1.0000 0.72317  0.74642  0.95078  Biso   1.000  O
  O30      1.0000 0.72665  0.75106  0.45231  Biso   1.000  O
  O31      1.0000 0.71763  0.75419  0.20252  Biso   1.000  O
  O32      1.0000 0.72462  0.75099  0.70156  Biso   1.000  O
