data_image0
_cell_length_a       10.1709
_cell_length_b       10.2867
_cell_length_c       5.28689
_cell_angle_alpha    90.0726
_cell_angle_beta     79.0691
_cell_angle_gamma    90.284

_symmetry_space_group_name_H-M    "P 1"
_symmetry_int_tables_number       1

loop_
  _symmetry_equiv_pos_as_xyz
  'x, y, z'

loop_
  _atom_site_label
  _atom_site_occupancy
  _atom_site_fract_x
  _atom_site_fract_y
  _atom_site_fract_z
  _atom_site_thermal_displace_type
  _atom_site_B_iso_or_equiv
  _atom_site_type_symbol
  Hf1      1.0000 0.13691  0.02288  0.29175  Biso   1.000  Hf
  Hf2      1.0000 0.13262  0.22772  0.78424  Biso   1.000  Hf
  Hf3      1.0000 0.34722  0.27922  0.17531  Biso   1.000  Hf
  Hf4      1.0000 0.35568  0.48748  0.70659  Biso   1.000  Hf
  O1       1.0000 0.03684  0.16950  0.15703  Biso   1.000  O
  O2       1.0000 0.03079  0.08257  0.65472  Biso   1.000  O
  O3       1.0000 0.46157  0.41600  0.34949  Biso   1.000  O
  O4       1.0000 0.47007  0.34435  0.85471  Biso   1.000  O
  O5       1.0000 0.27511  0.13068  0.46834  Biso   1.000  O
  O6       1.0000 0.27871  0.12493  0.96304  Biso   1.000  O
  O7       1.0000 0.21393  0.38462  0.00371  Biso   1.000  O
  O8       1.0000 0.22112  0.37159  0.51086  Biso   1.000  O
  Hf5      1.0000 0.13557  0.52472  0.29557  Biso   1.000  Hf
  Hf6      1.0000 0.13495  0.72947  0.79737  Biso   1.000  Hf
  Hf7      1.0000 0.35976  0.77249  0.21275  Biso   1.000  Hf
  Hf8      1.0000 0.35985  0.97109  0.71286  Biso   1.000  Hf
  O9       1.0000 0.03083  0.66732  0.16034  Biso   1.000  O
  O10      1.0000 0.03204  0.58420  0.65995  Biso   1.000  O
  O11      1.0000 0.46554  0.91543  0.35168  Biso   1.000  O
  O12      1.0000 0.46439  0.83148  0.85122  Biso   1.000  O
  O13      1.0000 0.27411  0.62983  0.48477  Biso   1.000  O
  O14      1.0000 0.27324  0.62616  0.98531  Biso   1.000  O
  O15      1.0000 0.22257  0.87992  0.02487  Biso   1.000  O
  O16      1.0000 0.22058  0.87169  0.52336  Biso   1.000  O
  Hf9      1.0000 0.64013  0.01935  0.30120  Biso   1.000  Hf
  Hf10     1.0000 0.64980  0.22598  0.82109  Biso   1.000  Hf
  Hf11     1.0000 0.86085  0.27241  0.22006  Biso   1.000  Hf
  Hf12     1.0000 0.85851  0.47836  0.71468  Biso   1.000  Hf
  O17      1.0000 0.53158  0.16701  0.16658  Biso   1.000  O
  O18      1.0000 0.53946  0.07541  0.67622  Biso   1.000  O
  O19      1.0000 0.96489  0.41706  0.35040  Biso   1.000  O
  O20      1.0000 0.95967  0.33109  0.84625  Biso   1.000  O
  O21      1.0000 0.77753  0.12858  0.49333  Biso   1.000  O
  O22      1.0000 0.78151  0.11796  0.99770  Biso   1.000  O
  O23      1.0000 0.72189  0.37813  0.03400  Biso   1.000  O
  O24      1.0000 0.72055  0.36953  0.53326  Biso   1.000  O
  Hf13     1.0000 0.63573  0.52186  0.29995  Biso   1.000  Hf
  Hf14     1.0000 0.63788  0.72689  0.79935  Biso   1.000  Hf
  Hf15     1.0000 0.85813  0.77138  0.21404  Biso   1.000  Hf
  Hf16     1.0000 0.85873  0.97570  0.71211  Biso   1.000  Hf
  O25      1.0000 0.53118  0.66487  0.16051  Biso   1.000  O
  O26      1.0000 0.53024  0.58718  0.65737  Biso   1.000  O
  O27      1.0000 0.96384  0.91595  0.34803  Biso   1.000  O
  O28      1.0000 0.96361  0.83357  0.84984  Biso   1.000  O
  O29      1.0000 0.77448  0.62739  0.48689  Biso   1.000  O
  O30      1.0000 0.77385  0.62066  0.98651  Biso   1.000  O
  O31      1.0000 0.72135  0.87676  0.02668  Biso   1.000  O
  O32      1.0000 0.72118  0.86995  0.52495  Biso   1.000  O
  Na1      1.0000 0.45072  0.23160  0.54911  Biso   1.000  Na
