data_image0
_cell_length_a       10.0412
_cell_length_b       10.2422
_cell_length_c       5.2875
_cell_angle_alpha    89.9082
_cell_angle_beta     90.9842
_cell_angle_gamma    90.3736

_symmetry_space_group_name_H-M    "P 1"
_symmetry_int_tables_number       1

loop_
  _symmetry_equiv_pos_as_xyz
  'x, y, z'

loop_
  _atom_site_label
  _atom_site_occupancy
  _atom_site_fract_x
  _atom_site_fract_y
  _atom_site_fract_z
  _atom_site_thermal_displace_type
  _atom_site_B_iso_or_equiv
  _atom_site_type_symbol
  Hf1      1.0000 0.14154  0.02105  0.35092  Biso   1.000  Hf
  Hf2      1.0000 0.14105  0.22715  0.85704  Biso   1.000  Hf
  Hf3      1.0000 0.35200  0.27407  0.37633  Biso   1.000  Hf
  Hf4      1.0000 0.35978  0.48224  0.85751  Biso   1.000  Hf
  Hf5      1.0000 0.64413  0.01136  0.15142  Biso   1.000  Hf
  Hf6      1.0000 0.65098  0.22140  0.62219  Biso   1.000  Hf
  Hf7      1.0000 0.86646  0.27262  0.14773  Biso   1.000  Hf
  Hf8      1.0000 0.86208  0.47749  0.65630  Biso   1.000  Hf
  O1       1.0000 0.03481  0.16275  0.16801  Biso   1.000  O
  O2       1.0000 0.03482  0.08651  0.66613  Biso   1.000  O
  O3       1.0000 0.46224  0.42427  0.19003  Biso   1.000  O
  O4       1.0000 0.47114  0.33494  0.67736  Biso   1.000  O
  O5       1.0000 0.27779  0.12447  0.60675  Biso   1.000  O
  O6       1.0000 0.28167  0.12765  0.10470  Biso   1.000  O
  O7       1.0000 0.22161  0.37548  0.61189  Biso   1.000  O
  O8       1.0000 0.22161  0.37670  0.10968  Biso   1.000  O
  O9       1.0000 0.52766  0.15414  0.34650  Biso   1.000  O
  O10      1.0000 0.53705  0.08465  0.83846  Biso   1.000  O
  O11      1.0000 0.96828  0.41376  0.34147  Biso   1.000  O
  O12      1.0000 0.97064  0.33621  0.83837  Biso   1.000  O
  O13      1.0000 0.78026  0.12288  0.89511  Biso   1.000  O
  O14      1.0000 0.78205  0.12229  0.38950  Biso   1.000  O
  O15      1.0000 0.72277  0.37279  0.90084  Biso   1.000  O
  O16      1.0000 0.72212  0.37333  0.39362  Biso   1.000  O
  Hf9      1.0000 0.13939  0.52251  0.35192  Biso   1.000  Hf
  Hf10     1.0000 0.14043  0.72896  0.84962  Biso   1.000  Hf
  Hf11     1.0000 0.36196  0.77205  0.35341  Biso   1.000  Hf
  Hf12     1.0000 0.36350  0.97780  0.85322  Biso   1.000  Hf
  Hf13     1.0000 0.64148  0.52910  0.15865  Biso   1.000  Hf
  Hf14     1.0000 0.64047  0.72841  0.65833  Biso   1.000  Hf
  Hf15     1.0000 0.86536  0.76961  0.15952  Biso   1.000  Hf
  Hf16     1.0000 0.86621  0.97681  0.65735  Biso   1.000  Hf
  O17      1.0000 0.03467  0.66333  0.16819  Biso   1.000  O
  O18      1.0000 0.03316  0.58615  0.66997  Biso   1.000  O
  O19      1.0000 0.47178  0.90955  0.16574  Biso   1.000  O
  O20      1.0000 0.47087  0.83764  0.66907  Biso   1.000  O
  O21      1.0000 0.27747  0.62511  0.60007  Biso   1.000  O
  O22      1.0000 0.27737  0.62717  0.09824  Biso   1.000  O
  O23      1.0000 0.22543  0.87424  0.60030  Biso   1.000  O
  O24      1.0000 0.22521  0.87710  0.10066  Biso   1.000  O
  O25      1.0000 0.53380  0.66609  0.34149  Biso   1.000  O
  O26      1.0000 0.53220  0.58769  0.84202  Biso   1.000  O
  O27      1.0000 0.97103  0.91282  0.33953  Biso   1.000  O
  O28      1.0000 0.97005  0.83606  0.84104  Biso   1.000  O
  O29      1.0000 0.77942  0.62363  0.90760  Biso   1.000  O
  O30      1.0000 0.77951  0.62554  0.41082  Biso   1.000  O
  O31      1.0000 0.72739  0.87248  0.91098  Biso   1.000  O
  O32      1.0000 0.72790  0.87263  0.41136  Biso   1.000  O
  Na1      1.0000 0.54825  0.26760  0.03356  Biso   1.000  Na
