data_image0
_cell_length_a       4.98989
_cell_length_b       10.352
_cell_length_c       10.0862
_cell_angle_alpha    90.1049
_cell_angle_beta     90.1909
_cell_angle_gamma    89.9336

_symmetry_space_group_name_H-M    "P 1"
_symmetry_int_tables_number       1

loop_
  _symmetry_equiv_pos_as_xyz
  'x, y, z'

loop_
  _atom_site_label
  _atom_site_occupancy
  _atom_site_fract_x
  _atom_site_fract_y
  _atom_site_fract_z
  _atom_site_thermal_displace_type
  _atom_site_B_iso_or_equiv
  _atom_site_type_symbol
  Na1      1.0000 0.26340  0.01366  0.11793  Biso   1.000  Na
  Hf1      1.0000 0.26311  0.01687  0.62747  Biso   1.000  Hf
  Hf2      1.0000 0.27191  0.51558  0.12562  Biso   1.000  Hf
  Hf3      1.0000 0.26688  0.51672  0.62654  Biso   1.000  Hf
  Hf4      1.0000 0.26736  0.23152  0.37459  Biso   1.000  Hf
  Hf5      1.0000 0.27519  0.23138  0.87530  Biso   1.000  Hf
  Hf6      1.0000 0.26554  0.73470  0.37705  Biso   1.000  Hf
  Hf7      1.0000 0.27600  0.73309  0.87677  Biso   1.000  Hf
  Hf8      1.0000 0.72033  0.26331  0.12703  Biso   1.000  Hf
  Hf9      1.0000 0.72835  0.26701  0.62413  Biso   1.000  Hf
  Hf10     1.0000 0.72552  0.76848  0.12700  Biso   1.000  Hf
  Hf11     1.0000 0.73002  0.76671  0.62572  Biso   1.000  Hf
  Hf12     1.0000 0.72789  0.48387  0.37732  Biso   1.000  Hf
  Hf13     1.0000 0.73271  0.48191  0.87680  Biso   1.000  Hf
  Hf14     1.0000 0.72167  0.98288  0.37393  Biso   1.000  Hf
  Hf15     1.0000 0.72654  0.98341  0.87522  Biso   1.000  Hf
  O1       1.0000 0.06624  0.19829  0.20062  Biso   1.000  O
  O2       1.0000 0.07656  0.18927  0.68833  Biso   1.000  O
  O3       1.0000 0.06852  0.68110  0.19690  Biso   1.000  O
  O4       1.0000 0.07081  0.68396  0.69551  Biso   1.000  O
  O5       1.0000 0.06327  0.06692  0.44656  Biso   1.000  O
  O6       1.0000 0.08055  0.06608  0.91030  Biso   1.000  O
  O7       1.0000 0.06806  0.56578  0.44691  Biso   1.000  O
  O8       1.0000 0.07135  0.56677  0.94576  Biso   1.000  O
  O9       1.0000 0.92762  0.43575  0.19642  Biso   1.000  O
  O10      1.0000 0.92880  0.43458  0.69580  Biso   1.000  O
  O11      1.0000 0.90879  0.92888  0.20361  Biso   1.000  O
  O12      1.0000 0.92148  0.93361  0.69080  Biso   1.000  O
  O13      1.0000 0.92948  0.31851  0.44688  Biso   1.000  O
  O14      1.0000 0.93654  0.31764  0.94598  Biso   1.000  O
  O15      1.0000 0.92803  0.81571  0.44898  Biso   1.000  O
  O16      1.0000 0.94209  0.81916  0.94865  Biso   1.000  O
  O17      1.0000 0.56241  0.12766  0.25652  Biso   1.000  O
  O18      1.0000 0.54657  0.11889  0.74573  Biso   1.000  O
  O19      1.0000 0.54008  0.61473  0.24936  Biso   1.000  O
  O20      1.0000 0.54251  0.61730  0.74987  Biso   1.000  O
  O21      1.0000 0.53385  0.13217  0.50152  Biso   1.000  O
  O22      1.0000 0.56388  0.13568  0.99139  Biso   1.000  O
  O23      1.0000 0.53809  0.63269  0.49960  Biso   1.000  O
  O24      1.0000 0.54457  0.62707  0.99993  Biso   1.000  O
  O25      1.0000 0.45870  0.38330  0.49992  Biso   1.000  O
  O26      1.0000 0.46056  0.38172  0.00010  Biso   1.000  O
  O27      1.0000 0.45237  0.88274  0.50118  Biso   1.000  O
  O28      1.0000 0.47600  0.87055  0.99328  Biso   1.000  O
  O29      1.0000 0.45380  0.37038  0.25047  Biso   1.000  O
  O30      1.0000 0.46024  0.36845  0.74948  Biso   1.000  O
  O31      1.0000 0.46392  0.85819  0.25512  Biso   1.000  O
  O32      1.0000 0.45569  0.86792  0.74771  Biso   1.000  O
