data_image0
_cell_length_a       10.033
_cell_length_b       10.2375
_cell_length_c       10.5105
_cell_angle_alpha    89.9595
_cell_angle_beta     90.548
_cell_angle_gamma    90.1453

_symmetry_space_group_name_H-M    "P 1"
_symmetry_int_tables_number       1

loop_
  _symmetry_equiv_pos_as_xyz
  'x, y, z'

loop_
  _atom_site_label
  _atom_site_occupancy
  _atom_site_fract_x
  _atom_site_fract_y
  _atom_site_fract_z
  _atom_site_thermal_displace_type
  _atom_site_B_iso_or_equiv
  _atom_site_type_symbol
  Hf1      1.0000 0.13909  0.02062  0.17298  Biso   1.000  Hf
  Hf2      1.0000 0.13890  0.22734  0.42613  Biso   1.000  Hf
  Hf3      1.0000 0.35014  0.27295  0.18439  Biso   1.000  Hf
  Hf4      1.0000 0.36117  0.47934  0.42593  Biso   1.000  Hf
  Hf5      1.0000 0.64156  0.01423  0.07924  Biso   1.000  Hf
  Hf6      1.0000 0.63792  0.22714  0.32857  Biso   1.000  Hf
  Hf7      1.0000 0.86409  0.27139  0.07714  Biso   1.000  Hf
  Hf8      1.0000 0.86043  0.47818  0.32732  Biso   1.000  Hf
  O1       1.0000 0.03492  0.16543  0.08461  Biso   1.000  O
  O2       1.0000 0.03285  0.08518  0.33366  Biso   1.000  O
  O3       1.0000 0.46022  0.42491  0.09395  Biso   1.000  O
  O4       1.0000 0.46552  0.33387  0.33820  Biso   1.000  O
  O5       1.0000 0.27446  0.12389  0.30009  Biso   1.000  O
  O6       1.0000 0.27922  0.12762  0.04881  Biso   1.000  O
  O7       1.0000 0.21922  0.37514  0.30215  Biso   1.000  O
  O8       1.0000 0.22087  0.37696  0.05029  Biso   1.000  O
  O9       1.0000 0.52566  0.15738  0.17498  Biso   1.000  O
  O10      1.0000 0.53251  0.08400  0.41875  Biso   1.000  O
  O11      1.0000 0.96602  0.41602  0.16740  Biso   1.000  O
  O12      1.0000 0.96834  0.33513  0.41678  Biso   1.000  O
  O13      1.0000 0.77736  0.12364  0.45137  Biso   1.000  O
  O14      1.0000 0.77497  0.12571  0.20131  Biso   1.000  O
  O15      1.0000 0.72368  0.37439  0.45256  Biso   1.000  O
  O16      1.0000 0.71963  0.37452  0.20070  Biso   1.000  O
  Hf9      1.0000 0.14087  0.02083  0.67401  Biso   1.000  Hf
  Hf10     1.0000 0.14122  0.22870  0.92385  Biso   1.000  Hf
  Hf11     1.0000 0.36257  0.27181  0.67516  Biso   1.000  Hf
  Hf12     1.0000 0.36028  0.48110  0.92472  Biso   1.000  Hf
  Hf13     1.0000 0.64106  0.01756  0.57490  Biso   1.000  Hf
  Hf14     1.0000 0.65048  0.22365  0.81020  Biso   1.000  Hf
  Hf15     1.0000 0.86448  0.27245  0.57460  Biso   1.000  Hf
  Hf16     1.0000 0.86318  0.47857  0.82903  Biso   1.000  Hf
  O17      1.0000 0.03403  0.16430  0.58443  Biso   1.000  O
  O18      1.0000 0.03520  0.08460  0.83438  Biso   1.000  O
  O19      1.0000 0.46931  0.41475  0.58571  Biso   1.000  O
  O20      1.0000 0.47288  0.33408  0.83558  Biso   1.000  O
  O21      1.0000 0.27895  0.12435  0.79824  Biso   1.000  O
  O22      1.0000 0.27838  0.12549  0.54908  Biso   1.000  O
  O23      1.0000 0.22625  0.37397  0.79927  Biso   1.000  O
  O24      1.0000 0.22462  0.37560  0.55015  Biso   1.000  O
  O25      1.0000 0.53415  0.16236  0.66385  Biso   1.000  O
  O26      1.0000 0.53674  0.08536  0.91679  Biso   1.000  O
  O27      1.0000 0.96893  0.41475  0.66813  Biso   1.000  O
  O28      1.0000 0.96874  0.33401  0.91715  Biso   1.000  O
  O29      1.0000 0.77768  0.12392  0.95068  Biso   1.000  O
  O30      1.0000 0.78262  0.12254  0.69721  Biso   1.000  O
  O31      1.0000 0.72380  0.37383  0.95215  Biso   1.000  O
  O32      1.0000 0.72685  0.37491  0.70054  Biso   1.000  O
  Hf17     1.0000 0.13851  0.52278  0.17366  Biso   1.000  Hf
  Hf18     1.0000 0.13878  0.72841  0.42335  Biso   1.000  Hf
  Hf19     1.0000 0.36059  0.77174  0.17454  Biso   1.000  Hf
  Hf20     1.0000 0.36116  0.97774  0.42495  Biso   1.000  Hf
  Hf21     1.0000 0.64052  0.52852  0.07982  Biso   1.000  Hf
  Hf22     1.0000 0.63898  0.72910  0.32983  Biso   1.000  Hf
  Hf23     1.0000 0.86329  0.77054  0.07903  Biso   1.000  Hf
  Hf24     1.0000 0.86265  0.97911  0.32833  Biso   1.000  Hf
  O33      1.0000 0.03421  0.66587  0.08439  Biso   1.000  O
  O34      1.0000 0.03229  0.58491  0.33461  Biso   1.000  O
  O35      1.0000 0.46895  0.91290  0.08359  Biso   1.000  O
  O36      1.0000 0.46782  0.83557  0.33507  Biso   1.000  O
  O37      1.0000 0.27641  0.62423  0.29794  Biso   1.000  O
  O38      1.0000 0.27689  0.62726  0.04665  Biso   1.000  O
  O39      1.0000 0.22347  0.87403  0.29773  Biso   1.000  O
  O40      1.0000 0.22429  0.87747  0.04741  Biso   1.000  O
  O41      1.0000 0.53350  0.66805  0.16853  Biso   1.000  O
  O42      1.0000 0.53274  0.58529  0.41779  Biso   1.000  O
  O43      1.0000 0.96728  0.91608  0.16675  Biso   1.000  O
  O44      1.0000 0.96752  0.83492  0.41769  Biso   1.000  O
  O45      1.0000 0.77736  0.62382  0.45431  Biso   1.000  O
  O46      1.0000 0.77789  0.62672  0.20534  Biso   1.000  O
  O47      1.0000 0.72505  0.87344  0.45487  Biso   1.000  O
  O48      1.0000 0.72520  0.87410  0.20567  Biso   1.000  O
  Hf25     1.0000 0.14007  0.52089  0.67395  Biso   1.000  Hf
  Hf26     1.0000 0.14045  0.72941  0.92296  Biso   1.000  Hf
  Hf27     1.0000 0.36227  0.77091  0.67390  Biso   1.000  Hf
  Hf28     1.0000 0.36353  0.97913  0.92352  Biso   1.000  Hf
  Hf29     1.0000 0.64027  0.52191  0.57744  Biso   1.000  Hf
  Hf30     1.0000 0.64006  0.72832  0.82770  Biso   1.000  Hf
  Hf31     1.0000 0.86338  0.77011  0.57916  Biso   1.000  Hf
  Hf32     1.0000 0.86469  0.97709  0.82889  Biso   1.000  Hf
  O49      1.0000 0.03434  0.66464  0.58470  Biso   1.000  O
  O50      1.0000 0.03496  0.58417  0.83542  Biso   1.000  O
  O51      1.0000 0.46916  0.91276  0.58395  Biso   1.000  O
  O52      1.0000 0.46943  0.83579  0.83414  Biso   1.000  O
  O53      1.0000 0.27778  0.62456  0.79766  Biso   1.000  O
  O54      1.0000 0.27716  0.62571  0.54767  Biso   1.000  O
  O55      1.0000 0.22541  0.87398  0.79775  Biso   1.000  O
  O56      1.0000 0.22426  0.87563  0.54809  Biso   1.000  O
  O57      1.0000 0.53360  0.66418  0.66788  Biso   1.000  O
  O58      1.0000 0.53323  0.58559  0.91857  Biso   1.000  O
  O59      1.0000 0.96944  0.91399  0.66808  Biso   1.000  O
  O60      1.0000 0.96837  0.83420  0.91773  Biso   1.000  O
  O61      1.0000 0.77864  0.62429  0.95392  Biso   1.000  O
  O62      1.0000 0.77786  0.62495  0.70460  Biso   1.000  O
  O63      1.0000 0.72559  0.87357  0.95560  Biso   1.000  O
  O64      1.0000 0.72601  0.87460  0.70518  Biso   1.000  O
  Na1      1.0000 0.55152  0.26882  0.01785  Biso   1.000  Na
