data_image0
_cell_length_a       10.0515
_cell_length_b       10.1522
_cell_length_c       4.98953
_cell_angle_alpha    89.9982
_cell_angle_beta     90.0026
_cell_angle_gamma    89.9999

_symmetry_space_group_name_H-M    "P 1"
_symmetry_int_tables_number       1

loop_
  _symmetry_equiv_pos_as_xyz
  'x, y, z'

loop_
  _atom_site_label
  _atom_site_occupancy
  _atom_site_fract_x
  _atom_site_fract_y
  _atom_site_fract_z
  _atom_site_thermal_displace_type
  _atom_site_B_iso_or_equiv
  _atom_site_type_symbol
  Na1      1.0000 0.12510  0.99987  0.25166  Biso   1.000  Na
  Hf1      1.0000 0.12511  0.49987  0.25166  Biso   1.000  Hf
  Hf2      1.0000 0.62510  0.99987  0.25167  Biso   1.000  Hf
  Hf3      1.0000 0.62511  0.49986  0.25166  Biso   1.000  Hf
  Hf4      1.0000 0.12510  0.24811  0.75167  Biso   1.000  Hf
  Hf5      1.0000 0.12512  0.75162  0.75164  Biso   1.000  Hf
  Hf6      1.0000 0.62511  0.24827  0.75167  Biso   1.000  Hf
  Hf7      1.0000 0.62511  0.75145  0.75166  Biso   1.000  Hf
  Hf8      1.0000 0.37387  0.24983  0.25138  Biso   1.000  Hf
  Hf9      1.0000 0.37388  0.74989  0.25195  Biso   1.000  Hf
  Hf10     1.0000 0.87634  0.24985  0.25197  Biso   1.000  Hf
  Hf11     1.0000 0.87635  0.74990  0.25136  Biso   1.000  Hf
  Hf12     1.0000 0.37011  0.99987  0.75167  Biso   1.000  Hf
  Hf13     1.0000 0.37503  0.49986  0.75166  Biso   1.000  Hf
  Hf14     1.0000 0.88010  0.99987  0.75167  Biso   1.000  Hf
  Hf15     1.0000 0.87519  0.49987  0.75165  Biso   1.000  Hf
  O1       1.0000 0.99535  0.14068  0.99707  Biso   1.000  O
  O2       1.0000 0.00475  0.63435  0.01616  Biso   1.000  O
  O3       1.0000 0.50625  0.14327  0.01602  Biso   1.000  O
  O4       1.0000 0.50471  0.64234  0.00805  Biso   1.000  O
  O5       1.0000 0.99150  0.12452  0.51820  Biso   1.000  O
  O6       1.0000 0.99762  0.61192  0.51258  Biso   1.000  O
  O7       1.0000 0.49991  0.10643  0.51210  Biso   1.000  O
  O8       1.0000 0.49705  0.60699  0.50577  Biso   1.000  O
  O9       1.0000 0.00474  0.36539  0.48717  Biso   1.000  O
  O10      1.0000 0.99537  0.85906  0.50625  Biso   1.000  O
  O11      1.0000 0.50470  0.35739  0.49528  Biso   1.000  O
  O12      1.0000 0.50627  0.85645  0.48728  Biso   1.000  O
  O13      1.0000 0.99760  0.38781  0.99075  Biso   1.000  O
  O14      1.0000 0.99151  0.87521  0.98512  Biso   1.000  O
  O15      1.0000 0.49703  0.39273  0.99756  Biso   1.000  O
  O16      1.0000 0.49992  0.89329  0.99121  Biso   1.000  O
  O17      1.0000 0.25485  0.14068  0.50627  Biso   1.000  O
  O18      1.0000 0.24547  0.63435  0.48713  Biso   1.000  O
  O19      1.0000 0.74395  0.14327  0.48729  Biso   1.000  O
  O20      1.0000 0.74552  0.64234  0.49528  Biso   1.000  O
  O21      1.0000 0.25870  0.12452  0.98514  Biso   1.000  O
  O22      1.0000 0.25261  0.61191  0.99072  Biso   1.000  O
  O23      1.0000 0.75029  0.10643  0.99122  Biso   1.000  O
  O24      1.0000 0.75318  0.60700  0.99756  Biso   1.000  O
  O25      1.0000 0.24546  0.36538  0.01618  Biso   1.000  O
  O26      1.0000 0.25485  0.85905  0.99706  Biso   1.000  O
  O27      1.0000 0.74550  0.35739  0.00806  Biso   1.000  O
  O28      1.0000 0.74396  0.85647  0.01602  Biso   1.000  O
  O29      1.0000 0.25260  0.38781  0.51260  Biso   1.000  O
  O30      1.0000 0.25872  0.87521  0.51819  Biso   1.000  O
  O31      1.0000 0.75318  0.39273  0.50578  Biso   1.000  O
  O32      1.0000 0.75030  0.89329  0.51209  Biso   1.000  O
