data_image0
_cell_length_a       10.038
_cell_length_b       5.25374
_cell_length_c       10.0706
_cell_angle_alpha    86.7006
_cell_angle_beta     89.7219
_cell_angle_gamma    89.7119

_symmetry_space_group_name_H-M    "P 1"
_symmetry_int_tables_number       1

loop_
  _symmetry_equiv_pos_as_xyz
  'x, y, z'

loop_
  _atom_site_label
  _atom_site_occupancy
  _atom_site_fract_x
  _atom_site_fract_y
  _atom_site_fract_z
  _atom_site_thermal_displace_type
  _atom_site_B_iso_or_equiv
  _atom_site_type_symbol
  Hf1      1.0000 0.14363  0.10650  0.12463  Biso   1.000  Hf
  Hf2      1.0000 0.13749  0.46038  0.38359  Biso   1.000  Hf
  Hf3      1.0000 0.37408  0.56768  0.12249  Biso   1.000  Hf
  Hf4      1.0000 0.36476  0.95676  0.37933  Biso   1.000  Hf
  O1       1.0000 0.02393  0.37720  0.21045  Biso   1.000  O
  O2       1.0000 0.04251  0.11131  0.44374  Biso   1.000  O
  O3       1.0000 0.47209  0.86469  0.21045  Biso   1.000  O
  O4       1.0000 0.46366  0.61938  0.45103  Biso   1.000  O
  O5       1.0000 0.27913  0.25930  0.25200  Biso   1.000  O
  O6       1.0000 0.27485  0.23995  0.50532  Biso   1.000  O
  O7       1.0000 0.22697  0.73646  0.50501  Biso   1.000  O
  O8       1.0000 0.22757  0.74945  0.25288  Biso   1.000  O
  Hf5      1.0000 0.14025  0.00028  0.62721  Biso   1.000  Hf
  Hf6      1.0000 0.10045  0.45905  0.83528  Biso   1.000  Hf
  Hf7      1.0000 0.36628  0.50892  0.62966  Biso   1.000  Hf
  Hf8      1.0000 0.39148  0.97005  0.85460  Biso   1.000  Hf
  O9       1.0000 0.02623  0.31361  0.67091  Biso   1.000  O
  O10      1.0000 0.03386  0.12023  0.94108  Biso   1.000  O
  O11      1.0000 0.47550  0.82457  0.68635  Biso   1.000  O
  O12      1.0000 0.47344  0.63118  0.94301  Biso   1.000  O
  O13      1.0000 0.25879  0.21743  0.75511  Biso   1.000  O
  O14      1.0000 0.22883  0.39626  0.00633  Biso   1.000  O
  O15      1.0000 0.27665  0.89533  0.01600  Biso   1.000  O
  O16      1.0000 0.24239  0.71381  0.75886  Biso   1.000  O
  Hf9      1.0000 0.63474  0.03491  0.13178  Biso   1.000  Hf
  Hf10     1.0000 0.62812  0.46174  0.37388  Biso   1.000  Hf
  Hf11     1.0000 0.84928  0.52769  0.12957  Biso   1.000  Hf
  Hf12     1.0000 0.87826  0.96144  0.36662  Biso   1.000  Hf
  O17      1.0000 0.53929  0.37493  0.19268  Biso   1.000  O
  O18      1.0000 0.53284  0.12543  0.44684  Biso   1.000  O
  O19      1.0000 0.96482  0.88337  0.18676  Biso   1.000  O
  O20      1.0000 0.96729  0.62572  0.44620  Biso   1.000  O
  O21      1.0000 0.76516  0.23033  0.25214  Biso   1.000  O
  O22      1.0000 0.76827  0.26003  0.49731  Biso   1.000  O
  O23      1.0000 0.73098  0.75903  0.49549  Biso   1.000  O
  O24      1.0000 0.73206  0.73335  0.25215  Biso   1.000  O
  Hf13     1.0000 0.64164  0.01495  0.61878  Biso   1.000  Hf
  Hf14     1.0000 0.63452  0.45167  0.87412  Biso   1.000  Hf
  Hf15     1.0000 0.85889  0.52050  0.61846  Biso   1.000  Hf
  Hf16     1.0000 0.86676  0.95361  0.87817  Biso   1.000  Hf
  O25      1.0000 0.52299  0.31003  0.71319  Biso   1.000  O
  O26      1.0000 0.53170  0.13519  0.95949  Biso   1.000  O
  O27      1.0000 0.98426  0.79770  0.71469  Biso   1.000  O
  O28      1.0000 0.95534  0.61244  0.95130  Biso   1.000  O
  O29      1.0000 0.76792  0.21325  0.74755  Biso   1.000  O
  O30      1.0000 0.76964  0.26346  0.00036  Biso   1.000  O
  O31      1.0000 0.72603  0.76884  0.00191  Biso   1.000  O
  O32      1.0000 0.73369  0.71820  0.74919  Biso   1.000  O
  Na1      1.0000 0.10594  0.66472  0.08278  Biso   1.000  Na
