data_image0
_cell_length_a       10.0678
_cell_length_b       10.2299
_cell_length_c       10.453
_cell_angle_alpha    89.9293
_cell_angle_beta     89.8898
_cell_angle_gamma    90.0181

_symmetry_space_group_name_H-M    "P 1"
_symmetry_int_tables_number       1

loop_
  _symmetry_equiv_pos_as_xyz
  'x, y, z'

loop_
  _atom_site_label
  _atom_site_occupancy
  _atom_site_fract_x
  _atom_site_fract_y
  _atom_site_fract_z
  _atom_site_thermal_displace_type
  _atom_site_B_iso_or_equiv
  _atom_site_type_symbol
  Na1      1.0000 0.14212  0.01416  0.17096  Biso   1.000  Na
  Hf1      1.0000 0.13983  0.02026  0.67215  Biso   1.000  Hf
  Hf2      1.0000 0.14054  0.52064  0.17214  Biso   1.000  Hf
  Hf3      1.0000 0.13987  0.52096  0.67308  Biso   1.000  Hf
  Hf4      1.0000 0.14186  0.22833  0.42063  Biso   1.000  Hf
  Hf5      1.0000 0.13982  0.22658  0.92665  Biso   1.000  Hf
  Hf6      1.0000 0.14206  0.72966  0.42105  Biso   1.000  Hf
  Hf7      1.0000 0.14203  0.73063  0.92326  Biso   1.000  Hf
  Hf8      1.0000 0.35609  0.26480  0.17200  Biso   1.000  Hf
  Hf9      1.0000 0.35994  0.27020  0.67294  Biso   1.000  Hf
  Hf10     1.0000 0.35916  0.77297  0.17160  Biso   1.000  Hf
  Hf11     1.0000 0.36072  0.77199  0.67188  Biso   1.000  Hf
  Hf12     1.0000 0.36071  0.47819  0.42129  Biso   1.000  Hf
  Hf13     1.0000 0.35962  0.47740  0.92345  Biso   1.000  Hf
  Hf14     1.0000 0.35718  0.98023  0.41918  Biso   1.000  Hf
  Hf15     1.0000 0.35930  0.97995  0.92438  Biso   1.000  Hf
  Hf16     1.0000 0.63973  0.02129  0.07830  Biso   1.000  Hf
  Hf17     1.0000 0.63808  0.02050  0.57660  Biso   1.000  Hf
  Hf18     1.0000 0.63694  0.51955  0.07806  Biso   1.000  Hf
  Hf19     1.0000 0.63825  0.52108  0.57758  Biso   1.000  Hf
  Hf20     1.0000 0.63847  0.22941  0.32743  Biso   1.000  Hf
  Hf21     1.0000 0.63878  0.22865  0.82779  Biso   1.000  Hf
  Hf22     1.0000 0.63927  0.73016  0.32678  Biso   1.000  Hf
  Hf23     1.0000 0.63768  0.72906  0.82781  Biso   1.000  Hf
  Hf24     1.0000 0.86167  0.27012  0.07683  Biso   1.000  Hf
  Hf25     1.0000 0.85922  0.27116  0.57664  Biso   1.000  Hf
  Hf26     1.0000 0.85982  0.77074  0.07760  Biso   1.000  Hf
  Hf27     1.0000 0.86103  0.77064  0.57766  Biso   1.000  Hf
  Hf28     1.0000 0.86042  0.48016  0.32757  Biso   1.000  Hf
  Hf29     1.0000 0.85989  0.47950  0.82775  Biso   1.000  Hf
  Hf30     1.0000 0.86420  0.97934  0.32614  Biso   1.000  Hf
  Hf31     1.0000 0.85970  0.97885  0.82779  Biso   1.000  Hf
  O1       1.0000 0.03154  0.17492  0.08327  Biso   1.000  O
  O2       1.0000 0.03191  0.16753  0.58748  Biso   1.000  O
  O3       1.0000 0.03206  0.66479  0.08377  Biso   1.000  O
  O4       1.0000 0.03261  0.66500  0.58589  Biso   1.000  O
  O5       1.0000 0.02577  0.08779  0.35348  Biso   1.000  O
  O6       1.0000 0.03118  0.08487  0.83412  Biso   1.000  O
  O7       1.0000 0.03220  0.58634  0.33408  Biso   1.000  O
  O8       1.0000 0.03204  0.58416  0.83436  Biso   1.000  O
  O9       1.0000 0.46666  0.41185  0.08339  Biso   1.000  O
  O10      1.0000 0.46777  0.41413  0.58349  Biso   1.000  O
  O11      1.0000 0.47116  0.91462  0.08339  Biso   1.000  O
  O12      1.0000 0.46741  0.91372  0.58165  Biso   1.000  O
  O13      1.0000 0.46879  0.33737  0.33336  Biso   1.000  O
  O14      1.0000 0.46795  0.33500  0.83302  Biso   1.000  O
  O15      1.0000 0.47290  0.84053  0.33092  Biso   1.000  O
  O16      1.0000 0.46818  0.83642  0.83173  Biso   1.000  O
  O17      1.0000 0.28374  0.13079  0.30568  Biso   1.000  O
  O18      1.0000 0.27425  0.12271  0.79389  Biso   1.000  O
  O19      1.0000 0.27744  0.62051  0.29533  Biso   1.000  O
  O20      1.0000 0.27596  0.62430  0.79653  Biso   1.000  O
  O21      1.0000 0.28934  0.13521  0.03612  Biso   1.000  O
  O22      1.0000 0.27485  0.12542  0.54830  Biso   1.000  O
  O23      1.0000 0.27548  0.62160  0.04727  Biso   1.000  O
  O24      1.0000 0.27634  0.62619  0.54611  Biso   1.000  O
  O25      1.0000 0.22247  0.37459  0.29574  Biso   1.000  O
  O26      1.0000 0.22448  0.37396  0.79649  Biso   1.000  O
  O27      1.0000 0.23220  0.86509  0.30180  Biso   1.000  O
  O28      1.0000 0.22330  0.87413  0.79337  Biso   1.000  O
  O29      1.0000 0.22120  0.37735  0.04669  Biso   1.000  O
  O30      1.0000 0.22455  0.37627  0.54649  Biso   1.000  O
  O31      1.0000 0.23699  0.86520  0.03743  Biso   1.000  O
  O32      1.0000 0.22300  0.87644  0.54695  Biso   1.000  O
  O33      1.0000 0.53337  0.16511  0.16638  Biso   1.000  O
  O34      1.0000 0.53198  0.16449  0.66578  Biso   1.000  O
  O35      1.0000 0.53140  0.66289  0.16722  Biso   1.000  O
  O36      1.0000 0.53170  0.66404  0.66665  Biso   1.000  O
  O37      1.0000 0.53242  0.08515  0.41575  Biso   1.000  O
  O38      1.0000 0.53545  0.08359  0.91483  Biso   1.000  O
  O39      1.0000 0.53132  0.58708  0.41709  Biso   1.000  O
  O40      1.0000 0.53027  0.58552  0.91700  Biso   1.000  O
  O41      1.0000 0.96601  0.41774  0.16480  Biso   1.000  O
  O42      1.0000 0.96746  0.41552  0.66478  Biso   1.000  O
  O43      1.0000 0.95511  0.91101  0.16786  Biso   1.000  O
  O44      1.0000 0.96648  0.91587  0.66525  Biso   1.000  O
  O45      1.0000 0.96787  0.33786  0.41623  Biso   1.000  O
  O46      1.0000 0.96680  0.33618  0.91290  Biso   1.000  O
  O47      1.0000 0.96875  0.83356  0.41679  Biso   1.000  O
  O48      1.0000 0.96786  0.83442  0.91455  Biso   1.000  O
  O49      1.0000 0.77714  0.12397  0.95381  Biso   1.000  O
  O50      1.0000 0.77305  0.12670  0.45524  Biso   1.000  O
  O51      1.0000 0.77348  0.62228  0.95301  Biso   1.000  O
  O52      1.0000 0.77558  0.62460  0.45409  Biso   1.000  O
  O53      1.0000 0.77588  0.12669  0.20485  Biso   1.000  O
  O54      1.0000 0.77532  0.12565  0.70411  Biso   1.000  O
  O55      1.0000 0.77551  0.62630  0.20375  Biso   1.000  O
  O56      1.0000 0.77502  0.62593  0.70348  Biso   1.000  O
  O57      1.0000 0.72243  0.37374  0.95283  Biso   1.000  O
  O58      1.0000 0.72363  0.37577  0.45349  Biso   1.000  O
  O59      1.0000 0.72429  0.87360  0.95303  Biso   1.000  O
  O60      1.0000 0.72613  0.87475  0.45373  Biso   1.000  O
  O61      1.0000 0.72373  0.37705  0.20452  Biso   1.000  O
  O62      1.0000 0.72419  0.37585  0.70289  Biso   1.000  O
  O63      1.0000 0.71688  0.87579  0.20318  Biso   1.000  O
  O64      1.0000 0.72379  0.87534  0.70359  Biso   1.000  O
