data_image0
_cell_length_a       4.98951
_cell_length_b       10.1522
_cell_length_c       10.0515
_cell_angle_alpha    89.9995
_cell_angle_beta     90.0008
_cell_angle_gamma    90.0001

_symmetry_space_group_name_H-M    "P 1"
_symmetry_int_tables_number       1

loop_
  _symmetry_equiv_pos_as_xyz
  'x, y, z'

loop_
  _atom_site_label
  _atom_site_occupancy
  _atom_site_fract_x
  _atom_site_fract_y
  _atom_site_fract_z
  _atom_site_thermal_displace_type
  _atom_site_B_iso_or_equiv
  _atom_site_type_symbol
  Na1      1.0000 0.25169  0.99987  0.12512  Biso   1.000  Na
  Hf1      1.0000 0.25166  0.99987  0.62512  Biso   1.000  Hf
  Hf2      1.0000 0.25165  0.49987  0.12512  Biso   1.000  Hf
  Hf3      1.0000 0.25166  0.49986  0.62512  Biso   1.000  Hf
  Hf4      1.0000 0.25136  0.24984  0.37388  Biso   1.000  Hf
  Hf5      1.0000 0.25196  0.24984  0.87636  Biso   1.000  Hf
  Hf6      1.0000 0.25195  0.74990  0.37389  Biso   1.000  Hf
  Hf7      1.0000 0.25137  0.74990  0.87635  Biso   1.000  Hf
  Hf8      1.0000 0.75166  0.24811  0.12511  Biso   1.000  Hf
  Hf9      1.0000 0.75166  0.24828  0.62512  Biso   1.000  Hf
  Hf10     1.0000 0.75165  0.75163  0.12513  Biso   1.000  Hf
  Hf11     1.0000 0.75166  0.75144  0.62512  Biso   1.000  Hf
  Hf12     1.0000 0.75168  0.99988  0.37013  Biso   1.000  Hf
  Hf13     1.0000 0.75167  0.99986  0.88012  Biso   1.000  Hf
  Hf14     1.0000 0.75165  0.49987  0.37504  Biso   1.000  Hf
  Hf15     1.0000 0.75166  0.49987  0.87521  Biso   1.000  Hf
  O1       1.0000 0.99706  0.14068  0.99537  Biso   1.000  O
  O2       1.0000 0.01599  0.14327  0.50626  Biso   1.000  O
  O3       1.0000 0.01617  0.63435  0.00476  Biso   1.000  O
  O4       1.0000 0.00805  0.64234  0.50471  Biso   1.000  O
  O5       1.0000 0.98515  0.12453  0.25871  Biso   1.000  O
  O6       1.0000 0.99121  0.10643  0.75030  Biso   1.000  O
  O7       1.0000 0.99071  0.61193  0.25261  Biso   1.000  O
  O8       1.0000 0.99754  0.60700  0.75318  Biso   1.000  O
  O9       1.0000 0.01616  0.36539  0.24547  Biso   1.000  O
  O10      1.0000 0.00807  0.35739  0.74552  Biso   1.000  O
  O11      1.0000 0.99707  0.85906  0.25486  Biso   1.000  O
  O12      1.0000 0.01600  0.85646  0.74398  Biso   1.000  O
  O13      1.0000 0.99074  0.38781  0.99762  Biso   1.000  O
  O14      1.0000 0.99754  0.39273  0.49705  Biso   1.000  O
  O15      1.0000 0.98514  0.87521  0.99152  Biso   1.000  O
  O16      1.0000 0.99120  0.89329  0.49993  Biso   1.000  O
  O17      1.0000 0.50627  0.14069  0.25486  Biso   1.000  O
  O18      1.0000 0.48728  0.14327  0.74396  Biso   1.000  O
  O19      1.0000 0.48713  0.63435  0.24548  Biso   1.000  O
  O20      1.0000 0.49525  0.64234  0.74553  Biso   1.000  O
  O21      1.0000 0.51819  0.12452  0.99152  Biso   1.000  O
  O22      1.0000 0.51207  0.10644  0.49992  Biso   1.000  O
  O23      1.0000 0.51260  0.61192  0.99763  Biso   1.000  O
  O24      1.0000 0.50577  0.60700  0.49705  Biso   1.000  O
  O25      1.0000 0.48715  0.36539  0.00476  Biso   1.000  O
  O26      1.0000 0.49527  0.35740  0.50471  Biso   1.000  O
  O27      1.0000 0.50626  0.85905  0.99539  Biso   1.000  O
  O28      1.0000 0.48728  0.85646  0.50628  Biso   1.000  O
  O29      1.0000 0.51258  0.38782  0.25261  Biso   1.000  O
  O30      1.0000 0.50580  0.39273  0.75318  Biso   1.000  O
  O31      1.0000 0.51820  0.87521  0.25873  Biso   1.000  O
  O32      1.0000 0.51207  0.89329  0.75032  Biso   1.000  O
