data_image0
_cell_length_a       5.08515
_cell_length_b       10.2797
_cell_length_c       10.5708
_cell_angle_alpha    90.0483
_cell_angle_beta     79.0352
_cell_angle_gamma    90.5353

_symmetry_space_group_name_H-M    "P 1"
_symmetry_int_tables_number       1

loop_
  _symmetry_equiv_pos_as_xyz
  'x, y, z'

loop_
  _atom_site_label
  _atom_site_occupancy
  _atom_site_fract_x
  _atom_site_fract_y
  _atom_site_fract_z
  _atom_site_thermal_displace_type
  _atom_site_B_iso_or_equiv
  _atom_site_type_symbol
  Hf1      1.0000 0.28020  0.01986  0.14905  Biso   1.000  Hf
  Hf2      1.0000 0.30208  0.22742  0.40889  Biso   1.000  Hf
  Hf3      1.0000 0.68710  0.27483  0.09186  Biso   1.000  Hf
  Hf4      1.0000 0.71030  0.48216  0.35617  Biso   1.000  Hf
  O1       1.0000 0.05475  0.16553  0.07655  Biso   1.000  O
  O2       1.0000 0.08589  0.07554  0.33686  Biso   1.000  O
  O3       1.0000 0.90949  0.41934  0.17114  Biso   1.000  O
  O4       1.0000 0.94094  0.33882  0.43087  Biso   1.000  O
  O5       1.0000 0.56905  0.13106  0.24312  Biso   1.000  O
  O6       1.0000 0.56968  0.11995  0.49433  Biso   1.000  O
  O7       1.0000 0.42282  0.38190  0.00737  Biso   1.000  O
  O8       1.0000 0.42278  0.36907  0.25978  Biso   1.000  O
  Hf5      1.0000 0.27820  0.02007  0.64931  Biso   1.000  Hf
  Hf6      1.0000 0.26278  0.22732  0.89546  Biso   1.000  Hf
  Hf7      1.0000 0.72777  0.27327  0.60908  Biso   1.000  Hf
  Hf8      1.0000 0.71148  0.48180  0.85436  Biso   1.000  Hf
  O9       1.0000 0.07666  0.16837  0.58485  Biso   1.000  O
  O10      1.0000 0.05985  0.08215  0.82906  Biso   1.000  O
  O11      1.0000 0.93003  0.41863  0.67594  Biso   1.000  O
  O12      1.0000 0.91537  0.33331  0.91919  Biso   1.000  O
  O13      1.0000 0.54848  0.12851  0.74329  Biso   1.000  O
  O14      1.0000 0.54002  0.12171  0.98961  Biso   1.000  O
  O15      1.0000 0.45196  0.37913  0.51403  Biso   1.000  O
  O16      1.0000 0.44173  0.37166  0.76060  Biso   1.000  O
  Hf9      1.0000 0.26576  0.52396  0.14892  Biso   1.000  Hf
  Hf10     1.0000 0.27304  0.72737  0.39910  Biso   1.000  Hf
  Hf11     1.0000 0.71654  0.77240  0.10591  Biso   1.000  Hf
  Hf12     1.0000 0.72223  0.97305  0.35663  Biso   1.000  Hf
  O17      1.0000 0.05977  0.66763  0.08074  Biso   1.000  O
  O18      1.0000 0.05868  0.58435  0.32992  Biso   1.000  O
  O19      1.0000 0.93123  0.91631  0.17490  Biso   1.000  O
  O20      1.0000 0.92847  0.83084  0.42439  Biso   1.000  O
  O21      1.0000 0.54506  0.62860  0.24324  Biso   1.000  O
  O22      1.0000 0.54780  0.62244  0.49280  Biso   1.000  O
  O23      1.0000 0.44196  0.87876  0.01259  Biso   1.000  O
  O24      1.0000 0.44432  0.87042  0.26154  Biso   1.000  O
  Hf13     1.0000 0.27516  0.52334  0.64908  Biso   1.000  Hf
  Hf14     1.0000 0.27019  0.72884  0.89938  Biso   1.000  Hf
  Hf15     1.0000 0.71936  0.77159  0.60631  Biso   1.000  Hf
  Hf16     1.0000 0.71499  0.97675  0.85545  Biso   1.000  Hf
  O25      1.0000 0.06282  0.66606  0.58065  Biso   1.000  O
  O26      1.0000 0.06320  0.58444  0.83052  Biso   1.000  O
  O27      1.0000 0.92740  0.91637  0.67408  Biso   1.000  O
  O28      1.0000 0.92677  0.83423  0.92454  Biso   1.000  O
  O29      1.0000 0.54979  0.62930  0.74310  Biso   1.000  O
  O30      1.0000 0.54449  0.62267  0.99314  Biso   1.000  O
  O31      1.0000 0.44467  0.87801  0.51222  Biso   1.000  O
  O32      1.0000 0.44016  0.87115  0.76205  Biso   1.000  O
  Na1      1.0000 0.94937  0.23965  0.26300  Biso   1.000  Na
