data_image0
_cell_length_a       10.084
_cell_length_b       10.2924
_cell_length_c       10.0618
_cell_angle_alpha    87.7421
_cell_angle_beta     89.7735
_cell_angle_gamma    89.0554

_symmetry_space_group_name_H-M    "P 1"
_symmetry_int_tables_number       1

loop_
  _symmetry_equiv_pos_as_xyz
  'x, y, z'

loop_
  _atom_site_label
  _atom_site_occupancy
  _atom_site_fract_x
  _atom_site_fract_y
  _atom_site_fract_z
  _atom_site_thermal_displace_type
  _atom_site_B_iso_or_equiv
  _atom_site_type_symbol
  Hf1      1.0000 0.11003  0.97121  0.11604  Biso   1.000  Hf
  Hf2      1.0000 0.11713  0.23141  0.38595  Biso   1.000  Hf
  Hf3      1.0000 0.41397  0.26342  0.12880  Biso   1.000  Hf
  Hf4      1.0000 0.37943  0.01486  0.37134  Biso   1.000  Hf
  O1       1.0000 0.99452  0.14775  0.00425  Biso   1.000  O
  O2       1.0000 0.03535  0.08460  0.26565  Biso   1.000  O
  O3       1.0000 0.01371  0.34294  0.23945  Biso   1.000  O
  O4       1.0000 0.02684  0.39769  0.98594  Biso   1.000  O
  O5       1.0000 0.28395  0.16684  0.26275  Biso   1.000  O
  O6       1.0000 0.22706  0.07547  0.98763  Biso   1.000  O
  O7       1.0000 0.28571  0.31540  0.96656  Biso   1.000  O
  O8       1.0000 0.26462  0.40644  0.20863  Biso   1.000  O
  Hf5      1.0000 0.12554  0.99627  0.63505  Biso   1.000  Hf
  Hf6      1.0000 0.12440  0.24330  0.85933  Biso   1.000  Hf
  Hf7      1.0000 0.38028  0.25655  0.61684  Biso   1.000  Hf
  Hf8      1.0000 0.37428  0.01296  0.86687  Biso   1.000  Hf
  O9       1.0000 0.99366  0.14069  0.51323  Biso   1.000  O
  O10      1.0000 0.00187  0.09783  0.76035  Biso   1.000  O
  O11      1.0000 0.99538  0.34831  0.73837  Biso   1.000  O
  O12      1.0000 0.98795  0.39049  0.49002  Biso   1.000  O
  O13      1.0000 0.24775  0.14447  0.73769  Biso   1.000  O
  O14      1.0000 0.24412  0.09688  0.49916  Biso   1.000  O
  O15      1.0000 0.23878  0.35166  0.48268  Biso   1.000  O
  O16      1.0000 0.24462  0.39365  0.73267  Biso   1.000  O
  Hf9      1.0000 0.10922  0.51350  0.12539  Biso   1.000  Hf
  Hf10     1.0000 0.13751  0.76057  0.39025  Biso   1.000  Hf
  Hf11     1.0000 0.37178  0.75788  0.14016  Biso   1.000  Hf
  Hf12     1.0000 0.35164  0.49339  0.36156  Biso   1.000  Hf
  O17      1.0000 0.99219  0.64943  0.99133  Biso   1.000  O
  O18      1.0000 0.96557  0.59372  0.23378  Biso   1.000  O
  O19      1.0000 0.99351  0.83841  0.25746  Biso   1.000  O
  O20      1.0000 0.96321  0.89587  0.01322  Biso   1.000  O
  O21      1.0000 0.22503  0.64717  0.24606  Biso   1.000  O
  O22      1.0000 0.24345  0.57942  0.98666  Biso   1.000  O
  O23      1.0000 0.21242  0.82023  0.02472  Biso   1.000  O
  O24      1.0000 0.24913  0.90128  0.25930  Biso   1.000  O
  Hf13     1.0000 0.11606  0.49202  0.60574  Biso   1.000  Hf
  Hf14     1.0000 0.13666  0.73101  0.86750  Biso   1.000  Hf
  Hf15     1.0000 0.38701  0.75933  0.64027  Biso   1.000  Hf
  Hf16     1.0000 0.36618  0.48119  0.86544  Biso   1.000  Hf
  O25      1.0000 0.99663  0.64367  0.49041  Biso   1.000  O
  O26      1.0000 0.01510  0.59788  0.74232  Biso   1.000  O
  O27      1.0000 0.00635  0.84784  0.75356  Biso   1.000  O
  O28      1.0000 0.01323  0.89348  0.50433  Biso   1.000  O
  O29      1.0000 0.26770  0.64029  0.74688  Biso   1.000  O
  O30      1.0000 0.24523  0.60391  0.49369  Biso   1.000  O
  O31      1.0000 0.26257  0.85430  0.51130  Biso   1.000  O
  O32      1.0000 0.25227  0.89054  0.76507  Biso   1.000  O
  Hf17     1.0000 0.61041  0.98827  0.11281  Biso   1.000  Hf
  Hf18     1.0000 0.64133  0.24436  0.35966  Biso   1.000  Hf
  Hf19     1.0000 0.87045  0.25625  0.12107  Biso   1.000  Hf
  Hf20     1.0000 0.87972  0.99370  0.37342  Biso   1.000  Hf
  O33      1.0000 0.49573  0.14278  0.98522  Biso   1.000  O
  O34      1.0000 0.52403  0.11125  0.24478  Biso   1.000  O
  O35      1.0000 0.50636  0.37380  0.26568  Biso   1.000  O
  O36      1.0000 0.51644  0.40713  0.00256  Biso   1.000  O
  O37      1.0000 0.78954  0.14994  0.26823  Biso   1.000  O
  O38      1.0000 0.74535  0.10505  0.00834  Biso   1.000  O
  O39      1.0000 0.77651  0.35421  0.97657  Biso   1.000  O
  O40      1.0000 0.75482  0.40126  0.23973  Biso   1.000  O
  Hf21     1.0000 0.63050  0.00380  0.63030  Biso   1.000  Hf
  Hf22     1.0000 0.63274  0.26032  0.88474  Biso   1.000  Hf
  Hf23     1.0000 0.86200  0.25500  0.62240  Biso   1.000  Hf
  Hf24     1.0000 0.86572  0.00707  0.87777  Biso   1.000  Hf
  O41      1.0000 0.49310  0.16705  0.48034  Biso   1.000  O
  O42      1.0000 0.49204  0.10551  0.72965  Biso   1.000  O
  O43      1.0000 0.49860  0.34890  0.75252  Biso   1.000  O
  O44      1.0000 0.47122  0.42107  0.51578  Biso   1.000  O
  O45      1.0000 0.74566  0.14998  0.75480  Biso   1.000  O
  O46      1.0000 0.74914  0.10507  0.50334  Biso   1.000  O
  O47      1.0000 0.73402  0.35764  0.49581  Biso   1.000  O
  O48      1.0000 0.75080  0.40316  0.74064  Biso   1.000  O
  Hf25     1.0000 0.60970  0.52292  0.14118  Biso   1.000  Hf
  Hf26     1.0000 0.62707  0.76517  0.38889  Biso   1.000  Hf
  Hf27     1.0000 0.86548  0.74715  0.12584  Biso   1.000  Hf
  Hf28     1.0000 0.85872  0.50357  0.37676  Biso   1.000  Hf
  O49      1.0000 0.50366  0.66174  0.02031  Biso   1.000  O
  O50      1.0000 0.47917  0.61754  0.26614  Biso   1.000  O
  O51      1.0000 0.49699  0.86296  0.25849  Biso   1.000  O
  O52      1.0000 0.45881  0.90548  0.01750  Biso   1.000  O
  O53      1.0000 0.72628  0.65429  0.25339  Biso   1.000  O
  O54      1.0000 0.75017  0.59749  0.00551  Biso   1.000  O
  O55      1.0000 0.71999  0.85018  0.00605  Biso   1.000  O
  O56      1.0000 0.74742  0.90478  0.25028  Biso   1.000  O
  Hf29     1.0000 0.61285  0.50215  0.62176  Biso   1.000  Hf
  Hf30     1.0000 0.63143  0.73509  0.87465  Biso   1.000  Hf
  Hf31     1.0000 0.88879  0.74961  0.62787  Biso   1.000  Hf
  Hf32     1.0000 0.87905  0.50024  0.87173  Biso   1.000  Hf
  O57      1.0000 0.51269  0.66692  0.52306  Biso   1.000  O
  O58      1.0000 0.51441  0.59849  0.77008  Biso   1.000  O
  O59      1.0000 0.50579  0.85793  0.76321  Biso   1.000  O
  O60      1.0000 0.51154  0.91381  0.50322  Biso   1.000  O
  O61      1.0000 0.76849  0.65018  0.75815  Biso   1.000  O
  O62      1.0000 0.74858  0.60614  0.50415  Biso   1.000  O
  O63      1.0000 0.76368  0.85545  0.50116  Biso   1.000  O
  O64      1.0000 0.75564  0.89814  0.75247  Biso   1.000  O
  Na1      1.0000 0.15019  0.23958  0.11746  Biso   1.000  Na
