data_image0
_cell_length_a       10.147
_cell_length_b       10.298
_cell_length_c       10.5151
_cell_angle_alpha    89.9452
_cell_angle_beta     89.8587
_cell_angle_gamma    90.0136

_symmetry_space_group_name_H-M    "P 1"
_symmetry_int_tables_number       1

loop_
  _symmetry_equiv_pos_as_xyz
  'x, y, z'

loop_
  _atom_site_label
  _atom_site_occupancy
  _atom_site_fract_x
  _atom_site_fract_y
  _atom_site_fract_z
  _atom_site_thermal_displace_type
  _atom_site_B_iso_or_equiv
  _atom_site_type_symbol
  Na1      1.0000 0.14168  0.01404  0.17105  Biso   1.000  Na
  Zr1      1.0000 0.13997  0.02023  0.67206  Biso   1.000  Zr
  Zr2      1.0000 0.14051  0.52075  0.17198  Biso   1.000  Zr
  Zr3      1.0000 0.13987  0.52100  0.67290  Biso   1.000  Zr
  Zr4      1.0000 0.14177  0.22833  0.42028  Biso   1.000  Zr
  Zr5      1.0000 0.13973  0.22654  0.92671  Biso   1.000  Zr
  Zr6      1.0000 0.14221  0.72973  0.42083  Biso   1.000  Zr
  Zr7      1.0000 0.14210  0.73077  0.92331  Biso   1.000  Zr
  Zr8      1.0000 0.35604  0.26503  0.17188  Biso   1.000  Zr
  Zr9      1.0000 0.35998  0.27036  0.67277  Biso   1.000  Zr
  Zr10     1.0000 0.35929  0.77312  0.17154  Biso   1.000  Zr
  Zr11     1.0000 0.36094  0.77192  0.67166  Biso   1.000  Zr
  Zr12     1.0000 0.36088  0.47808  0.42100  Biso   1.000  Zr
  Zr13     1.0000 0.35967  0.47750  0.92332  Biso   1.000  Zr
  Zr14     1.0000 0.35743  0.98021  0.41905  Biso   1.000  Zr
  Zr15     1.0000 0.35919  0.97991  0.92421  Biso   1.000  Zr
  Zr16     1.0000 0.63960  0.02126  0.07848  Biso   1.000  Zr
  Zr17     1.0000 0.63816  0.02068  0.57666  Biso   1.000  Zr
  Zr18     1.0000 0.63705  0.51953  0.07830  Biso   1.000  Zr
  Zr19     1.0000 0.63816  0.52116  0.57777  Biso   1.000  Zr
  Zr20     1.0000 0.63844  0.22930  0.32744  Biso   1.000  Zr
  Zr21     1.0000 0.63879  0.22871  0.82808  Biso   1.000  Zr
  Zr22     1.0000 0.63898  0.73018  0.32687  Biso   1.000  Zr
  Zr23     1.0000 0.63779  0.72897  0.82814  Biso   1.000  Zr
  Zr24     1.0000 0.86236  0.26989  0.07698  Biso   1.000  Zr
  Zr25     1.0000 0.85891  0.27127  0.57657  Biso   1.000  Zr
  Zr26     1.0000 0.85991  0.77125  0.07823  Biso   1.000  Zr
  Zr27     1.0000 0.86094  0.77056  0.57782  Biso   1.000  Zr
  Zr28     1.0000 0.86025  0.48019  0.32761  Biso   1.000  Zr
  Zr29     1.0000 0.85991  0.47950  0.82802  Biso   1.000  Zr
  Zr30     1.0000 0.86374  0.97880  0.32583  Biso   1.000  Zr
  Zr31     1.0000 0.85957  0.97884  0.82782  Biso   1.000  Zr
  O1       1.0000 0.03058  0.17322  0.08177  Biso   1.000  O
  O2       1.0000 0.03077  0.16581  0.58596  Biso   1.000  O
  O3       1.0000 0.03103  0.66297  0.08222  Biso   1.000  O
  O4       1.0000 0.03157  0.66335  0.58461  Biso   1.000  O
  O5       1.0000 0.02456  0.08960  0.35228  Biso   1.000  O
  O6       1.0000 0.03000  0.08661  0.83237  Biso   1.000  O
  O7       1.0000 0.03108  0.58810  0.33273  Biso   1.000  O
  O8       1.0000 0.03102  0.58576  0.83311  Biso   1.000  O
  O9       1.0000 0.46761  0.41062  0.08209  Biso   1.000  O
  O10      1.0000 0.46874  0.41274  0.58221  Biso   1.000  O
  O11      1.0000 0.47206  0.91304  0.08187  Biso   1.000  O
  O12      1.0000 0.46858  0.91226  0.58042  Biso   1.000  O
  O13      1.0000 0.46939  0.33839  0.33208  Biso   1.000  O
  O14      1.0000 0.46897  0.33654  0.83178  Biso   1.000  O
  O15      1.0000 0.47361  0.84175  0.32955  Biso   1.000  O
  O16      1.0000 0.46925  0.83777  0.83057  Biso   1.000  O
  O17      1.0000 0.28292  0.13074  0.30568  Biso   1.000  O
  O18      1.0000 0.27329  0.12316  0.79420  Biso   1.000  O
  O19      1.0000 0.27643  0.62081  0.29547  Biso   1.000  O
  O20      1.0000 0.27500  0.62469  0.79660  Biso   1.000  O
  O21      1.0000 0.28819  0.13458  0.03670  Biso   1.000  O
  O22      1.0000 0.27406  0.12524  0.54845  Biso   1.000  O
  O23      1.0000 0.27465  0.62170  0.04721  Biso   1.000  O
  O24      1.0000 0.27544  0.62588  0.54619  Biso   1.000  O
  O25      1.0000 0.22334  0.37486  0.29581  Biso   1.000  O
  O26      1.0000 0.22551  0.37438  0.79655  Biso   1.000  O
  O27      1.0000 0.23276  0.86548  0.30180  Biso   1.000  O
  O28      1.0000 0.22452  0.87452  0.79347  Biso   1.000  O
  O29      1.0000 0.22230  0.37710  0.04682  Biso   1.000  O
  O30      1.0000 0.22548  0.37596  0.54653  Biso   1.000  O
  O31      1.0000 0.23717  0.86545  0.03760  Biso   1.000  O
  O32      1.0000 0.22423  0.87609  0.54705  Biso   1.000  O
  O33      1.0000 0.53245  0.16375  0.16734  Biso   1.000  O
  O34      1.0000 0.53098  0.16310  0.66701  Biso   1.000  O
  O35      1.0000 0.53021  0.66137  0.16844  Biso   1.000  O
  O36      1.0000 0.53080  0.66265  0.66801  Biso   1.000  O
  O37      1.0000 0.53154  0.08649  0.41684  Biso   1.000  O
  O38      1.0000 0.53414  0.08525  0.91600  Biso   1.000  O
  O39      1.0000 0.53035  0.58845  0.41835  Biso   1.000  O
  O40      1.0000 0.52935  0.58697  0.91829  Biso   1.000  O
  O41      1.0000 0.96717  0.41639  0.16617  Biso   1.000  O
  O42      1.0000 0.96850  0.41387  0.66589  Biso   1.000  O
  O43      1.0000 0.95748  0.90752  0.17057  Biso   1.000  O
  O44      1.0000 0.96772  0.91420  0.66648  Biso   1.000  O
  O45      1.0000 0.96866  0.33962  0.41738  Biso   1.000  O
  O46      1.0000 0.96802  0.33793  0.91397  Biso   1.000  O
  O47      1.0000 0.97012  0.83551  0.41874  Biso   1.000  O
  O48      1.0000 0.96905  0.83646  0.91586  Biso   1.000  O
  O49      1.0000 0.77605  0.12410  0.95365  Biso   1.000  O
  O50      1.0000 0.77208  0.12695  0.45514  Biso   1.000  O
  O51      1.0000 0.77253  0.62261  0.95301  Biso   1.000  O
  O52      1.0000 0.77455  0.62493  0.45404  Biso   1.000  O
  O53      1.0000 0.77494  0.12610  0.20464  Biso   1.000  O
  O54      1.0000 0.77432  0.12545  0.70396  Biso   1.000  O
  O55      1.0000 0.77436  0.62609  0.20374  Biso   1.000  O
  O56      1.0000 0.77406  0.62564  0.70347  Biso   1.000  O
  O57      1.0000 0.72350  0.37392  0.95277  Biso   1.000  O
  O58      1.0000 0.72436  0.37602  0.45337  Biso   1.000  O
  O59      1.0000 0.72528  0.87391  0.95289  Biso   1.000  O
  O60      1.0000 0.72712  0.87497  0.45350  Biso   1.000  O
  O61      1.0000 0.72479  0.37666  0.20438  Biso   1.000  O
  O62      1.0000 0.72504  0.37563  0.70278  Biso   1.000  O
  O63      1.0000 0.71775  0.87561  0.20291  Biso   1.000  O
  O64      1.0000 0.72479  0.87512  0.70345  Biso   1.000  O
