data_image0
_cell_length_a       10.1071
_cell_length_b       10.1481
_cell_length_c       5.01492
_cell_angle_alpha    90.0003
_cell_angle_beta     90.0001
_cell_angle_gamma    90.0016

_symmetry_space_group_name_H-M    "P 1"
_symmetry_int_tables_number       1

loop_
  _symmetry_equiv_pos_as_xyz
  'x, y, z'

loop_
  _atom_site_label
  _atom_site_occupancy
  _atom_site_fract_x
  _atom_site_fract_y
  _atom_site_fract_z
  _atom_site_thermal_displace_type
  _atom_site_B_iso_or_equiv
  _atom_site_type_symbol
  Na1      1.0000 0.12520  0.99993  0.25185  Biso   1.000  Na
  Zr1      1.0000 0.12520  0.49992  0.25186  Biso   1.000  Zr
  Zr2      1.0000 0.62520  0.99992  0.25185  Biso   1.000  Zr
  Zr3      1.0000 0.62520  0.49993  0.25185  Biso   1.000  Zr
  Zr4      1.0000 0.12521  0.24718  0.75185  Biso   1.000  Zr
  Zr5      1.0000 0.12519  0.75267  0.75185  Biso   1.000  Zr
  Zr6      1.0000 0.62520  0.24958  0.75185  Biso   1.000  Zr
  Zr7      1.0000 0.62520  0.75026  0.75184  Biso   1.000  Zr
  Zr8      1.0000 0.37396  0.24914  0.25173  Biso   1.000  Zr
  Zr9      1.0000 0.37396  0.75070  0.25197  Biso   1.000  Zr
  Zr10     1.0000 0.87644  0.24914  0.25198  Biso   1.000  Zr
  Zr11     1.0000 0.87644  0.75071  0.25172  Biso   1.000  Zr
  Zr12     1.0000 0.37115  0.99992  0.75185  Biso   1.000  Zr
  Zr13     1.0000 0.37518  0.49992  0.75185  Biso   1.000  Zr
  Zr14     1.0000 0.87925  0.99992  0.75185  Biso   1.000  Zr
  Zr15     1.0000 0.87523  0.49992  0.75185  Biso   1.000  Zr
  O1       1.0000 0.99546  0.13771  0.99675  Biso   1.000  O
  O2       1.0000 0.00421  0.63101  0.01275  Biso   1.000  O
  O3       1.0000 0.50505  0.13744  0.01086  Biso   1.000  O
  O4       1.0000 0.50463  0.63692  0.00885  Biso   1.000  O
  O5       1.0000 0.99200  0.12615  0.51650  Biso   1.000  O
  O6       1.0000 0.99720  0.61564  0.51019  Biso   1.000  O
  O7       1.0000 0.49983  0.11255  0.50836  Biso   1.000  O
  O8       1.0000 0.49734  0.61250  0.50745  Biso   1.000  O
  O9       1.0000 0.00420  0.36885  0.49097  Biso   1.000  O
  O10      1.0000 0.99546  0.86214  0.50694  Biso   1.000  O
  O11      1.0000 0.50463  0.36292  0.49486  Biso   1.000  O
  O12      1.0000 0.50505  0.86240  0.49283  Biso   1.000  O
  O13      1.0000 0.99720  0.38421  0.99352  Biso   1.000  O
  O14      1.0000 0.99201  0.87370  0.98717  Biso   1.000  O
  O15      1.0000 0.49734  0.38734  0.99626  Biso   1.000  O
  O16      1.0000 0.49983  0.88729  0.99534  Biso   1.000  O
  O17      1.0000 0.25494  0.13771  0.50693  Biso   1.000  O
  O18      1.0000 0.24620  0.63101  0.49094  Biso   1.000  O
  O19      1.0000 0.74536  0.13744  0.49286  Biso   1.000  O
  O20      1.0000 0.74578  0.63692  0.49487  Biso   1.000  O
  O21      1.0000 0.25840  0.12614  0.98716  Biso   1.000  O
  O22      1.0000 0.25321  0.61563  0.99349  Biso   1.000  O
  O23      1.0000 0.75058  0.11257  0.99536  Biso   1.000  O
  O24      1.0000 0.75307  0.61252  0.99627  Biso   1.000  O
  O25      1.0000 0.24620  0.36883  0.01278  Biso   1.000  O
  O26      1.0000 0.25494  0.86213  0.99676  Biso   1.000  O
  O27      1.0000 0.74578  0.36294  0.00882  Biso   1.000  O
  O28      1.0000 0.74536  0.86242  0.01084  Biso   1.000  O
  O29      1.0000 0.25321  0.38421  0.51022  Biso   1.000  O
  O30      1.0000 0.25840  0.87370  0.51652  Biso   1.000  O
  O31      1.0000 0.75307  0.38734  0.50743  Biso   1.000  O
  O32      1.0000 0.75058  0.88729  0.50834  Biso   1.000  O
