data_image0
_cell_length_a       10.1993
_cell_length_b       10.3034
_cell_length_c       5.25036
_cell_angle_alpha    90.0023
_cell_angle_beta     89.7031
_cell_angle_gamma    89.9975

_symmetry_space_group_name_H-M    "P 1"
_symmetry_int_tables_number       1

loop_
  _symmetry_equiv_pos_as_xyz
  'x, y, z'

loop_
  _atom_site_label
  _atom_site_occupancy
  _atom_site_fract_x
  _atom_site_fract_y
  _atom_site_fract_z
  _atom_site_thermal_displace_type
  _atom_site_B_iso_or_equiv
  _atom_site_type_symbol
  Na1      1.0000 0.13978  0.01213  0.34035  Biso   1.000  Na
  Zr1      1.0000 0.14057  0.52143  0.34602  Biso   1.000  Zr
  Zr2      1.0000 0.14344  0.22929  0.84804  Biso   1.000  Zr
  Zr3      1.0000 0.14436  0.73220  0.84475  Biso   1.000  Zr
  Zr4      1.0000 0.35722  0.26671  0.34596  Biso   1.000  Zr
  Zr5      1.0000 0.35909  0.77373  0.34370  Biso   1.000  Zr
  Zr6      1.0000 0.35998  0.47819  0.84548  Biso   1.000  Zr
  Zr7      1.0000 0.35667  0.97848  0.84436  Biso   1.000  Zr
  Zr8      1.0000 0.63859  0.02062  0.15381  Biso   1.000  Zr
  Zr9      1.0000 0.63681  0.52045  0.15489  Biso   1.000  Zr
  Zr10     1.0000 0.63808  0.22852  0.65432  Biso   1.000  Zr
  Zr11     1.0000 0.63834  0.72983  0.65270  Biso   1.000  Zr
  Zr12     1.0000 0.85852  0.27067  0.14924  Biso   1.000  Zr
  Zr13     1.0000 0.86062  0.77073  0.15616  Biso   1.000  Zr
  Zr14     1.0000 0.85984  0.48073  0.65390  Biso   1.000  Zr
  Zr15     1.0000 0.86123  0.97771  0.65156  Biso   1.000  Zr
  O1       1.0000 0.02628  0.16618  0.15164  Biso   1.000  O
  O2       1.0000 0.02860  0.65730  0.15868  Biso   1.000  O
  O3       1.0000 0.01925  0.09771  0.69811  Biso   1.000  O
  O4       1.0000 0.02820  0.59239  0.65748  Biso   1.000  O
  O5       1.0000 0.46854  0.41062  0.16373  Biso   1.000  O
  O6       1.0000 0.47251  0.91129  0.16044  Biso   1.000  O
  O7       1.0000 0.47000  0.33838  0.66378  Biso   1.000  O
  O8       1.0000 0.47425  0.84194  0.65756  Biso   1.000  O
  O9       1.0000 0.28039  0.12971  0.60786  Biso   1.000  O
  O10      1.0000 0.27535  0.62145  0.59306  Biso   1.000  O
  O11      1.0000 0.28642  0.13434  0.07912  Biso   1.000  O
  O12      1.0000 0.27405  0.62227  0.09532  Biso   1.000  O
  O13      1.0000 0.22517  0.37572  0.59425  Biso   1.000  O
  O14      1.0000 0.23330  0.86703  0.59875  Biso   1.000  O
  O15      1.0000 0.22407  0.37701  0.09629  Biso   1.000  O
  O16      1.0000 0.23689  0.86597  0.08093  Biso   1.000  O
  O17      1.0000 0.53188  0.16328  0.33373  Biso   1.000  O
  O18      1.0000 0.52979  0.66037  0.33746  Biso   1.000  O
  O19      1.0000 0.53223  0.08575  0.83110  Biso   1.000  O
  O20      1.0000 0.52849  0.58878  0.83717  Biso   1.000  O
  O21      1.0000 0.97085  0.40915  0.33877  Biso   1.000  O
  O22      1.0000 0.96011  0.90125  0.35382  Biso   1.000  O
  O23      1.0000 0.97096  0.34672  0.83859  Biso   1.000  O
  O24      1.0000 0.97296  0.84145  0.84629  Biso   1.000  O
  O25      1.0000 0.77120  0.12667  0.90831  Biso   1.000  O
  O26      1.0000 0.77173  0.62353  0.90443  Biso   1.000  O
  O27      1.0000 0.77401  0.12554  0.40744  Biso   1.000  O
  O28      1.0000 0.77328  0.62543  0.40475  Biso   1.000  O
  O29      1.0000 0.72420  0.37508  0.90295  Biso   1.000  O
  O30      1.0000 0.72794  0.87421  0.90416  Biso   1.000  O
  O31      1.0000 0.72567  0.37659  0.40449  Biso   1.000  O
  O32      1.0000 0.71830  0.87546  0.40429  Biso   1.000  O
