data_image0
_cell_length_a       10.1072
_cell_length_b       10.3168
_cell_length_c       10.5651
_cell_angle_alpha    89.9576
_cell_angle_beta     90.5953
_cell_angle_gamma    90.1517

_symmetry_space_group_name_H-M    "P 1"
_symmetry_int_tables_number       1

loop_
  _symmetry_equiv_pos_as_xyz
  'x, y, z'

loop_
  _atom_site_label
  _atom_site_occupancy
  _atom_site_fract_x
  _atom_site_fract_y
  _atom_site_fract_z
  _atom_site_thermal_displace_type
  _atom_site_B_iso_or_equiv
  _atom_site_type_symbol
  Zr1      1.0000 0.13906  0.02053  0.17245  Biso   1.000  Zr
  Zr2      1.0000 0.13891  0.22732  0.42581  Biso   1.000  Zr
  Zr3      1.0000 0.35000  0.27281  0.18409  Biso   1.000  Zr
  Zr4      1.0000 0.36109  0.47936  0.42564  Biso   1.000  Zr
  Zr5      1.0000 0.64158  0.01417  0.07926  Biso   1.000  Zr
  Zr6      1.0000 0.63774  0.22715  0.32858  Biso   1.000  Zr
  Zr7      1.0000 0.86401  0.27127  0.07754  Biso   1.000  Zr
  Zr8      1.0000 0.86032  0.47825  0.32753  Biso   1.000  Zr
  O1       1.0000 0.03440  0.16512  0.08424  Biso   1.000  O
  O2       1.0000 0.03234  0.08545  0.33323  Biso   1.000  O
  O3       1.0000 0.46059  0.42463  0.09345  Biso   1.000  O
  O4       1.0000 0.46566  0.33412  0.33795  Biso   1.000  O
  O5       1.0000 0.27356  0.12432  0.29992  Biso   1.000  O
  O6       1.0000 0.27817  0.12714  0.04860  Biso   1.000  O
  O7       1.0000 0.21989  0.37553  0.30211  Biso   1.000  O
  O8       1.0000 0.22149  0.37648  0.05018  Biso   1.000  O
  O9       1.0000 0.52523  0.15761  0.17500  Biso   1.000  O
  O10      1.0000 0.53196  0.08431  0.41909  Biso   1.000  O
  O11      1.0000 0.96622  0.41577  0.16754  Biso   1.000  O
  O12      1.0000 0.96883  0.33548  0.41711  Biso   1.000  O
  O13      1.0000 0.77645  0.12407  0.45116  Biso   1.000  O
  O14      1.0000 0.77411  0.12522  0.20119  Biso   1.000  O
  O15      1.0000 0.72460  0.37483  0.45256  Biso   1.000  O
  O16      1.0000 0.72031  0.37407  0.20068  Biso   1.000  O
  Zr9      1.0000 0.14096  0.02072  0.67365  Biso   1.000  Zr
  Zr10     1.0000 0.14109  0.22875  0.92343  Biso   1.000  Zr
  Zr11     1.0000 0.36267  0.27179  0.67507  Biso   1.000  Zr
  Zr12     1.0000 0.36031  0.48113  0.92456  Biso   1.000  Zr
  Zr13     1.0000 0.64116  0.01744  0.57488  Biso   1.000  Zr
  Zr14     1.0000 0.65052  0.22381  0.81026  Biso   1.000  Zr
  Zr15     1.0000 0.86462  0.27239  0.57471  Biso   1.000  Zr
  Zr16     1.0000 0.86318  0.47860  0.82952  Biso   1.000  Zr
  O17      1.0000 0.03353  0.16390  0.58388  Biso   1.000  O
  O18      1.0000 0.03485  0.08476  0.83403  Biso   1.000  O
  O19      1.0000 0.46986  0.41439  0.58548  Biso   1.000  O
  O20      1.0000 0.47333  0.33394  0.83573  Biso   1.000  O
  O21      1.0000 0.27802  0.12483  0.79821  Biso   1.000  O
  O22      1.0000 0.27756  0.12506  0.54906  Biso   1.000  O
  O23      1.0000 0.22715  0.37441  0.79917  Biso   1.000  O
  O24      1.0000 0.22553  0.37517  0.55022  Biso   1.000  O
  O25      1.0000 0.53376  0.16175  0.66443  Biso   1.000  O
  O26      1.0000 0.53600  0.08583  0.91757  Biso   1.000  O
  O27      1.0000 0.96941  0.41447  0.66843  Biso   1.000  O
  O28      1.0000 0.96895  0.33416  0.91740  Biso   1.000  O
  O29      1.0000 0.77672  0.12429  0.95041  Biso   1.000  O
  O30      1.0000 0.78178  0.12213  0.69723  Biso   1.000  O
  O31      1.0000 0.72422  0.37407  0.95231  Biso   1.000  O
  O32      1.0000 0.72792  0.37433  0.70055  Biso   1.000  O
  Zr17     1.0000 0.13842  0.52271  0.17319  Biso   1.000  Zr
  Zr18     1.0000 0.13872  0.72837  0.42288  Biso   1.000  Zr
  Zr19     1.0000 0.36058  0.77173  0.17430  Biso   1.000  Zr
  Zr20     1.0000 0.36115  0.97771  0.42466  Biso   1.000  Zr
  Zr21     1.0000 0.64045  0.52855  0.07997  Biso   1.000  Zr
  Zr22     1.0000 0.63902  0.72918  0.33005  Biso   1.000  Zr
  Zr23     1.0000 0.86337  0.77050  0.07938  Biso   1.000  Zr
  Zr24     1.0000 0.86276  0.97918  0.32859  Biso   1.000  Zr
  O33      1.0000 0.03376  0.66561  0.08405  Biso   1.000  O
  O34      1.0000 0.03178  0.58512  0.33424  Biso   1.000  O
  O35      1.0000 0.46962  0.91259  0.08324  Biso   1.000  O
  O36      1.0000 0.46834  0.83588  0.33468  Biso   1.000  O
  O37      1.0000 0.27552  0.62463  0.29783  Biso   1.000  O
  O38      1.0000 0.27599  0.62681  0.04659  Biso   1.000  O
  O39      1.0000 0.22425  0.87443  0.29765  Biso   1.000  O
  O40      1.0000 0.22523  0.87697  0.04732  Biso   1.000  O
  O41      1.0000 0.53311  0.66785  0.16879  Biso   1.000  O
  O42      1.0000 0.53218  0.58558  0.41813  Biso   1.000  O
  O43      1.0000 0.96781  0.91585  0.16686  Biso   1.000  O
  O44      1.0000 0.96802  0.83512  0.41787  Biso   1.000  O
  O45      1.0000 0.77640  0.62425  0.45445  Biso   1.000  O
  O46      1.0000 0.77716  0.62632  0.20542  Biso   1.000  O
  O47      1.0000 0.72600  0.87389  0.45485  Biso   1.000  O
  O48      1.0000 0.72613  0.87367  0.20568  Biso   1.000  O
  Zr25     1.0000 0.13995  0.52080  0.67353  Biso   1.000  Zr
  Zr26     1.0000 0.14051  0.72942  0.92251  Biso   1.000  Zr
  Zr27     1.0000 0.36227  0.77086  0.67359  Biso   1.000  Zr
  Zr28     1.0000 0.36367  0.97927  0.92326  Biso   1.000  Zr
  Zr29     1.0000 0.64022  0.52186  0.57769  Biso   1.000  Zr
  Zr30     1.0000 0.64014  0.72837  0.82780  Biso   1.000  Zr
  Zr31     1.0000 0.86346  0.77007  0.57949  Biso   1.000  Zr
  Zr32     1.0000 0.86486  0.97707  0.82925  Biso   1.000  Zr
  O49      1.0000 0.03389  0.66445  0.58444  Biso   1.000  O
  O50      1.0000 0.03443  0.58438  0.83514  Biso   1.000  O
  O51      1.0000 0.46980  0.91233  0.58343  Biso   1.000  O
  O52      1.0000 0.47001  0.83612  0.83373  Biso   1.000  O
  O53      1.0000 0.27686  0.62499  0.79742  Biso   1.000  O
  O54      1.0000 0.27621  0.62520  0.54759  Biso   1.000  O
  O55      1.0000 0.22635  0.87444  0.79763  Biso   1.000  O
  O56      1.0000 0.22518  0.87517  0.54798  Biso   1.000  O
  O57      1.0000 0.53317  0.66398  0.66809  Biso   1.000  O
  O58      1.0000 0.53268  0.58596  0.91880  Biso   1.000  O
  O59      1.0000 0.96999  0.91376  0.66829  Biso   1.000  O
  O60      1.0000 0.96895  0.83444  0.91788  Biso   1.000  O
  O61      1.0000 0.77788  0.62475  0.95387  Biso   1.000  O
  O62      1.0000 0.77704  0.62445  0.70452  Biso   1.000  O
  O63      1.0000 0.72663  0.87394  0.95560  Biso   1.000  O
  O64      1.0000 0.72699  0.87416  0.70516  Biso   1.000  O
  Na1      1.0000 0.55259  0.26908  0.01833  Biso   1.000  Na
