data_image0
_cell_length_a       10.2832
_cell_length_b       5.17213
_cell_length_c       10.4942
_cell_angle_alpha    89.9839
_cell_angle_beta     80.0571
_cell_angle_gamma    90.1976

_symmetry_space_group_name_H-M    "P 1"
_symmetry_int_tables_number       1

loop_
  _symmetry_equiv_pos_as_xyz
  'x, y, z'

loop_
  _atom_site_label
  _atom_site_occupancy
  _atom_site_fract_x
  _atom_site_fract_y
  _atom_site_fract_z
  _atom_site_thermal_displace_type
  _atom_site_B_iso_or_equiv
  _atom_site_type_symbol
  Na1      1.0000 0.13714  0.02743  0.14589  Biso   1.000  Na
  Zr1      1.0000 0.13999  0.04175  0.64563  Biso   1.000  Zr
  Zr2      1.0000 0.63985  0.03822  0.14552  Biso   1.000  Zr
  Zr3      1.0000 0.63930  0.04122  0.64595  Biso   1.000  Zr
  Zr4      1.0000 0.14230  0.45211  0.39170  Biso   1.000  Zr
  Zr5      1.0000 0.14118  0.46045  0.89908  Biso   1.000  Zr
  Zr6      1.0000 0.63657  0.45727  0.39662  Biso   1.000  Zr
  Zr7      1.0000 0.64042  0.45792  0.89591  Biso   1.000  Zr
  Zr8      1.0000 0.35602  0.53372  0.10429  Biso   1.000  Zr
  Zr9      1.0000 0.35843  0.54321  0.60427  Biso   1.000  Zr
  Zr10     1.0000 0.86160  0.53696  0.10268  Biso   1.000  Zr
  Zr11     1.0000 0.86114  0.54163  0.60330  Biso   1.000  Zr
  Zr12     1.0000 0.35610  0.95717  0.35015  Biso   1.000  Zr
  Zr13     1.0000 0.35908  0.95777  0.85647  Biso   1.000  Zr
  Zr14     1.0000 0.86145  0.96252  0.35490  Biso   1.000  Zr
  Zr15     1.0000 0.86105  0.95793  0.85426  Biso   1.000  Zr
  O1       1.0000 0.03872  0.37916  0.08400  Biso   1.000  O
  O2       1.0000 0.03609  0.34514  0.58515  Biso   1.000  O
  O3       1.0000 0.53539  0.33085  0.07896  Biso   1.000  O
  O4       1.0000 0.53124  0.33102  0.58054  Biso   1.000  O
  O5       1.0000 0.02852  0.16115  0.35006  Biso   1.000  O
  O6       1.0000 0.03522  0.15898  0.83230  Biso   1.000  O
  O7       1.0000 0.53387  0.16270  0.32996  Biso   1.000  O
  O8       1.0000 0.53623  0.16584  0.82851  Biso   1.000  O
  O9       1.0000 0.46929  0.82719  0.16962  Biso   1.000  O
  O10      1.0000 0.46690  0.83006  0.67156  Biso   1.000  O
  O11      1.0000 0.93809  0.85834  0.16681  Biso   1.000  O
  O12      1.0000 0.96439  0.84269  0.66625  Biso   1.000  O
  O13      1.0000 0.46588  0.66763  0.42244  Biso   1.000  O
  O14      1.0000 0.47413  0.67499  0.92044  Biso   1.000  O
  O15      1.0000 0.96553  0.65978  0.41614  Biso   1.000  O
  O16      1.0000 0.96277  0.65698  0.91258  Biso   1.000  O
  O17      1.0000 0.28526  0.25743  0.24648  Biso   1.000  O
  O18      1.0000 0.27488  0.25723  0.73979  Biso   1.000  O
  O19      1.0000 0.77313  0.26050  0.24260  Biso   1.000  O
  O20      1.0000 0.77642  0.25709  0.73997  Biso   1.000  O
  O21      1.0000 0.27475  0.24141  0.49252  Biso   1.000  O
  O22      1.0000 0.28669  0.25249  0.98148  Biso   1.000  O
  O23      1.0000 0.77163  0.24619  0.49264  Biso   1.000  O
  O24      1.0000 0.77505  0.23984  0.99016  Biso   1.000  O
  O25      1.0000 0.23555  0.74338  0.99904  Biso   1.000  O
  O26      1.0000 0.22388  0.75680  0.50897  Biso   1.000  O
  O27      1.0000 0.72458  0.75609  0.00767  Biso   1.000  O
  O28      1.0000 0.72541  0.75805  0.50951  Biso   1.000  O
  O29      1.0000 0.23266  0.72418  0.26084  Biso   1.000  O
  O30      1.0000 0.22397  0.74460  0.75641  Biso   1.000  O
  O31      1.0000 0.71603  0.74273  0.26239  Biso   1.000  O
  O32      1.0000 0.72623  0.74220  0.75757  Biso   1.000  O
