data_image0
_cell_length_a       10.1175
_cell_length_b       10.3239
_cell_length_c       5.31504
_cell_angle_alpha    89.8912
_cell_angle_beta     91.07
_cell_angle_gamma    90.3532

_symmetry_space_group_name_H-M    "P 1"
_symmetry_int_tables_number       1

loop_
  _symmetry_equiv_pos_as_xyz
  'x, y, z'

loop_
  _atom_site_label
  _atom_site_occupancy
  _atom_site_fract_x
  _atom_site_fract_y
  _atom_site_fract_z
  _atom_site_thermal_displace_type
  _atom_site_B_iso_or_equiv
  _atom_site_type_symbol
  Zr1      1.0000 0.14136  0.02094  0.34986  Biso   1.000  Zr
  Zr2      1.0000 0.14106  0.22708  0.85603  Biso   1.000  Zr
  Zr3      1.0000 0.35214  0.27453  0.37652  Biso   1.000  Zr
  Zr4      1.0000 0.36003  0.48207  0.85622  Biso   1.000  Zr
  Zr5      1.0000 0.64385  0.01120  0.15201  Biso   1.000  Zr
  Zr6      1.0000 0.65089  0.22111  0.62115  Biso   1.000  Zr
  Zr7      1.0000 0.86652  0.27282  0.14918  Biso   1.000  Zr
  Zr8      1.0000 0.86220  0.47770  0.65801  Biso   1.000  Zr
  O1       1.0000 0.03470  0.16266  0.16765  Biso   1.000  O
  O2       1.0000 0.03398  0.08689  0.66501  Biso   1.000  O
  O3       1.0000 0.46324  0.42411  0.18802  Biso   1.000  O
  O4       1.0000 0.47111  0.33463  0.67742  Biso   1.000  O
  O5       1.0000 0.27663  0.12458  0.60542  Biso   1.000  O
  O6       1.0000 0.28024  0.12710  0.10440  Biso   1.000  O
  O7       1.0000 0.22160  0.37563  0.61324  Biso   1.000  O
  O8       1.0000 0.22260  0.37632  0.10942  Biso   1.000  O
  O9       1.0000 0.52788  0.15451  0.34591  Biso   1.000  O
  O10      1.0000 0.53568  0.08513  0.84075  Biso   1.000  O
  O11      1.0000 0.96886  0.41364  0.34256  Biso   1.000  O
  O12      1.0000 0.97052  0.33610  0.83907  Biso   1.000  O
  O13      1.0000 0.77839  0.12332  0.89573  Biso   1.000  O
  O14      1.0000 0.78182  0.12197  0.38838  Biso   1.000  O
  O15      1.0000 0.72338  0.37287  0.90175  Biso   1.000  O
  O16      1.0000 0.72356  0.37313  0.39521  Biso   1.000  O
  Zr9      1.0000 0.13967  0.52207  0.35113  Biso   1.000  Zr
  Zr10     1.0000 0.14021  0.72893  0.84853  Biso   1.000  Zr
  Zr11     1.0000 0.36187  0.77181  0.35299  Biso   1.000  Zr
  Zr12     1.0000 0.36366  0.97801  0.85276  Biso   1.000  Zr
  Zr13     1.0000 0.64126  0.52896  0.15885  Biso   1.000  Zr
  Zr14     1.0000 0.64051  0.72864  0.65869  Biso   1.000  Zr
  Zr15     1.0000 0.86585  0.76948  0.16069  Biso   1.000  Zr
  Zr16     1.0000 0.86621  0.97718  0.65832  Biso   1.000  Zr
  O17      1.0000 0.03421  0.66300  0.16761  Biso   1.000  O
  O18      1.0000 0.03276  0.58636  0.66993  Biso   1.000  O
  O19      1.0000 0.47246  0.90871  0.16439  Biso   1.000  O
  O20      1.0000 0.47138  0.83813  0.66773  Biso   1.000  O
  O21      1.0000 0.27608  0.62596  0.59992  Biso   1.000  O
  O22      1.0000 0.27646  0.62678  0.09757  Biso   1.000  O
  O23      1.0000 0.22650  0.87468  0.59990  Biso   1.000  O
  O24      1.0000 0.22632  0.87670  0.10034  Biso   1.000  O
  O25      1.0000 0.53331  0.66583  0.34246  Biso   1.000  O
  O26      1.0000 0.53196  0.58823  0.84236  Biso   1.000  O
  O27      1.0000 0.97169  0.91237  0.34036  Biso   1.000  O
  O28      1.0000 0.97054  0.83639  0.84187  Biso   1.000  O
  O29      1.0000 0.77838  0.62417  0.90757  Biso   1.000  O
  O30      1.0000 0.77838  0.62508  0.41148  Biso   1.000  O
  O31      1.0000 0.72846  0.87296  0.91142  Biso   1.000  O
  O32      1.0000 0.72925  0.87204  0.41152  Biso   1.000  O
  Na1      1.0000 0.54909  0.26767  0.03320  Biso   1.000  Na
