data_image0
_cell_length_a       10.2986
_cell_length_b       10.3553
_cell_length_c       5.24336
_cell_angle_alpha    90.0205
_cell_angle_beta     79.9674
_cell_angle_gamma    90.1299

_symmetry_space_group_name_H-M    "P 1"
_symmetry_int_tables_number       1

loop_
  _symmetry_equiv_pos_as_xyz
  'x, y, z'

loop_
  _atom_site_label
  _atom_site_occupancy
  _atom_site_fract_x
  _atom_site_fract_y
  _atom_site_fract_z
  _atom_site_thermal_displace_type
  _atom_site_B_iso_or_equiv
  _atom_site_type_symbol
  Na1      1.0000 0.13841  0.01363  0.29451  Biso   1.000  Na
  Zr1      1.0000 0.14092  0.52122  0.28971  Biso   1.000  Zr
  Zr2      1.0000 0.64012  0.02028  0.29163  Biso   1.000  Zr
  Zr3      1.0000 0.63803  0.52034  0.28934  Biso   1.000  Zr
  Zr4      1.0000 0.14030  0.22795  0.79417  Biso   1.000  Zr
  Zr5      1.0000 0.14352  0.73081  0.78821  Biso   1.000  Zr
  Zr6      1.0000 0.63797  0.22876  0.79068  Biso   1.000  Zr
  Zr7      1.0000 0.63891  0.72830  0.79118  Biso   1.000  Zr
  Zr8      1.0000 0.35710  0.26709  0.21091  Biso   1.000  Zr
  Zr9      1.0000 0.35867  0.77356  0.20737  Biso   1.000  Zr
  Zr10     1.0000 0.85873  0.27008  0.20416  Biso   1.000  Zr
  Zr11     1.0000 0.86131  0.77120  0.20792  Biso   1.000  Zr
  Zr12     1.0000 0.35972  0.47753  0.70729  Biso   1.000  Zr
  Zr13     1.0000 0.35651  0.97811  0.70668  Biso   1.000  Zr
  Zr14     1.0000 0.86021  0.47993  0.70670  Biso   1.000  Zr
  Zr15     1.0000 0.86192  0.97846  0.70772  Biso   1.000  Zr
  O1       1.0000 0.03406  0.18134  0.16254  Biso   1.000  O
  O2       1.0000 0.03472  0.66718  0.16026  Biso   1.000  O
  O3       1.0000 0.53353  0.16650  0.15939  Biso   1.000  O
  O4       1.0000 0.53262  0.66475  0.15654  Biso   1.000  O
  O5       1.0000 0.02644  0.08489  0.70513  Biso   1.000  O
  O6       1.0000 0.03333  0.58314  0.65698  Biso   1.000  O
  O7       1.0000 0.53495  0.08298  0.65794  Biso   1.000  O
  O8       1.0000 0.53234  0.58401  0.65555  Biso   1.000  O
  O9       1.0000 0.46648  0.41413  0.34223  Biso   1.000  O
  O10      1.0000 0.46949  0.91541  0.34137  Biso   1.000  O
  O11      1.0000 0.96544  0.41824  0.33547  Biso   1.000  O
  O12      1.0000 0.94802  0.91883  0.34583  Biso   1.000  O
  O13      1.0000 0.46765  0.33546  0.84302  Biso   1.000  O
  O14      1.0000 0.47269  0.83819  0.84468  Biso   1.000  O
  O15      1.0000 0.96507  0.33611  0.83450  Biso   1.000  O
  O16      1.0000 0.96693  0.83058  0.83749  Biso   1.000  O
  O17      1.0000 0.28462  0.13362  0.49788  Biso   1.000  O
  O18      1.0000 0.27589  0.62460  0.47834  Biso   1.000  O
  O19      1.0000 0.77429  0.12926  0.48224  Biso   1.000  O
  O20      1.0000 0.77436  0.62801  0.47892  Biso   1.000  O
  O21      1.0000 0.28583  0.12911  0.96758  Biso   1.000  O
  O22      1.0000 0.27593  0.61925  0.97988  Biso   1.000  O
  O23      1.0000 0.77192  0.12270  0.98246  Biso   1.000  O
  O24      1.0000 0.77351  0.62026  0.97915  Biso   1.000  O
  O25      1.0000 0.22514  0.37942  0.01800  Biso   1.000  O
  O26      1.0000 0.23383  0.86995  0.00151  Biso   1.000  O
  O27      1.0000 0.72357  0.37912  0.01559  Biso   1.000  O
  O28      1.0000 0.72637  0.87786  0.01704  Biso   1.000  O
  O29      1.0000 0.22301  0.37234  0.51720  Biso   1.000  O
  O30      1.0000 0.23404  0.86307  0.51935  Biso   1.000  O
  O31      1.0000 0.72460  0.37198  0.51629  Biso   1.000  O
  O32      1.0000 0.71698  0.87047  0.52147  Biso   1.000  O
