data_image0
_cell_length_a       10.0709
_cell_length_b       5.10894
_cell_length_c       10.0894
_cell_angle_alpha    90.001
_cell_angle_beta     89.9999
_cell_angle_gamma    90.0006

_symmetry_space_group_name_H-M    "P 1"
_symmetry_int_tables_number       1

loop_
  _symmetry_equiv_pos_as_xyz
  'x, y, z'

loop_
  _atom_site_label
  _atom_site_occupancy
  _atom_site_fract_x
  _atom_site_fract_y
  _atom_site_fract_z
  _atom_site_thermal_displace_type
  _atom_site_B_iso_or_equiv
  _atom_site_type_symbol
  Hf1      1.0000 0.12485  0.00006  0.12491  Biso   1.000  Hf
  Hf2      1.0000 0.12486  0.50010  0.39281  Biso   1.000  Hf
  Hf3      1.0000 0.39622  0.50007  0.12490  Biso   1.000  Hf
  Hf4      1.0000 0.37238  0.99974  0.37357  Biso   1.000  Hf
  O1       1.0000 0.99682  0.27566  0.99410  Biso   1.000  O
  O2       1.0000 0.00324  0.23382  0.24412  Biso   1.000  O
  O3       1.0000 0.99682  0.72446  0.25570  Biso   1.000  O
  O4       1.0000 0.00324  0.76629  0.00568  Biso   1.000  O
  O5       1.0000 0.25287  0.27566  0.25571  Biso   1.000  O
  O6       1.0000 0.24645  0.23383  0.00568  Biso   1.000  O
  O7       1.0000 0.25288  0.72446  0.99411  Biso   1.000  O
  O8       1.0000 0.24645  0.76630  0.24414  Biso   1.000  O
  Hf5      1.0000 0.12486  0.00008  0.62490  Biso   1.000  Hf
  Hf6      1.0000 0.12485  0.50007  0.85700  Biso   1.000  Hf
  Hf7      1.0000 0.37998  0.50007  0.62490  Biso   1.000  Hf
  Hf8      1.0000 0.37237  0.00041  0.87624  Biso   1.000  Hf
  O9       1.0000 0.98845  0.27857  0.49511  Biso   1.000  O
  O10      1.0000 0.00616  0.21847  0.74483  Biso   1.000  O
  O11      1.0000 0.98845  0.72160  0.75470  Biso   1.000  O
  O12      1.0000 0.00615  0.78171  0.50497  Biso   1.000  O
  O13      1.0000 0.26126  0.27855  0.75470  Biso   1.000  O
  O14      1.0000 0.24356  0.21850  0.50498  Biso   1.000  O
  O15      1.0000 0.26126  0.72164  0.49512  Biso   1.000  O
  O16      1.0000 0.24354  0.78169  0.74484  Biso   1.000  O
  Hf9      1.0000 0.62486  0.00009  0.12490  Biso   1.000  Hf
  Hf10     1.0000 0.62486  0.50009  0.37679  Biso   1.000  Hf
  Hf11     1.0000 0.85348  0.50009  0.12490  Biso   1.000  Hf
  Hf12     1.0000 0.87734  0.00044  0.37356  Biso   1.000  Hf
  O17      1.0000 0.49520  0.27528  0.98491  Biso   1.000  O
  O18      1.0000 0.50081  0.21549  0.24197  Biso   1.000  O
  O19      1.0000 0.49519  0.72487  0.26489  Biso   1.000  O
  O20      1.0000 0.50081  0.78466  0.00783  Biso   1.000  O
  O21      1.0000 0.75449  0.27526  0.26487  Biso   1.000  O
  O22      1.0000 0.74888  0.21553  0.00781  Biso   1.000  O
  O23      1.0000 0.75450  0.72491  0.98493  Biso   1.000  O
  O24      1.0000 0.74888  0.78464  0.24199  Biso   1.000  O
  Hf13     1.0000 0.62487  0.00009  0.62490  Biso   1.000  Hf
  Hf14     1.0000 0.62485  0.50008  0.87300  Biso   1.000  Hf
  Hf15     1.0000 0.86973  0.50008  0.62490  Biso   1.000  Hf
  Hf16     1.0000 0.87734  0.99973  0.87624  Biso   1.000  Hf
  O25      1.0000 0.48886  0.28580  0.48679  Biso   1.000  O
  O26      1.0000 0.50469  0.21550  0.74081  Biso   1.000  O
  O27      1.0000 0.48885  0.71437  0.76302  Biso   1.000  O
  O28      1.0000 0.50469  0.78467  0.50900  Biso   1.000  O
  O29      1.0000 0.76084  0.28577  0.76300  Biso   1.000  O
  O30      1.0000 0.74502  0.21550  0.50898  Biso   1.000  O
  O31      1.0000 0.76084  0.71438  0.48680  Biso   1.000  O
  O32      1.0000 0.74501  0.78464  0.74082  Biso   1.000  O
  Nb1      1.0000 0.12485  0.50006  0.12491  Biso   1.000  Nb
