data_image0
_cell_length_a       10.0106
_cell_length_b       10.2213
_cell_length_c       10.4547
_cell_angle_alpha    90.0234
_cell_angle_beta     89.9582
_cell_angle_gamma    89.957

_symmetry_space_group_name_H-M    "P 1"
_symmetry_int_tables_number       1

loop_
  _symmetry_equiv_pos_as_xyz
  'x, y, z'

loop_
  _atom_site_label
  _atom_site_occupancy
  _atom_site_fract_x
  _atom_site_fract_y
  _atom_site_fract_z
  _atom_site_thermal_displace_type
  _atom_site_B_iso_or_equiv
  _atom_site_type_symbol
  Nb1      1.0000 0.13886  0.02378  0.17303  Biso   1.000  Nb
  Hf1      1.0000 0.13981  0.22961  0.42116  Biso   1.000  Hf
  Hf2      1.0000 0.36097  0.27097  0.17186  Biso   1.000  Hf
  Hf3      1.0000 0.36147  0.47947  0.42144  Biso   1.000  Hf
  Hf4      1.0000 0.63882  0.02131  0.07790  Biso   1.000  Hf
  Hf5      1.0000 0.63885  0.22855  0.32858  Biso   1.000  Hf
  Hf6      1.0000 0.86101  0.27104  0.07855  Biso   1.000  Hf
  Hf7      1.0000 0.86100  0.47870  0.32833  Biso   1.000  Hf
  O1       1.0000 0.03361  0.16205  0.08410  Biso   1.000  O
  O2       1.0000 0.03756  0.08133  0.33174  Biso   1.000  O
  O3       1.0000 0.46622  0.41610  0.08456  Biso   1.000  O
  O4       1.0000 0.46663  0.33379  0.33443  Biso   1.000  O
  O5       1.0000 0.27785  0.12280  0.29623  Biso   1.000  O
  O6       1.0000 0.27465  0.12540  0.04670  Biso   1.000  O
  O7       1.0000 0.22412  0.37422  0.29509  Biso   1.000  O
  O8       1.0000 0.22328  0.37585  0.04498  Biso   1.000  O
  O9       1.0000 0.53340  0.16596  0.16611  Biso   1.000  O
  O10      1.0000 0.53354  0.08391  0.41595  Biso   1.000  O
  O11      1.0000 0.96744  0.41451  0.16627  Biso   1.000  O
  O12      1.0000 0.96641  0.33263  0.41476  Biso   1.000  O
  O13      1.0000 0.77771  0.12303  0.45432  Biso   1.000  O
  O14      1.0000 0.77740  0.12613  0.20490  Biso   1.000  O
  O15      1.0000 0.72348  0.37341  0.45517  Biso   1.000  O
  O16      1.0000 0.72332  0.37612  0.20489  Biso   1.000  O
  Hf8      1.0000 0.13881  0.02109  0.67147  Biso   1.000  Hf
  Hf9      1.0000 0.13909  0.22861  0.92106  Biso   1.000  Hf
  Hf10     1.0000 0.36141  0.27127  0.67145  Biso   1.000  Hf
  Hf11     1.0000 0.36108  0.47915  0.92174  Biso   1.000  Hf
  Hf12     1.0000 0.63872  0.02095  0.57810  Biso   1.000  Hf
  Hf13     1.0000 0.63869  0.22904  0.82846  Biso   1.000  Hf
  Hf14     1.0000 0.86135  0.27069  0.57829  Biso   1.000  Hf
  Hf15     1.0000 0.86129  0.47878  0.82878  Biso   1.000  Hf
  O17      1.0000 0.03309  0.16464  0.58205  Biso   1.000  O
  O18      1.0000 0.03269  0.08494  0.83296  Biso   1.000  O
  O19      1.0000 0.46661  0.41625  0.58413  Biso   1.000  O
  O20      1.0000 0.46646  0.33429  0.83424  Biso   1.000  O
  O21      1.0000 0.27669  0.12384  0.79556  Biso   1.000  O
  O22      1.0000 0.27706  0.12652  0.54544  Biso   1.000  O
  O23      1.0000 0.22313  0.37367  0.79501  Biso   1.000  O
  O24      1.0000 0.22333  0.37620  0.54467  Biso   1.000  O
  O25      1.0000 0.53342  0.16606  0.66591  Biso   1.000  O
  O26      1.0000 0.53247  0.08479  0.91620  Biso   1.000  O
  O27      1.0000 0.96707  0.41503  0.66616  Biso   1.000  O
  O28      1.0000 0.96701  0.33355  0.91674  Biso   1.000  O
  O29      1.0000 0.77619  0.12394  0.95443  Biso   1.000  O
  O30      1.0000 0.77658  0.12616  0.70451  Biso   1.000  O
  O31      1.0000 0.72348  0.37384  0.95530  Biso   1.000  O
  O32      1.0000 0.72344  0.37630  0.70516  Biso   1.000  O
  Hf16     1.0000 0.13888  0.52127  0.17148  Biso   1.000  Hf
  Hf17     1.0000 0.13863  0.72878  0.42158  Biso   1.000  Hf
  Hf18     1.0000 0.35915  0.77393  0.17180  Biso   1.000  Hf
  Hf19     1.0000 0.36054  0.97866  0.42154  Biso   1.000  Hf
  Hf20     1.0000 0.63822  0.52188  0.07886  Biso   1.000  Hf
  Hf21     1.0000 0.63830  0.72887  0.32792  Biso   1.000  Hf
  Hf22     1.0000 0.86205  0.77187  0.07822  Biso   1.000  Hf
  Hf23     1.0000 0.86144  0.97828  0.32762  Biso   1.000  Hf
  O33      1.0000 0.03299  0.66483  0.08372  Biso   1.000  O
  O34      1.0000 0.03301  0.58384  0.33393  Biso   1.000  O
  O35      1.0000 0.46675  0.91602  0.08322  Biso   1.000  O
  O36      1.0000 0.46650  0.83513  0.33318  Biso   1.000  O
  O37      1.0000 0.27643  0.62446  0.29495  Biso   1.000  O
  O38      1.0000 0.27657  0.62735  0.04521  Biso   1.000  O
  O39      1.0000 0.22020  0.87459  0.29590  Biso   1.000  O
  O40      1.0000 0.21911  0.87870  0.04619  Biso   1.000  O
  O41      1.0000 0.53237  0.66713  0.16560  Biso   1.000  O
  O42      1.0000 0.53347  0.58430  0.41587  Biso   1.000  O
  O43      1.0000 0.97137  0.91560  0.16619  Biso   1.000  O
  O44      1.0000 0.96679  0.83466  0.41634  Biso   1.000  O
  O45      1.0000 0.77659  0.62362  0.45502  Biso   1.000  O
  O46      1.0000 0.77631  0.62616  0.20497  Biso   1.000  O
  O47      1.0000 0.72336  0.87365  0.45434  Biso   1.000  O
  O48      1.0000 0.72508  0.87665  0.20460  Biso   1.000  O
  Hf24     1.0000 0.13875  0.52128  0.67160  Biso   1.000  Hf
  Hf25     1.0000 0.13886  0.72910  0.92183  Biso   1.000  Hf
  Hf26     1.0000 0.36132  0.77122  0.67174  Biso   1.000  Hf
  Hf27     1.0000 0.36069  0.97860  0.92235  Biso   1.000  Hf
  Hf28     1.0000 0.63901  0.52115  0.57873  Biso   1.000  Hf
  Hf29     1.0000 0.63886  0.72893  0.82876  Biso   1.000  Hf
  Hf30     1.0000 0.86094  0.77107  0.57836  Biso   1.000  Hf
  Hf31     1.0000 0.86110  0.97883  0.82820  Biso   1.000  Hf
  O49      1.0000 0.03284  0.66544  0.58391  Biso   1.000  O
  O50      1.0000 0.03313  0.58432  0.83394  Biso   1.000  O
  O51      1.0000 0.46682  0.91577  0.58400  Biso   1.000  O
  O52      1.0000 0.46668  0.83432  0.83413  Biso   1.000  O
  O53      1.0000 0.27663  0.62371  0.79510  Biso   1.000  O
  O54      1.0000 0.27672  0.62624  0.54525  Biso   1.000  O
  O55      1.0000 0.22334  0.87388  0.79555  Biso   1.000  O
  O56      1.0000 0.22336  0.87603  0.54562  Biso   1.000  O
  O57      1.0000 0.53349  0.66599  0.66602  Biso   1.000  O
  O58      1.0000 0.53338  0.58390  0.91592  Biso   1.000  O
  O59      1.0000 0.96696  0.91546  0.66611  Biso   1.000  O
  O60      1.0000 0.96649  0.83422  0.91600  Biso   1.000  O
  O61      1.0000 0.77683  0.62399  0.95538  Biso   1.000  O
  O62      1.0000 0.77680  0.62599  0.70527  Biso   1.000  O
  O63      1.0000 0.72298  0.87394  0.95445  Biso   1.000  O
  O64      1.0000 0.72336  0.87611  0.70469  Biso   1.000  O
