data_image0
_cell_length_a       10.0734
_cell_length_b       10.2222
_cell_length_c       10.538
_cell_angle_alpha    90.1442
_cell_angle_beta     90.3804
_cell_angle_gamma    89.8294

_symmetry_space_group_name_H-M    "P 1"
_symmetry_int_tables_number       1

loop_
  _symmetry_equiv_pos_as_xyz
  'x, y, z'

loop_
  _atom_site_label
  _atom_site_occupancy
  _atom_site_fract_x
  _atom_site_fract_y
  _atom_site_fract_z
  _atom_site_thermal_displace_type
  _atom_site_B_iso_or_equiv
  _atom_site_type_symbol
  Hf1      1.0000 0.13926  0.02112  0.17342  Biso   1.000  Hf
  Hf2      1.0000 0.13793  0.22867  0.42312  Biso   1.000  Hf
  Hf3      1.0000 0.35853  0.26529  0.17759  Biso   1.000  Hf
  Hf4      1.0000 0.36093  0.47799  0.42317  Biso   1.000  Hf
  Hf5      1.0000 0.63542  0.99919  0.08076  Biso   1.000  Hf
  Hf6      1.0000 0.63265  0.22516  0.33238  Biso   1.000  Hf
  Hf7      1.0000 0.87715  0.27627  0.07421  Biso   1.000  Hf
  Hf8      1.0000 0.86138  0.47913  0.32726  Biso   1.000  Hf
  O1       1.0000 0.03455  0.15806  0.07631  Biso   1.000  O
  O2       1.0000 0.02682  0.09245  0.32727  Biso   1.000  O
  O3       1.0000 0.47181  0.41217  0.08198  Biso   1.000  O
  O4       1.0000 0.46638  0.33670  0.33285  Biso   1.000  O
  O5       1.0000 0.27125  0.12277  0.30082  Biso   1.000  O
  O6       1.0000 0.27567  0.12252  0.04729  Biso   1.000  O
  O7       1.0000 0.22133  0.37443  0.29940  Biso   1.000  O
  O8       1.0000 0.22629  0.37602  0.04533  Biso   1.000  O
  O9       1.0000 0.51162  0.12478  0.19287  Biso   1.000  O
  O10      1.0000 0.52682  0.09215  0.43263  Biso   1.000  O
  O11      1.0000 0.97288  0.41481  0.17280  Biso   1.000  O
  O12      1.0000 0.96841  0.33918  0.41966  Biso   1.000  O
  O13      1.0000 0.77534  0.12229  0.45333  Biso   1.000  O
  O14      1.0000 0.76300  0.13184  0.19694  Biso   1.000  O
  O15      1.0000 0.72466  0.37444  0.45357  Biso   1.000  O
  O16      1.0000 0.72200  0.38063  0.20070  Biso   1.000  O
  Hf9      1.0000 0.13815  0.02172  0.67285  Biso   1.000  Hf
  Hf10     1.0000 0.14426  0.22791  0.92153  Biso   1.000  Hf
  Hf11     1.0000 0.36120  0.27157  0.67205  Biso   1.000  Hf
  Hf12     1.0000 0.36152  0.47971  0.92171  Biso   1.000  Hf
  Hf13     1.0000 0.63887  0.01903  0.57876  Biso   1.000  Hf
  Hf14     1.0000 0.64004  0.23120  0.81725  Biso   1.000  Hf
  Hf15     1.0000 0.86253  0.27187  0.57548  Biso   1.000  Hf
  Hf16     1.0000 0.86431  0.48033  0.82617  Biso   1.000  Hf
  O17      1.0000 0.03085  0.16128  0.57964  Biso   1.000  O
  O18      1.0000 0.03164  0.08977  0.83005  Biso   1.000  O
  O19      1.0000 0.47128  0.40789  0.57816  Biso   1.000  O
  O20      1.0000 0.47218  0.34620  0.82447  Biso   1.000  O
  O21      1.0000 0.27605  0.12476  0.79614  Biso   1.000  O
  O22      1.0000 0.27444  0.12572  0.54784  Biso   1.000  O
  O23      1.0000 0.22632  0.37442  0.79554  Biso   1.000  O
  O24      1.0000 0.22440  0.37643  0.54706  Biso   1.000  O
  O25      1.0000 0.52560  0.15193  0.67634  Biso   1.000  O
  O26      1.0000 0.52292  0.10554  0.93867  Biso   1.000  O
  O27      1.0000 0.96984  0.41320  0.66812  Biso   1.000  O
  O28      1.0000 0.97589  0.34049  0.91647  Biso   1.000  O
  O29      1.0000 0.76679  0.12802  0.95514  Biso   1.000  O
  O30      1.0000 0.77794  0.12517  0.70099  Biso   1.000  O
  O31      1.0000 0.73051  0.38053  0.95235  Biso   1.000  O
  O32      1.0000 0.72704  0.37667  0.70142  Biso   1.000  O
  Hf17     1.0000 0.14236  0.52077  0.17418  Biso   1.000  Hf
  Hf18     1.0000 0.13764  0.72916  0.42324  Biso   1.000  Hf
  Hf19     1.0000 0.35904  0.76930  0.17446  Biso   1.000  Hf
  Hf20     1.0000 0.36156  0.97826  0.42428  Biso   1.000  Hf
  Hf21     1.0000 0.64243  0.53265  0.07636  Biso   1.000  Hf
  Hf22     1.0000 0.63842  0.72837  0.33011  Biso   1.000  Hf
  Hf23     1.0000 0.86744  0.77080  0.07810  Biso   1.000  Hf
  Hf24     1.0000 0.86142  0.98026  0.32770  Biso   1.000  Hf
  O33      1.0000 0.03482  0.66185  0.08085  Biso   1.000  O
  O34      1.0000 0.03105  0.58942  0.33165  Biso   1.000  O
  O35      1.0000 0.46819  0.89413  0.07044  Biso   1.000  O
  O36      1.0000 0.47097  0.84277  0.32701  Biso   1.000  O
  O37      1.0000 0.27562  0.62407  0.29752  Biso   1.000  O
  O38      1.0000 0.27738  0.62496  0.04688  Biso   1.000  O
  O39      1.0000 0.22357  0.87273  0.29718  Biso   1.000  O
  O40      1.0000 0.22349  0.87598  0.04739  Biso   1.000  O
  O41      1.0000 0.53042  0.66037  0.17468  Biso   1.000  O
  O42      1.0000 0.52986  0.58980  0.42164  Biso   1.000  O
  O43      1.0000 0.96855  0.91407  0.16947  Biso   1.000  O
  O44      1.0000 0.96825  0.84122  0.42052  Biso   1.000  O
  O45      1.0000 0.77618  0.62377  0.45402  Biso   1.000  O
  O46      1.0000 0.77847  0.62852  0.20390  Biso   1.000  O
  O47      1.0000 0.72414  0.87386  0.45548  Biso   1.000  O
  O48      1.0000 0.72931  0.87118  0.20788  Biso   1.000  O
  Hf25     1.0000 0.13926  0.52210  0.67198  Biso   1.000  Hf
  Hf26     1.0000 0.14037  0.72971  0.92241  Biso   1.000  Hf
  Hf27     1.0000 0.36228  0.77211  0.67272  Biso   1.000  Hf
  Hf28     1.0000 0.36181  0.97894  0.92387  Biso   1.000  Hf
  Hf29     1.0000 0.63867  0.52095  0.57646  Biso   1.000  Hf
  Hf30     1.0000 0.63937  0.72908  0.82539  Biso   1.000  Hf
  Hf31     1.0000 0.86202  0.77234  0.57861  Biso   1.000  Hf
  Hf32     1.0000 0.86246  0.98149  0.82912  Biso   1.000  Hf
  O49      1.0000 0.03177  0.66365  0.58111  Biso   1.000  O
  O50      1.0000 0.03295  0.58949  0.82997  Biso   1.000  O
  O51      1.0000 0.47128  0.90515  0.57692  Biso   1.000  O
  O52      1.0000 0.47419  0.84671  0.82419  Biso   1.000  O
  O53      1.0000 0.27719  0.62433  0.79702  Biso   1.000  O
  O54      1.0000 0.27529  0.62608  0.54668  Biso   1.000  O
  O55      1.0000 0.22562  0.87398  0.79698  Biso   1.000  O
  O56      1.0000 0.22458  0.87674  0.54720  Biso   1.000  O
  O57      1.0000 0.53013  0.65857  0.67179  Biso   1.000  O
  O58      1.0000 0.53024  0.59358  0.92191  Biso   1.000  O
  O59      1.0000 0.96875  0.91267  0.67118  Biso   1.000  O
  O60      1.0000 0.97102  0.83953  0.91977  Biso   1.000  O
  O61      1.0000 0.77873  0.62754  0.95193  Biso   1.000  O
  O62      1.0000 0.77631  0.62631  0.70291  Biso   1.000  O
  O63      1.0000 0.72756  0.87213  0.95367  Biso   1.000  O
  O64      1.0000 0.72636  0.87563  0.70581  Biso   1.000  O
  Nb1      1.0000 0.61333  0.25383  0.07090  Biso   1.000  Nb
