data_image0
_cell_length_a       10.0711
_cell_length_b       10.5654
_cell_length_c       5.0564
_cell_angle_alpha    90.0248
_cell_angle_beta     89.7016
_cell_angle_gamma    89.5751

_symmetry_space_group_name_H-M    "P 1"
_symmetry_int_tables_number       1

loop_
  _symmetry_equiv_pos_as_xyz
  'x, y, z'

loop_
  _atom_site_label
  _atom_site_occupancy
  _atom_site_fract_x
  _atom_site_fract_y
  _atom_site_fract_z
  _atom_site_thermal_displace_type
  _atom_site_B_iso_or_equiv
  _atom_site_type_symbol
  Hf1      1.0000 0.12913  0.00768  0.24493  Biso   1.000  Hf
  Hf2      1.0000 0.12724  0.21322  0.72555  Biso   1.000  Hf
  Hf3      1.0000 0.38811  0.27515  0.23520  Biso   1.000  Hf
  Hf4      1.0000 0.37059  0.48969  0.74018  Biso   1.000  Hf
  O1       1.0000 0.99924  0.15659  0.42077  Biso   1.000  O
  O2       1.0000 0.02776  0.05745  0.90450  Biso   1.000  O
  O3       1.0000 0.47847  0.43451  0.40045  Biso   1.000  O
  O4       1.0000 0.47828  0.32602  0.89135  Biso   1.000  O
  O5       1.0000 0.25579  0.09267  0.51010  Biso   1.000  O
  O6       1.0000 0.26147  0.15141  0.02240  Biso   1.000  O
  O7       1.0000 0.25700  0.41289  0.02952  Biso   1.000  O
  O8       1.0000 0.25153  0.34766  0.52807  Biso   1.000  O
  Hf5      1.0000 0.13105  0.53954  0.22565  Biso   1.000  Hf
  Hf6      1.0000 0.13097  0.74132  0.73666  Biso   1.000  Hf
  Hf7      1.0000 0.37046  0.76451  0.24113  Biso   1.000  Hf
  Hf8      1.0000 0.37065  0.98229  0.74519  Biso   1.000  Hf
  O9       1.0000 0.02565  0.68561  0.40282  Biso   1.000  O
  O10      1.0000 0.03249  0.57222  0.88118  Biso   1.000  O
  O11      1.0000 0.46751  0.92880  0.39743  Biso   1.000  O
  O12      1.0000 0.47243  0.82075  0.89514  Biso   1.000  O
  O13      1.0000 0.27134  0.61421  0.48415  Biso   1.000  O
  O14      1.0000 0.26764  0.65107  0.97751  Biso   1.000  O
  O15      1.0000 0.23461  0.89133  0.98590  Biso   1.000  O
  O16      1.0000 0.23378  0.85662  0.48299  Biso   1.000  O
  Hf9      1.0000 0.63051  0.01117  0.24710  Biso   1.000  Hf
  Hf10     1.0000 0.63411  0.23076  0.74627  Biso   1.000  Hf
  Hf11     1.0000 0.85117  0.26133  0.24576  Biso   1.000  Hf
  Hf12     1.0000 0.86988  0.48053  0.74431  Biso   1.000  Hf
  O17      1.0000 0.53115  0.17535  0.41069  Biso   1.000  O
  O18      1.0000 0.52548  0.07369  0.90984  Biso   1.000  O
  O19      1.0000 0.97689  0.42470  0.39987  Biso   1.000  O
  O20      1.0000 0.97142  0.31684  0.90923  Biso   1.000  O
  O21      1.0000 0.75773  0.10704  0.49735  Biso   1.000  O
  O22      1.0000 0.76474  0.13235  0.99363  Biso   1.000  O
  O23      1.0000 0.73357  0.38618  0.99722  Biso   1.000  O
  O24      1.0000 0.73288  0.36374  0.50389  Biso   1.000  O
  Hf13     1.0000 0.63720  0.51882  0.24462  Biso   1.000  Hf
  Hf14     1.0000 0.63501  0.73230  0.74729  Biso   1.000  Hf
  Hf15     1.0000 0.86333  0.76551  0.24581  Biso   1.000  Hf
  Hf16     1.0000 0.86608  0.98134  0.74232  Biso   1.000  Hf
  O25      1.0000 0.53551  0.68213  0.39697  Biso   1.000  O
  O26      1.0000 0.53258  0.57312  0.90198  Biso   1.000  O
  O27      1.0000 0.96666  0.92138  0.40458  Biso   1.000  O
  O28      1.0000 0.96667  0.81771  0.90312  Biso   1.000  O
  O29      1.0000 0.77071  0.61072  0.49489  Biso   1.000  O
  O30      1.0000 0.77008  0.63430  0.99224  Biso   1.000  O
  O31      1.0000 0.73107  0.88494  0.99279  Biso   1.000  O
  O32      1.0000 0.72953  0.86129  0.49361  Biso   1.000  O
  Nb1      1.0000 0.11811  0.29069  0.21932  Biso   1.000  Nb
