data_image0
_cell_length_a       10.1719
_cell_length_b       10.2877
_cell_length_c       10.5151
_cell_angle_alpha    90.1872
_cell_angle_beta     79.3878
_cell_angle_gamma    90.2278

_symmetry_space_group_name_H-M    "P 1"
_symmetry_int_tables_number       1

loop_
  _symmetry_equiv_pos_as_xyz
  'x, y, z'

loop_
  _atom_site_label
  _atom_site_occupancy
  _atom_site_fract_x
  _atom_site_fract_y
  _atom_site_fract_z
  _atom_site_thermal_displace_type
  _atom_site_B_iso_or_equiv
  _atom_site_type_symbol
  Hf1      1.0000 0.13493  0.02254  0.14588  Biso   1.000  Hf
  Hf2      1.0000 0.14702  0.23338  0.38922  Biso   1.000  Hf
  Hf3      1.0000 0.34238  0.27392  0.08404  Biso   1.000  Hf
  Hf4      1.0000 0.35235  0.48085  0.35292  Biso   1.000  Hf
  O1       1.0000 0.03338  0.16967  0.07707  Biso   1.000  O
  O2       1.0000 0.03840  0.08250  0.32878  Biso   1.000  O
  O3       1.0000 0.46384  0.40238  0.18030  Biso   1.000  O
  O4       1.0000 0.48194  0.34898  0.42988  Biso   1.000  O
  O5       1.0000 0.27976  0.12328  0.23115  Biso   1.000  O
  O6       1.0000 0.30308  0.13629  0.46651  Biso   1.000  O
  O7       1.0000 0.21282  0.38696  0.99765  Biso   1.000  O
  O8       1.0000 0.20846  0.37673  0.24620  Biso   1.000  O
  Hf5      1.0000 0.13337  0.01913  0.64820  Biso   1.000  Hf
  Hf6      1.0000 0.13178  0.22946  0.88999  Biso   1.000  Hf
  Hf7      1.0000 0.36335  0.27407  0.60455  Biso   1.000  Hf
  Hf8      1.0000 0.35765  0.48309  0.85011  Biso   1.000  Hf
  O9       1.0000 0.04611  0.16842  0.57618  Biso   1.000  O
  O10      1.0000 0.02955  0.08158  0.82899  Biso   1.000  O
  O11      1.0000 0.46611  0.41856  0.67310  Biso   1.000  O
  O12      1.0000 0.46377  0.33775  0.91864  Biso   1.000  O
  O13      1.0000 0.27330  0.12786  0.73306  Biso   1.000  O
  O14      1.0000 0.26907  0.12267  0.98077  Biso   1.000  O
  O15      1.0000 0.22392  0.38184  0.50938  Biso   1.000  O
  O16      1.0000 0.22328  0.37112  0.75503  Biso   1.000  O
  Hf9      1.0000 0.13614  0.52553  0.14321  Biso   1.000  Hf
  Hf10     1.0000 0.13647  0.72893  0.39707  Biso   1.000  Hf
  Hf11     1.0000 0.35879  0.77124  0.10351  Biso   1.000  Hf
  Hf12     1.0000 0.36221  0.96695  0.35252  Biso   1.000  Hf
  O17      1.0000 0.03112  0.67136  0.07845  Biso   1.000  O
  O18      1.0000 0.03312  0.58778  0.32683  Biso   1.000  O
  O19      1.0000 0.46777  0.91306  0.17307  Biso   1.000  O
  O20      1.0000 0.46156  0.82248  0.42299  Biso   1.000  O
  O21      1.0000 0.27579  0.62847  0.24082  Biso   1.000  O
  O22      1.0000 0.27073  0.62486  0.49294  Biso   1.000  O
  O23      1.0000 0.22334  0.88032  0.00931  Biso   1.000  O
  O24      1.0000 0.22040  0.86661  0.25773  Biso   1.000  O
  Hf13     1.0000 0.13696  0.52374  0.64623  Biso   1.000  Hf
  Hf14     1.0000 0.13468  0.73051  0.89738  Biso   1.000  Hf
  Hf15     1.0000 0.36138  0.77068  0.60477  Biso   1.000  Hf
  Hf16     1.0000 0.36025  0.97706  0.85275  Biso   1.000  Hf
  O25      1.0000 0.03015  0.66696  0.58009  Biso   1.000  O
  O26      1.0000 0.03268  0.58318  0.83054  Biso   1.000  O
  O27      1.0000 0.46525  0.91727  0.67190  Biso   1.000  O
  O28      1.0000 0.46491  0.83414  0.92266  Biso   1.000  O
  O29      1.0000 0.27414  0.62908  0.74075  Biso   1.000  O
  O30      1.0000 0.27459  0.62527  0.98958  Biso   1.000  O
  O31      1.0000 0.22281  0.88438  0.51078  Biso   1.000  O
  O32      1.0000 0.22194  0.87097  0.76007  Biso   1.000  O
  Hf17     1.0000 0.63925  0.02233  0.15439  Biso   1.000  Hf
  Hf18     1.0000 0.65506  0.22770  0.40626  Biso   1.000  Hf
  Hf19     1.0000 0.85877  0.27251  0.10828  Biso   1.000  Hf
  Hf20     1.0000 0.86445  0.47826  0.35638  Biso   1.000  Hf
  O33      1.0000 0.52002  0.16625  0.08637  Biso   1.000  O
  O34      1.0000 0.54604  0.05958  0.34841  Biso   1.000  O
  O35      1.0000 0.96273  0.42157  0.16912  Biso   1.000  O
  O36      1.0000 0.96902  0.33482  0.42353  Biso   1.000  O
  O37      1.0000 0.78537  0.12711  0.24563  Biso   1.000  O
  O38      1.0000 0.78680  0.11643  0.49928  Biso   1.000  O
  O39      1.0000 0.71880  0.37804  0.01515  Biso   1.000  O
  O40      1.0000 0.72927  0.37409  0.26585  Biso   1.000  O
  Hf21     1.0000 0.63906  0.02207  0.64898  Biso   1.000  Hf
  Hf22     1.0000 0.63603  0.23021  0.90021  Biso   1.000  Hf
  Hf23     1.0000 0.86781  0.27043  0.60742  Biso   1.000  Hf
  Hf24     1.0000 0.85838  0.47905  0.85751  Biso   1.000  Hf
  O41      1.0000 0.53848  0.17035  0.58421  Biso   1.000  O
  O42      1.0000 0.53221  0.08408  0.83214  Biso   1.000  O
  O43      1.0000 0.96554  0.41757  0.67490  Biso   1.000  O
  O44      1.0000 0.95875  0.33094  0.92107  Biso   1.000  O
  O45      1.0000 0.77558  0.12982  0.74622  Biso   1.000  O
  O46      1.0000 0.76942  0.12292  0.99686  Biso   1.000  O
  O47      1.0000 0.73174  0.37760  0.51708  Biso   1.000  O
  O48      1.0000 0.72305  0.37080  0.76461  Biso   1.000  O
  Hf25     1.0000 0.63675  0.52122  0.15098  Biso   1.000  Hf
  Hf26     1.0000 0.63760  0.72569  0.39767  Biso   1.000  Hf
  Hf27     1.0000 0.85785  0.77233  0.10604  Biso   1.000  Hf
  Hf28     1.0000 0.86234  0.97789  0.35666  Biso   1.000  Hf
  O49      1.0000 0.52956  0.66066  0.07837  Biso   1.000  O
  O50      1.0000 0.52990  0.58358  0.32768  Biso   1.000  O
  O51      1.0000 0.96447  0.91671  0.17260  Biso   1.000  O
  O52      1.0000 0.96503  0.83402  0.42522  Biso   1.000  O
  O53      1.0000 0.77342  0.62851  0.24173  Biso   1.000  O
  O54      1.0000 0.77473  0.62067  0.49182  Biso   1.000  O
  O55      1.0000 0.72059  0.87970  0.01373  Biso   1.000  O
  O56      1.0000 0.72414  0.86986  0.26207  Biso   1.000  O
  Hf29     1.0000 0.63971  0.52143  0.64828  Biso   1.000  Hf
  Hf30     1.0000 0.63630  0.72741  0.89907  Biso   1.000  Hf
  Hf31     1.0000 0.85795  0.77179  0.60574  Biso   1.000  Hf
  Hf32     1.0000 0.85475  0.97855  0.85858  Biso   1.000  Hf
  O57      1.0000 0.53347  0.66541  0.58126  Biso   1.000  O
  O58      1.0000 0.53243  0.58517  0.82856  Biso   1.000  O
  O59      1.0000 0.96177  0.91680  0.67523  Biso   1.000  O
  O60      1.0000 0.96200  0.83457  0.92243  Biso   1.000  O
  O61      1.0000 0.77498  0.62887  0.74301  Biso   1.000  O
  O62      1.0000 0.77321  0.62143  0.99328  Biso   1.000  O
  O63      1.0000 0.72135  0.87724  0.51222  Biso   1.000  O
  O64      1.0000 0.72085  0.87155  0.76298  Biso   1.000  O
  Nb1      1.0000 0.44585  0.22436  0.28765  Biso   1.000  Nb
