data_image0
_cell_length_a       10.0914
_cell_length_b       10.2685
_cell_length_c       5.21741
_cell_angle_alpha    89.9768
_cell_angle_beta     80.1475
_cell_angle_gamma    89.8933

_symmetry_space_group_name_H-M    "P 1"
_symmetry_int_tables_number       1

loop_
  _symmetry_equiv_pos_as_xyz
  'x, y, z'

loop_
  _atom_site_label
  _atom_site_occupancy
  _atom_site_fract_x
  _atom_site_fract_y
  _atom_site_fract_z
  _atom_site_thermal_displace_type
  _atom_site_B_iso_or_equiv
  _atom_site_type_symbol
  Nb1      1.0000 0.13852  0.02326  0.29198  Biso   1.000  Nb
  Hf1      1.0000 0.13985  0.22830  0.79111  Biso   1.000  Hf
  Hf2      1.0000 0.36100  0.27163  0.20921  Biso   1.000  Hf
  Hf3      1.0000 0.36099  0.47904  0.70883  Biso   1.000  Hf
  O1       1.0000 0.03667  0.16699  0.16048  Biso   1.000  O
  O2       1.0000 0.03945  0.07848  0.65120  Biso   1.000  O
  O3       1.0000 0.46363  0.42075  0.33810  Biso   1.000  O
  O4       1.0000 0.46328  0.32971  0.83847  Biso   1.000  O
  O5       1.0000 0.27675  0.12820  0.48229  Biso   1.000  O
  O6       1.0000 0.27671  0.12081  0.98700  Biso   1.000  O
  O7       1.0000 0.22264  0.37875  0.01896  Biso   1.000  O
  O8       1.0000 0.22360  0.37047  0.51938  Biso   1.000  O
  Hf4      1.0000 0.13906  0.52158  0.29175  Biso   1.000  Hf
  Hf5      1.0000 0.13880  0.72868  0.79140  Biso   1.000  Hf
  Hf6      1.0000 0.35942  0.77380  0.20980  Biso   1.000  Hf
  Hf7      1.0000 0.35943  0.97836  0.70880  Biso   1.000  Hf
  O9       1.0000 0.03552  0.66867  0.16065  Biso   1.000  O
  O10      1.0000 0.03587  0.57950  0.66185  Biso   1.000  O
  O11      1.0000 0.46437  0.91967  0.34202  Biso   1.000  O
  O12      1.0000 0.46312  0.83110  0.84067  Biso   1.000  O
  O13      1.0000 0.27636  0.62999  0.48152  Biso   1.000  O
  O14      1.0000 0.27698  0.62127  0.98186  Biso   1.000  O
  O15      1.0000 0.21955  0.87932  0.02077  Biso   1.000  O
  O16      1.0000 0.22041  0.87232  0.51847  Biso   1.000  O
  Hf8      1.0000 0.63878  0.02158  0.29240  Biso   1.000  Hf
  Hf9      1.0000 0.63896  0.22830  0.79143  Biso   1.000  Hf
  Hf10     1.0000 0.86064  0.27151  0.20790  Biso   1.000  Hf
  Hf11     1.0000 0.86098  0.47829  0.70784  Biso   1.000  Hf
  O17      1.0000 0.53684  0.17060  0.16244  Biso   1.000  O
  O18      1.0000 0.53579  0.08025  0.66272  Biso   1.000  O
  O19      1.0000 0.96452  0.41857  0.33846  Biso   1.000  O
  O20      1.0000 0.96380  0.32832  0.83799  Biso   1.000  O
  O21      1.0000 0.77772  0.12878  0.48045  Biso   1.000  O
  O22      1.0000 0.77788  0.12043  0.97963  Biso   1.000  O
  O23      1.0000 0.72316  0.37938  0.01860  Biso   1.000  O
  O24      1.0000 0.72298  0.37062  0.51822  Biso   1.000  O
  Hf12     1.0000 0.63859  0.52230  0.29174  Biso   1.000  Hf
  Hf13     1.0000 0.63853  0.72885  0.79304  Biso   1.000  Hf
  Hf14     1.0000 0.86144  0.77171  0.20738  Biso   1.000  Hf
  Hf15     1.0000 0.86135  0.97832  0.70652  Biso   1.000  Hf
  O25      1.0000 0.53552  0.67088  0.16243  Biso   1.000  O
  O26      1.0000 0.53605  0.58026  0.66264  Biso   1.000  O
  O27      1.0000 0.96910  0.91905  0.33495  Biso   1.000  O
  O28      1.0000 0.96356  0.83019  0.83742  Biso   1.000  O
  O29      1.0000 0.77684  0.62920  0.48135  Biso   1.000  O
  O30      1.0000 0.77689  0.62114  0.98138  Biso   1.000  O
  O31      1.0000 0.72271  0.87958  0.01824  Biso   1.000  O
  O32      1.0000 0.72537  0.87126  0.51825  Biso   1.000  O
