data_image0
_cell_length_a       10.0541
_cell_length_b       5.14936
_cell_length_c       10.5526
_cell_angle_alpha    89.7599
_cell_angle_beta     92.1063
_cell_angle_gamma    90.4895

_symmetry_space_group_name_H-M    "P 1"
_symmetry_int_tables_number       1

loop_
  _symmetry_equiv_pos_as_xyz
  'x, y, z'

loop_
  _atom_site_label
  _atom_site_occupancy
  _atom_site_fract_x
  _atom_site_fract_y
  _atom_site_fract_z
  _atom_site_thermal_displace_type
  _atom_site_B_iso_or_equiv
  _atom_site_type_symbol
  Hf1      1.0000 0.13224  0.04184  0.17564  Biso   1.000  Hf
  Hf2      1.0000 0.13943  0.45142  0.42660  Biso   1.000  Hf
  Hf3      1.0000 0.34599  0.54880  0.18457  Biso   1.000  Hf
  Hf4      1.0000 0.36072  0.95273  0.42783  Biso   1.000  Hf
  Hf5      1.0000 0.64676  0.06093  0.07595  Biso   1.000  Hf
  Hf6      1.0000 0.63677  0.45613  0.33217  Biso   1.000  Hf
  Hf7      1.0000 0.85837  0.53376  0.07482  Biso   1.000  Hf
  Hf8      1.0000 0.86035  0.95294  0.32625  Biso   1.000  Hf
  O1       1.0000 0.03067  0.32965  0.08597  Biso   1.000  O
  O2       1.0000 0.02952  0.16521  0.33816  Biso   1.000  O
  O3       1.0000 0.46256  0.88171  0.10886  Biso   1.000  O
  O4       1.0000 0.46400  0.66255  0.34258  Biso   1.000  O
  O5       1.0000 0.27054  0.24947  0.30154  Biso   1.000  O
  O6       1.0000 0.26805  0.24099  0.05239  Biso   1.000  O
  O7       1.0000 0.21621  0.75290  0.30605  Biso   1.000  O
  O8       1.0000 0.21191  0.75810  0.05599  Biso   1.000  O
  O9       1.0000 0.52143  0.33066  0.17467  Biso   1.000  O
  O10      1.0000 0.53208  0.16355  0.41638  Biso   1.000  O
  O11      1.0000 0.95747  0.83135  0.16762  Biso   1.000  O
  O12      1.0000 0.96913  0.66470  0.41740  Biso   1.000  O
  O13      1.0000 0.77677  0.24599  0.45178  Biso   1.000  O
  O14      1.0000 0.77810  0.24853  0.20762  Biso   1.000  O
  O15      1.0000 0.72648  0.74644  0.45139  Biso   1.000  O
  O16      1.0000 0.71200  0.73359  0.19709  Biso   1.000  O
  Hf9      1.0000 0.14714  0.03818  0.67685  Biso   1.000  Hf
  Hf10     1.0000 0.14365  0.45729  0.92704  Biso   1.000  Hf
  Hf11     1.0000 0.36666  0.53787  0.67810  Biso   1.000  Hf
  Hf12     1.0000 0.35979  0.95288  0.93609  Biso   1.000  Hf
  Hf13     1.0000 0.64389  0.03483  0.57290  Biso   1.000  Hf
  Hf14     1.0000 0.65794  0.45134  0.80633  Biso   1.000  Hf
  Hf15     1.0000 0.87127  0.53846  0.57497  Biso   1.000  Hf
  Hf16     1.0000 0.87205  0.95400  0.82699  Biso   1.000  Hf
  O17      1.0000 0.03906  0.32398  0.58584  Biso   1.000  O
  O18      1.0000 0.04267  0.16514  0.83445  Biso   1.000  O
  O19      1.0000 0.47354  0.82111  0.58587  Biso   1.000  O
  O20      1.0000 0.48710  0.68091  0.83364  Biso   1.000  O
  O21      1.0000 0.28393  0.24698  0.80049  Biso   1.000  O
  O22      1.0000 0.28074  0.24643  0.55038  Biso   1.000  O
  O23      1.0000 0.23165  0.74056  0.80314  Biso   1.000  O
  O24      1.0000 0.22863  0.74500  0.55364  Biso   1.000  O
  O25      1.0000 0.53650  0.31833  0.66286  Biso   1.000  O
  O26      1.0000 0.53031  0.20163  0.92428  Biso   1.000  O
  O27      1.0000 0.97706  0.82284  0.66828  Biso   1.000  O
  O28      1.0000 0.96975  0.66552  0.91828  Biso   1.000  O
  O29      1.0000 0.79040  0.24424  0.94087  Biso   1.000  O
  O30      1.0000 0.78806  0.23830  0.69411  Biso   1.000  O
  O31      1.0000 0.72520  0.76009  0.95030  Biso   1.000  O
  O32      1.0000 0.73580  0.74517  0.69713  Biso   1.000  O
  Nb1      1.0000 0.54844  0.56138  0.02144  Biso   1.000  Nb
