data_image0
_cell_length_a       10.2314
_cell_length_b       5.15693
_cell_length_c       10.5616
_cell_angle_alpha    90.3085
_cell_angle_beta     78.3377
_cell_angle_gamma    90.3696

_symmetry_space_group_name_H-M    "P 1"
_symmetry_int_tables_number       1

loop_
  _symmetry_equiv_pos_as_xyz
  'x, y, z'

loop_
  _atom_site_label
  _atom_site_occupancy
  _atom_site_fract_x
  _atom_site_fract_y
  _atom_site_fract_z
  _atom_site_thermal_displace_type
  _atom_site_B_iso_or_equiv
  _atom_site_type_symbol
  Hf1      1.0000 0.13194  0.05041  0.14333  Biso   1.000  Hf
  Hf2      1.0000 0.14259  0.46519  0.39128  Biso   1.000  Hf
  Hf3      1.0000 0.34191  0.54836  0.08313  Biso   1.000  Hf
  Hf4      1.0000 0.35402  0.93794  0.35166  Biso   1.000  Hf
  O1       1.0000 0.02839  0.34263  0.07653  Biso   1.000  O
  O2       1.0000 0.03632  0.17365  0.32741  Biso   1.000  O
  O3       1.0000 0.46771  0.79642  0.18074  Biso   1.000  O
  O4       1.0000 0.47765  0.67005  0.42980  Biso   1.000  O
  O5       1.0000 0.27753  0.24356  0.23247  Biso   1.000  O
  O6       1.0000 0.29003  0.26847  0.47610  Biso   1.000  O
  O7       1.0000 0.21330  0.77457  0.99790  Biso   1.000  O
  O8       1.0000 0.20840  0.74260  0.24477  Biso   1.000  O
  Hf5      1.0000 0.13460  0.04634  0.64553  Biso   1.000  Hf
  Hf6      1.0000 0.12750  0.46277  0.89256  Biso   1.000  Hf
  Hf7      1.0000 0.36325  0.54514  0.60646  Biso   1.000  Hf
  Hf8      1.0000 0.35649  0.96490  0.84819  Biso   1.000  Hf
  O9       1.0000 0.03883  0.33548  0.57753  Biso   1.000  O
  O10      1.0000 0.02831  0.16801  0.82856  Biso   1.000  O
  O11      1.0000 0.46633  0.83863  0.67172  Biso   1.000  O
  O12      1.0000 0.46334  0.67949  0.91826  Biso   1.000  O
  O13      1.0000 0.27196  0.25624  0.73503  Biso   1.000  O
  O14      1.0000 0.26675  0.25282  0.98125  Biso   1.000  O
  O15      1.0000 0.22221  0.76743  0.51048  Biso   1.000  O
  O16      1.0000 0.22210  0.74274  0.75538  Biso   1.000  O
  Hf9      1.0000 0.63761  0.04806  0.16045  Biso   1.000  Hf
  Hf10     1.0000 0.65421  0.45142  0.40696  Biso   1.000  Hf
  Hf11     1.0000 0.85381  0.54655  0.11016  Biso   1.000  Hf
  Hf12     1.0000 0.86489  0.95649  0.35876  Biso   1.000  Hf
  O17      1.0000 0.51496  0.32122  0.08271  Biso   1.000  O
  O18      1.0000 0.54001  0.11916  0.35241  Biso   1.000  O
  O19      1.0000 0.96321  0.83735  0.17159  Biso   1.000  O
  O20      1.0000 0.96882  0.67224  0.42713  Biso   1.000  O
  O21      1.0000 0.78519  0.25212  0.24890  Biso   1.000  O
  O22      1.0000 0.78460  0.23532  0.50117  Biso   1.000  O
  O23      1.0000 0.71670  0.76137  0.01782  Biso   1.000  O
  O24      1.0000 0.72915  0.74897  0.26837  Biso   1.000  O
  Hf13     1.0000 0.63998  0.04618  0.65179  Biso   1.000  Hf
  Hf14     1.0000 0.63399  0.46030  0.90286  Biso   1.000  Hf
  Hf15     1.0000 0.86419  0.54494  0.60919  Biso   1.000  Hf
  Hf16     1.0000 0.85356  0.96039  0.86112  Biso   1.000  Hf
  O25      1.0000 0.53706  0.33808  0.58707  Biso   1.000  O
  O26      1.0000 0.52963  0.17453  0.83179  Biso   1.000  O
  O27      1.0000 0.96416  0.83497  0.67781  Biso   1.000  O
  O28      1.0000 0.95708  0.67014  0.92347  Biso   1.000  O
  O29      1.0000 0.77401  0.26191  0.74907  Biso   1.000  O
  O30      1.0000 0.76733  0.25000  0.99964  Biso   1.000  O
  O31      1.0000 0.72818  0.75337  0.51820  Biso   1.000  O
  O32      1.0000 0.72147  0.74542  0.76699  Biso   1.000  O
  Nb1      1.0000 0.44605  0.43561  0.28349  Biso   1.000  Nb
