data_image0
_cell_length_a       10.1898
_cell_length_b       10.2852
_cell_length_c       5.33411
_cell_angle_alpha    90.242
_cell_angle_beta     90.657
_cell_angle_gamma    89.7413

_symmetry_space_group_name_H-M    "P 1"
_symmetry_int_tables_number       1

loop_
  _symmetry_equiv_pos_as_xyz
  'x, y, z'

loop_
  _atom_site_label
  _atom_site_occupancy
  _atom_site_fract_x
  _atom_site_fract_y
  _atom_site_fract_z
  _atom_site_thermal_displace_type
  _atom_site_B_iso_or_equiv
  _atom_site_type_symbol
  Zr1      1.0000 0.13887  0.02171  0.34741  Biso   1.000  Zr
  Zr2      1.0000 0.14299  0.22779  0.84566  Biso   1.000  Zr
  Zr3      1.0000 0.35767  0.26834  0.35650  Biso   1.000  Zr
  Zr4      1.0000 0.35928  0.47991  0.84580  Biso   1.000  Zr
  Zr5      1.0000 0.63544  0.99588  0.16273  Biso   1.000  Zr
  Zr6      1.0000 0.63243  0.22608  0.64481  Biso   1.000  Zr
  Zr7      1.0000 0.87812  0.27670  0.14927  Biso   1.000  Zr
  Zr8      1.0000 0.86438  0.47969  0.65397  Biso   1.000  Zr
  O1       1.0000 0.03264  0.15343  0.14478  Biso   1.000  O
  O2       1.0000 0.02507  0.09805  0.64688  Biso   1.000  O
  O3       1.0000 0.47751  0.40208  0.15018  Biso   1.000  O
  O4       1.0000 0.46891  0.34559  0.65717  Biso   1.000  O
  O5       1.0000 0.27158  0.12421  0.59890  Biso   1.000  O
  O6       1.0000 0.27496  0.12375  0.09832  Biso   1.000  O
  O7       1.0000 0.22273  0.37610  0.60117  Biso   1.000  O
  O8       1.0000 0.22648  0.37655  0.09529  Biso   1.000  O
  O9       1.0000 0.51171  0.12537  0.38451  Biso   1.000  O
  O10      1.0000 0.51919  0.10895  0.89385  Biso   1.000  O
  O11      1.0000 0.97521  0.41355  0.35174  Biso   1.000  O
  O12      1.0000 0.97760  0.34584  0.84262  Biso   1.000  O
  O13      1.0000 0.76375  0.12649  0.91181  Biso   1.000  O
  O14      1.0000 0.76436  0.12904  0.38711  Biso   1.000  O
  O15      1.0000 0.72989  0.37815  0.90614  Biso   1.000  O
  O16      1.0000 0.72434  0.37833  0.39682  Biso   1.000  O
  Zr9      1.0000 0.14215  0.52275  0.34875  Biso   1.000  Zr
  Zr10     1.0000 0.13918  0.73009  0.84750  Biso   1.000  Zr
  Zr11     1.0000 0.36025  0.77153  0.35075  Biso   1.000  Zr
  Zr12     1.0000 0.36180  0.97881  0.85062  Biso   1.000  Zr
  Zr13     1.0000 0.64249  0.53185  0.15069  Biso   1.000  Zr
  Zr14     1.0000 0.63883  0.72792  0.65504  Biso   1.000  Zr
  Zr15     1.0000 0.86817  0.77186  0.15822  Biso   1.000  Zr
  Zr16     1.0000 0.86280  0.98294  0.65843  Biso   1.000  Zr
  O17      1.0000 0.03273  0.65989  0.15586  Biso   1.000  O
  O18      1.0000 0.02964  0.59540  0.65585  Biso   1.000  O
  O19      1.0000 0.47090  0.88692  0.12845  Biso   1.000  O
  O20      1.0000 0.47755  0.85272  0.63652  Biso   1.000  O
  O21      1.0000 0.27556  0.62560  0.59686  Biso   1.000  O
  O22      1.0000 0.27593  0.62576  0.09698  Biso   1.000  O
  O23      1.0000 0.22643  0.87383  0.59899  Biso   1.000  O
  O24      1.0000 0.22501  0.87687  0.09917  Biso   1.000  O
  O25      1.0000 0.52785  0.65415  0.35720  Biso   1.000  O
  O26      1.0000 0.52741  0.59733  0.85271  Biso   1.000  O
  O27      1.0000 0.97124  0.91046  0.35120  Biso   1.000  O
  O28      1.0000 0.97283  0.84662  0.84986  Biso   1.000  O
  O29      1.0000 0.77742  0.62636  0.90389  Biso   1.000  O
  O30      1.0000 0.77687  0.62717  0.40547  Biso   1.000  O
  O31      1.0000 0.72960  0.87133  0.90883  Biso   1.000  O
  O32      1.0000 0.73313  0.87053  0.41746  Biso   1.000  O
  Nb1      1.0000 0.61786  0.24993  0.14181  Biso   1.000  Nb
