data_image0
_cell_length_a       10.0192
_cell_length_b       10.4065
_cell_length_c       5.02557
_cell_angle_alpha    89.8909
_cell_angle_beta     89.9015
_cell_angle_gamma    89.9823

_symmetry_space_group_name_H-M    "P 1"
_symmetry_int_tables_number       1

loop_
  _symmetry_equiv_pos_as_xyz
  'x, y, z'

loop_
  _atom_site_label
  _atom_site_occupancy
  _atom_site_fract_x
  _atom_site_fract_y
  _atom_site_fract_z
  _atom_site_thermal_displace_type
  _atom_site_B_iso_or_equiv
  _atom_site_type_symbol
  Nb1      1.0000 0.13411  0.01905  0.25660  Biso   1.000  Nb
  Zr1      1.0000 0.13394  0.51535  0.25210  Biso   1.000  Zr
  Zr2      1.0000 0.63390  0.01513  0.24922  Biso   1.000  Zr
  Zr3      1.0000 0.63399  0.51602  0.25080  Biso   1.000  Zr
  Zr4      1.0000 0.13337  0.23296  0.75372  Biso   1.000  Zr
  Zr5      1.0000 0.13347  0.73484  0.75139  Biso   1.000  Zr
  Zr6      1.0000 0.63351  0.23347  0.75033  Biso   1.000  Zr
  Zr7      1.0000 0.63392  0.73498  0.74877  Biso   1.000  Zr
  Zr8      1.0000 0.36665  0.26627  0.25005  Biso   1.000  Zr
  Zr9      1.0000 0.36531  0.76674  0.25171  Biso   1.000  Zr
  Zr10     1.0000 0.86586  0.26450  0.25157  Biso   1.000  Zr
  Zr11     1.0000 0.86737  0.76569  0.24752  Biso   1.000  Zr
  Zr12     1.0000 0.36595  0.48471  0.75106  Biso   1.000  Zr
  Zr13     1.0000 0.36445  0.98360  0.75215  Biso   1.000  Zr
  Zr14     1.0000 0.86608  0.48400  0.75128  Biso   1.000  Zr
  Zr15     1.0000 0.86913  0.98491  0.74932  Biso   1.000  Zr
  O1       1.0000 0.03528  0.17934  0.40089  Biso   1.000  O
  O2       1.0000 0.03570  0.68301  0.38781  Biso   1.000  O
  O3       1.0000 0.53622  0.18383  0.38715  Biso   1.000  O
  O4       1.0000 0.53546  0.68423  0.38783  Biso   1.000  O
  O5       1.0000 0.03379  0.06675  0.92000  Biso   1.000  O
  O6       1.0000 0.03528  0.56621  0.88981  Biso   1.000  O
  O7       1.0000 0.53434  0.06604  0.88825  Biso   1.000  O
  O8       1.0000 0.53601  0.56630  0.88702  Biso   1.000  O
  O9       1.0000 0.46390  0.43409  0.38735  Biso   1.000  O
  O10      1.0000 0.46487  0.93314  0.39041  Biso   1.000  O
  O11      1.0000 0.96531  0.43144  0.39176  Biso   1.000  O
  O12      1.0000 0.97009  0.93367  0.38253  Biso   1.000  O
  O13      1.0000 0.46381  0.31588  0.88695  Biso   1.000  O
  O14      1.0000 0.46216  0.81611  0.88807  Biso   1.000  O
  O15      1.0000 0.96540  0.31624  0.89390  Biso   1.000  O
  O16      1.0000 0.96264  0.81575  0.88272  Biso   1.000  O
  O17      1.0000 0.27044  0.11665  0.48969  Biso   1.000  O
  O18      1.0000 0.26961  0.61791  0.49847  Biso   1.000  O
  O19      1.0000 0.76986  0.11602  0.49626  Biso   1.000  O
  O20      1.0000 0.76961  0.61683  0.49751  Biso   1.000  O
  O21      1.0000 0.26848  0.13040  0.99724  Biso   1.000  O
  O22      1.0000 0.26947  0.63334  0.99832  Biso   1.000  O
  O23      1.0000 0.76967  0.13260  0.99563  Biso   1.000  O
  O24      1.0000 0.76926  0.63311  0.99721  Biso   1.000  O
  O25      1.0000 0.23043  0.38253  0.99883  Biso   1.000  O
  O26      1.0000 0.22515  0.88508  0.00247  Biso   1.000  O
  O27      1.0000 0.73047  0.38230  0.99860  Biso   1.000  O
  O28      1.0000 0.73014  0.88369  0.99270  Biso   1.000  O
  O29      1.0000 0.23049  0.36650  0.49938  Biso   1.000  O
  O30      1.0000 0.22833  0.86924  0.49594  Biso   1.000  O
  O31      1.0000 0.73042  0.36668  0.49798  Biso   1.000  O
  O32      1.0000 0.73302  0.86737  0.49399  Biso   1.000  O
