data_image0
_cell_length_a       10.0692
_cell_length_b       10.2876
_cell_length_c       5.25071
_cell_angle_alpha    90.0322
_cell_angle_beta     89.9143
_cell_angle_gamma    89.915

_symmetry_space_group_name_H-M    "P 1"
_symmetry_int_tables_number       1

loop_
  _symmetry_equiv_pos_as_xyz
  'x, y, z'

loop_
  _atom_site_label
  _atom_site_occupancy
  _atom_site_fract_x
  _atom_site_fract_y
  _atom_site_fract_z
  _atom_site_thermal_displace_type
  _atom_site_B_iso_or_equiv
  _atom_site_type_symbol
  Nb1      1.0000 0.13805  0.02411  0.34534  Biso   1.000  Nb
  Zr1      1.0000 0.13900  0.52140  0.34251  Biso   1.000  Zr
  Zr2      1.0000 0.13999  0.22905  0.84048  Biso   1.000  Zr
  Zr3      1.0000 0.13870  0.72955  0.84310  Biso   1.000  Zr
  Zr4      1.0000 0.36110  0.27117  0.34303  Biso   1.000  Zr
  Zr5      1.0000 0.35917  0.77406  0.34351  Biso   1.000  Zr
  Zr6      1.0000 0.36126  0.47986  0.84279  Biso   1.000  Zr
  Zr7      1.0000 0.35980  0.97865  0.84404  Biso   1.000  Zr
  Zr8      1.0000 0.63879  0.02119  0.15556  Biso   1.000  Zr
  Zr9      1.0000 0.63859  0.52198  0.15906  Biso   1.000  Zr
  Zr10     1.0000 0.63885  0.22897  0.65782  Biso   1.000  Zr
  Zr11     1.0000 0.63842  0.72892  0.65727  Biso   1.000  Zr
  Zr12     1.0000 0.86123  0.27059  0.15775  Biso   1.000  Zr
  Zr13     1.0000 0.86202  0.77198  0.15655  Biso   1.000  Zr
  Zr14     1.0000 0.86117  0.47874  0.65807  Biso   1.000  Zr
  Zr15     1.0000 0.86102  0.97832  0.65510  Biso   1.000  Zr
  O1       1.0000 0.03377  0.16056  0.16702  Biso   1.000  O
  O2       1.0000 0.03245  0.66459  0.16738  Biso   1.000  O
  O3       1.0000 0.03764  0.08053  0.65911  Biso   1.000  O
  O4       1.0000 0.03292  0.58354  0.66867  Biso   1.000  O
  O5       1.0000 0.46657  0.41645  0.16946  Biso   1.000  O
  O6       1.0000 0.46715  0.91570  0.16625  Biso   1.000  O
  O7       1.0000 0.46662  0.33394  0.66955  Biso   1.000  O
  O8       1.0000 0.46619  0.83518  0.66751  Biso   1.000  O
  O9       1.0000 0.27671  0.12255  0.59223  Biso   1.000  O
  O10      1.0000 0.27569  0.62520  0.59027  Biso   1.000  O
  O11      1.0000 0.27332  0.12428  0.09714  Biso   1.000  O
  O12      1.0000 0.27607  0.62722  0.09084  Biso   1.000  O
  O13      1.0000 0.22473  0.37445  0.59024  Biso   1.000  O
  O14      1.0000 0.22024  0.87599  0.59102  Biso   1.000  O
  O15      1.0000 0.22404  0.37518  0.08905  Biso   1.000  O
  O16      1.0000 0.21924  0.87885  0.09561  Biso   1.000  O
  O17      1.0000 0.53317  0.16594  0.33263  Biso   1.000  O
  O18      1.0000 0.53240  0.66735  0.33141  Biso   1.000  O
  O19      1.0000 0.53187  0.08512  0.83312  Biso   1.000  O
  O20      1.0000 0.53330  0.58408  0.83166  Biso   1.000  O
  O21      1.0000 0.96802  0.41398  0.33238  Biso   1.000  O
  O22      1.0000 0.97326  0.91611  0.32963  Biso   1.000  O
  O23      1.0000 0.96677  0.33081  0.83046  Biso   1.000  O
  O24      1.0000 0.96663  0.83432  0.83076  Biso   1.000  O
  O25      1.0000 0.77667  0.12345  0.90712  Biso   1.000  O
  O26      1.0000 0.77620  0.62441  0.91087  Biso   1.000  O
  O27      1.0000 0.77689  0.12563  0.40864  Biso   1.000  O
  O28      1.0000 0.77599  0.62559  0.41079  Biso   1.000  O
  O29      1.0000 0.72439  0.37405  0.91105  Biso   1.000  O
  O30      1.0000 0.72350  0.87436  0.90728  Biso   1.000  O
  O31      1.0000 0.72415  0.37576  0.41029  Biso   1.000  O
  O32      1.0000 0.72630  0.87630  0.40857  Biso   1.000  O
