data_image0
_cell_length_a       5.02888
_cell_length_b       10.1895
_cell_length_c       10.0565
_cell_angle_alpha    89.9966
_cell_angle_beta     90.0013
_cell_angle_gamma    90.0032

_symmetry_space_group_name_H-M    "P 1"
_symmetry_int_tables_number       1

loop_
  _symmetry_equiv_pos_as_xyz
  'x, y, z'

loop_
  _atom_site_label
  _atom_site_occupancy
  _atom_site_fract_x
  _atom_site_fract_y
  _atom_site_fract_z
  _atom_site_thermal_displace_type
  _atom_site_B_iso_or_equiv
  _atom_site_type_symbol
  Nb1      1.0000 0.25027  0.99993  0.12516  Biso   1.000  Nb
  Zr1      1.0000 0.25028  0.99994  0.62515  Biso   1.000  Zr
  Zr2      1.0000 0.25028  0.49994  0.12515  Biso   1.000  Zr
  Zr3      1.0000 0.25028  0.49993  0.62515  Biso   1.000  Zr
  Zr4      1.0000 0.25275  0.24940  0.37484  Biso   1.000  Zr
  Zr5      1.0000 0.24783  0.24939  0.87544  Biso   1.000  Zr
  Zr6      1.0000 0.24784  0.75047  0.37484  Biso   1.000  Zr
  Zr7      1.0000 0.25276  0.75047  0.87543  Biso   1.000  Zr
  Zr8      1.0000 0.75030  0.24962  0.12514  Biso   1.000  Zr
  Zr9      1.0000 0.75030  0.24961  0.62514  Biso   1.000  Zr
  Zr10     1.0000 0.75031  0.75025  0.12514  Biso   1.000  Zr
  Zr11     1.0000 0.75031  0.75027  0.62514  Biso   1.000  Zr
  Zr12     1.0000 0.75028  0.99994  0.37505  Biso   1.000  Zr
  Zr13     1.0000 0.75027  0.99994  0.87526  Biso   1.000  Zr
  Zr14     1.0000 0.75028  0.49994  0.37583  Biso   1.000  Zr
  Zr15     1.0000 0.75028  0.49993  0.87447  Biso   1.000  Zr
  O1       1.0000 0.98896  0.14479  0.99563  Biso   1.000  O
  O2       1.0000 0.99149  0.14518  0.49409  Biso   1.000  O
  O3       1.0000 0.99691  0.64706  0.99812  Biso   1.000  O
  O4       1.0000 0.99743  0.64521  0.49827  Biso   1.000  O
  O5       1.0000 0.01101  0.10107  0.24470  Biso   1.000  O
  O6       1.0000 0.00442  0.10527  0.74666  Biso   1.000  O
  O7       1.0000 0.00223  0.60404  0.24894  Biso   1.000  O
  O8       1.0000 0.00154  0.60475  0.74863  Biso   1.000  O
  O9       1.0000 0.99689  0.35282  0.25217  Biso   1.000  O
  O10      1.0000 0.99741  0.35466  0.75202  Biso   1.000  O
  O11      1.0000 0.98897  0.85508  0.25466  Biso   1.000  O
  O12      1.0000 0.99150  0.85469  0.75621  Biso   1.000  O
  O13      1.0000 0.00222  0.39583  0.00135  Biso   1.000  O
  O14      1.0000 0.00152  0.39512  0.50167  Biso   1.000  O
  O15      1.0000 0.01101  0.89880  0.00559  Biso   1.000  O
  O16      1.0000 0.00444  0.89460  0.50363  Biso   1.000  O
  O17      1.0000 0.51159  0.14479  0.25466  Biso   1.000  O
  O18      1.0000 0.50906  0.14518  0.75620  Biso   1.000  O
  O19      1.0000 0.50367  0.64706  0.25216  Biso   1.000  O
  O20      1.0000 0.50314  0.64521  0.75200  Biso   1.000  O
  O21      1.0000 0.48954  0.10107  0.00559  Biso   1.000  O
  O22      1.0000 0.49615  0.10527  0.50363  Biso   1.000  O
  O23      1.0000 0.49835  0.60404  0.00133  Biso   1.000  O
  O24      1.0000 0.49904  0.60475  0.50165  Biso   1.000  O
  O25      1.0000 0.50366  0.35281  0.99813  Biso   1.000  O
  O26      1.0000 0.50313  0.35466  0.49828  Biso   1.000  O
  O27      1.0000 0.51160  0.85508  0.99564  Biso   1.000  O
  O28      1.0000 0.50907  0.85469  0.49409  Biso   1.000  O
  O29      1.0000 0.49833  0.39583  0.24895  Biso   1.000  O
  O30      1.0000 0.49902  0.39512  0.74863  Biso   1.000  O
  O31      1.0000 0.48955  0.89880  0.24471  Biso   1.000  O
  O32      1.0000 0.49615  0.89460  0.74666  Biso   1.000  O
