data_image0
_cell_length_a       10.2885
_cell_length_b       10.322
_cell_length_c       10.6115
_cell_angle_alpha    89.7305
_cell_angle_beta     79.6131
_cell_angle_gamma    89.7422

_symmetry_space_group_name_H-M    "P 1"
_symmetry_int_tables_number       1

loop_
  _symmetry_equiv_pos_as_xyz
  'x, y, z'

loop_
  _atom_site_label
  _atom_site_occupancy
  _atom_site_fract_x
  _atom_site_fract_y
  _atom_site_fract_z
  _atom_site_thermal_displace_type
  _atom_site_B_iso_or_equiv
  _atom_site_type_symbol
  Zr1      1.0000 0.13494  0.01950  0.14324  Biso   1.000  Zr
  Zr2      1.0000 0.12082  0.22193  0.39668  Biso   1.000  Zr
  Zr3      1.0000 0.35728  0.26900  0.09069  Biso   1.000  Zr
  Zr4      1.0000 0.36544  0.49977  0.35431  Biso   1.000  Zr
  O1       1.0000 0.03150  0.16250  0.07287  Biso   1.000  O
  O2       1.0000 0.02433  0.08300  0.31977  Biso   1.000  O
  O3       1.0000 0.47735  0.39123  0.19363  Biso   1.000  O
  O4       1.0000 0.49028  0.36634  0.44131  Biso   1.000  O
  O5       1.0000 0.27137  0.12249  0.23662  Biso   1.000  O
  O6       1.0000 0.27556  0.11846  0.48329  Biso   1.000  O
  O7       1.0000 0.22084  0.38065  0.00480  Biso   1.000  O
  O8       1.0000 0.23657  0.36625  0.25894  Biso   1.000  O
  Zr5      1.0000 0.13842  0.02111  0.64522  Biso   1.000  Zr
  Zr6      1.0000 0.13642  0.22814  0.89208  Biso   1.000  Zr
  Zr7      1.0000 0.36817  0.27450  0.60887  Biso   1.000  Zr
  Zr8      1.0000 0.36046  0.48137  0.85431  Biso   1.000  Zr
  O9       1.0000 0.02886  0.16126  0.57728  Biso   1.000  O
  O10      1.0000 0.03133  0.08564  0.82440  Biso   1.000  O
  O11      1.0000 0.47202  0.41030  0.68504  Biso   1.000  O
  O12      1.0000 0.47282  0.34628  0.92855  Biso   1.000  O
  O13      1.0000 0.27347  0.12788  0.73797  Biso   1.000  O
  O14      1.0000 0.27207  0.12122  0.98569  Biso   1.000  O
  O15      1.0000 0.24310  0.36771  0.49612  Biso   1.000  O
  O16      1.0000 0.22490  0.37374  0.75704  Biso   1.000  O
  Zr9      1.0000 0.13920  0.52028  0.14582  Biso   1.000  Zr
  Zr10     1.0000 0.13279  0.72817  0.39716  Biso   1.000  Zr
  Zr11     1.0000 0.36136  0.77153  0.10220  Biso   1.000  Zr
  Zr12     1.0000 0.35640  0.96751  0.35359  Biso   1.000  Zr
  O17      1.0000 0.03210  0.66048  0.07421  Biso   1.000  O
  O18      1.0000 0.03324  0.58585  0.32461  Biso   1.000  O
  O19      1.0000 0.46884  0.90878  0.17777  Biso   1.000  O
  O20      1.0000 0.46837  0.83898  0.42871  Biso   1.000  O
  O21      1.0000 0.27418  0.62974  0.24002  Biso   1.000  O
  O22      1.0000 0.26856  0.62499  0.49530  Biso   1.000  O
  O23      1.0000 0.22448  0.87778  0.00921  Biso   1.000  O
  O24      1.0000 0.22180  0.86884  0.25901  Biso   1.000  O
  Zr13     1.0000 0.13840  0.52018  0.64604  Biso   1.000  Zr
  Zr14     1.0000 0.13807  0.72776  0.89545  Biso   1.000  Zr
  Zr15     1.0000 0.36090  0.77272  0.60644  Biso   1.000  Zr
  Zr16     1.0000 0.36137  0.97871  0.85285  Biso   1.000  Zr
  O25      1.0000 0.02811  0.66116  0.57599  Biso   1.000  O
  O26      1.0000 0.03319  0.58621  0.82300  Biso   1.000  O
  O27      1.0000 0.46898  0.91149  0.67660  Biso   1.000  O
  O28      1.0000 0.46924  0.84062  0.92727  Biso   1.000  O
  O29      1.0000 0.27419  0.62811  0.74016  Biso   1.000  O
  O30      1.0000 0.27515  0.62350  0.99077  Biso   1.000  O
  O31      1.0000 0.22213  0.87544  0.51045  Biso   1.000  O
  O32      1.0000 0.22465  0.87228  0.76005  Biso   1.000  O
  Zr17     1.0000 0.63841  0.02143  0.14385  Biso   1.000  Zr
  Zr18     1.0000 0.64755  0.23388  0.39984  Biso   1.000  Zr
  Zr19     1.0000 0.86188  0.27228  0.10474  Biso   1.000  Zr
  Zr20     1.0000 0.86148  0.48107  0.35471  Biso   1.000  Zr
  O33      1.0000 0.52860  0.15603  0.07096  Biso   1.000  O
  O34      1.0000 0.52402  0.09694  0.32697  Biso   1.000  O
  O35      1.0000 0.97180  0.40996  0.17640  Biso   1.000  O
  O36      1.0000 0.96450  0.34188  0.42920  Biso   1.000  O
  O37      1.0000 0.77124  0.12785  0.23946  Biso   1.000  O
  O38      1.0000 0.77941  0.12249  0.49173  Biso   1.000  O
  O39      1.0000 0.72431  0.37673  0.01104  Biso   1.000  O
  O40      1.0000 0.72994  0.37410  0.26127  Biso   1.000  O
  Zr21     1.0000 0.63875  0.02222  0.64666  Biso   1.000  Zr
  Zr22     1.0000 0.63931  0.22827  0.89671  Biso   1.000  Zr
  Zr23     1.0000 0.85938  0.27311  0.60949  Biso   1.000  Zr
  Zr24     1.0000 0.86119  0.47891  0.85515  Biso   1.000  Zr
  O41      1.0000 0.53401  0.16163  0.57238  Biso   1.000  O
  O42      1.0000 0.52898  0.09219  0.82263  Biso   1.000  O
  O43      1.0000 0.97022  0.41165  0.67543  Biso   1.000  O
  O44      1.0000 0.96602  0.33619  0.92419  Biso   1.000  O
  O45      1.0000 0.77323  0.12820  0.74189  Biso   1.000  O
  O46      1.0000 0.77460  0.12082  0.99078  Biso   1.000  O
  O47      1.0000 0.72778  0.37916  0.51427  Biso   1.000  O
  O48      1.0000 0.72635  0.37325  0.76242  Biso   1.000  O
  Zr25     1.0000 0.63921  0.51931  0.14635  Biso   1.000  Zr
  Zr26     1.0000 0.64057  0.73038  0.39659  Biso   1.000  Zr
  Zr27     1.0000 0.86083  0.76990  0.10362  Biso   1.000  Zr
  Zr28     1.0000 0.85649  0.97707  0.35378  Biso   1.000  Zr
  O49      1.0000 0.52806  0.65479  0.07124  Biso   1.000  O
  O50      1.0000 0.53505  0.60051  0.31642  Biso   1.000  O
  O51      1.0000 0.96500  0.91070  0.17293  Biso   1.000  O
  O52      1.0000 0.96428  0.83652  0.42489  Biso   1.000  O
  O53      1.0000 0.77691  0.62772  0.23899  Biso   1.000  O
  O54      1.0000 0.77417  0.62313  0.48998  Biso   1.000  O
  O55      1.0000 0.72417  0.87801  0.01151  Biso   1.000  O
  O56      1.0000 0.72229  0.87282  0.26055  Biso   1.000  O
  Zr29     1.0000 0.63767  0.52335  0.64667  Biso   1.000  Zr
  Zr30     1.0000 0.63767  0.72749  0.89581  Biso   1.000  Zr
  Zr31     1.0000 0.86013  0.77276  0.60617  Biso   1.000  Zr
  Zr32     1.0000 0.86095  0.97749  0.85461  Biso   1.000  Zr
  O57      1.0000 0.52912  0.65925  0.57198  Biso   1.000  O
  O58      1.0000 0.52928  0.59360  0.82203  Biso   1.000  O
  O59      1.0000 0.96787  0.91270  0.67493  Biso   1.000  O
  O60      1.0000 0.96660  0.83443  0.92356  Biso   1.000  O
  O61      1.0000 0.77365  0.62813  0.73988  Biso   1.000  O
  O62      1.0000 0.77412  0.62154  0.98975  Biso   1.000  O
  O63      1.0000 0.72269  0.87838  0.51104  Biso   1.000  O
  O64      1.0000 0.72449  0.87249  0.76128  Biso   1.000  O
  Nb1      1.0000 0.38048  0.24809  0.33945  Biso   1.000  Nb
