data_image0
_cell_length_a       10.1603
_cell_length_b       10.3377
_cell_length_c       5.24376
_cell_angle_alpha    89.9829
_cell_angle_beta     80.1638
_cell_angle_gamma    89.8608

_symmetry_space_group_name_H-M    "P 1"
_symmetry_int_tables_number       1

loop_
  _symmetry_equiv_pos_as_xyz
  'x, y, z'

loop_
  _atom_site_label
  _atom_site_occupancy
  _atom_site_fract_x
  _atom_site_fract_y
  _atom_site_fract_z
  _atom_site_thermal_displace_type
  _atom_site_B_iso_or_equiv
  _atom_site_type_symbol
  Nb1      1.0000 0.13826  0.02355  0.29202  Biso   1.000  Nb
  Zr1      1.0000 0.13919  0.52159  0.29078  Biso   1.000  Zr
  Zr2      1.0000 0.63883  0.02164  0.29150  Biso   1.000  Zr
  Zr3      1.0000 0.63865  0.52251  0.29090  Biso   1.000  Zr
  Zr4      1.0000 0.14000  0.22818  0.78894  Biso   1.000  Zr
  Zr5      1.0000 0.13869  0.72906  0.79057  Biso   1.000  Zr
  Zr6      1.0000 0.63920  0.22854  0.79036  Biso   1.000  Zr
  Zr7      1.0000 0.63853  0.72894  0.79239  Biso   1.000  Zr
  Zr8      1.0000 0.36116  0.27172  0.20977  Biso   1.000  Zr
  Zr9      1.0000 0.35911  0.77426  0.21106  Biso   1.000  Zr
  Zr10     1.0000 0.86079  0.27130  0.20903  Biso   1.000  Zr
  Zr11     1.0000 0.86172  0.77204  0.20845  Biso   1.000  Zr
  Zr12     1.0000 0.36101  0.47931  0.70984  Biso   1.000  Zr
  Zr13     1.0000 0.35965  0.97866  0.71004  Biso   1.000  Zr
  Zr14     1.0000 0.86111  0.47838  0.70902  Biso   1.000  Zr
  Zr15     1.0000 0.86124  0.97841  0.70764  Biso   1.000  Zr
  O1       1.0000 0.03675  0.16432  0.16049  Biso   1.000  O
  O2       1.0000 0.03523  0.66844  0.16063  Biso   1.000  O
  O3       1.0000 0.53662  0.17079  0.16254  Biso   1.000  O
  O4       1.0000 0.53520  0.67140  0.16318  Biso   1.000  O
  O5       1.0000 0.03999  0.07758  0.64807  Biso   1.000  O
  O6       1.0000 0.03576  0.57925  0.66245  Biso   1.000  O
  O7       1.0000 0.53544  0.08057  0.66301  Biso   1.000  O
  O8       1.0000 0.53587  0.58008  0.66337  Biso   1.000  O
  O9       1.0000 0.46383  0.42118  0.33734  Biso   1.000  O
  O10      1.0000 0.46466  0.91989  0.34205  Biso   1.000  O
  O11      1.0000 0.96531  0.41781  0.33875  Biso   1.000  O
  O12      1.0000 0.97122  0.91911  0.33348  Biso   1.000  O
  O13      1.0000 0.46327  0.32937  0.83784  Biso   1.000  O
  O14      1.0000 0.46235  0.83062  0.84027  Biso   1.000  O
  O15      1.0000 0.96412  0.32742  0.83842  Biso   1.000  O
  O16      1.0000 0.96358  0.83008  0.83690  Biso   1.000  O
  O17      1.0000 0.27590  0.12682  0.48014  Biso   1.000  O
  O18      1.0000 0.27560  0.63039  0.48180  Biso   1.000  O
  O19      1.0000 0.77744  0.12852  0.48070  Biso   1.000  O
  O20      1.0000 0.77643  0.62910  0.48183  Biso   1.000  O
  O21      1.0000 0.27453  0.12052  0.98845  Biso   1.000  O
  O22      1.0000 0.27636  0.62189  0.98194  Biso   1.000  O
  O23      1.0000 0.77741  0.12053  0.97969  Biso   1.000  O
  O24      1.0000 0.77626  0.62139  0.98162  Biso   1.000  O
  O25      1.0000 0.22311  0.37852  0.01883  Biso   1.000  O
  O26      1.0000 0.21833  0.88088  0.02313  Biso   1.000  O
  O27      1.0000 0.72396  0.37913  0.01874  Biso   1.000  O
  O28      1.0000 0.72297  0.87942  0.01819  Biso   1.000  O
  O29      1.0000 0.22469  0.37042  0.51922  Biso   1.000  O
  O30      1.0000 0.22033  0.87383  0.51815  Biso   1.000  O
  O31      1.0000 0.72379  0.37090  0.51815  Biso   1.000  O
  O32      1.0000 0.72656  0.87173  0.51832  Biso   1.000  O
