data_image0
_cell_length_a       10.1094
_cell_length_b       10.1872
_cell_length_c       10.1094
_cell_angle_alpha    89.9999
_cell_angle_beta     89.9995
_cell_angle_gamma    89.9997

_symmetry_space_group_name_H-M    "P 1"
_symmetry_int_tables_number       1

loop_
  _symmetry_equiv_pos_as_xyz
  'x, y, z'

loop_
  _atom_site_label
  _atom_site_occupancy
  _atom_site_fract_x
  _atom_site_fract_y
  _atom_site_fract_z
  _atom_site_thermal_displace_type
  _atom_site_B_iso_or_equiv
  _atom_site_type_symbol
  Zr1      1.0000 0.12516  0.98323  0.12516  Biso   1.000  Zr
  Zr2      1.0000 0.12516  0.25002  0.39209  Biso   1.000  Zr
  Zr3      1.0000 0.39210  0.25002  0.12516  Biso   1.000  Zr
  Zr4      1.0000 0.37422  0.00062  0.37422  Biso   1.000  Zr
  O1       1.0000 0.99765  0.14061  0.99765  Biso   1.000  O
  O2       1.0000 0.00461  0.11372  0.24572  Biso   1.000  O
  O3       1.0000 0.99764  0.35942  0.25268  Biso   1.000  O
  O4       1.0000 0.00461  0.38632  0.00461  Biso   1.000  O
  O5       1.0000 0.25268  0.14061  0.25268  Biso   1.000  O
  O6       1.0000 0.24572  0.11372  0.00461  Biso   1.000  O
  O7       1.0000 0.25268  0.35943  0.99764  Biso   1.000  O
  O8       1.0000 0.24572  0.38631  0.24572  Biso   1.000  O
  Zr5      1.0000 0.12516  0.99631  0.62516  Biso   1.000  Zr
  Zr6      1.0000 0.12516  0.25002  0.85823  Biso   1.000  Zr
  Zr7      1.0000 0.37858  0.25002  0.62516  Biso   1.000  Zr
  Zr8      1.0000 0.37340  0.00188  0.87693  Biso   1.000  Zr
  O9       1.0000 0.99431  0.14044  0.50140  Biso   1.000  O
  O10      1.0000 0.00224  0.10646  0.74860  Biso   1.000  O
  O11      1.0000 0.99431  0.35960  0.74893  Biso   1.000  O
  O12      1.0000 0.00223  0.39358  0.50172  Biso   1.000  O
  O13      1.0000 0.25602  0.14044  0.74893  Biso   1.000  O
  O14      1.0000 0.24809  0.10646  0.50172  Biso   1.000  O
  O15      1.0000 0.25602  0.35960  0.50140  Biso   1.000  O
  O16      1.0000 0.24809  0.39358  0.74860  Biso   1.000  O
  Zr9      1.0000 0.12517  0.51681  0.12516  Biso   1.000  Zr
  Zr10     1.0000 0.12516  0.75002  0.37839  Biso   1.000  Zr
  Zr11     1.0000 0.37839  0.75002  0.12516  Biso   1.000  Zr
  Zr12     1.0000 0.37340  0.49816  0.37340  Biso   1.000  Zr
  O17      1.0000 0.00016  0.64143  0.00016  Biso   1.000  O
  O18      1.0000 0.99780  0.61288  0.25252  Biso   1.000  O
  O19      1.0000 0.00016  0.85860  0.25017  Biso   1.000  O
  O20      1.0000 0.99780  0.88716  0.99780  Biso   1.000  O
  O21      1.0000 0.25017  0.64143  0.25017  Biso   1.000  O
  O22      1.0000 0.25253  0.61288  0.99780  Biso   1.000  O
  O23      1.0000 0.25017  0.85860  0.00016  Biso   1.000  O
  O24      1.0000 0.25253  0.88716  0.25253  Biso   1.000  O
  Zr13     1.0000 0.12516  0.50372  0.62516  Biso   1.000  Zr
  Zr14     1.0000 0.12516  0.75002  0.87194  Biso   1.000  Zr
  Zr15     1.0000 0.37652  0.75002  0.62516  Biso   1.000  Zr
  Zr16     1.0000 0.37422  0.49942  0.87611  Biso   1.000  Zr
  O25      1.0000 0.99868  0.64326  0.50175  Biso   1.000  O
  O26      1.0000 0.00241  0.60703  0.75238  Biso   1.000  O
  O27      1.0000 0.99867  0.85677  0.74858  Biso   1.000  O
  O28      1.0000 0.00241  0.89300  0.49794  Biso   1.000  O
  O29      1.0000 0.25165  0.64327  0.74858  Biso   1.000  O
  O30      1.0000 0.24792  0.60703  0.49794  Biso   1.000  O
  O31      1.0000 0.25165  0.85677  0.50175  Biso   1.000  O
  O32      1.0000 0.24792  0.89301  0.75238  Biso   1.000  O
  Zr17     1.0000 0.62516  0.99631  0.12516  Biso   1.000  Zr
  Zr18     1.0000 0.62516  0.25002  0.37857  Biso   1.000  Zr
  Zr19     1.0000 0.85823  0.25002  0.12516  Biso   1.000  Zr
  Zr20     1.0000 0.87693  0.00188  0.37339  Biso   1.000  Zr
  O33      1.0000 0.50140  0.14044  0.99430  Biso   1.000  O
  O34      1.0000 0.50172  0.10646  0.24809  Biso   1.000  O
  O35      1.0000 0.50140  0.35960  0.25602  Biso   1.000  O
  O36      1.0000 0.50172  0.39358  0.00224  Biso   1.000  O
  O37      1.0000 0.74893  0.14044  0.25602  Biso   1.000  O
  O38      1.0000 0.74861  0.10646  0.00224  Biso   1.000  O
  O39      1.0000 0.74893  0.35960  0.99430  Biso   1.000  O
  O40      1.0000 0.74860  0.39358  0.24809  Biso   1.000  O
  Zr21     1.0000 0.62516  0.99864  0.62516  Biso   1.000  Zr
  Zr22     1.0000 0.62516  0.25002  0.87175  Biso   1.000  Zr
  Zr23     1.0000 0.87175  0.25002  0.62516  Biso   1.000  Zr
  Zr24     1.0000 0.87611  0.00062  0.87611  Biso   1.000  Zr
  O41      1.0000 0.49749  0.14451  0.49749  Biso   1.000  O
  O42      1.0000 0.50216  0.10518  0.74816  Biso   1.000  O
  O43      1.0000 0.49749  0.35552  0.75284  Biso   1.000  O
  O44      1.0000 0.50216  0.39485  0.50216  Biso   1.000  O
  O45      1.0000 0.75284  0.14451  0.75284  Biso   1.000  O
  O46      1.0000 0.74817  0.10518  0.50216  Biso   1.000  O
  O47      1.0000 0.75284  0.35552  0.49749  Biso   1.000  O
  O48      1.0000 0.74817  0.39486  0.74816  Biso   1.000  O
  Zr25     1.0000 0.62516  0.50372  0.12516  Biso   1.000  Zr
  Zr26     1.0000 0.62516  0.75002  0.37652  Biso   1.000  Zr
  Zr27     1.0000 0.87194  0.75002  0.12516  Biso   1.000  Zr
  Zr28     1.0000 0.87611  0.49942  0.37421  Biso   1.000  Zr
  O49      1.0000 0.50175  0.64327  0.99867  Biso   1.000  O
  O50      1.0000 0.49794  0.60703  0.24791  Biso   1.000  O
  O51      1.0000 0.50175  0.85677  0.25165  Biso   1.000  O
  O52      1.0000 0.49794  0.89300  0.00241  Biso   1.000  O
  O53      1.0000 0.74858  0.64327  0.25165  Biso   1.000  O
  O54      1.0000 0.75239  0.60703  0.00241  Biso   1.000  O
  O55      1.0000 0.74858  0.85677  0.99867  Biso   1.000  O
  O56      1.0000 0.75239  0.89300  0.24791  Biso   1.000  O
  Zr29     1.0000 0.62516  0.50139  0.62516  Biso   1.000  Zr
  Zr30     1.0000 0.62516  0.75002  0.87380  Biso   1.000  Zr
  Zr31     1.0000 0.87381  0.75002  0.62516  Biso   1.000  Zr
  Zr32     1.0000 0.87693  0.49816  0.87693  Biso   1.000  Zr
  O57      1.0000 0.49773  0.64416  0.49772  Biso   1.000  O
  O58      1.0000 0.50093  0.60523  0.74939  Biso   1.000  O
  O59      1.0000 0.49773  0.85587  0.75260  Biso   1.000  O
  O60      1.0000 0.50093  0.89480  0.50093  Biso   1.000  O
  O61      1.0000 0.75260  0.64416  0.75260  Biso   1.000  O
  O62      1.0000 0.74940  0.60523  0.50094  Biso   1.000  O
  O63      1.0000 0.75260  0.85587  0.49772  Biso   1.000  O
  O64      1.0000 0.74940  0.89480  0.74939  Biso   1.000  O
  Nb1      1.0000 0.12516  0.25002  0.12516  Biso   1.000  Nb
