data_image0
_cell_length_a       10.3047
_cell_length_b       5.19822
_cell_length_c       10.6186
_cell_angle_alpha    90.2787
_cell_angle_beta     78.328
_cell_angle_gamma    90.3905

_symmetry_space_group_name_H-M    "P 1"
_symmetry_int_tables_number       1

loop_
  _symmetry_equiv_pos_as_xyz
  'x, y, z'

loop_
  _atom_site_label
  _atom_site_occupancy
  _atom_site_fract_x
  _atom_site_fract_y
  _atom_site_fract_z
  _atom_site_thermal_displace_type
  _atom_site_B_iso_or_equiv
  _atom_site_type_symbol
  Zr1      1.0000 0.13239  0.05045  0.14313  Biso   1.000  Zr
  Zr2      1.0000 0.14195  0.46572  0.39115  Biso   1.000  Zr
  Zr3      1.0000 0.34227  0.54808  0.08253  Biso   1.000  Zr
  Zr4      1.0000 0.35286  0.93859  0.35153  Biso   1.000  Zr
  O1       1.0000 0.02810  0.34226  0.07645  Biso   1.000  O
  O2       1.0000 0.03613  0.17390  0.32723  Biso   1.000  O
  O3       1.0000 0.46881  0.79088  0.18284  Biso   1.000  O
  O4       1.0000 0.47684  0.66739  0.42803  Biso   1.000  O
  O5       1.0000 0.27842  0.24561  0.23316  Biso   1.000  O
  O6       1.0000 0.29058  0.27179  0.47480  Biso   1.000  O
  O7       1.0000 0.21366  0.77424  0.99735  Biso   1.000  O
  O8       1.0000 0.20905  0.74314  0.24462  Biso   1.000  O
  Zr5      1.0000 0.13432  0.04642  0.64490  Biso   1.000  Zr
  Zr6      1.0000 0.12748  0.46256  0.89198  Biso   1.000  Zr
  Zr7      1.0000 0.36303  0.54558  0.60670  Biso   1.000  Zr
  Zr8      1.0000 0.35607  0.96493  0.84811  Biso   1.000  Zr
  O9       1.0000 0.03835  0.33496  0.57786  Biso   1.000  O
  O10      1.0000 0.02786  0.16819  0.82862  Biso   1.000  O
  O11      1.0000 0.46655  0.83922  0.67122  Biso   1.000  O
  O12      1.0000 0.46395  0.67950  0.91769  Biso   1.000  O
  O13      1.0000 0.27106  0.25625  0.73453  Biso   1.000  O
  O14      1.0000 0.26603  0.25220  0.98104  Biso   1.000  O
  O15      1.0000 0.22220  0.76797  0.51057  Biso   1.000  O
  O16      1.0000 0.22277  0.74297  0.75502  Biso   1.000  O
  Zr9      1.0000 0.63828  0.04612  0.16030  Biso   1.000  Zr
  Zr10     1.0000 0.65415  0.45173  0.40764  Biso   1.000  Zr
  Zr11     1.0000 0.85429  0.54614  0.11052  Biso   1.000  Zr
  Zr12     1.0000 0.86460  0.95664  0.35925  Biso   1.000  Zr
  O17      1.0000 0.51488  0.32234  0.08520  Biso   1.000  O
  O18      1.0000 0.53845  0.12277  0.35131  Biso   1.000  O
  O19      1.0000 0.96369  0.83765  0.17175  Biso   1.000  O
  O20      1.0000 0.96868  0.67343  0.42782  Biso   1.000  O
  O21      1.0000 0.78414  0.25162  0.24908  Biso   1.000  O
  O22      1.0000 0.78430  0.23571  0.50198  Biso   1.000  O
  O23      1.0000 0.71737  0.76023  0.01787  Biso   1.000  O
  O24      1.0000 0.72957  0.74848  0.26833  Biso   1.000  O
  Zr13     1.0000 0.64010  0.04644  0.65202  Biso   1.000  Zr
  Zr14     1.0000 0.63406  0.45999  0.90293  Biso   1.000  Zr
  Zr15     1.0000 0.86391  0.54536  0.61016  Biso   1.000  Zr
  Zr16     1.0000 0.85364  0.96026  0.86191  Biso   1.000  Zr
  O25      1.0000 0.53673  0.33843  0.58752  Biso   1.000  O
  O26      1.0000 0.52908  0.17448  0.83235  Biso   1.000  O
  O27      1.0000 0.96459  0.83420  0.67825  Biso   1.000  O
  O28      1.0000 0.95750  0.67016  0.92355  Biso   1.000  O
  O29      1.0000 0.77331  0.26145  0.74974  Biso   1.000  O
  O30      1.0000 0.76681  0.24980  1.00000  Biso   1.000  O
  O31      1.0000 0.72841  0.75365  0.51871  Biso   1.000  O
  O32      1.0000 0.72211  0.74538  0.76737  Biso   1.000  O
  Nb1      1.0000 0.44457  0.43486  0.28381  Biso   1.000  Nb
