data_image0
_cell_length_a       10.1667
_cell_length_b       10.3455
_cell_length_c       10.4954
_cell_angle_alpha    90.0028
_cell_angle_beta     80.2902
_cell_angle_gamma    89.9222

_symmetry_space_group_name_H-M    "P 1"
_symmetry_int_tables_number       1

loop_
  _symmetry_equiv_pos_as_xyz
  'x, y, z'

loop_
  _atom_site_label
  _atom_site_occupancy
  _atom_site_fract_x
  _atom_site_fract_y
  _atom_site_fract_z
  _atom_site_thermal_displace_type
  _atom_site_B_iso_or_equiv
  _atom_site_type_symbol
  Nb1      1.0000 0.13932  0.02326  0.14645  Biso   1.000  Nb
  Zr1      1.0000 0.13888  0.02117  0.64504  Biso   1.000  Zr
  Zr2      1.0000 0.13910  0.52151  0.14555  Biso   1.000  Zr
  Zr3      1.0000 0.13890  0.52152  0.64531  Biso   1.000  Zr
  Zr4      1.0000 0.63920  0.02181  0.14570  Biso   1.000  Zr
  Zr5      1.0000 0.63865  0.02114  0.64536  Biso   1.000  Zr
  Zr6      1.0000 0.63860  0.52260  0.14510  Biso   1.000  Zr
  Zr7      1.0000 0.63901  0.52149  0.64568  Biso   1.000  Zr
  Zr8      1.0000 0.13979  0.22906  0.39488  Biso   1.000  Zr
  Zr9      1.0000 0.13918  0.22826  0.89475  Biso   1.000  Zr
  Zr10     1.0000 0.13903  0.72881  0.39522  Biso   1.000  Zr
  Zr11     1.0000 0.13861  0.72856  0.89562  Biso   1.000  Zr
  Zr12     1.0000 0.63952  0.22849  0.39513  Biso   1.000  Zr
  Zr13     1.0000 0.63870  0.22859  0.89524  Biso   1.000  Zr
  Zr14     1.0000 0.63972  0.72875  0.39532  Biso   1.000  Zr
  Zr15     1.0000 0.63785  0.72898  0.89643  Biso   1.000  Zr
  Zr16     1.0000 0.36121  0.27172  0.10473  Biso   1.000  Zr
  Zr17     1.0000 0.36143  0.27161  0.60441  Biso   1.000  Zr
  Zr18     1.0000 0.35862  0.77443  0.10528  Biso   1.000  Zr
  Zr19     1.0000 0.36141  0.77143  0.60479  Biso   1.000  Zr
  Zr20     1.0000 0.86097  0.27133  0.10485  Biso   1.000  Zr
  Zr21     1.0000 0.86095  0.27101  0.60431  Biso   1.000  Zr
  Zr22     1.0000 0.86210  0.77249  0.10412  Biso   1.000  Zr
  Zr23     1.0000 0.86079  0.77128  0.60498  Biso   1.000  Zr
  Zr24     1.0000 0.36163  0.47928  0.35462  Biso   1.000  Zr
  Zr25     1.0000 0.36063  0.47890  0.85486  Biso   1.000  Zr
  Zr26     1.0000 0.36084  0.97828  0.35414  Biso   1.000  Zr
  Zr27     1.0000 0.36001  0.97902  0.85528  Biso   1.000  Zr
  Zr28     1.0000 0.86109  0.47856  0.35429  Biso   1.000  Zr
  Zr29     1.0000 0.86097  0.47839  0.85487  Biso   1.000  Zr
  Zr30     1.0000 0.86200  0.97838  0.35385  Biso   1.000  Zr
  Zr31     1.0000 0.86065  0.97855  0.85470  Biso   1.000  Zr
  O1       1.0000 0.03691  0.16389  0.08179  Biso   1.000  O
  O2       1.0000 0.03514  0.16780  0.57806  Biso   1.000  O
  O3       1.0000 0.03536  0.66823  0.08037  Biso   1.000  O
  O4       1.0000 0.03558  0.66934  0.58027  Biso   1.000  O
  O5       1.0000 0.53553  0.16996  0.08068  Biso   1.000  O
  O6       1.0000 0.53660  0.17035  0.58078  Biso   1.000  O
  O7       1.0000 0.53449  0.67126  0.08161  Biso   1.000  O
  O8       1.0000 0.53640  0.67005  0.58074  Biso   1.000  O
  O9       1.0000 0.04110  0.07722  0.32532  Biso   1.000  O
  O10      1.0000 0.03500  0.08124  0.82929  Biso   1.000  O
  O11      1.0000 0.03581  0.57972  0.33096  Biso   1.000  O
  O12      1.0000 0.03524  0.58031  0.83041  Biso   1.000  O
  O13      1.0000 0.53619  0.08089  0.33068  Biso   1.000  O
  O14      1.0000 0.53490  0.08024  0.83109  Biso   1.000  O
  O15      1.0000 0.53630  0.58031  0.33091  Biso   1.000  O
  O16      1.0000 0.53528  0.58036  0.83126  Biso   1.000  O
  O17      1.0000 0.46403  0.42069  0.16863  Biso   1.000  O
  O18      1.0000 0.46411  0.42018  0.66938  Biso   1.000  O
  O19      1.0000 0.46493  0.91964  0.17053  Biso   1.000  O
  O20      1.0000 0.46387  0.92001  0.66992  Biso   1.000  O
  O21      1.0000 0.96546  0.41782  0.16966  Biso   1.000  O
  O22      1.0000 0.96471  0.41840  0.66968  Biso   1.000  O
  O23      1.0000 0.97171  0.91897  0.16795  Biso   1.000  O
  O24      1.0000 0.96434  0.91919  0.66956  Biso   1.000  O
  O25      1.0000 0.46443  0.33052  0.41914  Biso   1.000  O
  O26      1.0000 0.46307  0.32935  0.91910  Biso   1.000  O
  O27      1.0000 0.46523  0.83074  0.41965  Biso   1.000  O
  O28      1.0000 0.46129  0.83066  0.92036  Biso   1.000  O
  O29      1.0000 0.96384  0.32847  0.41809  Biso   1.000  O
  O30      1.0000 0.96475  0.32957  0.92090  Biso   1.000  O
  O31      1.0000 0.96475  0.83106  0.41966  Biso   1.000  O
  O32      1.0000 0.96335  0.82990  0.91919  Biso   1.000  O
  O33      1.0000 0.27567  0.12711  0.23921  Biso   1.000  O
  O34      1.0000 0.27621  0.12901  0.74097  Biso   1.000  O
  O35      1.0000 0.27567  0.63050  0.24078  Biso   1.000  O
  O36      1.0000 0.27595  0.62887  0.74066  Biso   1.000  O
  O37      1.0000 0.77803  0.12866  0.24071  Biso   1.000  O
  O38      1.0000 0.77558  0.12883  0.74034  Biso   1.000  O
  O39      1.0000 0.77668  0.62917  0.24036  Biso   1.000  O
  O40      1.0000 0.77589  0.62885  0.74119  Biso   1.000  O
  O41      1.0000 0.27708  0.12150  0.49053  Biso   1.000  O
  O42      1.0000 0.27295  0.11988  0.99333  Biso   1.000  O
  O43      1.0000 0.27672  0.62123  0.49080  Biso   1.000  O
  O44      1.0000 0.27596  0.62170  0.99087  Biso   1.000  O
  O45      1.0000 0.77746  0.12031  0.49003  Biso   1.000  O
  O46      1.0000 0.77589  0.12134  0.99036  Biso   1.000  O
  O47      1.0000 0.77673  0.62103  0.49079  Biso   1.000  O
  O48      1.0000 0.77567  0.62126  0.99070  Biso   1.000  O
  O49      1.0000 0.22325  0.37854  0.00968  Biso   1.000  O
  O50      1.0000 0.22367  0.37891  0.50919  Biso   1.000  O
  O51      1.0000 0.21612  0.88219  0.01136  Biso   1.000  O
  O52      1.0000 0.22429  0.87863  0.50939  Biso   1.000  O
  O53      1.0000 0.72377  0.37893  0.00945  Biso   1.000  O
  O54      1.0000 0.72420  0.37907  0.50943  Biso   1.000  O
  O55      1.0000 0.72246  0.87943  0.00930  Biso   1.000  O
  O56      1.0000 0.72427  0.87898  0.50926  Biso   1.000  O
  O57      1.0000 0.22514  0.37063  0.25968  Biso   1.000  O
  O58      1.0000 0.22367  0.37087  0.75939  Biso   1.000  O
  O59      1.0000 0.22025  0.87365  0.25886  Biso   1.000  O
  O60      1.0000 0.22368  0.87114  0.75970  Biso   1.000  O
  O61      1.0000 0.72396  0.37085  0.25893  Biso   1.000  O
  O62      1.0000 0.72377  0.37110  0.75955  Biso   1.000  O
  O63      1.0000 0.72716  0.87172  0.25914  Biso   1.000  O
  O64      1.0000 0.72313  0.87108  0.75959  Biso   1.000  O
