data_image0
_cell_length_a       10.1839
_cell_length_b       5.18562
_cell_length_c       10.6139
_cell_angle_alpha    90.3688
_cell_angle_beta     90.757
_cell_angle_gamma    89.6348

_symmetry_space_group_name_H-M    "P 1"
_symmetry_int_tables_number       1

loop_
  _symmetry_equiv_pos_as_xyz
  'x, y, z'

loop_
  _atom_site_label
  _atom_site_occupancy
  _atom_site_fract_x
  _atom_site_fract_y
  _atom_site_fract_z
  _atom_site_thermal_displace_type
  _atom_site_B_iso_or_equiv
  _atom_site_type_symbol
  Zr1      1.0000 0.14265  0.04284  0.17470  Biso   1.000  Zr
  Zr2      1.0000 0.13665  0.45625  0.42476  Biso   1.000  Zr
  Zr3      1.0000 0.35225  0.53747  0.17984  Biso   1.000  Zr
  Zr4      1.0000 0.36080  0.95459  0.42508  Biso   1.000  Zr
  Zr5      1.0000 0.63939  0.01584  0.07867  Biso   1.000  Zr
  Zr6      1.0000 0.63291  0.45028  0.33530  Biso   1.000  Zr
  Zr7      1.0000 0.88271  0.55295  0.07532  Biso   1.000  Zr
  Zr8      1.0000 0.86246  0.95956  0.32850  Biso   1.000  Zr
  O1       1.0000 0.03832  0.31380  0.07631  Biso   1.000  O
  O2       1.0000 0.02484  0.19214  0.32749  Biso   1.000  O
  O3       1.0000 0.47484  0.77367  0.06769  Biso   1.000  O
  O4       1.0000 0.47017  0.68594  0.32532  Biso   1.000  O
  O5       1.0000 0.27072  0.24850  0.30060  Biso   1.000  O
  O6       1.0000 0.27933  0.24922  0.05021  Biso   1.000  O
  O7       1.0000 0.21977  0.74574  0.30251  Biso   1.000  O
  O8       1.0000 0.22509  0.75433  0.04683  Biso   1.000  O
  O9       1.0000 0.51247  0.26523  0.18991  Biso   1.000  O
  O10      1.0000 0.52477  0.18593  0.43208  Biso   1.000  O
  O11      1.0000 0.97456  0.83138  0.17607  Biso   1.000  O
  O12      1.0000 0.96901  0.68780  0.42349  Biso   1.000  O
  O13      1.0000 0.77440  0.24508  0.45334  Biso   1.000  O
  O14      1.0000 0.76065  0.26400  0.19700  Biso   1.000  O
  O15      1.0000 0.72565  0.74919  0.45515  Biso   1.000  O
  O16      1.0000 0.72953  0.74383  0.20506  Biso   1.000  O
  Zr9      1.0000 0.13891  0.04538  0.67274  Biso   1.000  Zr
  Zr10     1.0000 0.14636  0.45542  0.92241  Biso   1.000  Zr
  Zr11     1.0000 0.36145  0.54775  0.67414  Biso   1.000  Zr
  Zr12     1.0000 0.36064  0.96413  0.92365  Biso   1.000  Zr
  Zr13     1.0000 0.63831  0.03809  0.57734  Biso   1.000  Zr
  Zr14     1.0000 0.64002  0.46334  0.81457  Biso   1.000  Zr
  Zr15     1.0000 0.86271  0.54534  0.57709  Biso   1.000  Zr
  Zr16     1.0000 0.86630  0.96387  0.82703  Biso   1.000  Zr
  O17      1.0000 0.02956  0.32175  0.57908  Biso   1.000  O
  O18      1.0000 0.03056  0.18639  0.82741  Biso   1.000  O
  O19      1.0000 0.47421  0.80218  0.57318  Biso   1.000  O
  O20      1.0000 0.47645  0.70747  0.82076  Biso   1.000  O
  O21      1.0000 0.27691  0.25234  0.79625  Biso   1.000  O
  O22      1.0000 0.27266  0.25069  0.54807  Biso   1.000  O
  O23      1.0000 0.22770  0.75233  0.79846  Biso   1.000  O
  O24      1.0000 0.22598  0.75308  0.54933  Biso   1.000  O
  O25      1.0000 0.52388  0.30078  0.67738  Biso   1.000  O
  O26      1.0000 0.52226  0.22283  0.94188  Biso   1.000  O
  O27      1.0000 0.97136  0.82349  0.67200  Biso   1.000  O
  O28      1.0000 0.97883  0.68546  0.91868  Biso   1.000  O
  O29      1.0000 0.76509  0.26275  0.95658  Biso   1.000  O
  O30      1.0000 0.77700  0.24832  0.70037  Biso   1.000  O
  O31      1.0000 0.73406  0.75401  0.95245  Biso   1.000  O
  O32      1.0000 0.73019  0.75180  0.70279  Biso   1.000  O
  Nb1      1.0000 0.62339  0.49587  0.07044  Biso   1.000  Nb
