data_image0
_cell_length_a       5.15672
_cell_length_b       10.3328
_cell_length_c       10.6781
_cell_angle_alpha    89.5595
_cell_angle_beta     79.7244
_cell_angle_gamma    89.9541

_symmetry_space_group_name_H-M    "P 1"
_symmetry_int_tables_number       1

loop_
  _symmetry_equiv_pos_as_xyz
  'x, y, z'

loop_
  _atom_site_label
  _atom_site_occupancy
  _atom_site_fract_x
  _atom_site_fract_y
  _atom_site_fract_z
  _atom_site_thermal_displace_type
  _atom_site_B_iso_or_equiv
  _atom_site_type_symbol
  Zr1      1.0000 0.27453  0.01961  0.14403  Biso   1.000  Zr
  Zr2      1.0000 0.26607  0.23504  0.40565  Biso   1.000  Zr
  Zr3      1.0000 0.71637  0.26741  0.08947  Biso   1.000  Zr
  Zr4      1.0000 0.72179  0.49605  0.35848  Biso   1.000  Zr
  O1       1.0000 0.05754  0.15435  0.06859  Biso   1.000  O
  O2       1.0000 0.06197  0.08301  0.32856  Biso   1.000  O
  O3       1.0000 0.96422  0.39068  0.19131  Biso   1.000  O
  O4       1.0000 0.96019  0.36798  0.44298  Biso   1.000  O
  O5       1.0000 0.55186  0.11906  0.23041  Biso   1.000  O
  O6       1.0000 0.56626  0.12081  0.48348  Biso   1.000  O
  O7       1.0000 0.44262  0.37994  0.00714  Biso   1.000  O
  O8       1.0000 0.48929  0.36680  0.26238  Biso   1.000  O
  Zr5      1.0000 0.27507  0.02291  0.64513  Biso   1.000  Zr
  Zr6      1.0000 0.27223  0.22765  0.89205  Biso   1.000  Zr
  Zr7      1.0000 0.72302  0.27764  0.60933  Biso   1.000  Zr
  Zr8      1.0000 0.71813  0.48108  0.85554  Biso   1.000  Zr
  O9       1.0000 0.06173  0.16424  0.57995  Biso   1.000  O
  O10      1.0000 0.05751  0.08920  0.82199  Biso   1.000  O
  O11      1.0000 0.93729  0.41135  0.68505  Biso   1.000  O
  O12      1.0000 0.94309  0.34487  0.92572  Biso   1.000  O
  O13      1.0000 0.54390  0.12809  0.73795  Biso   1.000  O
  O14      1.0000 0.54201  0.12116  0.98292  Biso   1.000  O
  O15      1.0000 0.45408  0.38319  0.51760  Biso   1.000  O
  O16      1.0000 0.44958  0.37373  0.76210  Biso   1.000  O
  Zr9      1.0000 0.27565  0.51853  0.14712  Biso   1.000  Zr
  Zr10     1.0000 0.26721  0.72990  0.39789  Biso   1.000  Zr
  Zr11     1.0000 0.72152  0.76994  0.10384  Biso   1.000  Zr
  Zr12     1.0000 0.71137  0.96778  0.35379  Biso   1.000  Zr
  O17      1.0000 0.05512  0.65216  0.07117  Biso   1.000  O
  O18      1.0000 0.06324  0.59824  0.31634  Biso   1.000  O
  O19      1.0000 0.93715  0.90508  0.17883  Biso   1.000  O
  O20      1.0000 0.93187  0.83812  0.43145  Biso   1.000  O
  O21      1.0000 0.54806  0.62644  0.23937  Biso   1.000  O
  O22      1.0000 0.53596  0.62863  0.49419  Biso   1.000  O
  O23      1.0000 0.45010  0.87761  0.01143  Biso   1.000  O
  O24      1.0000 0.44292  0.86673  0.25912  Biso   1.000  O
  Zr13     1.0000 0.27048  0.52374  0.64814  Biso   1.000  Zr
  Zr14     1.0000 0.27246  0.72728  0.89710  Biso   1.000  Zr
  Zr15     1.0000 0.71849  0.77300  0.60790  Biso   1.000  Zr
  Zr16     1.0000 0.72164  0.97737  0.85366  Biso   1.000  Zr
  O25      1.0000 0.04842  0.65756  0.57270  Biso   1.000  O
  O26      1.0000 0.05548  0.59431  0.82287  Biso   1.000  O
  O27      1.0000 0.93790  0.91029  0.67817  Biso   1.000  O
  O28      1.0000 0.93706  0.84013  0.92908  Biso   1.000  O
  O29      1.0000 0.54341  0.62867  0.74183  Biso   1.000  O
  O30      1.0000 0.54558  0.62345  0.99109  Biso   1.000  O
  O31      1.0000 0.44265  0.87779  0.51244  Biso   1.000  O
  O32      1.0000 0.44896  0.87273  0.76185  Biso   1.000  O
  Nb1      1.0000 0.78960  0.23876  0.32580  Biso   1.000  Nb
