data_image0
_cell_length_a       10.1593
_cell_length_b       10.283
_cell_length_c       10.6073
_cell_angle_alpha    90.1269
_cell_angle_beta     90.4474
_cell_angle_gamma    89.7693

_symmetry_space_group_name_H-M    "P 1"
_symmetry_int_tables_number       1

loop_
  _symmetry_equiv_pos_as_xyz
  'x, y, z'

loop_
  _atom_site_label
  _atom_site_occupancy
  _atom_site_fract_x
  _atom_site_fract_y
  _atom_site_fract_z
  _atom_site_thermal_displace_type
  _atom_site_B_iso_or_equiv
  _atom_site_type_symbol
  Zr1      1.0000 0.13834  0.01961  0.17329  Biso   1.000  Zr
  Zr2      1.0000 0.13692  0.22831  0.42437  Biso   1.000  Zr
  Zr3      1.0000 0.35273  0.26635  0.17876  Biso   1.000  Zr
  Zr4      1.0000 0.36111  0.47815  0.42452  Biso   1.000  Zr
  Zr5      1.0000 0.63500  0.99834  0.08042  Biso   1.000  Zr
  Zr6      1.0000 0.63288  0.22641  0.33369  Biso   1.000  Zr
  Zr7      1.0000 0.87933  0.27786  0.07407  Biso   1.000  Zr
  Zr8      1.0000 0.86138  0.47955  0.32743  Biso   1.000  Zr
  O1       1.0000 0.03505  0.15699  0.07568  Biso   1.000  O
  O2       1.0000 0.02557  0.09326  0.32655  Biso   1.000  O
  O3       1.0000 0.47740  0.40046  0.08031  Biso   1.000  O
  O4       1.0000 0.46787  0.34106  0.32722  Biso   1.000  O
  O5       1.0000 0.26923  0.12385  0.30026  Biso   1.000  O
  O6       1.0000 0.27484  0.12314  0.04850  Biso   1.000  O
  O7       1.0000 0.22232  0.37430  0.29922  Biso   1.000  O
  O8       1.0000 0.22841  0.37559  0.04738  Biso   1.000  O
  O9       1.0000 0.51049  0.13398  0.18976  Biso   1.000  O
  O10      1.0000 0.52584  0.09272  0.43124  Biso   1.000  O
  O11      1.0000 0.97432  0.41510  0.17461  Biso   1.000  O
  O12      1.0000 0.96934  0.34029  0.42073  Biso   1.000  O
  O13      1.0000 0.77430  0.12266  0.45188  Biso   1.000  O
  O14      1.0000 0.75644  0.13571  0.19379  Biso   1.000  O
  O15      1.0000 0.72510  0.37518  0.45211  Biso   1.000  O
  O16      1.0000 0.72289  0.37951  0.19804  Biso   1.000  O
  Zr9      1.0000 0.13819  0.02107  0.67322  Biso   1.000  Zr
  Zr10     1.0000 0.14429  0.22769  0.92092  Biso   1.000  Zr
  Zr11     1.0000 0.36082  0.27126  0.67232  Biso   1.000  Zr
  Zr12     1.0000 0.36182  0.47921  0.92165  Biso   1.000  Zr
  Zr13     1.0000 0.63885  0.01810  0.57776  Biso   1.000  Zr
  Zr14     1.0000 0.64125  0.23069  0.81379  Biso   1.000  Zr
  Zr15     1.0000 0.86260  0.27217  0.57514  Biso   1.000  Zr
  Zr16     1.0000 0.86450  0.48025  0.82542  Biso   1.000  Zr
  O17      1.0000 0.03023  0.16032  0.57930  Biso   1.000  O
  O18      1.0000 0.03024  0.09124  0.82929  Biso   1.000  O
  O19      1.0000 0.47250  0.40598  0.57696  Biso   1.000  O
  O20      1.0000 0.47289  0.34542  0.82512  Biso   1.000  O
  O21      1.0000 0.27537  0.12483  0.79644  Biso   1.000  O
  O22      1.0000 0.27363  0.12485  0.54812  Biso   1.000  O
  O23      1.0000 0.22733  0.37495  0.79681  Biso   1.000  O
  O24      1.0000 0.22544  0.37589  0.54770  Biso   1.000  O
  O25      1.0000 0.52480  0.15064  0.67542  Biso   1.000  O
  O26      1.0000 0.52220  0.10884  0.94068  Biso   1.000  O
  O27      1.0000 0.97074  0.41243  0.66873  Biso   1.000  O
  O28      1.0000 0.97868  0.34307  0.91780  Biso   1.000  O
  O29      1.0000 0.76327  0.13050  0.95589  Biso   1.000  O
  O30      1.0000 0.77769  0.12376  0.69912  Biso   1.000  O
  O31      1.0000 0.73027  0.37929  0.95107  Biso   1.000  O
  O32      1.0000 0.72813  0.37645  0.69949  Biso   1.000  O
  Zr17     1.0000 0.14150  0.52295  0.17461  Biso   1.000  Zr
  Zr18     1.0000 0.13792  0.72886  0.42410  Biso   1.000  Zr
  Zr19     1.0000 0.35868  0.76918  0.17494  Biso   1.000  Zr
  Zr20     1.0000 0.36131  0.97754  0.42477  Biso   1.000  Zr
  Zr21     1.0000 0.64349  0.53245  0.07664  Biso   1.000  Zr
  Zr22     1.0000 0.63840  0.72798  0.33000  Biso   1.000  Zr
  Zr23     1.0000 0.86670  0.77106  0.07777  Biso   1.000  Zr
  Zr24     1.0000 0.86199  0.97918  0.32870  Biso   1.000  Zr
  O33      1.0000 0.03406  0.66202  0.08012  Biso   1.000  O
  O34      1.0000 0.03022  0.59091  0.33140  Biso   1.000  O
  O35      1.0000 0.46792  0.89432  0.07076  Biso   1.000  O
  O36      1.0000 0.47174  0.84372  0.32578  Biso   1.000  O
  O37      1.0000 0.27502  0.62414  0.29885  Biso   1.000  O
  O38      1.0000 0.27755  0.62395  0.04795  Biso   1.000  O
  O39      1.0000 0.22434  0.87332  0.29856  Biso   1.000  O
  O40      1.0000 0.22411  0.87592  0.04756  Biso   1.000  O
  O41      1.0000 0.52903  0.65733  0.17574  Biso   1.000  O
  O42      1.0000 0.52862  0.59139  0.42348  Biso   1.000  O
  O43      1.0000 0.96884  0.91327  0.17055  Biso   1.000  O
  O44      1.0000 0.96884  0.84251  0.42171  Biso   1.000  O
  O45      1.0000 0.77554  0.62416  0.45329  Biso   1.000  O
  O46      1.0000 0.77777  0.62800  0.20345  Biso   1.000  O
  O47      1.0000 0.72509  0.87404  0.45491  Biso   1.000  O
  O48      1.0000 0.73063  0.87124  0.20824  Biso   1.000  O
  Zr25     1.0000 0.13940  0.52232  0.67252  Biso   1.000  Zr
  Zr26     1.0000 0.14058  0.72945  0.92248  Biso   1.000  Zr
  Zr27     1.0000 0.36211  0.77198  0.67375  Biso   1.000  Zr
  Zr28     1.0000 0.36228  0.97964  0.92413  Biso   1.000  Zr
  Zr29     1.0000 0.63893  0.52165  0.57637  Biso   1.000  Zr
  Zr30     1.0000 0.63932  0.72858  0.82571  Biso   1.000  Zr
  Zr31     1.0000 0.86169  0.77199  0.57911  Biso   1.000  Zr
  Zr32     1.0000 0.86261  0.98117  0.82882  Biso   1.000  Zr
  O49      1.0000 0.03099  0.66300  0.58042  Biso   1.000  O
  O50      1.0000 0.03207  0.59064  0.82907  Biso   1.000  O
  O51      1.0000 0.47205  0.90345  0.57546  Biso   1.000  O
  O52      1.0000 0.47487  0.84769  0.82446  Biso   1.000  O
  O53      1.0000 0.27695  0.62427  0.79853  Biso   1.000  O
  O54      1.0000 0.27486  0.62562  0.54784  Biso   1.000  O
  O55      1.0000 0.22670  0.87451  0.79827  Biso   1.000  O
  O56      1.0000 0.22536  0.87619  0.54826  Biso   1.000  O
  O57      1.0000 0.52901  0.65707  0.67400  Biso   1.000  O
  O58      1.0000 0.52928  0.59311  0.92393  Biso   1.000  O
  O59      1.0000 0.96935  0.91157  0.67264  Biso   1.000  O
  O60      1.0000 0.97145  0.84047  0.92044  Biso   1.000  O
  O61      1.0000 0.77789  0.62710  0.95165  Biso   1.000  O
  O62      1.0000 0.77558  0.62600  0.70265  Biso   1.000  O
  O63      1.0000 0.72845  0.87277  0.95295  Biso   1.000  O
  O64      1.0000 0.72667  0.87497  0.70568  Biso   1.000  O
  Nb1      1.0000 0.62061  0.25036  0.06769  Biso   1.000  Nb
