data_image0
_cell_length_a       10.0219
_cell_length_b       10.4191
_cell_length_c       10.0582
_cell_angle_alpha    89.9598
_cell_angle_beta     89.95
_cell_angle_gamma    89.9877

_symmetry_space_group_name_H-M    "P 1"
_symmetry_int_tables_number       1

loop_
  _symmetry_equiv_pos_as_xyz
  'x, y, z'

loop_
  _atom_site_label
  _atom_site_occupancy
  _atom_site_fract_x
  _atom_site_fract_y
  _atom_site_fract_z
  _atom_site_thermal_displace_type
  _atom_site_B_iso_or_equiv
  _atom_site_type_symbol
  Nb1      1.0000 0.13518  0.01846  0.12555  Biso   1.000  Nb
  Zr1      1.0000 0.13403  0.01579  0.62621  Biso   1.000  Zr
  Zr2      1.0000 0.13430  0.51584  0.12623  Biso   1.000  Zr
  Zr3      1.0000 0.13364  0.51550  0.62549  Biso   1.000  Zr
  Zr4      1.0000 0.63434  0.01586  0.12527  Biso   1.000  Zr
  Zr5      1.0000 0.63348  0.01535  0.62534  Biso   1.000  Zr
  Zr6      1.0000 0.63413  0.51625  0.12576  Biso   1.000  Zr
  Zr7      1.0000 0.63381  0.51587  0.62544  Biso   1.000  Zr
  Zr8      1.0000 0.13352  0.23369  0.37510  Biso   1.000  Zr
  Zr9      1.0000 0.13390  0.23406  0.87697  Biso   1.000  Zr
  Zr10     1.0000 0.13397  0.73479  0.37566  Biso   1.000  Zr
  Zr11     1.0000 0.13330  0.73389  0.87558  Biso   1.000  Zr
  Zr12     1.0000 0.63405  0.23421  0.37585  Biso   1.000  Zr
  Zr13     1.0000 0.63360  0.23385  0.87535  Biso   1.000  Zr
  Zr14     1.0000 0.63452  0.73482  0.37457  Biso   1.000  Zr
  Zr15     1.0000 0.63337  0.73438  0.87573  Biso   1.000  Zr
  Zr16     1.0000 0.36681  0.26635  0.12541  Biso   1.000  Zr
  Zr17     1.0000 0.36596  0.26581  0.62566  Biso   1.000  Zr
  Zr18     1.0000 0.36486  0.76709  0.12605  Biso   1.000  Zr
  Zr19     1.0000 0.36619  0.76579  0.62563  Biso   1.000  Zr
  Zr20     1.0000 0.86617  0.26524  0.12545  Biso   1.000  Zr
  Zr21     1.0000 0.86611  0.26507  0.62592  Biso   1.000  Zr
  Zr22     1.0000 0.86785  0.76611  0.12403  Biso   1.000  Zr
  Zr23     1.0000 0.86597  0.76584  0.62569  Biso   1.000  Zr
  Zr24     1.0000 0.36628  0.48451  0.37592  Biso   1.000  Zr
  Zr25     1.0000 0.36585  0.48456  0.87551  Biso   1.000  Zr
  Zr26     1.0000 0.36599  0.98410  0.37506  Biso   1.000  Zr
  Zr27     1.0000 0.36502  0.98389  0.87658  Biso   1.000  Zr
  Zr28     1.0000 0.86612  0.48416  0.37565  Biso   1.000  Zr
  Zr29     1.0000 0.86586  0.48412  0.87561  Biso   1.000  Zr
  Zr30     1.0000 0.86761  0.98456  0.37500  Biso   1.000  Zr
  Zr31     1.0000 0.86691  0.98432  0.87555  Biso   1.000  Zr
  O1       1.0000 0.03791  0.18110  0.19337  Biso   1.000  O
  O2       1.0000 0.03404  0.18196  0.69899  Biso   1.000  O
  O3       1.0000 0.03603  0.68334  0.19416  Biso   1.000  O
  O4       1.0000 0.03543  0.68338  0.69410  Biso   1.000  O
  O5       1.0000 0.53578  0.18372  0.19461  Biso   1.000  O
  O6       1.0000 0.53581  0.18405  0.69381  Biso   1.000  O
  O7       1.0000 0.53566  0.68461  0.19350  Biso   1.000  O
  O8       1.0000 0.53559  0.68400  0.69441  Biso   1.000  O
  O9       1.0000 0.03436  0.06741  0.44775  Biso   1.000  O
  O10      1.0000 0.03619  0.06487  0.95323  Biso   1.000  O
  O11      1.0000 0.03577  0.56624  0.44390  Biso   1.000  O
  O12      1.0000 0.03542  0.56552  0.94499  Biso   1.000  O
  O13      1.0000 0.53533  0.06623  0.44407  Biso   1.000  O
  O14      1.0000 0.53500  0.06603  0.94457  Biso   1.000  O
  O15      1.0000 0.53616  0.56666  0.44377  Biso   1.000  O
  O16      1.0000 0.53587  0.56578  0.94372  Biso   1.000  O
  O17      1.0000 0.46419  0.43418  0.19390  Biso   1.000  O
  O18      1.0000 0.46377  0.43411  0.69382  Biso   1.000  O
  O19      1.0000 0.46490  0.93350  0.19493  Biso   1.000  O
  O20      1.0000 0.46381  0.93402  0.69475  Biso   1.000  O
  O21      1.0000 0.96546  0.43196  0.19499  Biso   1.000  O
  O22      1.0000 0.96411  0.43329  0.69432  Biso   1.000  O
  O23      1.0000 0.97115  0.93440  0.19229  Biso   1.000  O
  O24      1.0000 0.96469  0.93343  0.69519  Biso   1.000  O
  O25      1.0000 0.46445  0.31646  0.44417  Biso   1.000  O
  O26      1.0000 0.46346  0.31561  0.94375  Biso   1.000  O
  O27      1.0000 0.46425  0.81630  0.44382  Biso   1.000  O
  O28      1.0000 0.46240  0.81614  0.94454  Biso   1.000  O
  O29      1.0000 0.96456  0.31600  0.44496  Biso   1.000  O
  O30      1.0000 0.96407  0.31558  0.94449  Biso   1.000  O
  O31      1.0000 0.96489  0.81672  0.44469  Biso   1.000  O
  O32      1.0000 0.96227  0.81490  0.94192  Biso   1.000  O
  O33      1.0000 0.26839  0.11621  0.24647  Biso   1.000  O
  O34      1.0000 0.26976  0.11736  0.74942  Biso   1.000  O
  O35      1.0000 0.27023  0.61833  0.24947  Biso   1.000  O
  O36      1.0000 0.26936  0.61692  0.74907  Biso   1.000  O
  O37      1.0000 0.77072  0.11730  0.24875  Biso   1.000  O
  O38      1.0000 0.76900  0.11646  0.74901  Biso   1.000  O
  O39      1.0000 0.77014  0.61716  0.24891  Biso   1.000  O
  O40      1.0000 0.76933  0.61699  0.74917  Biso   1.000  O
  O41      1.0000 0.26978  0.13287  0.49819  Biso   1.000  O
  O42      1.0000 0.26904  0.13100  0.00040  Biso   1.000  O
  O43      1.0000 0.26973  0.63292  0.49921  Biso   1.000  O
  O44      1.0000 0.26958  0.63311  0.99928  Biso   1.000  O
  O45      1.0000 0.76964  0.13270  0.49888  Biso   1.000  O
  O46      1.0000 0.76968  0.13279  0.99867  Biso   1.000  O
  O47      1.0000 0.76971  0.63320  0.49893  Biso   1.000  O
  O48      1.0000 0.76944  0.63285  0.99912  Biso   1.000  O
  O49      1.0000 0.23022  0.38273  0.49919  Biso   1.000  O
  O50      1.0000 0.23019  0.38259  0.99939  Biso   1.000  O
  O51      1.0000 0.23049  0.88305  0.49909  Biso   1.000  O
  O52      1.0000 0.22526  0.88407  0.00078  Biso   1.000  O
  O53      1.0000 0.73041  0.38285  0.49928  Biso   1.000  O
  O54      1.0000 0.73022  0.38249  0.99937  Biso   1.000  O
  O55      1.0000 0.73049  0.88323  0.49804  Biso   1.000  O
  O56      1.0000 0.72983  0.88331  0.99807  Biso   1.000  O
  O57      1.0000 0.23103  0.36724  0.24944  Biso   1.000  O
  O58      1.0000 0.22983  0.36674  0.74953  Biso   1.000  O
  O59      1.0000 0.22714  0.87005  0.24799  Biso   1.000  O
  O60      1.0000 0.23044  0.86678  0.74958  Biso   1.000  O
  O61      1.0000 0.73041  0.36720  0.24911  Biso   1.000  O
  O62      1.0000 0.73017  0.36677  0.74908  Biso   1.000  O
  O63      1.0000 0.73340  0.86773  0.24785  Biso   1.000  O
  O64      1.0000 0.72999  0.86705  0.74865  Biso   1.000  O
