data_image0
_cell_length_a       5.0644
_cell_length_b       10.3173
_cell_length_c       10.4795
_cell_angle_alpha    90.506
_cell_angle_beta     80.213
_cell_angle_gamma    90.2123

_symmetry_space_group_name_H-M    "P 1"
_symmetry_int_tables_number       1

loop_
  _symmetry_equiv_pos_as_xyz
  'x, y, z'

loop_
  _atom_site_label
  _atom_site_occupancy
  _atom_site_fract_x
  _atom_site_fract_y
  _atom_site_fract_z
  _atom_site_thermal_displace_type
  _atom_site_B_iso_or_equiv
  _atom_site_type_symbol
  Hf1      1.0000 0.27553  0.02293  0.14726  Biso   1.000  Hf
  Hf2      1.0000 0.29687  0.23194  0.40033  Biso   1.000  Hf
  Hf3      1.0000 0.71822  0.27674  0.10171  Biso   1.000  Hf
  Hf4      1.0000 0.71587  0.47653  0.34884  Biso   1.000  Hf
  O1       1.0000 0.06809  0.16968  0.08003  Biso   1.000  O
  O2       1.0000 0.08365  0.07404  0.33664  Biso   1.000  O
  O3       1.0000 0.91519  0.43203  0.15981  Biso   1.000  O
  O4       1.0000 0.94825  0.34263  0.42578  Biso   1.000  O
  O5       1.0000 0.56351  0.13149  0.24297  Biso   1.000  O
  O6       1.0000 0.55226  0.11310  0.49759  Biso   1.000  O
  O7       1.0000 0.44182  0.38230  0.00693  Biso   1.000  O
  O8       1.0000 0.42183  0.37731  0.25487  Biso   1.000  O
  Hf5      1.0000 0.27249  0.02011  0.64820  Biso   1.000  Hf
  Hf6      1.0000 0.27481  0.22954  0.89693  Biso   1.000  Hf
  Hf7      1.0000 0.72324  0.27132  0.60888  Biso   1.000  Hf
  Hf8      1.0000 0.71987  0.47978  0.85532  Biso   1.000  Hf
  O9       1.0000 0.07263  0.16971  0.58119  Biso   1.000  O
  O10      1.0000 0.06792  0.08124  0.83068  Biso   1.000  O
  O11      1.0000 0.92903  0.41849  0.67282  Biso   1.000  O
  O12      1.0000 0.92625  0.33141  0.91837  Biso   1.000  O
  O13      1.0000 0.55088  0.12991  0.74355  Biso   1.000  O
  O14      1.0000 0.54866  0.12269  0.99253  Biso   1.000  O
  O15      1.0000 0.45225  0.37774  0.51318  Biso   1.000  O
  O16      1.0000 0.44642  0.37115  0.76020  Biso   1.000  O
  Hf9      1.0000 0.27253  0.52469  0.14420  Biso   1.000  Hf
  Hf10     1.0000 0.27505  0.72504  0.39665  Biso   1.000  Hf
  Hf11     1.0000 0.71843  0.77263  0.10448  Biso   1.000  Hf
  Hf12     1.0000 0.71961  0.96914  0.35857  Biso   1.000  Hf
  O17      1.0000 0.07011  0.67598  0.08027  Biso   1.000  O
  O18      1.0000 0.06296  0.58319  0.32747  Biso   1.000  O
  O19      1.0000 0.92642  0.92122  0.17198  Biso   1.000  O
  O20      1.0000 0.92608  0.82709  0.42258  Biso   1.000  O
  O21      1.0000 0.54906  0.63154  0.24088  Biso   1.000  O
  O22      1.0000 0.54733  0.61781  0.49045  Biso   1.000  O
  O23      1.0000 0.44380  0.88203  0.01139  Biso   1.000  O
  O24      1.0000 0.44364  0.87079  0.26108  Biso   1.000  O
  Hf13     1.0000 0.27683  0.52155  0.64701  Biso   1.000  Hf
  Hf14     1.0000 0.27271  0.73062  0.89708  Biso   1.000  Hf
  Hf15     1.0000 0.71911  0.76904  0.60597  Biso   1.000  Hf
  Hf16     1.0000 0.71812  0.97975  0.85573  Biso   1.000  Hf
  O25      1.0000 0.06709  0.66635  0.58072  Biso   1.000  O
  O26      1.0000 0.06950  0.58229  0.83113  Biso   1.000  O
  O27      1.0000 0.92349  0.91834  0.67088  Biso   1.000  O
  O28      1.0000 0.92406  0.83289  0.92053  Biso   1.000  O
  O29      1.0000 0.55098  0.62898  0.74144  Biso   1.000  O
  O30      1.0000 0.54987  0.62386  0.99057  Biso   1.000  O
  O31      1.0000 0.44294  0.87454  0.51200  Biso   1.000  O
  O32      1.0000 0.44327  0.87133  0.76121  Biso   1.000  O
  Ni1      1.0000 0.82408  0.21550  0.32613  Biso   1.000  Ni
