data_image0
_cell_length_a       5.03672
_cell_length_b       10.1846
_cell_length_c       10.4298
_cell_angle_alpha    90.057
_cell_angle_beta     80.9998
_cell_angle_gamma    89.2456

_symmetry_space_group_name_H-M    "P 1"
_symmetry_int_tables_number       1

loop_
  _symmetry_equiv_pos_as_xyz
  'x, y, z'

loop_
  _atom_site_label
  _atom_site_occupancy
  _atom_site_fract_x
  _atom_site_fract_y
  _atom_site_fract_z
  _atom_site_thermal_displace_type
  _atom_site_B_iso_or_equiv
  _atom_site_type_symbol
  Ni1      1.0000 0.24311  0.01029  0.17063  Biso   1.000  Ni
  Hf1      1.0000 0.27355  0.02053  0.64348  Biso   1.000  Hf
  Hf2      1.0000 0.27641  0.52205  0.14508  Biso   1.000  Hf
  Hf3      1.0000 0.28063  0.52007  0.64866  Biso   1.000  Hf
  Hf4      1.0000 0.27787  0.22947  0.38922  Biso   1.000  Hf
  Hf5      1.0000 0.29102  0.22421  0.89831  Biso   1.000  Hf
  Hf6      1.0000 0.26980  0.72730  0.39743  Biso   1.000  Hf
  Hf7      1.0000 0.27337  0.73330  0.89832  Biso   1.000  Hf
  Hf8      1.0000 0.73403  0.26194  0.10407  Biso   1.000  Hf
  Hf9      1.0000 0.72278  0.27149  0.60339  Biso   1.000  Hf
  Hf10     1.0000 0.71356  0.77805  0.10287  Biso   1.000  Hf
  Hf11     1.0000 0.71855  0.77038  0.60703  Biso   1.000  Hf
  Hf12     1.0000 0.72246  0.47940  0.35311  Biso   1.000  Hf
  Hf13     1.0000 0.72939  0.47764  0.85867  Biso   1.000  Hf
  Hf14     1.0000 0.70780  0.97664  0.35182  Biso   1.000  Hf
  Hf15     1.0000 0.72278  0.98504  0.85471  Biso   1.000  Hf
  O1       1.0000 0.09630  0.15175  0.08438  Biso   1.000  O
  O2       1.0000 0.06794  0.16275  0.56870  Biso   1.000  O
  O3       1.0000 0.06784  0.67122  0.08059  Biso   1.000  O
  O4       1.0000 0.06856  0.66599  0.57945  Biso   1.000  O
  O5       1.0000 0.06067  0.08135  0.32106  Biso   1.000  O
  O6       1.0000 0.07785  0.08361  0.82448  Biso   1.000  O
  O7       1.0000 0.07382  0.57846  0.33072  Biso   1.000  O
  O8       1.0000 0.07316  0.58495  0.83054  Biso   1.000  O
  O9       1.0000 0.93570  0.41596  0.17231  Biso   1.000  O
  O10      1.0000 0.93651  0.41297  0.67577  Biso   1.000  O
  O11      1.0000 0.92983  0.92021  0.17209  Biso   1.000  O
  O12      1.0000 0.92844  0.91686  0.67059  Biso   1.000  O
  O13      1.0000 0.92882  0.33192  0.42064  Biso   1.000  O
  O14      1.0000 0.95209  0.33636  0.93118  Biso   1.000  O
  O15      1.0000 0.91979  0.83078  0.42071  Biso   1.000  O
  O16      1.0000 0.91692  0.83247  0.92163  Biso   1.000  O
  O17      1.0000 0.52299  0.11678  0.22833  Biso   1.000  O
  O18      1.0000 0.55322  0.12723  0.73155  Biso   1.000  O
  O19      1.0000 0.55169  0.63364  0.24176  Biso   1.000  O
  O20      1.0000 0.55489  0.62818  0.74284  Biso   1.000  O
  O21      1.0000 0.55608  0.12220  0.48180  Biso   1.000  O
  O22      1.0000 0.60141  0.13924  0.97109  Biso   1.000  O
  O23      1.0000 0.55218  0.61968  0.49251  Biso   1.000  O
  O24      1.0000 0.55328  0.62708  0.99184  Biso   1.000  O
  O25      1.0000 0.45961  0.38208  0.01188  Biso   1.000  O
  O26      1.0000 0.44382  0.37749  0.50904  Biso   1.000  O
  O27      1.0000 0.43588  0.89946  0.01777  Biso   1.000  O
  O28      1.0000 0.44094  0.87765  0.50836  Biso   1.000  O
  O29      1.0000 0.45839  0.36739  0.25847  Biso   1.000  O
  O30      1.0000 0.45553  0.37004  0.76215  Biso   1.000  O
  O31      1.0000 0.42297  0.87517  0.25731  Biso   1.000  O
  O32      1.0000 0.44576  0.87128  0.76167  Biso   1.000  O
