data_image0
_cell_length_a       9.97674
_cell_length_b       10.2077
_cell_length_c       5.0184
_cell_angle_alpha    88.6684
_cell_angle_beta     88.0496
_cell_angle_gamma    91.4544

_symmetry_space_group_name_H-M    "P 1"
_symmetry_int_tables_number       1

loop_
  _symmetry_equiv_pos_as_xyz
  'x, y, z'

loop_
  _atom_site_label
  _atom_site_occupancy
  _atom_site_fract_x
  _atom_site_fract_y
  _atom_site_fract_z
  _atom_site_thermal_displace_type
  _atom_site_B_iso_or_equiv
  _atom_site_type_symbol
  Ni1      1.0000 0.11611  0.96380  0.26145  Biso   1.000  Ni
  Hf1      1.0000 0.12967  0.51654  0.26562  Biso   1.000  Hf
  Hf2      1.0000 0.60595  0.00307  0.25405  Biso   1.000  Hf
  Hf3      1.0000 0.63339  0.48845  0.25118  Biso   1.000  Hf
  Hf4      1.0000 0.12508  0.27073  0.77513  Biso   1.000  Hf
  Hf5      1.0000 0.12921  0.75752  0.74637  Biso   1.000  Hf
  Hf6      1.0000 0.62671  0.23449  0.74917  Biso   1.000  Hf
  Hf7      1.0000 0.62229  0.75689  0.70044  Biso   1.000  Hf
  Hf8      1.0000 0.36753  0.25230  0.28384  Biso   1.000  Hf
  Hf9      1.0000 0.39150  0.73834  0.21073  Biso   1.000  Hf
  Hf10     1.0000 0.88817  0.24594  0.24032  Biso   1.000  Hf
  Hf11     1.0000 0.86875  0.75211  0.22212  Biso   1.000  Hf
  Hf12     1.0000 0.34893  0.01409  0.80732  Biso   1.000  Hf
  Hf13     1.0000 0.39105  0.49237  0.76319  Biso   1.000  Hf
  Hf14     1.0000 0.87589  0.99980  0.71689  Biso   1.000  Hf
  Hf15     1.0000 0.87083  0.48672  0.74340  Biso   1.000  Hf
  O1       1.0000 0.96225  0.16512  0.90065  Biso   1.000  O
  O2       1.0000 0.02916  0.66602  0.06453  Biso   1.000  O
  O3       1.0000 0.48143  0.14375  0.02819  Biso   1.000  O
  O4       1.0000 0.52405  0.63514  0.97660  Biso   1.000  O
  O5       1.0000 0.00375  0.08613  0.41255  Biso   1.000  O
  O6       1.0000 0.01441  0.60027  0.56546  Biso   1.000  O
  O7       1.0000 0.49893  0.09854  0.53168  Biso   1.000  O
  O8       1.0000 0.50028  0.60140  0.47407  Biso   1.000  O
  O9       1.0000 0.00551  0.35251  0.49127  Biso   1.000  O
  O10      1.0000 0.00124  0.84818  0.47913  Biso   1.000  O
  O11      1.0000 0.50177  0.35023  0.51437  Biso   1.000  O
  O12      1.0000 0.49399  0.85095  0.46617  Biso   1.000  O
  O13      1.0000 0.00569  0.40835  0.00705  Biso   1.000  O
  O14      1.0000 0.00209  0.91519  0.98959  Biso   1.000  O
  O15      1.0000 0.50490  0.38845  0.01274  Biso   1.000  O
  O16      1.0000 0.50032  0.88957  0.96841  Biso   1.000  O
  O17      1.0000 0.26942  0.17151  0.60318  Biso   1.000  O
  O18      1.0000 0.24921  0.66927  0.47307  Biso   1.000  O
  O19      1.0000 0.74885  0.14025  0.46436  Biso   1.000  O
  O20      1.0000 0.75477  0.63672  0.51101  Biso   1.000  O
  O21      1.0000 0.22108  0.10007  0.08864  Biso   1.000  O
  O22      1.0000 0.26724  0.60859  0.97915  Biso   1.000  O
  O23      1.0000 0.72238  0.07897  0.94633  Biso   1.000  O
  O24      1.0000 0.77952  0.58616  0.03320  Biso   1.000  O
  O25      1.0000 0.25204  0.35897  0.03216  Biso   1.000  O
  O26      1.0000 0.24312  0.85910  0.05193  Biso   1.000  O
  O27      1.0000 0.75017  0.33724  0.00293  Biso   1.000  O
  O28      1.0000 0.77086  0.83262  0.91988  Biso   1.000  O
  O29      1.0000 0.25215  0.41340  0.52195  Biso   1.000  O
  O30      1.0000 0.22404  0.92889  0.55512  Biso   1.000  O
  O31      1.0000 0.75172  0.38355  0.50198  Biso   1.000  O
  O32      1.0000 0.74749  0.89254  0.43853  Biso   1.000  O
