data_image0
_cell_length_a       9.93227
_cell_length_b       10.3643
_cell_length_c       9.98288
_cell_angle_alpha    90.3135
_cell_angle_beta     89.4943
_cell_angle_gamma    90.2198

_symmetry_space_group_name_H-M    "P 1"
_symmetry_int_tables_number       1

loop_
  _symmetry_equiv_pos_as_xyz
  'x, y, z'

loop_
  _atom_site_label
  _atom_site_occupancy
  _atom_site_fract_x
  _atom_site_fract_y
  _atom_site_fract_z
  _atom_site_thermal_displace_type
  _atom_site_B_iso_or_equiv
  _atom_site_type_symbol
  Ni1      1.0000 0.12605  0.04072  0.10238  Biso   1.000  Ni
  Hf1      1.0000 0.13531  0.01747  0.62915  Biso   1.000  Hf
  Hf2      1.0000 0.13411  0.51481  0.12660  Biso   1.000  Hf
  Hf3      1.0000 0.13456  0.51674  0.62618  Biso   1.000  Hf
  Hf4      1.0000 0.63493  0.01682  0.12680  Biso   1.000  Hf
  Hf5      1.0000 0.63120  0.01418  0.62197  Biso   1.000  Hf
  Hf6      1.0000 0.63559  0.51815  0.12863  Biso   1.000  Hf
  Hf7      1.0000 0.63362  0.51736  0.62548  Biso   1.000  Hf
  Hf8      1.0000 0.13507  0.22848  0.37246  Biso   1.000  Hf
  Hf9      1.0000 0.13114  0.23844  0.87608  Biso   1.000  Hf
  Hf10     1.0000 0.13672  0.73141  0.37838  Biso   1.000  Hf
  Hf11     1.0000 0.13223  0.73568  0.87925  Biso   1.000  Hf
  Hf12     1.0000 0.63456  0.23226  0.37762  Biso   1.000  Hf
  Hf13     1.0000 0.63159  0.23342  0.87380  Biso   1.000  Hf
  Hf14     1.0000 0.63709  0.73555  0.37584  Biso   1.000  Hf
  Hf15     1.0000 0.63198  0.73430  0.87716  Biso   1.000  Hf
  Hf16     1.0000 0.36699  0.26428  0.12612  Biso   1.000  Hf
  Hf17     1.0000 0.36566  0.26678  0.62597  Biso   1.000  Hf
  Hf18     1.0000 0.36590  0.76479  0.12923  Biso   1.000  Hf
  Hf19     1.0000 0.36632  0.76821  0.62970  Biso   1.000  Hf
  Hf20     1.0000 0.86314  0.26646  0.12308  Biso   1.000  Hf
  Hf21     1.0000 0.86524  0.26552  0.62451  Biso   1.000  Hf
  Hf22     1.0000 0.87514  0.77002  0.12293  Biso   1.000  Hf
  Hf23     1.0000 0.86758  0.76731  0.62418  Biso   1.000  Hf
  Hf24     1.0000 0.36740  0.48206  0.37663  Biso   1.000  Hf
  Hf25     1.0000 0.36522  0.48613  0.87616  Biso   1.000  Hf
  Hf26     1.0000 0.36298  0.97934  0.37372  Biso   1.000  Hf
  Hf27     1.0000 0.36100  0.98429  0.88268  Biso   1.000  Hf
  Hf28     1.0000 0.86630  0.48290  0.37616  Biso   1.000  Hf
  Hf29     1.0000 0.86391  0.48580  0.87475  Biso   1.000  Hf
  Hf30     1.0000 0.87371  0.98592  0.37119  Biso   1.000  Hf
  Hf31     1.0000 0.86169  0.98357  0.87334  Biso   1.000  Hf
  O1       1.0000 0.04100  0.18331  0.18042  Biso   1.000  O
  O2       1.0000 0.03375  0.18402  0.69883  Biso   1.000  O
  O3       1.0000 0.03825  0.68340  0.19501  Biso   1.000  O
  O4       1.0000 0.03662  0.68522  0.69533  Biso   1.000  O
  O5       1.0000 0.53287  0.18239  0.19889  Biso   1.000  O
  O6       1.0000 0.53602  0.18468  0.69260  Biso   1.000  O
  O7       1.0000 0.53730  0.68447  0.19754  Biso   1.000  O
  O8       1.0000 0.53493  0.68330  0.69707  Biso   1.000  O
  O9       1.0000 0.03738  0.06629  0.44966  Biso   1.000  O
  O10      1.0000 0.03488  0.06468  0.94309  Biso   1.000  O
  O11      1.0000 0.03651  0.56266  0.44583  Biso   1.000  O
  O12      1.0000 0.03413  0.56647  0.94594  Biso   1.000  O
  O13      1.0000 0.53636  0.06491  0.44311  Biso   1.000  O
  O14      1.0000 0.53012  0.06925  0.95045  Biso   1.000  O
  O15      1.0000 0.53855  0.56608  0.44344  Biso   1.000  O
  O16      1.0000 0.53526  0.56623  0.94709  Biso   1.000  O
  O17      1.0000 0.46498  0.43207  0.19340  Biso   1.000  O
  O18      1.0000 0.46286  0.43470  0.69510  Biso   1.000  O
  O19      1.0000 0.47107  0.93050  0.19778  Biso   1.000  O
  O20      1.0000 0.46257  0.93545  0.70001  Biso   1.000  O
  O21      1.0000 0.96573  0.42880  0.19567  Biso   1.000  O
  O22      1.0000 0.96281  0.43422  0.69280  Biso   1.000  O
  O23      1.0000 0.98025  0.94394  0.18517  Biso   1.000  O
  O24      1.0000 0.96379  0.93501  0.69383  Biso   1.000  O
  O25      1.0000 0.46508  0.31621  0.44591  Biso   1.000  O
  O26      1.0000 0.45852  0.31358  0.94263  Biso   1.000  O
  O27      1.0000 0.46946  0.81765  0.45291  Biso   1.000  O
  O28      1.0000 0.45730  0.81677  0.94357  Biso   1.000  O
  O29      1.0000 0.96336  0.31182  0.44024  Biso   1.000  O
  O30      1.0000 0.96009  0.31743  0.94166  Biso   1.000  O
  O31      1.0000 0.96556  0.81637  0.44168  Biso   1.000  O
  O32      1.0000 0.95933  0.81625  0.93873  Biso   1.000  O
  O33      1.0000 0.25734  0.10256  0.24407  Biso   1.000  O
  O34      1.0000 0.27103  0.12043  0.75318  Biso   1.000  O
  O35      1.0000 0.27017  0.60789  0.24962  Biso   1.000  O
  O36      1.0000 0.26934  0.61905  0.75202  Biso   1.000  O
  O37      1.0000 0.77201  0.11917  0.24788  Biso   1.000  O
  O38      1.0000 0.76733  0.11637  0.74754  Biso   1.000  O
  O39      1.0000 0.77427  0.61744  0.24997  Biso   1.000  O
  O40      1.0000 0.76932  0.61845  0.75006  Biso   1.000  O
  O41      1.0000 0.27258  0.13208  0.49766  Biso   1.000  O
  O42      1.0000 0.25813  0.13282  0.00468  Biso   1.000  O
  O43      1.0000 0.27345  0.63142  0.50145  Biso   1.000  O
  O44      1.0000 0.26794  0.63558  0.00082  Biso   1.000  O
  O45      1.0000 0.77185  0.13183  0.49776  Biso   1.000  O
  O46      1.0000 0.76823  0.13319  0.99664  Biso   1.000  O
  O47      1.0000 0.77082  0.63311  0.50007  Biso   1.000  O
  O48      1.0000 0.77036  0.63495  0.00086  Biso   1.000  O
  O49      1.0000 0.22841  0.38020  0.49939  Biso   1.000  O
  O50      1.0000 0.22880  0.38403  0.99953  Biso   1.000  O
  O51      1.0000 0.22929  0.88167  0.50729  Biso   1.000  O
  O52      1.0000 0.22159  0.89474  0.01588  Biso   1.000  O
  O53      1.0000 0.73042  0.38209  0.50040  Biso   1.000  O
  O54      1.0000 0.72724  0.38250  0.99976  Biso   1.000  O
  O55      1.0000 0.73411  0.88407  0.49675  Biso   1.000  O
  O56      1.0000 0.72586  0.88367  0.99757  Biso   1.000  O
  O57      1.0000 0.23230  0.36150  0.24959  Biso   1.000  O
  O58      1.0000 0.22775  0.36939  0.74981  Biso   1.000  O
  O59      1.0000 0.24819  0.84878  0.26521  Biso   1.000  O
  O60      1.0000 0.22781  0.86976  0.75734  Biso   1.000  O
  O61      1.0000 0.72837  0.36768  0.24968  Biso   1.000  O
  O62      1.0000 0.72821  0.36782  0.74936  Biso   1.000  O
  O63      1.0000 0.74065  0.86849  0.24662  Biso   1.000  O
  O64      1.0000 0.72810  0.86663  0.74769  Biso   1.000  O
