data_image0
_cell_length_a       10.0305
_cell_length_b       10.247
_cell_length_c       10.0305
_cell_angle_alpha    89.9997
_cell_angle_beta     90
_cell_angle_gamma    89.9997

_symmetry_space_group_name_H-M    "P 1"
_symmetry_int_tables_number       1

loop_
  _symmetry_equiv_pos_as_xyz
  'x, y, z'

loop_
  _atom_site_label
  _atom_site_occupancy
  _atom_site_fract_x
  _atom_site_fract_y
  _atom_site_fract_z
  _atom_site_thermal_displace_type
  _atom_site_B_iso_or_equiv
  _atom_site_type_symbol
  Hf1      1.0000 0.12490  0.99469  0.12490  Biso   1.000  Hf
  Hf2      1.0000 0.12491  0.25005  0.38303  Biso   1.000  Hf
  Hf3      1.0000 0.38303  0.25005  0.12491  Biso   1.000  Hf
  Hf4      1.0000 0.37476  0.00148  0.37475  Biso   1.000  Hf
  O1       1.0000 0.99760  0.15297  0.99760  Biso   1.000  O
  O2       1.0000 0.99799  0.09393  0.25184  Biso   1.000  O
  O3       1.0000 0.99759  0.34713  0.25223  Biso   1.000  O
  O4       1.0000 0.99798  0.40617  0.99798  Biso   1.000  O
  O5       1.0000 0.25224  0.15298  0.25224  Biso   1.000  O
  O6       1.0000 0.25184  0.09393  0.99798  Biso   1.000  O
  O7       1.0000 0.25223  0.34714  0.99759  Biso   1.000  O
  O8       1.0000 0.25184  0.40618  0.25184  Biso   1.000  O
  Hf5      1.0000 0.12490  0.99824  0.62491  Biso   1.000  Hf
  Hf6      1.0000 0.12491  0.25005  0.86681  Biso   1.000  Hf
  Hf7      1.0000 0.37635  0.25005  0.62491  Biso   1.000  Hf
  Hf8      1.0000 0.37627  0.99928  0.87354  Biso   1.000  Hf
  O9       1.0000 0.99761  0.14655  0.50188  Biso   1.000  O
  O10      1.0000 0.00194  0.10197  0.75024  Biso   1.000  O
  O11      1.0000 0.99761  0.35355  0.74795  Biso   1.000  O
  O12      1.0000 0.00194  0.39813  0.49959  Biso   1.000  O
  O13      1.0000 0.25221  0.14656  0.74795  Biso   1.000  O
  O14      1.0000 0.24788  0.10197  0.49959  Biso   1.000  O
  O15      1.0000 0.25221  0.35356  0.50188  Biso   1.000  O
  O16      1.0000 0.24788  0.39814  0.75024  Biso   1.000  O
  Hf9      1.0000 0.12491  0.50541  0.12491  Biso   1.000  Hf
  Hf10     1.0000 0.12491  0.75006  0.37561  Biso   1.000  Hf
  Hf11     1.0000 0.37561  0.75006  0.12491  Biso   1.000  Hf
  Hf12     1.0000 0.37627  0.50083  0.37627  Biso   1.000  Hf
  O17      1.0000 0.00060  0.65183  0.00060  Biso   1.000  O
  O18      1.0000 0.99880  0.60085  0.25101  Biso   1.000  O
  O19      1.0000 0.00060  0.84827  0.24921  Biso   1.000  O
  O20      1.0000 0.99881  0.89925  0.99880  Biso   1.000  O
  O21      1.0000 0.24921  0.65184  0.24921  Biso   1.000  O
  O22      1.0000 0.25101  0.60085  0.99881  Biso   1.000  O
  O23      1.0000 0.24921  0.84827  0.00060  Biso   1.000  O
  O24      1.0000 0.25101  0.89926  0.25101  Biso   1.000  O
  Hf13     1.0000 0.12491  0.50187  0.62491  Biso   1.000  Hf
  Hf14     1.0000 0.12491  0.75005  0.87420  Biso   1.000  Hf
  Hf15     1.0000 0.37419  0.75005  0.62491  Biso   1.000  Hf
  Hf16     1.0000 0.37476  0.49863  0.87506  Biso   1.000  Hf
  O25      1.0000 0.00045  0.64766  0.50060  Biso   1.000  O
  O26      1.0000 0.99921  0.60302  0.74982  Biso   1.000  O
  O27      1.0000 0.00045  0.85245  0.74921  Biso   1.000  O
  O28      1.0000 0.99921  0.89709  0.50000  Biso   1.000  O
  O29      1.0000 0.24936  0.64766  0.74921  Biso   1.000  O
  O30      1.0000 0.25061  0.60302  0.50000  Biso   1.000  O
  O31      1.0000 0.24936  0.85245  0.50060  Biso   1.000  O
  O32      1.0000 0.25061  0.89709  0.74981  Biso   1.000  O
  Hf17     1.0000 0.62491  0.99824  0.12490  Biso   1.000  Hf
  Hf18     1.0000 0.62491  0.25005  0.37635  Biso   1.000  Hf
  Hf19     1.0000 0.86681  0.25006  0.12491  Biso   1.000  Hf
  Hf20     1.0000 0.87354  0.99928  0.37627  Biso   1.000  Hf
  O33      1.0000 0.50188  0.14655  0.99760  Biso   1.000  O
  O34      1.0000 0.49959  0.10197  0.24788  Biso   1.000  O
  O35      1.0000 0.50188  0.35356  0.25221  Biso   1.000  O
  O36      1.0000 0.49958  0.39813  0.00194  Biso   1.000  O
  O37      1.0000 0.74795  0.14656  0.25221  Biso   1.000  O
  O38      1.0000 0.75024  0.10197  0.00194  Biso   1.000  O
  O39      1.0000 0.74794  0.35355  0.99761  Biso   1.000  O
  O40      1.0000 0.75023  0.39814  0.24788  Biso   1.000  O
  Hf21     1.0000 0.62491  0.99768  0.62490  Biso   1.000  Hf
  Hf22     1.0000 0.62491  0.25005  0.87347  Biso   1.000  Hf
  Hf23     1.0000 0.87347  0.25006  0.62491  Biso   1.000  Hf
  Hf24     1.0000 0.87506  0.00147  0.87505  Biso   1.000  Hf
  O41      1.0000 0.49793  0.14862  0.49793  Biso   1.000  O
  O42      1.0000 0.50152  0.10162  0.74829  Biso   1.000  O
  O43      1.0000 0.49793  0.35149  0.75189  Biso   1.000  O
  O44      1.0000 0.50152  0.39849  0.50152  Biso   1.000  O
  O45      1.0000 0.75189  0.14862  0.75189  Biso   1.000  O
  O46      1.0000 0.74830  0.10162  0.50152  Biso   1.000  O
  O47      1.0000 0.75189  0.35149  0.49793  Biso   1.000  O
  O48      1.0000 0.74830  0.39849  0.74830  Biso   1.000  O
  Hf25     1.0000 0.62490  0.50187  0.12491  Biso   1.000  Hf
  Hf26     1.0000 0.62490  0.75006  0.37419  Biso   1.000  Hf
  Hf27     1.0000 0.87420  0.75005  0.12491  Biso   1.000  Hf
  Hf28     1.0000 0.87506  0.49863  0.37476  Biso   1.000  Hf
  O49      1.0000 0.50060  0.64766  0.00045  Biso   1.000  O
  O50      1.0000 0.50000  0.60302  0.25061  Biso   1.000  O
  O51      1.0000 0.50060  0.85245  0.24936  Biso   1.000  O
  O52      1.0000 0.50000  0.89709  0.99921  Biso   1.000  O
  O53      1.0000 0.74921  0.64766  0.24937  Biso   1.000  O
  O54      1.0000 0.74981  0.60302  0.99921  Biso   1.000  O
  O55      1.0000 0.74921  0.85245  0.00045  Biso   1.000  O
  O56      1.0000 0.74981  0.89709  0.25060  Biso   1.000  O
  Hf29     1.0000 0.62491  0.50242  0.62491  Biso   1.000  Hf
  Hf30     1.0000 0.62490  0.75005  0.87562  Biso   1.000  Hf
  Hf31     1.0000 0.87562  0.75005  0.62491  Biso   1.000  Hf
  Hf32     1.0000 0.87354  0.50083  0.87355  Biso   1.000  Hf
  O57      1.0000 0.50125  0.64949  0.50125  Biso   1.000  O
  O58      1.0000 0.49915  0.60093  0.75067  Biso   1.000  O
  O59      1.0000 0.50125  0.85062  0.74856  Biso   1.000  O
  O60      1.0000 0.49914  0.89918  0.49914  Biso   1.000  O
  O61      1.0000 0.74857  0.64949  0.74857  Biso   1.000  O
  O62      1.0000 0.75067  0.60093  0.49915  Biso   1.000  O
  O63      1.0000 0.74856  0.85062  0.50125  Biso   1.000  O
  O64      1.0000 0.75067  0.89918  0.75067  Biso   1.000  O
  Ni1      1.0000 0.12494  0.25005  0.12496  Biso   1.000  Ni
