data_image0
_cell_length_a       10.0028
_cell_length_b       5.10864
_cell_length_c       10.0027
_cell_angle_alpha    91.2604
_cell_angle_beta     93.2048
_cell_angle_gamma    88.7407

_symmetry_space_group_name_H-M    "P 1"
_symmetry_int_tables_number       1

loop_
  _symmetry_equiv_pos_as_xyz
  'x, y, z'

loop_
  _atom_site_label
  _atom_site_occupancy
  _atom_site_fract_x
  _atom_site_fract_y
  _atom_site_fract_z
  _atom_site_thermal_displace_type
  _atom_site_B_iso_or_equiv
  _atom_site_type_symbol
  Ni1      1.0000 0.12979  0.09038  0.12110  Biso   1.000  Ni
  Hf1      1.0000 0.11208  0.02474  0.63868  Biso   1.000  Hf
  Hf2      1.0000 0.61220  0.02474  0.13878  Biso   1.000  Hf
  Hf3      1.0000 0.62319  0.00595  0.62767  Biso   1.000  Hf
  Hf4      1.0000 0.10664  0.47052  0.38804  Biso   1.000  Hf
  Hf5      1.0000 0.12346  0.50940  0.88921  Biso   1.000  Hf
  Hf6      1.0000 0.61145  0.49647  0.38442  Biso   1.000  Hf
  Hf7      1.0000 0.62551  0.49858  0.88156  Biso   1.000  Hf
  Hf8      1.0000 0.36167  0.50935  0.12743  Biso   1.000  Hf
  Hf9      1.0000 0.36927  0.49850  0.62536  Biso   1.000  Hf
  Hf10     1.0000 0.86284  0.47050  0.14425  Biso   1.000  Hf
  Hf11     1.0000 0.86643  0.49641  0.63943  Biso   1.000  Hf
  Hf12     1.0000 0.36159  0.99153  0.37066  Biso   1.000  Hf
  Hf13     1.0000 0.38133  0.99611  0.86952  Biso   1.000  Hf
  Hf14     1.0000 0.87245  0.97029  0.37843  Biso   1.000  Hf
  Hf15     1.0000 0.88019  0.99149  0.88927  Biso   1.000  Hf
  O1       1.0000 0.01394  0.32332  0.02512  Biso   1.000  O
  O2       1.0000 0.98605  0.27847  0.50972  Biso   1.000  O
  O3       1.0000 0.50052  0.31515  0.00572  Biso   1.000  O
  O4       1.0000 0.49140  0.29107  0.50006  Biso   1.000  O
  O5       1.0000 0.99712  0.16388  0.25377  Biso   1.000  O
  O6       1.0000 0.99801  0.22460  0.76898  Biso   1.000  O
  O7       1.0000 0.48192  0.22460  0.25287  Biso   1.000  O
  O8       1.0000 0.50003  0.21045  0.75084  Biso   1.000  O
  O9       1.0000 0.98073  0.67449  0.27015  Biso   1.000  O
  O10      1.0000 0.00551  0.72123  0.75786  Biso   1.000  O
  O11      1.0000 0.49302  0.72124  0.24532  Biso   1.000  O
  O12      1.0000 0.50760  0.70200  0.74324  Biso   1.000  O
  O13      1.0000 0.04439  0.84775  0.00467  Biso   1.000  O
  O14      1.0000 0.01176  0.77770  0.50958  Biso   1.000  O
  O15      1.0000 0.53552  0.81877  0.98394  Biso   1.000  O
  O16      1.0000 0.50578  0.79751  0.49295  Biso   1.000  O
  O17      1.0000 0.22579  0.32322  0.23699  Biso   1.000  O
  O18      1.0000 0.24517  0.31505  0.75040  Biso   1.000  O
  O19      1.0000 0.74117  0.27844  0.26485  Biso   1.000  O
  O20      1.0000 0.75082  0.29097  0.75952  Biso   1.000  O
  O21      1.0000 0.25042  0.18904  0.00048  Biso   1.000  O
  O22      1.0000 0.23577  0.17889  0.49829  Biso   1.000  O
  O23      1.0000 0.75263  0.17885  0.01514  Biso   1.000  O
  O24      1.0000 0.74297  0.19846  0.50794  Biso   1.000  O
  O25      1.0000 0.29351  0.67609  0.95738  Biso   1.000  O
  O26      1.0000 0.27091  0.66373  0.45627  Biso   1.000  O
  O27      1.0000 0.79462  0.66370  0.97998  Biso   1.000  O
  O28      1.0000 0.75782  0.69584  0.49307  Biso   1.000  O
  O29      1.0000 0.24619  0.84768  0.20649  Biso   1.000  O
  O30      1.0000 0.26687  0.81866  0.71539  Biso   1.000  O
  O31      1.0000 0.74130  0.77768  0.23914  Biso   1.000  O
  O32      1.0000 0.75785  0.79740  0.74513  Biso   1.000  O
