data_image0
_cell_length_a       10.0537
_cell_length_b       5.14841
_cell_length_c       10.0537
_cell_angle_alpha    90.0001
_cell_angle_beta     89.9998
_cell_angle_gamma    90.0002

_symmetry_space_group_name_H-M    "P 1"
_symmetry_int_tables_number       1

loop_
  _symmetry_equiv_pos_as_xyz
  'x, y, z'

loop_
  _atom_site_label
  _atom_site_occupancy
  _atom_site_fract_x
  _atom_site_fract_y
  _atom_site_fract_z
  _atom_site_thermal_displace_type
  _atom_site_B_iso_or_equiv
  _atom_site_type_symbol
  Hf1      1.0000 0.12491  0.00012  0.12491  Biso   1.000  Hf
  Hf2      1.0000 0.12491  0.50011  0.38348  Biso   1.000  Hf
  Hf3      1.0000 0.38348  0.50011  0.12491  Biso   1.000  Hf
  Hf4      1.0000 0.37629  0.00459  0.37628  Biso   1.000  Hf
  O1       1.0000 0.99725  0.31439  0.99725  Biso   1.000  O
  O2       1.0000 0.99715  0.18426  0.25266  Biso   1.000  O
  O3       1.0000 0.99725  0.68585  0.25257  Biso   1.000  O
  O4       1.0000 0.99716  0.81598  0.99716  Biso   1.000  O
  O5       1.0000 0.25256  0.31437  0.25256  Biso   1.000  O
  O6       1.0000 0.25265  0.18424  0.99715  Biso   1.000  O
  O7       1.0000 0.25257  0.68584  0.99725  Biso   1.000  O
  O8       1.0000 0.25266  0.81597  0.25266  Biso   1.000  O
  Hf5      1.0000 0.12491  0.00011  0.62491  Biso   1.000  Hf
  Hf6      1.0000 0.12491  0.50010  0.86633  Biso   1.000  Hf
  Hf7      1.0000 0.37553  0.50010  0.62491  Biso   1.000  Hf
  Hf8      1.0000 0.37628  0.99562  0.87354  Biso   1.000  Hf
  O9       1.0000 0.99807  0.29291  0.50221  Biso   1.000  O
  O10      1.0000 0.00119  0.20535  0.74981  Biso   1.000  O
  O11      1.0000 0.99807  0.70731  0.74761  Biso   1.000  O
  O12      1.0000 0.00119  0.79487  0.50001  Biso   1.000  O
  O13      1.0000 0.25175  0.29290  0.74760  Biso   1.000  O
  O14      1.0000 0.24863  0.20534  0.50000  Biso   1.000  O
  O15      1.0000 0.25175  0.70730  0.50221  Biso   1.000  O
  O16      1.0000 0.24863  0.79486  0.74981  Biso   1.000  O
  Hf9      1.0000 0.62491  0.00011  0.12491  Biso   1.000  Hf
  Hf10     1.0000 0.62491  0.50010  0.37554  Biso   1.000  Hf
  Hf11     1.0000 0.86633  0.50011  0.12492  Biso   1.000  Hf
  Hf12     1.0000 0.87353  0.99563  0.37629  Biso   1.000  Hf
  O17      1.0000 0.50221  0.29291  0.99807  Biso   1.000  O
  O18      1.0000 0.50000  0.20535  0.24863  Biso   1.000  O
  O19      1.0000 0.50221  0.70730  0.25175  Biso   1.000  O
  O20      1.0000 0.50001  0.79486  0.00119  Biso   1.000  O
  O21      1.0000 0.74760  0.29291  0.25175  Biso   1.000  O
  O22      1.0000 0.74981  0.20535  0.00119  Biso   1.000  O
  O23      1.0000 0.74761  0.70730  0.99807  Biso   1.000  O
  O24      1.0000 0.74981  0.79486  0.24864  Biso   1.000  O
  Hf13     1.0000 0.62491  0.00011  0.62491  Biso   1.000  Hf
  Hf14     1.0000 0.62491  0.50010  0.87429  Biso   1.000  Hf
  Hf15     1.0000 0.87428  0.50010  0.62491  Biso   1.000  Hf
  Hf16     1.0000 0.87353  0.00459  0.87354  Biso   1.000  Hf
  O25      1.0000 0.49922  0.30031  0.49922  Biso   1.000  O
  O26      1.0000 0.50083  0.20075  0.74899  Biso   1.000  O
  O27      1.0000 0.49922  0.69990  0.75060  Biso   1.000  O
  O28      1.0000 0.50083  0.79946  0.50083  Biso   1.000  O
  O29      1.0000 0.75060  0.30031  0.75060  Biso   1.000  O
  O30      1.0000 0.74898  0.20075  0.50083  Biso   1.000  O
  O31      1.0000 0.75060  0.69990  0.49922  Biso   1.000  O
  O32      1.0000 0.74899  0.79946  0.74899  Biso   1.000  O
  Ni1      1.0000 0.12491  0.50013  0.12489  Biso   1.000  Ni
