data_image0
_cell_length_a       10.0312
_cell_length_b       5.14308
_cell_length_c       10.482
_cell_angle_alpha    89.6233
_cell_angle_beta     90.0863
_cell_angle_gamma    90.1101

_symmetry_space_group_name_H-M    "P 1"
_symmetry_int_tables_number       1

loop_
  _symmetry_equiv_pos_as_xyz
  'x, y, z'

loop_
  _atom_site_label
  _atom_site_occupancy
  _atom_site_fract_x
  _atom_site_fract_y
  _atom_site_fract_z
  _atom_site_thermal_displace_type
  _atom_site_B_iso_or_equiv
  _atom_site_type_symbol
  Hf1      1.0000 0.13813  0.04177  0.17183  Biso   1.000  Hf
  Hf2      1.0000 0.13868  0.45610  0.42334  Biso   1.000  Hf
  Hf3      1.0000 0.35454  0.54539  0.17541  Biso   1.000  Hf
  Hf4      1.0000 0.36294  0.95740  0.42252  Biso   1.000  Hf
  Hf5      1.0000 0.64485  0.06590  0.07695  Biso   1.000  Hf
  Hf6      1.0000 0.64131  0.46129  0.33367  Biso   1.000  Hf
  Hf7      1.0000 0.86136  0.54101  0.08065  Biso   1.000  Hf
  Hf8      1.0000 0.86303  0.95854  0.33192  Biso   1.000  Hf
  O1       1.0000 0.03422  0.32943  0.08449  Biso   1.000  O
  O2       1.0000 0.03452  0.16850  0.33467  Biso   1.000  O
  O3       1.0000 0.46230  0.85249  0.09106  Biso   1.000  O
  O4       1.0000 0.46688  0.66715  0.33525  Biso   1.000  O
  O5       1.0000 0.27562  0.24901  0.29615  Biso   1.000  O
  O6       1.0000 0.27705  0.25132  0.04456  Biso   1.000  O
  O7       1.0000 0.22272  0.74959  0.29719  Biso   1.000  O
  O8       1.0000 0.22253  0.75055  0.04540  Biso   1.000  O
  O9       1.0000 0.52646  0.32284  0.17254  Biso   1.000  O
  O10      1.0000 0.53490  0.16824  0.41724  Biso   1.000  O
  O11      1.0000 0.96745  0.83015  0.16865  Biso   1.000  O
  O12      1.0000 0.96720  0.66604  0.41830  Biso   1.000  O
  O13      1.0000 0.77717  0.24706  0.45772  Biso   1.000  O
  O14      1.0000 0.77908  0.25897  0.21102  Biso   1.000  O
  O15      1.0000 0.72431  0.74585  0.45895  Biso   1.000  O
  O16      1.0000 0.72598  0.76673  0.21095  Biso   1.000  O
  Hf9      1.0000 0.14097  0.03884  0.67163  Biso   1.000  Hf
  Hf10     1.0000 0.13909  0.45445  0.92196  Biso   1.000  Hf
  Hf11     1.0000 0.36235  0.53914  0.67201  Biso   1.000  Hf
  Hf12     1.0000 0.36132  0.95581  0.92053  Biso   1.000  Hf
  Hf13     1.0000 0.63999  0.03973  0.58071  Biso   1.000  Hf
  Hf14     1.0000 0.63925  0.44858  0.82778  Biso   1.000  Hf
  Hf15     1.0000 0.86280  0.53922  0.58119  Biso   1.000  Hf
  Hf16     1.0000 0.86467  0.95311  0.82843  Biso   1.000  Hf
  O17      1.0000 0.03453  0.32868  0.58505  Biso   1.000  O
  O18      1.0000 0.03592  0.16540  0.83282  Biso   1.000  O
  O19      1.0000 0.46761  0.83086  0.58508  Biso   1.000  O
  O20      1.0000 0.46549  0.65883  0.83481  Biso   1.000  O
  O21      1.0000 0.27825  0.24352  0.79516  Biso   1.000  O
  O22      1.0000 0.27739  0.24941  0.54533  Biso   1.000  O
  O23      1.0000 0.22424  0.74404  0.79538  Biso   1.000  O
  O24      1.0000 0.22528  0.74953  0.54561  Biso   1.000  O
  O25      1.0000 0.53410  0.33050  0.66472  Biso   1.000  O
  O26      1.0000 0.53892  0.14120  0.90764  Biso   1.000  O
  O27      1.0000 0.96929  0.82854  0.66602  Biso   1.000  O
  O28      1.0000 0.96771  0.66676  0.91773  Biso   1.000  O
  O29      1.0000 0.78915  0.23620  0.95189  Biso   1.000  O
  O30      1.0000 0.77811  0.24591  0.70466  Biso   1.000  O
  O31      1.0000 0.72128  0.74147  0.95907  Biso   1.000  O
  O32      1.0000 0.72579  0.74731  0.70739  Biso   1.000  O
  Ni1      1.0000 0.59208  0.57228  0.06228  Biso   1.000  Ni
