data_image0
_cell_length_a       10.1281
_cell_length_b       10.3245
_cell_length_c       5.23846
_cell_angle_alpha    90.4788
_cell_angle_beta     80.226
_cell_angle_gamma    90.1928

_symmetry_space_group_name_H-M    "P 1"
_symmetry_int_tables_number       1

loop_
  _symmetry_equiv_pos_as_xyz
  'x, y, z'

loop_
  _atom_site_label
  _atom_site_occupancy
  _atom_site_fract_x
  _atom_site_fract_y
  _atom_site_fract_z
  _atom_site_thermal_displace_type
  _atom_site_B_iso_or_equiv
  _atom_site_type_symbol
  Hf1      1.0000 0.13640  0.02193  0.29849  Biso   1.000  Hf
  Hf2      1.0000 0.13939  0.23189  0.79604  Biso   1.000  Hf
  Hf3      1.0000 0.35983  0.27619  0.21003  Biso   1.000  Hf
  Hf4      1.0000 0.35679  0.47734  0.70012  Biso   1.000  Hf
  O1       1.0000 0.03556  0.17072  0.16342  Biso   1.000  O
  O2       1.0000 0.03590  0.08162  0.66167  Biso   1.000  O
  O3       1.0000 0.46058  0.42873  0.32827  Biso   1.000  O
  O4       1.0000 0.47454  0.34324  0.84834  Biso   1.000  O
  O5       1.0000 0.28003  0.13145  0.49038  Biso   1.000  O
  O6       1.0000 0.27291  0.11561  0.99402  Biso   1.000  O
  O7       1.0000 0.22215  0.38092  0.01685  Biso   1.000  O
  O8       1.0000 0.21130  0.37656  0.50945  Biso   1.000  O
  Hf5      1.0000 0.13673  0.52334  0.28926  Biso   1.000  Hf
  Hf6      1.0000 0.13599  0.72835  0.79499  Biso   1.000  Hf
  Hf7      1.0000 0.36008  0.76935  0.21132  Biso   1.000  Hf
  Hf8      1.0000 0.35838  0.96968  0.71799  Biso   1.000  Hf
  O9       1.0000 0.03227  0.67107  0.16033  Biso   1.000  O
  O10      1.0000 0.03312  0.58321  0.65933  Biso   1.000  O
  O11      1.0000 0.46195  0.91901  0.34499  Biso   1.000  O
  O12      1.0000 0.46267  0.82731  0.84406  Biso   1.000  O
  O13      1.0000 0.27438  0.63035  0.48228  Biso   1.000  O
  O14      1.0000 0.27382  0.62056  0.98065  Biso   1.000  O
  O15      1.0000 0.22161  0.87642  0.02565  Biso   1.000  O
  O16      1.0000 0.22101  0.87054  0.52334  Biso   1.000  O
  Hf9      1.0000 0.63759  0.02107  0.29175  Biso   1.000  Hf
  Hf10     1.0000 0.64624  0.22924  0.79772  Biso   1.000  Hf
  Hf11     1.0000 0.86170  0.27242  0.21144  Biso   1.000  Hf
  Hf12     1.0000 0.86107  0.47911  0.70959  Biso   1.000  Hf
  O17      1.0000 0.53493  0.16874  0.15811  Biso   1.000  O
  O18      1.0000 0.53977  0.07275  0.67331  Biso   1.000  O
  O19      1.0000 0.96154  0.42242  0.33837  Biso   1.000  O
  O20      1.0000 0.96314  0.33208  0.84095  Biso   1.000  O
  O21      1.0000 0.77613  0.12971  0.48200  Biso   1.000  O
  O22      1.0000 0.77841  0.12050  0.98445  Biso   1.000  O
  O23      1.0000 0.72421  0.37915  0.02344  Biso   1.000  O
  O24      1.0000 0.72344  0.37160  0.52149  Biso   1.000  O
  Hf13     1.0000 0.63804  0.52325  0.29325  Biso   1.000  Hf
  Hf14     1.0000 0.63816  0.72741  0.79196  Biso   1.000  Hf
  Hf15     1.0000 0.85872  0.77221  0.20919  Biso   1.000  Hf
  Hf16     1.0000 0.86086  0.97859  0.70947  Biso   1.000  Hf
  O25      1.0000 0.53655  0.67149  0.16140  Biso   1.000  O
  O26      1.0000 0.53344  0.58247  0.65804  Biso   1.000  O
  O27      1.0000 0.96303  0.92061  0.33933  Biso   1.000  O
  O28      1.0000 0.96226  0.83203  0.84097  Biso   1.000  O
  O29      1.0000 0.77569  0.63038  0.48241  Biso   1.000  O
  O30      1.0000 0.77503  0.62130  0.98170  Biso   1.000  O
  O31      1.0000 0.72190  0.88025  0.02047  Biso   1.000  O
  O32      1.0000 0.72239  0.87138  0.52034  Biso   1.000  O
  Ni1      1.0000 0.40967  0.21444  0.65750  Biso   1.000  Ni
