data_image0
_cell_length_a       4.95978
_cell_length_b       10.3535
_cell_length_c       9.96671
_cell_angle_alpha    90.6695
_cell_angle_beta     88.8456
_cell_angle_gamma    90.4899

_symmetry_space_group_name_H-M    "P 1"
_symmetry_int_tables_number       1

loop_
  _symmetry_equiv_pos_as_xyz
  'x, y, z'

loop_
  _atom_site_label
  _atom_site_occupancy
  _atom_site_fract_x
  _atom_site_fract_y
  _atom_site_fract_z
  _atom_site_thermal_displace_type
  _atom_site_B_iso_or_equiv
  _atom_site_type_symbol
  Ni1      1.0000 0.24669  0.04042  0.10267  Biso   1.000  Ni
  Hf1      1.0000 0.26481  0.01517  0.62420  Biso   1.000  Hf
  Hf2      1.0000 0.27106  0.51586  0.12888  Biso   1.000  Hf
  Hf3      1.0000 0.26936  0.51816  0.62474  Biso   1.000  Hf
  Hf4      1.0000 0.27254  0.22678  0.37326  Biso   1.000  Hf
  Hf5      1.0000 0.25696  0.23892  0.87253  Biso   1.000  Hf
  Hf6      1.0000 0.28279  0.73417  0.37729  Biso   1.000  Hf
  Hf7      1.0000 0.26019  0.73714  0.88021  Biso   1.000  Hf
  Hf8      1.0000 0.72641  0.26238  0.12254  Biso   1.000  Hf
  Hf9      1.0000 0.73066  0.26590  0.62344  Biso   1.000  Hf
  Hf10     1.0000 0.75305  0.76583  0.12413  Biso   1.000  Hf
  Hf11     1.0000 0.73729  0.76945  0.62714  Biso   1.000  Hf
  Hf12     1.0000 0.73744  0.48119  0.37587  Biso   1.000  Hf
  Hf13     1.0000 0.72627  0.48832  0.87414  Biso   1.000  Hf
  Hf14     1.0000 0.74397  0.98270  0.36751  Biso   1.000  Hf
  Hf15     1.0000 0.71000  0.98472  0.87982  Biso   1.000  Hf
  O1       1.0000 0.07368  0.17988  0.18604  Biso   1.000  O
  O2       1.0000 0.06748  0.18497  0.69575  Biso   1.000  O
  O3       1.0000 0.07992  0.68372  0.19865  Biso   1.000  O
  O4       1.0000 0.07028  0.68431  0.69824  Biso   1.000  O
  O5       1.0000 0.07462  0.06564  0.44832  Biso   1.000  O
  O6       1.0000 0.05125  0.06895  0.95055  Biso   1.000  O
  O7       1.0000 0.07874  0.56367  0.44425  Biso   1.000  O
  O8       1.0000 0.06276  0.56819  0.94997  Biso   1.000  O
  O9       1.0000 0.93394  0.42563  0.19404  Biso   1.000  O
  O10      1.0000 0.92530  0.43471  0.69313  Biso   1.000  O
  O11      1.0000 0.97515  0.94033  0.18804  Biso   1.000  O
  O12      1.0000 0.92492  0.93677  0.69951  Biso   1.000  O
  O13      1.0000 0.93067  0.31233  0.44085  Biso   1.000  O
  O14      1.0000 0.90946  0.31489  0.93946  Biso   1.000  O
  O15      1.0000 0.94603  0.81882  0.45051  Biso   1.000  O
  O16      1.0000 0.90638  0.81823  0.93742  Biso   1.000  O
  O17      1.0000 0.51946  0.10365  0.24066  Biso   1.000  O
  O18      1.0000 0.53490  0.11928  0.75000  Biso   1.000  O
  O19      1.0000 0.54885  0.60689  0.24876  Biso   1.000  O
  O20      1.0000 0.53607  0.62006  0.75168  Biso   1.000  O
  O21      1.0000 0.54795  0.13184  0.49459  Biso   1.000  O
  O22      1.0000 0.50650  0.13408  0.00056  Biso   1.000  O
  O23      1.0000 0.54861  0.63261  0.50068  Biso   1.000  O
  O24      1.0000 0.53352  0.63809  0.00111  Biso   1.000  O
  O25      1.0000 0.46000  0.38020  0.49896  Biso   1.000  O
  O26      1.0000 0.45269  0.38439  0.99838  Biso   1.000  O
  O27      1.0000 0.47048  0.88374  0.50335  Biso   1.000  O
  O28      1.0000 0.43351  0.89584  0.01314  Biso   1.000  O
  O29      1.0000 0.46227  0.36097  0.24823  Biso   1.000  O
  O30      1.0000 0.45389  0.36992  0.74826  Biso   1.000  O
  O31      1.0000 0.52168  0.84881  0.26132  Biso   1.000  O
  O32      1.0000 0.45247  0.86884  0.75453  Biso   1.000  O
