data_image0
_cell_length_a       10.0809
_cell_length_b       5.08943
_cell_length_c       10.4519
_cell_angle_alpha    90.0051
_cell_angle_beta     80.8212
_cell_angle_gamma    89.2193

_symmetry_space_group_name_H-M    "P 1"
_symmetry_int_tables_number       1

loop_
  _symmetry_equiv_pos_as_xyz
  'x, y, z'

loop_
  _atom_site_label
  _atom_site_occupancy
  _atom_site_fract_x
  _atom_site_fract_y
  _atom_site_fract_z
  _atom_site_thermal_displace_type
  _atom_site_B_iso_or_equiv
  _atom_site_type_symbol
  Ni1      1.0000 0.12446  0.02143  0.17026  Biso   1.000  Ni
  Hf1      1.0000 0.13816  0.03767  0.64338  Biso   1.000  Hf
  Hf2      1.0000 0.63661  0.04161  0.14448  Biso   1.000  Hf
  Hf3      1.0000 0.63792  0.04250  0.64793  Biso   1.000  Hf
  Hf4      1.0000 0.13742  0.45641  0.39119  Biso   1.000  Hf
  Hf5      1.0000 0.14152  0.45125  0.89501  Biso   1.000  Hf
  Hf6      1.0000 0.63729  0.45596  0.39526  Biso   1.000  Hf
  Hf7      1.0000 0.63829  0.46233  0.89915  Biso   1.000  Hf
  Hf8      1.0000 0.35333  0.55231  0.09995  Biso   1.000  Hf
  Hf9      1.0000 0.36119  0.54552  0.60419  Biso   1.000  Hf
  Hf10     1.0000 0.87079  0.52813  0.10724  Biso   1.000  Hf
  Hf11     1.0000 0.85954  0.53834  0.60634  Biso   1.000  Hf
  Hf12     1.0000 0.35951  0.95978  0.34973  Biso   1.000  Hf
  Hf13     1.0000 0.36049  0.97333  0.85668  Biso   1.000  Hf
  Hf14     1.0000 0.85725  0.95293  0.35581  Biso   1.000  Hf
  Hf15     1.0000 0.86378  0.95341  0.85762  Biso   1.000  Hf
  O1       1.0000 0.04710  0.30163  0.08342  Biso   1.000  O
  O2       1.0000 0.03103  0.31508  0.56845  Biso   1.000  O
  O3       1.0000 0.53293  0.33536  0.07785  Biso   1.000  O
  O4       1.0000 0.53480  0.33435  0.57636  Biso   1.000  O
  O5       1.0000 0.03444  0.15901  0.32213  Biso   1.000  O
  O6       1.0000 0.03504  0.16846  0.82527  Biso   1.000  O
  O7       1.0000 0.53255  0.16651  0.32726  Biso   1.000  O
  O8       1.0000 0.53666  0.17615  0.82578  Biso   1.000  O
  O9       1.0000 0.46515  0.82838  0.17422  Biso   1.000  O
  O10      1.0000 0.46509  0.83558  0.67244  Biso   1.000  O
  O11      1.0000 0.97031  0.83296  0.17494  Biso   1.000  O
  O12      1.0000 0.96852  0.81633  0.67718  Biso   1.000  O
  O13      1.0000 0.46354  0.66808  0.42092  Biso   1.000  O
  O14      1.0000 0.46900  0.68948  0.92600  Biso   1.000  O
  O15      1.0000 0.96325  0.66364  0.42406  Biso   1.000  O
  O16      1.0000 0.96839  0.66076  0.93054  Biso   1.000  O
  O17      1.0000 0.26439  0.24640  0.22848  Biso   1.000  O
  O18      1.0000 0.27373  0.25402  0.73141  Biso   1.000  O
  O19      1.0000 0.77476  0.25128  0.24118  Biso   1.000  O
  O20      1.0000 0.77876  0.25525  0.74171  Biso   1.000  O
  O21      1.0000 0.27657  0.24557  0.48356  Biso   1.000  O
  O22      1.0000 0.29674  0.29504  0.96822  Biso   1.000  O
  O23      1.0000 0.77627  0.23901  0.49070  Biso   1.000  O
  O24      1.0000 0.77894  0.24232  0.99246  Biso   1.000  O
  O25      1.0000 0.22066  0.81093  0.01898  Biso   1.000  O
  O26      1.0000 0.22151  0.75507  0.50669  Biso   1.000  O
  O27      1.0000 0.72800  0.75479  0.01292  Biso   1.000  O
  O28      1.0000 0.72145  0.75378  0.51127  Biso   1.000  O
  O29      1.0000 0.21267  0.75089  0.25686  Biso   1.000  O
  O30      1.0000 0.22557  0.74063  0.76269  Biso   1.000  O
  O31      1.0000 0.72969  0.73650  0.25944  Biso   1.000  O
  O32      1.0000 0.72492  0.74387  0.76238  Biso   1.000  O
