data_image0
_cell_length_a       10.203
_cell_length_b       10.4012
_cell_length_c       5.26649
_cell_angle_alpha    90.4572
_cell_angle_beta     80.2378
_cell_angle_gamma    90.2076

_symmetry_space_group_name_H-M    "P 1"
_symmetry_int_tables_number       1

loop_
  _symmetry_equiv_pos_as_xyz
  'x, y, z'

loop_
  _atom_site_label
  _atom_site_occupancy
  _atom_site_fract_x
  _atom_site_fract_y
  _atom_site_fract_z
  _atom_site_thermal_displace_type
  _atom_site_B_iso_or_equiv
  _atom_site_type_symbol
  Zr1      1.0000 0.13659  0.02194  0.29779  Biso   1.000  Zr
  Zr2      1.0000 0.13926  0.23191  0.79554  Biso   1.000  Zr
  Zr3      1.0000 0.35979  0.27608  0.21044  Biso   1.000  Zr
  Zr4      1.0000 0.35651  0.47740  0.70066  Biso   1.000  Zr
  O1       1.0000 0.03513  0.17056  0.16342  Biso   1.000  O
  O2       1.0000 0.03599  0.08156  0.66097  Biso   1.000  O
  O3       1.0000 0.46094  0.42820  0.32877  Biso   1.000  O
  O4       1.0000 0.47420  0.34230  0.84601  Biso   1.000  O
  O5       1.0000 0.28088  0.13191  0.49208  Biso   1.000  O
  O6       1.0000 0.27254  0.11621  0.99438  Biso   1.000  O
  O7       1.0000 0.22268  0.38076  0.01667  Biso   1.000  O
  O8       1.0000 0.21191  0.37700  0.50929  Biso   1.000  O
  Zr5      1.0000 0.13676  0.52327  0.28825  Biso   1.000  Zr
  Zr6      1.0000 0.13590  0.72837  0.79397  Biso   1.000  Zr
  Zr7      1.0000 0.36011  0.76932  0.21195  Biso   1.000  Zr
  Zr8      1.0000 0.35839  0.96959  0.71851  Biso   1.000  Zr
  O9       1.0000 0.03174  0.67096  0.16017  Biso   1.000  O
  O10      1.0000 0.03267  0.58342  0.65925  Biso   1.000  O
  O11      1.0000 0.46258  0.91860  0.34501  Biso   1.000  O
  O12      1.0000 0.46324  0.82776  0.84426  Biso   1.000  O
  O13      1.0000 0.27364  0.63023  0.48200  Biso   1.000  O
  O14      1.0000 0.27294  0.62091  0.98066  Biso   1.000  O
  O15      1.0000 0.22229  0.87632  0.02534  Biso   1.000  O
  O16      1.0000 0.22166  0.87071  0.52285  Biso   1.000  O
  Zr9      1.0000 0.63774  0.02109  0.29053  Biso   1.000  Zr
  Zr10     1.0000 0.64639  0.22926  0.79719  Biso   1.000  Zr
  Zr11     1.0000 0.86179  0.27243  0.21268  Biso   1.000  Zr
  Zr12     1.0000 0.86105  0.47919  0.71083  Biso   1.000  Zr
  O17      1.0000 0.53481  0.16865  0.15824  Biso   1.000  O
  O18      1.0000 0.53848  0.07433  0.67209  Biso   1.000  O
  O19      1.0000 0.96186  0.42224  0.33866  Biso   1.000  O
  O20      1.0000 0.96342  0.33232  0.84105  Biso   1.000  O
  O21      1.0000 0.77560  0.12934  0.48208  Biso   1.000  O
  O22      1.0000 0.77794  0.12057  0.98447  Biso   1.000  O
  O23      1.0000 0.72474  0.37898  0.02368  Biso   1.000  O
  O24      1.0000 0.72414  0.37172  0.52181  Biso   1.000  O
  Zr13     1.0000 0.63795  0.52314  0.29270  Biso   1.000  Zr
  Zr14     1.0000 0.63810  0.72732  0.79116  Biso   1.000  Zr
  Zr15     1.0000 0.85877  0.77219  0.21009  Biso   1.000  Zr
  Zr16     1.0000 0.86103  0.97855  0.71019  Biso   1.000  Zr
  O25      1.0000 0.53592  0.67104  0.16112  Biso   1.000  O
  O26      1.0000 0.53308  0.58267  0.65797  Biso   1.000  O
  O27      1.0000 0.96366  0.92061  0.33898  Biso   1.000  O
  O28      1.0000 0.96263  0.83218  0.84077  Biso   1.000  O
  O29      1.0000 0.77495  0.63018  0.48246  Biso   1.000  O
  O30      1.0000 0.77432  0.62154  0.98197  Biso   1.000  O
  O31      1.0000 0.72260  0.87998  0.02049  Biso   1.000  O
  O32      1.0000 0.72314  0.87173  0.52041  Biso   1.000  O
  Ni1      1.0000 0.40888  0.21357  0.66013  Biso   1.000  Ni
