data_image0
_cell_length_a       5.07198
_cell_length_b       10.2544
_cell_length_c       10.4832
_cell_angle_alpha    90.0743
_cell_angle_beta     81.0758
_cell_angle_gamma    89.2045

_symmetry_space_group_name_H-M    "P 1"
_symmetry_int_tables_number       1

loop_
  _symmetry_equiv_pos_as_xyz
  'x, y, z'

loop_
  _atom_site_label
  _atom_site_occupancy
  _atom_site_fract_x
  _atom_site_fract_y
  _atom_site_fract_z
  _atom_site_thermal_displace_type
  _atom_site_B_iso_or_equiv
  _atom_site_type_symbol
  Ni1      1.0000 0.24335  0.00997  0.17079  Biso   1.000  Ni
  Zr1      1.0000 0.27312  0.02068  0.64287  Biso   1.000  Zr
  Zr2      1.0000 0.27647  0.52210  0.14441  Biso   1.000  Zr
  Zr3      1.0000 0.28053  0.52008  0.64822  Biso   1.000  Zr
  Zr4      1.0000 0.27748  0.22956  0.38812  Biso   1.000  Zr
  Zr5      1.0000 0.29137  0.22439  0.89793  Biso   1.000  Zr
  Zr6      1.0000 0.26916  0.72742  0.39699  Biso   1.000  Zr
  Zr7      1.0000 0.27276  0.73347  0.89790  Biso   1.000  Zr
  Zr8      1.0000 0.73583  0.26150  0.10477  Biso   1.000  Zr
  Zr9      1.0000 0.72301  0.27143  0.60387  Biso   1.000  Zr
  Zr10     1.0000 0.71323  0.77863  0.10358  Biso   1.000  Zr
  Zr11     1.0000 0.71821  0.77039  0.60782  Biso   1.000  Zr
  Zr12     1.0000 0.72246  0.47959  0.35373  Biso   1.000  Zr
  Zr13     1.0000 0.72954  0.47771  0.85932  Biso   1.000  Zr
  Zr14     1.0000 0.70760  0.97665  0.35222  Biso   1.000  Zr
  Zr15     1.0000 0.72301  0.98534  0.85534  Biso   1.000  Zr
  O1       1.0000 0.09712  0.14958  0.08426  Biso   1.000  O
  O2       1.0000 0.06639  0.16178  0.56745  Biso   1.000  O
  O3       1.0000 0.06630  0.67058  0.08032  Biso   1.000  O
  O4       1.0000 0.06701  0.66545  0.57924  Biso   1.000  O
  O5       1.0000 0.06076  0.08098  0.31971  Biso   1.000  O
  O6       1.0000 0.07649  0.08460  0.82378  Biso   1.000  O
  O7       1.0000 0.07304  0.57881  0.33056  Biso   1.000  O
  O8       1.0000 0.07186  0.58552  0.83034  Biso   1.000  O
  O9       1.0000 0.93789  0.41495  0.17300  Biso   1.000  O
  O10      1.0000 0.93810  0.41213  0.67636  Biso   1.000  O
  O11      1.0000 0.93313  0.91939  0.17198  Biso   1.000  O
  O12      1.0000 0.92922  0.91635  0.67096  Biso   1.000  O
  O13      1.0000 0.93031  0.33251  0.42104  Biso   1.000  O
  O14      1.0000 0.95352  0.33675  0.93202  Biso   1.000  O
  O15      1.0000 0.91993  0.83111  0.42099  Biso   1.000  O
  O16      1.0000 0.91598  0.83236  0.92188  Biso   1.000  O
  O17      1.0000 0.52053  0.11585  0.22710  Biso   1.000  O
  O18      1.0000 0.55163  0.12710  0.73142  Biso   1.000  O
  O19      1.0000 0.55024  0.63353  0.24185  Biso   1.000  O
  O20      1.0000 0.55303  0.62801  0.74302  Biso   1.000  O
  O21      1.0000 0.55464  0.12246  0.48115  Biso   1.000  O
  O22      1.0000 0.60149  0.14021  0.97061  Biso   1.000  O
  O23      1.0000 0.55045  0.62003  0.49263  Biso   1.000  O
  O24      1.0000 0.55146  0.62778  0.99192  Biso   1.000  O
  O25      1.0000 0.46197  0.38201  0.01200  Biso   1.000  O
  O26      1.0000 0.44575  0.37726  0.50898  Biso   1.000  O
  O27      1.0000 0.43572  0.90094  0.01899  Biso   1.000  O
  O28      1.0000 0.44178  0.87741  0.50854  Biso   1.000  O
  O29      1.0000 0.46096  0.36724  0.25841  Biso   1.000  O
  O30      1.0000 0.45724  0.37052  0.76215  Biso   1.000  O
  O31      1.0000 0.42230  0.87616  0.25739  Biso   1.000  O
  O32      1.0000 0.44664  0.87171  0.76207  Biso   1.000  O
