data_image0
_cell_length_a       10.0524
_cell_length_b       10.4509
_cell_length_c       10.0857
_cell_angle_alpha    89.9257
_cell_angle_beta     89.6845
_cell_angle_gamma    90.0176

_symmetry_space_group_name_H-M    "P 1"
_symmetry_int_tables_number       1

loop_
  _symmetry_equiv_pos_as_xyz
  'x, y, z'

loop_
  _atom_site_label
  _atom_site_occupancy
  _atom_site_fract_x
  _atom_site_fract_y
  _atom_site_fract_z
  _atom_site_thermal_displace_type
  _atom_site_B_iso_or_equiv
  _atom_site_type_symbol
  Zr1      1.0000 0.13548  0.01823  0.12432  Biso   1.000  Zr
  Zr2      1.0000 0.13660  0.23150  0.38397  Biso   1.000  Zr
  Zr3      1.0000 0.36874  0.26323  0.12524  Biso   1.000  Zr
  Zr4      1.0000 0.36778  0.48423  0.37718  Biso   1.000  Zr
  O1       1.0000 0.01813  0.17019  0.21386  Biso   1.000  O
  O2       1.0000 0.03654  0.06460  0.45049  Biso   1.000  O
  O3       1.0000 0.46544  0.43282  0.19470  Biso   1.000  O
  O4       1.0000 0.46628  0.31728  0.44741  Biso   1.000  O
  O5       1.0000 0.26821  0.11699  0.25214  Biso   1.000  O
  O6       1.0000 0.27236  0.13187  0.50207  Biso   1.000  O
  O7       1.0000 0.23258  0.38266  0.50333  Biso   1.000  O
  O8       1.0000 0.23533  0.36976  0.25589  Biso   1.000  O
  Zr5      1.0000 0.13454  0.01434  0.62800  Biso   1.000  Zr
  Zr6      1.0000 0.13335  0.22940  0.87583  Biso   1.000  Zr
  Zr7      1.0000 0.36664  0.26650  0.62849  Biso   1.000  Zr
  Zr8      1.0000 0.36531  0.48335  0.87629  Biso   1.000  Zr
  O9       1.0000 0.03538  0.18198  0.69373  Biso   1.000  O
  O10      1.0000 0.03563  0.06268  0.94488  Biso   1.000  O
  O11      1.0000 0.46445  0.43447  0.69628  Biso   1.000  O
  O12      1.0000 0.46215  0.31558  0.94292  Biso   1.000  O
  O13      1.0000 0.26920  0.11608  0.74955  Biso   1.000  O
  O14      1.0000 0.28013  0.12524  0.99578  Biso   1.000  O
  O15      1.0000 0.22392  0.37960  0.00430  Biso   1.000  O
  O16      1.0000 0.23014  0.36701  0.75231  Biso   1.000  O
  Zr9      1.0000 0.13538  0.53038  0.12678  Biso   1.000  Zr
  Zr10     1.0000 0.13570  0.73647  0.37842  Biso   1.000  Zr
  Zr11     1.0000 0.36742  0.76762  0.12653  Biso   1.000  Zr
  Zr12     1.0000 0.36713  0.98423  0.37670  Biso   1.000  Zr
  O17      1.0000 0.03404  0.68610  0.19863  Biso   1.000  O
  O18      1.0000 0.03769  0.56645  0.44300  Biso   1.000  O
  O19      1.0000 0.46404  0.93381  0.19509  Biso   1.000  O
  O20      1.0000 0.46593  0.81592  0.44379  Biso   1.000  O
  O21      1.0000 0.27325  0.62195  0.25097  Biso   1.000  O
  O22      1.0000 0.27061  0.63269  0.50014  Biso   1.000  O
  O23      1.0000 0.23216  0.88270  0.50019  Biso   1.000  O
  O24      1.0000 0.23056  0.86880  0.24984  Biso   1.000  O
  Zr13     1.0000 0.13427  0.51565  0.62635  Biso   1.000  Zr
  Zr14     1.0000 0.13379  0.73521  0.87436  Biso   1.000  Zr
  Zr15     1.0000 0.36829  0.76484  0.62532  Biso   1.000  Zr
  Zr16     1.0000 0.36790  0.98207  0.87516  Biso   1.000  Zr
  O25      1.0000 0.03649  0.68427  0.69349  Biso   1.000  O
  O26      1.0000 0.03537  0.56743  0.94593  Biso   1.000  O
  O27      1.0000 0.46616  0.93294  0.69252  Biso   1.000  O
  O28      1.0000 0.46621  0.81624  0.94564  Biso   1.000  O
  O29      1.0000 0.26973  0.61625  0.74991  Biso   1.000  O
  O30      1.0000 0.27061  0.63384  0.99888  Biso   1.000  O
  O31      1.0000 0.22971  0.88064  0.99951  Biso   1.000  O
  O32      1.0000 0.23277  0.86581  0.74916  Biso   1.000  O
  Zr17     1.0000 0.63289  0.01380  0.12441  Biso   1.000  Zr
  Zr18     1.0000 0.63415  0.23374  0.37606  Biso   1.000  Zr
  Zr19     1.0000 0.85626  0.26358  0.11965  Biso   1.000  Zr
  Zr20     1.0000 0.86880  0.48317  0.37462  Biso   1.000  Zr
  O33      1.0000 0.53491  0.18158  0.19589  Biso   1.000  O
  O34      1.0000 0.53639  0.06610  0.44466  Biso   1.000  O
  O35      1.0000 0.96657  0.43030  0.19005  Biso   1.000  O
  O36      1.0000 0.96782  0.31802  0.44675  Biso   1.000  O
  O37      1.0000 0.76499  0.11470  0.24757  Biso   1.000  O
  O38      1.0000 0.77110  0.13448  0.49760  Biso   1.000  O
  O39      1.0000 0.73243  0.38339  0.49767  Biso   1.000  O
  O40      1.0000 0.73061  0.36677  0.24853  Biso   1.000  O
  Zr21     1.0000 0.63533  0.01537  0.62411  Biso   1.000  Zr
  Zr22     1.0000 0.63261  0.23324  0.87306  Biso   1.000  Zr
  Zr23     1.0000 0.86713  0.26635  0.62644  Biso   1.000  Zr
  Zr24     1.0000 0.86591  0.48361  0.87418  Biso   1.000  Zr
  O41      1.0000 0.53590  0.18322  0.69382  Biso   1.000  O
  O42      1.0000 0.53792  0.06488  0.94252  Biso   1.000  O
  O43      1.0000 0.96344  0.43582  0.69176  Biso   1.000  O
  O44      1.0000 0.95237  0.31284  0.92866  Biso   1.000  O
  O45      1.0000 0.76972  0.11626  0.74773  Biso   1.000  O
  O46      1.0000 0.76763  0.13058  0.99678  Biso   1.000  O
  O47      1.0000 0.72515  0.38199  0.99810  Biso   1.000  O
  O48      1.0000 0.72854  0.36752  0.74706  Biso   1.000  O
  Zr25     1.0000 0.63338  0.51643  0.12595  Biso   1.000  Zr
  Zr26     1.0000 0.63568  0.73398  0.37524  Biso   1.000  Zr
  Zr27     1.0000 0.86502  0.76587  0.12450  Biso   1.000  Zr
  Zr28     1.0000 0.86912  0.98580  0.37265  Biso   1.000  Zr
  O49      1.0000 0.53707  0.68436  0.19414  Biso   1.000  O
  O50      1.0000 0.53721  0.56633  0.44402  Biso   1.000  O
  O51      1.0000 0.96531  0.93071  0.19323  Biso   1.000  O
  O52      1.0000 0.96594  0.81766  0.44517  Biso   1.000  O
  O53      1.0000 0.77100  0.61581  0.24826  Biso   1.000  O
  O54      1.0000 0.77115  0.63295  0.49787  Biso   1.000  O
  O55      1.0000 0.73293  0.88411  0.49738  Biso   1.000  O
  O56      1.0000 0.73074  0.86627  0.24805  Biso   1.000  O
  Zr29     1.0000 0.63484  0.51513  0.62459  Biso   1.000  Zr
  Zr30     1.0000 0.63428  0.73274  0.87487  Biso   1.000  Zr
  Zr31     1.0000 0.86684  0.76542  0.62444  Biso   1.000  Zr
  Zr32     1.0000 0.86578  0.98255  0.87421  Biso   1.000  Zr
  O57      1.0000 0.53640  0.68309  0.69413  Biso   1.000  O
  O58      1.0000 0.53388  0.56595  0.94417  Biso   1.000  O
  O59      1.0000 0.96585  0.93147  0.69672  Biso   1.000  O
  O60      1.0000 0.96355  0.81466  0.94357  Biso   1.000  O
  O61      1.0000 0.76941  0.61660  0.74756  Biso   1.000  O
  O62      1.0000 0.76848  0.63198  0.99823  Biso   1.000  O
  O63      1.0000 0.73065  0.88150  0.99825  Biso   1.000  O
  O64      1.0000 0.73086  0.86619  0.74802  Biso   1.000  O
  Ni1      1.0000 0.10633  0.29364  0.12261  Biso   1.000  Ni
