data_image0
_cell_length_a       5.03958
_cell_length_b       10.4743
_cell_length_c       10.1025
_cell_angle_alpha    89.8837
_cell_angle_beta     89.4101
_cell_angle_gamma    90.0144

_symmetry_space_group_name_H-M    "P 1"
_symmetry_int_tables_number       1

loop_
  _symmetry_equiv_pos_as_xyz
  'x, y, z'

loop_
  _atom_site_label
  _atom_site_occupancy
  _atom_site_fract_x
  _atom_site_fract_y
  _atom_site_fract_z
  _atom_site_thermal_displace_type
  _atom_site_B_iso_or_equiv
  _atom_site_type_symbol
  Zr1      1.0000 0.26817  0.01659  0.12285  Biso   1.000  Zr
  Zr2      1.0000 0.27396  0.23141  0.38399  Biso   1.000  Zr
  Zr3      1.0000 0.71633  0.25927  0.11887  Biso   1.000  Zr
  Zr4      1.0000 0.74074  0.48291  0.37571  Biso   1.000  Zr
  O1       1.0000 0.03531  0.16936  0.21487  Biso   1.000  O
  O2       1.0000 0.07501  0.06461  0.45037  Biso   1.000  O
  O3       1.0000 0.93599  0.42965  0.19034  Biso   1.000  O
  O4       1.0000 0.93926  0.31899  0.44940  Biso   1.000  O
  O5       1.0000 0.52685  0.11446  0.25054  Biso   1.000  O
  O6       1.0000 0.54790  0.13340  0.50041  Biso   1.000  O
  O7       1.0000 0.46929  0.38302  0.50156  Biso   1.000  O
  O8       1.0000 0.47264  0.36893  0.25479  Biso   1.000  O
  Zr5      1.0000 0.27225  0.01435  0.62633  Biso   1.000  Zr
  Zr6      1.0000 0.26482  0.22886  0.87381  Biso   1.000  Zr
  Zr7      1.0000 0.73529  0.26718  0.62925  Biso   1.000  Zr
  Zr8      1.0000 0.73163  0.48336  0.87396  Biso   1.000  Zr
  O9       1.0000 0.07141  0.18166  0.69333  Biso   1.000  O
  O10      1.0000 0.07639  0.06154  0.94261  Biso   1.000  O
  O11      1.0000 0.92731  0.43680  0.69299  Biso   1.000  O
  O12      1.0000 0.90203  0.31303  0.92763  Biso   1.000  O
  O13      1.0000 0.53887  0.11566  0.74822  Biso   1.000  O
  O14      1.0000 0.55723  0.12250  0.99343  Biso   1.000  O
  O15      1.0000 0.43952  0.37889  0.00269  Biso   1.000  O
  O16      1.0000 0.45654  0.36788  0.75005  Biso   1.000  O
  Zr9      1.0000 0.26996  0.53046  0.12634  Biso   1.000  Zr
  Zr10     1.0000 0.27515  0.73617  0.37740  Biso   1.000  Zr
  Zr11     1.0000 0.73229  0.76775  0.12507  Biso   1.000  Zr
  Zr12     1.0000 0.74025  0.98578  0.37370  Biso   1.000  Zr
  O17      1.0000 0.07128  0.68687  0.19757  Biso   1.000  O
  O18      1.0000 0.07844  0.56673  0.44218  Biso   1.000  O
  O19      1.0000 0.93006  0.93108  0.19343  Biso   1.000  O
  O20      1.0000 0.93509  0.81744  0.44403  Biso   1.000  O
  O21      1.0000 0.54858  0.62045  0.24944  Biso   1.000  O
  O22      1.0000 0.54435  0.63270  0.49838  Biso   1.000  O
  O23      1.0000 0.46938  0.88389  0.49817  Biso   1.000  O
  O24      1.0000 0.46213  0.86797  0.24845  Biso   1.000  O
  Zr13     1.0000 0.27071  0.51520  0.62481  Biso   1.000  Zr
  Zr14     1.0000 0.26896  0.73390  0.87322  Biso   1.000  Zr
  Zr15     1.0000 0.73805  0.76462  0.62359  Biso   1.000  Zr
  Zr16     1.0000 0.73554  0.98005  0.87332  Biso   1.000  Zr
  O25      1.0000 0.07438  0.68367  0.69298  Biso   1.000  O
  O26      1.0000 0.06863  0.56726  0.94521  Biso   1.000  O
  O27      1.0000 0.93561  0.93073  0.69443  Biso   1.000  O
  O28      1.0000 0.93078  0.81471  0.94430  Biso   1.000  O
  O29      1.0000 0.53911  0.61624  0.74777  Biso   1.000  O
  O30      1.0000 0.53953  0.63302  0.99744  Biso   1.000  O
  O31      1.0000 0.45988  0.87936  0.99842  Biso   1.000  O
  O32      1.0000 0.46679  0.86522  0.74774  Biso   1.000  O
  Ni1      1.0000 0.20826  0.29356  0.12241  Biso   1.000  Ni
