data_image0
_cell_length_a       10.1967
_cell_length_b       5.20255
_cell_length_c       10.5327
_cell_angle_alpha    90.4659
_cell_angle_beta     80.2971
_cell_angle_gamma    90.2011

_symmetry_space_group_name_H-M    "P 1"
_symmetry_int_tables_number       1

loop_
  _symmetry_equiv_pos_as_xyz
  'x, y, z'

loop_
  _atom_site_label
  _atom_site_occupancy
  _atom_site_fract_x
  _atom_site_fract_y
  _atom_site_fract_z
  _atom_site_thermal_displace_type
  _atom_site_B_iso_or_equiv
  _atom_site_type_symbol
  Zr1      1.0000 0.13644  0.04887  0.14549  Biso   1.000  Zr
  Zr2      1.0000 0.13889  0.45960  0.39788  Biso   1.000  Zr
  Zr3      1.0000 0.36004  0.55171  0.10219  Biso   1.000  Zr
  Zr4      1.0000 0.35504  0.93272  0.35326  Biso   1.000  Zr
  O1       1.0000 0.03335  0.34656  0.08065  Biso   1.000  O
  O2       1.0000 0.03456  0.16719  0.32865  Biso   1.000  O
  O3       1.0000 0.45951  0.85923  0.16427  Biso   1.000  O
  O4       1.0000 0.47327  0.67441  0.42635  Biso   1.000  O
  O5       1.0000 0.27981  0.26503  0.24373  Biso   1.000  O
  O6       1.0000 0.27184  0.22530  0.49505  Biso   1.000  O
  O7       1.0000 0.22202  0.76534  0.00790  Biso   1.000  O
  O8       1.0000 0.21041  0.75361  0.25600  Biso   1.000  O
  Zr5      1.0000 0.13709  0.04158  0.64766  Biso   1.000  Zr
  Zr6      1.0000 0.13648  0.46108  0.89719  Biso   1.000  Zr
  Zr7      1.0000 0.35984  0.53952  0.60975  Biso   1.000  Zr
  Zr8      1.0000 0.35967  0.96020  0.85626  Biso   1.000  Zr
  O9       1.0000 0.03382  0.33697  0.58147  Biso   1.000  O
  O10      1.0000 0.03432  0.16294  0.83157  Biso   1.000  O
  O11      1.0000 0.46387  0.83502  0.67223  Biso   1.000  O
  O12      1.0000 0.46419  0.66608  0.91911  Biso   1.000  O
  O13      1.0000 0.27509  0.25902  0.74333  Biso   1.000  O
  O14      1.0000 0.27377  0.24774  0.99221  Biso   1.000  O
  O15      1.0000 0.22304  0.74788  0.51431  Biso   1.000  O
  O16      1.0000 0.22327  0.74287  0.76094  Biso   1.000  O
  Zr9      1.0000 0.63783  0.04647  0.14460  Biso   1.000  Zr
  Zr10     1.0000 0.64662  0.45483  0.39808  Biso   1.000  Zr
  Zr11     1.0000 0.85918  0.54614  0.10481  Biso   1.000  Zr
  Zr12     1.0000 0.86269  0.95658  0.35451  Biso   1.000  Zr
  O17      1.0000 0.53563  0.34426  0.07899  Biso   1.000  O
  O18      1.0000 0.53771  0.14886  0.33429  Biso   1.000  O
  O19      1.0000 0.96218  0.84706  0.16728  Biso   1.000  O
  O20      1.0000 0.96407  0.66592  0.42161  Biso   1.000  O
  O21      1.0000 0.77581  0.26051  0.24060  Biso   1.000  O
  O22      1.0000 0.77776  0.23891  0.49204  Biso   1.000  O
  O23      1.0000 0.72253  0.76221  0.01044  Biso   1.000  O
  O24      1.0000 0.72411  0.74335  0.26031  Biso   1.000  O
  Zr13     1.0000 0.63782  0.04228  0.64641  Biso   1.000  Zr
  Zr14     1.0000 0.63769  0.45960  0.89563  Biso   1.000  Zr
  Zr15     1.0000 0.86144  0.54318  0.60655  Biso   1.000  Zr
  Zr16     1.0000 0.85973  0.95933  0.85590  Biso   1.000  Zr
  O25      1.0000 0.53509  0.33494  0.58009  Biso   1.000  O
  O26      1.0000 0.53395  0.16502  0.82992  Biso   1.000  O
  O27      1.0000 0.96338  0.83898  0.67150  Biso   1.000  O
  O28      1.0000 0.96207  0.66314  0.91945  Biso   1.000  O
  O29      1.0000 0.77461  0.25893  0.74140  Biso   1.000  O
  O30      1.0000 0.77456  0.24568  0.99080  Biso   1.000  O
  O31      1.0000 0.72482  0.75581  0.51138  Biso   1.000  O
  O32      1.0000 0.72324  0.74387  0.76068  Biso   1.000  O
  Ni1      1.0000 0.40714  0.42385  0.33028  Biso   1.000  Ni
