data_image0
_cell_length_a       10.1421
_cell_length_b       10.2572
_cell_length_c       5.23895
_cell_angle_alpha    90.0549
_cell_angle_beta     81.049
_cell_angle_gamma    89.274

_symmetry_space_group_name_H-M    "P 1"
_symmetry_int_tables_number       1

loop_
  _symmetry_equiv_pos_as_xyz
  'x, y, z'

loop_
  _atom_site_label
  _atom_site_occupancy
  _atom_site_fract_x
  _atom_site_fract_y
  _atom_site_fract_z
  _atom_site_thermal_displace_type
  _atom_site_B_iso_or_equiv
  _atom_site_type_symbol
  Ni1      1.0000 0.12206  0.00841  0.33517  Biso   1.000  Ni
  Zr1      1.0000 0.14110  0.52235  0.29328  Biso   1.000  Zr
  Zr2      1.0000 0.63775  0.02205  0.29131  Biso   1.000  Zr
  Zr3      1.0000 0.63727  0.51991  0.29162  Biso   1.000  Zr
  Zr4      1.0000 0.14297  0.22347  0.77855  Biso   1.000  Zr
  Zr5      1.0000 0.13619  0.73261  0.79506  Biso   1.000  Zr
  Zr6      1.0000 0.64048  0.23061  0.79353  Biso   1.000  Zr
  Zr7      1.0000 0.63522  0.72845  0.79415  Biso   1.000  Zr
  Zr8      1.0000 0.35798  0.26892  0.19989  Biso   1.000  Zr
  Zr9      1.0000 0.35534  0.77926  0.20791  Biso   1.000  Zr
  Zr10     1.0000 0.87089  0.26389  0.21785  Biso   1.000  Zr
  Zr11     1.0000 0.86013  0.76983  0.21330  Biso   1.000  Zr
  Zr12     1.0000 0.36154  0.48066  0.70924  Biso   1.000  Zr
  Zr13     1.0000 0.35857  0.98501  0.70288  Biso   1.000  Zr
  Zr14     1.0000 0.86365  0.47657  0.71675  Biso   1.000  Zr
  Zr15     1.0000 0.85740  0.97704  0.71260  Biso   1.000  Zr
  O1       1.0000 0.04754  0.14513  0.15190  Biso   1.000  O
  O2       1.0000 0.03425  0.66690  0.16108  Biso   1.000  O
  O3       1.0000 0.53542  0.16882  0.15751  Biso   1.000  O
  O4       1.0000 0.53264  0.66949  0.15751  Biso   1.000  O
  O5       1.0000 0.03450  0.07928  0.63500  Biso   1.000  O
  O6       1.0000 0.03707  0.58145  0.66526  Biso   1.000  O
  O7       1.0000 0.53769  0.08211  0.65738  Biso   1.000  O
  O8       1.0000 0.53491  0.58311  0.65641  Biso   1.000  O
  O9       1.0000 0.46442  0.41728  0.34333  Biso   1.000  O
  O10      1.0000 0.46389  0.91876  0.34276  Biso   1.000  O
  O11      1.0000 0.97200  0.41096  0.35417  Biso   1.000  O
  O12      1.0000 0.96656  0.91743  0.34433  Biso   1.000  O
  O13      1.0000 0.47206  0.34131  0.84858  Biso   1.000  O
  O14      1.0000 0.45651  0.83177  0.83776  Biso   1.000  O
  O15      1.0000 0.96917  0.32687  0.85695  Biso   1.000  O
  O16      1.0000 0.96064  0.83061  0.84743  Biso   1.000  O
  O17      1.0000 0.26045  0.11566  0.43655  Biso   1.000  O
  O18      1.0000 0.27490  0.63477  0.48364  Biso   1.000  O
  O19      1.0000 0.77662  0.12713  0.48265  Biso   1.000  O
  O20      1.0000 0.77644  0.62691  0.48575  Biso   1.000  O
  O21      1.0000 0.29965  0.14423  0.91739  Biso   1.000  O
  O22      1.0000 0.27512  0.62702  0.98319  Biso   1.000  O
  O23      1.0000 0.77859  0.11997  0.98357  Biso   1.000  O
  O24      1.0000 0.77541  0.62059  0.98509  Biso   1.000  O
  O25      1.0000 0.22336  0.38353  0.01512  Biso   1.000  O
  O26      1.0000 0.21814  0.90041  0.03227  Biso   1.000  O
  O27      1.0000 0.73042  0.37609  0.02673  Biso   1.000  O
  O28      1.0000 0.72014  0.87802  0.02160  Biso   1.000  O
  O29      1.0000 0.22829  0.36773  0.51757  Biso   1.000  O
  O30      1.0000 0.20956  0.87698  0.51453  Biso   1.000  O
  O31      1.0000 0.72944  0.37002  0.52317  Biso   1.000  O
  O32      1.0000 0.72566  0.87062  0.52077  Biso   1.000  O
