data_image0
_cell_length_a       4.99877
_cell_length_b       10.4075
_cell_length_c       10.0308
_cell_angle_alpha    90.7422
_cell_angle_beta     88.705
_cell_angle_gamma    90.5159

_symmetry_space_group_name_H-M    "P 1"
_symmetry_int_tables_number       1

loop_
  _symmetry_equiv_pos_as_xyz
  'x, y, z'

loop_
  _atom_site_label
  _atom_site_occupancy
  _atom_site_fract_x
  _atom_site_fract_y
  _atom_site_fract_z
  _atom_site_thermal_displace_type
  _atom_site_B_iso_or_equiv
  _atom_site_type_symbol
  Ni1      1.0000 0.24593  0.04118  0.10317  Biso   1.000  Ni
  Zr1      1.0000 0.26448  0.01390  0.62352  Biso   1.000  Zr
  Zr2      1.0000 0.27160  0.51509  0.12905  Biso   1.000  Zr
  Zr3      1.0000 0.26964  0.51770  0.62449  Biso   1.000  Zr
  Zr4      1.0000 0.27338  0.22749  0.37320  Biso   1.000  Zr
  Zr5      1.0000 0.25561  0.24005  0.87181  Biso   1.000  Zr
  Zr6      1.0000 0.28430  0.73539  0.37724  Biso   1.000  Zr
  Zr7      1.0000 0.25952  0.73842  0.88055  Biso   1.000  Zr
  Zr8      1.0000 0.72797  0.26090  0.12151  Biso   1.000  Zr
  Zr9      1.0000 0.73157  0.26506  0.62313  Biso   1.000  Zr
  Zr10     1.0000 0.75560  0.76429  0.12372  Biso   1.000  Zr
  Zr11     1.0000 0.73866  0.76913  0.62728  Biso   1.000  Zr
  Zr12     1.0000 0.73962  0.48199  0.37548  Biso   1.000  Zr
  Zr13     1.0000 0.72661  0.48977  0.87374  Biso   1.000  Zr
  Zr14     1.0000 0.74686  0.98396  0.36612  Biso   1.000  Zr
  Zr15     1.0000 0.70901  0.98612  0.88023  Biso   1.000  Zr
  O1       1.0000 0.07220  0.17832  0.18760  Biso   1.000  O
  O2       1.0000 0.06492  0.18404  0.69707  Biso   1.000  O
  O3       1.0000 0.07917  0.68279  0.20024  Biso   1.000  O
  O4       1.0000 0.06778  0.68355  0.69985  Biso   1.000  O
  O5       1.0000 0.07305  0.06689  0.44957  Biso   1.000  O
  O6       1.0000 0.04444  0.07013  0.95546  Biso   1.000  O
  O7       1.0000 0.07812  0.56470  0.44516  Biso   1.000  O
  O8       1.0000 0.05853  0.56985  0.95223  Biso   1.000  O
  O9       1.0000 0.93695  0.42417  0.19463  Biso   1.000  O
  O10      1.0000 0.92782  0.43399  0.69404  Biso   1.000  O
  O11      1.0000 0.98259  0.93954  0.18914  Biso   1.000  O
  O12      1.0000 0.92707  0.93645  0.70121  Biso   1.000  O
  O13      1.0000 0.93394  0.31329  0.44184  Biso   1.000  O
  O14      1.0000 0.91009  0.31558  0.93966  Biso   1.000  O
  O15      1.0000 0.95064  0.82024  0.45225  Biso   1.000  O
  O16      1.0000 0.90532  0.81902  0.93776  Biso   1.000  O
  O17      1.0000 0.51612  0.10141  0.23913  Biso   1.000  O
  O18      1.0000 0.53172  0.11851  0.74936  Biso   1.000  O
  O19      1.0000 0.54799  0.60600  0.24825  Biso   1.000  O
  O20      1.0000 0.53337  0.61962  0.75125  Biso   1.000  O
  O21      1.0000 0.54679  0.13270  0.49347  Biso   1.000  O
  O22      1.0000 0.49977  0.13524  0.00037  Biso   1.000  O
  O23      1.0000 0.54769  0.63369  0.50024  Biso   1.000  O
  O24      1.0000 0.53011  0.63907  0.00061  Biso   1.000  O
  O25      1.0000 0.46350  0.38121  0.49813  Biso   1.000  O
  O26      1.0000 0.45427  0.38549  0.99730  Biso   1.000  O
  O27      1.0000 0.47518  0.88485  0.50245  Biso   1.000  O
  O28      1.0000 0.43197  0.89787  0.01335  Biso   1.000  O
  O29      1.0000 0.46629  0.35953  0.24724  Biso   1.000  O
  O30      1.0000 0.45626  0.36928  0.74733  Biso   1.000  O
  O31      1.0000 0.52741  0.84783  0.26092  Biso   1.000  O
  O32      1.0000 0.45435  0.86821  0.75407  Biso   1.000  O
