data_image0
_cell_length_a       10.0743
_cell_length_b       10.2835
_cell_length_c       10.47
_cell_angle_alpha    90.0303
_cell_angle_beta     90.4436
_cell_angle_gamma    89.7174

_symmetry_space_group_name_H-M    "P 1"
_symmetry_int_tables_number       1

loop_
  _symmetry_equiv_pos_as_xyz
  'x, y, z'

loop_
  _atom_site_label
  _atom_site_occupancy
  _atom_site_fract_x
  _atom_site_fract_y
  _atom_site_fract_z
  _atom_site_thermal_displace_type
  _atom_site_B_iso_or_equiv
  _atom_site_type_symbol
  Ni1      1.0000 0.12253  0.01182  0.19574  Biso   1.000  Ni
  Zr1      1.0000 0.13760  0.02057  0.66725  Biso   1.000  Zr
  Zr2      1.0000 0.13903  0.52305  0.17037  Biso   1.000  Zr
  Zr3      1.0000 0.13941  0.52045  0.67262  Biso   1.000  Zr
  Zr4      1.0000 0.13989  0.23164  0.41485  Biso   1.000  Zr
  Zr5      1.0000 0.14542  0.22314  0.92369  Biso   1.000  Zr
  Zr6      1.0000 0.13506  0.72861  0.42174  Biso   1.000  Zr
  Zr7      1.0000 0.13996  0.73373  0.92156  Biso   1.000  Zr
  Zr8      1.0000 0.35892  0.27003  0.16647  Biso   1.000  Zr
  Zr9      1.0000 0.36124  0.27153  0.66986  Biso   1.000  Zr
  Zr10     1.0000 0.35592  0.77792  0.16824  Biso   1.000  Zr
  Zr11     1.0000 0.36160  0.77148  0.67100  Biso   1.000  Zr
  Zr12     1.0000 0.36032  0.48017  0.42056  Biso   1.000  Zr
  Zr13     1.0000 0.36158  0.47936  0.92111  Biso   1.000  Zr
  Zr14     1.0000 0.35736  0.98108  0.41772  Biso   1.000  Zr
  Zr15     1.0000 0.36084  0.98211  0.92174  Biso   1.000  Zr
  Zr16     1.0000 0.63983  0.02227  0.07737  Biso   1.000  Zr
  Zr17     1.0000 0.63584  0.02061  0.57937  Biso   1.000  Zr
  Zr18     1.0000 0.63949  0.52070  0.07956  Biso   1.000  Zr
  Zr19     1.0000 0.63900  0.52036  0.58105  Biso   1.000  Zr
  Zr20     1.0000 0.63713  0.22944  0.32866  Biso   1.000  Zr
  Zr21     1.0000 0.64058  0.23014  0.83028  Biso   1.000  Zr
  Zr22     1.0000 0.63464  0.72775  0.32803  Biso   1.000  Zr
  Zr23     1.0000 0.63955  0.72936  0.83049  Biso   1.000  Zr
  Zr24     1.0000 0.87012  0.26467  0.08499  Biso   1.000  Zr
  Zr25     1.0000 0.86086  0.26978  0.57946  Biso   1.000  Zr
  Zr26     1.0000 0.86369  0.77205  0.07950  Biso   1.000  Zr
  Zr27     1.0000 0.85854  0.76954  0.58109  Biso   1.000  Zr
  Zr28     1.0000 0.85993  0.47934  0.32988  Biso   1.000  Zr
  Zr29     1.0000 0.86505  0.47603  0.83372  Biso   1.000  Zr
  Zr30     1.0000 0.85576  0.97680  0.33128  Biso   1.000  Zr
  Zr31     1.0000 0.86230  0.98020  0.82930  Biso   1.000  Zr
  O1       1.0000 0.04830  0.15213  0.09584  Biso   1.000  O
  O2       1.0000 0.03111  0.16060  0.57412  Biso   1.000  O
  O3       1.0000 0.03500  0.66949  0.08613  Biso   1.000  O
  O4       1.0000 0.03148  0.66432  0.58535  Biso   1.000  O
  O5       1.0000 0.03609  0.07672  0.33251  Biso   1.000  O
  O6       1.0000 0.03375  0.08560  0.83058  Biso   1.000  O
  O7       1.0000 0.03231  0.58230  0.33599  Biso   1.000  O
  O8       1.0000 0.03540  0.58338  0.83761  Biso   1.000  O
  O9       1.0000 0.46655  0.41867  0.08602  Biso   1.000  O
  O10      1.0000 0.46496  0.41989  0.58606  Biso   1.000  O
  O11      1.0000 0.46887  0.91744  0.08379  Biso   1.000  O
  O12      1.0000 0.46328  0.91934  0.58461  Biso   1.000  O
  O13      1.0000 0.46284  0.32873  0.33799  Biso   1.000  O
  O14      1.0000 0.46821  0.33379  0.83437  Biso   1.000  O
  O15      1.0000 0.45877  0.83191  0.33509  Biso   1.000  O
  O16      1.0000 0.46669  0.83230  0.83517  Biso   1.000  O
  O17      1.0000 0.26378  0.11654  0.27890  Biso   1.000  O
  O18      1.0000 0.27546  0.12189  0.78622  Biso   1.000  O
  O19      1.0000 0.27370  0.62860  0.29440  Biso   1.000  O
  O20      1.0000 0.27648  0.62434  0.79438  Biso   1.000  O
  O21      1.0000 0.30085  0.14433  0.02595  Biso   1.000  O
  O22      1.0000 0.27573  0.12843  0.53702  Biso   1.000  O
  O23      1.0000 0.27723  0.63195  0.04350  Biso   1.000  O
  O24      1.0000 0.27458  0.62567  0.54495  Biso   1.000  O
  O25      1.0000 0.22424  0.37549  0.29390  Biso   1.000  O
  O26      1.0000 0.22569  0.37253  0.79545  Biso   1.000  O
  O27      1.0000 0.21072  0.87961  0.29077  Biso   1.000  O
  O28      1.0000 0.22410  0.87425  0.79479  Biso   1.000  O
  O29      1.0000 0.22178  0.38208  0.04464  Biso   1.000  O
  O30      1.0000 0.22234  0.37557  0.54317  Biso   1.000  O
  O31      1.0000 0.21958  0.88982  0.04829  Biso   1.000  O
  O32      1.0000 0.22304  0.87592  0.54268  Biso   1.000  O
  O33      1.0000 0.53589  0.16934  0.16299  Biso   1.000  O
  O34      1.0000 0.53458  0.16986  0.66257  Biso   1.000  O
  O35      1.0000 0.53156  0.66964  0.16319  Biso   1.000  O
  O36      1.0000 0.53510  0.66907  0.66338  Biso   1.000  O
  O37      1.0000 0.53145  0.08074  0.41165  Biso   1.000  O
  O38      1.0000 0.53914  0.07995  0.91036  Biso   1.000  O
  O39      1.0000 0.53311  0.58124  0.41340  Biso   1.000  O
  O40      1.0000 0.53584  0.58147  0.91383  Biso   1.000  O
  O41      1.0000 0.96792  0.41654  0.16704  Biso   1.000  O
  O42      1.0000 0.96941  0.41108  0.67000  Biso   1.000  O
  O43      1.0000 0.96929  0.92104  0.16838  Biso   1.000  O
  O44      1.0000 0.96654  0.91433  0.66629  Biso   1.000  O
  O45      1.0000 0.96502  0.33086  0.41373  Biso   1.000  O
  O46      1.0000 0.97168  0.32899  0.92420  Biso   1.000  O
  O47      1.0000 0.96259  0.83239  0.41751  Biso   1.000  O
  O48      1.0000 0.96637  0.83392  0.91628  Biso   1.000  O
  O49      1.0000 0.77982  0.12435  0.95688  Biso   1.000  O
  O50      1.0000 0.77427  0.12263  0.45535  Biso   1.000  O
  O51      1.0000 0.77862  0.62442  0.95807  Biso   1.000  O
  O52      1.0000 0.77395  0.62356  0.45643  Biso   1.000  O
  O53      1.0000 0.77705  0.12442  0.20683  Biso   1.000  O
  O54      1.0000 0.77620  0.12590  0.70497  Biso   1.000  O
  O55      1.0000 0.77472  0.62593  0.20654  Biso   1.000  O
  O56      1.0000 0.77730  0.62406  0.70821  Biso   1.000  O
  O57      1.0000 0.72876  0.37286  0.95847  Biso   1.000  O
  O58      1.0000 0.72391  0.37354  0.45719  Biso   1.000  O
  O59      1.0000 0.72562  0.87425  0.95585  Biso   1.000  O
  O60      1.0000 0.71947  0.87256  0.45569  Biso   1.000  O
  O61      1.0000 0.72623  0.37386  0.20671  Biso   1.000  O
  O62      1.0000 0.72600  0.37606  0.70735  Biso   1.000  O
  O63      1.0000 0.72709  0.87564  0.20589  Biso   1.000  O
  O64      1.0000 0.72356  0.87613  0.70598  Biso   1.000  O
