data_image0
_cell_length_a       5.02255
_cell_length_b       10.1972
_cell_length_c       10.0304
_cell_angle_alpha    90.0017
_cell_angle_beta     88.4164
_cell_angle_gamma    90.0067

_symmetry_space_group_name_H-M    "P 1"
_symmetry_int_tables_number       1

loop_
  _symmetry_equiv_pos_as_xyz
  'x, y, z'

loop_
  _atom_site_label
  _atom_site_occupancy
  _atom_site_fract_x
  _atom_site_fract_y
  _atom_site_fract_z
  _atom_site_thermal_displace_type
  _atom_site_B_iso_or_equiv
  _atom_site_type_symbol
  Ni1      1.0000 0.25014  0.96321  0.12551  Biso   1.000  Ni
  Zr1      1.0000 0.25009  0.99956  0.62553  Biso   1.000  Zr
  Zr2      1.0000 0.25008  0.50642  0.12548  Biso   1.000  Zr
  Zr3      1.0000 0.25012  0.49383  0.62546  Biso   1.000  Zr
  Zr4      1.0000 0.26761  0.24742  0.36924  Biso   1.000  Zr
  Zr5      1.0000 0.23252  0.24746  0.88167  Biso   1.000  Zr
  Zr6      1.0000 0.25881  0.74933  0.38212  Biso   1.000  Zr
  Zr7      1.0000 0.24149  0.74932  0.86881  Biso   1.000  Zr
  Zr8      1.0000 0.75000  0.25776  0.12546  Biso   1.000  Zr
  Zr9      1.0000 0.75008  0.24508  0.62547  Biso   1.000  Zr
  Zr10     1.0000 0.75011  0.75565  0.12547  Biso   1.000  Zr
  Zr11     1.0000 0.75017  0.74947  0.62547  Biso   1.000  Zr
  Zr12     1.0000 0.77940  0.00474  0.36887  Biso   1.000  Zr
  Zr13     1.0000 0.72082  0.00475  0.88216  Biso   1.000  Zr
  Zr14     1.0000 0.75598  0.49621  0.37818  Biso   1.000  Zr
  Zr15     1.0000 0.74424  0.49625  0.87277  Biso   1.000  Zr
  O1       1.0000 0.91387  0.16200  0.97179  Biso   1.000  O
  O2       1.0000 0.00908  0.14364  0.48878  Biso   1.000  O
  O3       1.0000 0.00376  0.65298  0.00270  Biso   1.000  O
  O4       1.0000 0.00255  0.64141  0.50169  Biso   1.000  O
  O5       1.0000 0.07104  0.09039  0.23106  Biso   1.000  O
  O6       1.0000 0.98197  0.10024  0.73821  Biso   1.000  O
  O7       1.0000 0.99316  0.60663  0.25170  Biso   1.000  O
  O8       1.0000 0.00066  0.60327  0.75123  Biso   1.000  O
  O9       1.0000 0.00981  0.35193  0.25133  Biso   1.000  O
  O10      1.0000 0.00068  0.35179  0.75169  Biso   1.000  O
  O11      1.0000 0.03488  0.85295  0.24182  Biso   1.000  O
  O12      1.0000 0.97491  0.85231  0.75893  Biso   1.000  O
  O13      1.0000 0.99627  0.40382  0.00370  Biso   1.000  O
  O14      1.0000 0.99675  0.39225  0.50323  Biso   1.000  O
  O15      1.0000 0.98024  0.91425  0.00881  Biso   1.000  O
  O16      1.0000 0.01830  0.89128  0.50050  Biso   1.000  O
  O17      1.0000 0.58647  0.16201  0.27924  Biso   1.000  O
  O18      1.0000 0.49117  0.14365  0.76225  Biso   1.000  O
  O19      1.0000 0.49636  0.65296  0.24821  Biso   1.000  O
  O20      1.0000 0.49772  0.64141  0.74923  Biso   1.000  O
  O21      1.0000 0.42936  0.09044  0.02002  Biso   1.000  O
  O22      1.0000 0.51828  0.10021  0.51281  Biso   1.000  O
  O23      1.0000 0.50694  0.60664  0.99921  Biso   1.000  O
  O24      1.0000 0.49960  0.60325  0.49969  Biso   1.000  O
  O25      1.0000 0.49034  0.35196  0.99961  Biso   1.000  O
  O26      1.0000 0.49950  0.35176  0.49926  Biso   1.000  O
  O27      1.0000 0.46534  0.85298  0.00914  Biso   1.000  O
  O28      1.0000 0.52544  0.85229  0.49202  Biso   1.000  O
  O29      1.0000 0.50384  0.40381  0.24724  Biso   1.000  O
  O30      1.0000 0.50344  0.39227  0.74771  Biso   1.000  O
  O31      1.0000 0.51998  0.91423  0.24219  Biso   1.000  O
  O32      1.0000 0.48203  0.89128  0.75046  Biso   1.000  O
