data_image0
_cell_length_a       10.1002
_cell_length_b       10.3351
_cell_length_c       10.5194
_cell_angle_alpha    89.8091
_cell_angle_beta     90.0505
_cell_angle_gamma    90.0667

_symmetry_space_group_name_H-M    "P 1"
_symmetry_int_tables_number       1

loop_
  _symmetry_equiv_pos_as_xyz
  'x, y, z'

loop_
  _atom_site_label
  _atom_site_occupancy
  _atom_site_fract_x
  _atom_site_fract_y
  _atom_site_fract_z
  _atom_site_thermal_displace_type
  _atom_site_B_iso_or_equiv
  _atom_site_type_symbol
  Zr1      1.0000 0.13874  0.02075  0.17126  Biso   1.000  Zr
  Zr2      1.0000 0.13769  0.22836  0.42292  Biso   1.000  Zr
  Zr3      1.0000 0.35418  0.27110  0.17466  Biso   1.000  Zr
  Zr4      1.0000 0.36261  0.47886  0.42116  Biso   1.000  Zr
  Zr5      1.0000 0.64255  0.02253  0.07438  Biso   1.000  Zr
  Zr6      1.0000 0.64034  0.22872  0.33227  Biso   1.000  Zr
  Zr7      1.0000 0.86011  0.26894  0.08035  Biso   1.000  Zr
  Zr8      1.0000 0.86292  0.47949  0.33121  Biso   1.000  Zr
  O1       1.0000 0.03347  0.16458  0.08405  Biso   1.000  O
  O2       1.0000 0.03278  0.08428  0.33440  Biso   1.000  O
  O3       1.0000 0.46191  0.42558  0.09229  Biso   1.000  O
  O4       1.0000 0.46680  0.33232  0.33431  Biso   1.000  O
  O5       1.0000 0.27414  0.12467  0.29613  Biso   1.000  O
  O6       1.0000 0.27558  0.12521  0.04453  Biso   1.000  O
  O7       1.0000 0.22258  0.37484  0.29663  Biso   1.000  O
  O8       1.0000 0.22339  0.37566  0.04445  Biso   1.000  O
  O9       1.0000 0.52555  0.15796  0.16900  Biso   1.000  O
  O10      1.0000 0.53347  0.08400  0.41656  Biso   1.000  O
  O11      1.0000 0.96733  0.41489  0.16786  Biso   1.000  O
  O12      1.0000 0.96733  0.33471  0.41869  Biso   1.000  O
  O13      1.0000 0.77602  0.12428  0.45640  Biso   1.000  O
  O14      1.0000 0.77610  0.12562  0.20880  Biso   1.000  O
  O15      1.0000 0.72440  0.37308  0.45812  Biso   1.000  O
  O16      1.0000 0.72594  0.38116  0.21073  Biso   1.000  O
  Zr9      1.0000 0.14033  0.02031  0.67154  Biso   1.000  Zr
  Zr10     1.0000 0.13838  0.22776  0.92118  Biso   1.000  Zr
  Zr11     1.0000 0.36156  0.27086  0.67177  Biso   1.000  Zr
  Zr12     1.0000 0.36054  0.47973  0.92047  Biso   1.000  Zr
  Zr13     1.0000 0.63928  0.02051  0.57977  Biso   1.000  Zr
  Zr14     1.0000 0.63903  0.22473  0.82766  Biso   1.000  Zr
  Zr15     1.0000 0.86160  0.27038  0.58116  Biso   1.000  Zr
  Zr16     1.0000 0.86248  0.47850  0.83007  Biso   1.000  Zr
  O17      1.0000 0.03324  0.16520  0.58495  Biso   1.000  O
  O18      1.0000 0.03498  0.08322  0.83297  Biso   1.000  O
  O19      1.0000 0.46764  0.41602  0.58415  Biso   1.000  O
  O20      1.0000 0.46710  0.33421  0.83438  Biso   1.000  O
  O21      1.0000 0.27707  0.12380  0.79510  Biso   1.000  O
  O22      1.0000 0.27590  0.12522  0.54527  Biso   1.000  O
  O23      1.0000 0.22415  0.37367  0.79529  Biso   1.000  O
  O24      1.0000 0.22515  0.37519  0.54555  Biso   1.000  O
  O25      1.0000 0.53306  0.16623  0.66436  Biso   1.000  O
  O26      1.0000 0.53736  0.07191  0.90660  Biso   1.000  O
  O27      1.0000 0.96753  0.41537  0.66758  Biso   1.000  O
  O28      1.0000 0.96589  0.33417  0.91734  Biso   1.000  O
  O29      1.0000 0.78639  0.11848  0.95090  Biso   1.000  O
  O30      1.0000 0.77673  0.12339  0.70367  Biso   1.000  O
  O31      1.0000 0.71876  0.37119  0.96033  Biso   1.000  O
  O32      1.0000 0.72574  0.37492  0.70776  Biso   1.000  O
  Zr17     1.0000 0.13831  0.52124  0.17118  Biso   1.000  Zr
  Zr18     1.0000 0.13981  0.72869  0.42118  Biso   1.000  Zr
  Zr19     1.0000 0.36129  0.77302  0.17151  Biso   1.000  Zr
  Zr20     1.0000 0.36152  0.97886  0.42210  Biso   1.000  Zr
  Zr21     1.0000 0.64055  0.53066  0.08219  Biso   1.000  Zr
  Zr22     1.0000 0.63961  0.73135  0.33061  Biso   1.000  Zr
  Zr23     1.0000 0.86287  0.77251  0.07987  Biso   1.000  Zr
  Zr24     1.0000 0.86143  0.97888  0.32984  Biso   1.000  Zr
  O33      1.0000 0.03336  0.66521  0.08365  Biso   1.000  O
  O34      1.0000 0.03395  0.58495  0.33349  Biso   1.000  O
  O35      1.0000 0.46750  0.91649  0.08350  Biso   1.000  O
  O36      1.0000 0.46715  0.83472  0.33542  Biso   1.000  O
  O37      1.0000 0.27646  0.62440  0.29470  Biso   1.000  O
  O38      1.0000 0.27644  0.62597  0.04457  Biso   1.000  O
  O39      1.0000 0.22512  0.87486  0.29547  Biso   1.000  O
  O40      1.0000 0.22387  0.87507  0.04545  Biso   1.000  O
  O41      1.0000 0.53444  0.67122  0.16714  Biso   1.000  O
  O42      1.0000 0.53433  0.58366  0.41561  Biso   1.000  O
  O43      1.0000 0.96807  0.91559  0.16728  Biso   1.000  O
  O44      1.0000 0.96771  0.83319  0.41622  Biso   1.000  O
  O45      1.0000 0.77606  0.62418  0.45634  Biso   1.000  O
  O46      1.0000 0.77751  0.62922  0.20708  Biso   1.000  O
  O47      1.0000 0.72514  0.87457  0.45618  Biso   1.000  O
  O48      1.0000 0.72570  0.87719  0.20564  Biso   1.000  O
  Zr25     1.0000 0.13931  0.52010  0.67090  Biso   1.000  Zr
  Zr26     1.0000 0.13955  0.72833  0.92136  Biso   1.000  Zr
  Zr27     1.0000 0.36220  0.76992  0.67115  Biso   1.000  Zr
  Zr28     1.0000 0.36210  0.97716  0.92097  Biso   1.000  Zr
  Zr29     1.0000 0.63957  0.52039  0.57980  Biso   1.000  Zr
  Zr30     1.0000 0.63944  0.72839  0.82863  Biso   1.000  Zr
  Zr31     1.0000 0.86270  0.77027  0.57921  Biso   1.000  Zr
  Zr32     1.0000 0.86316  0.97671  0.82809  Biso   1.000  Zr
  O49      1.0000 0.03369  0.66443  0.58345  Biso   1.000  O
  O50      1.0000 0.03298  0.58418  0.83327  Biso   1.000  O
  O51      1.0000 0.46746  0.91563  0.58491  Biso   1.000  O
  O52      1.0000 0.46601  0.82929  0.83467  Biso   1.000  O
  O53      1.0000 0.27600  0.62273  0.79479  Biso   1.000  O
  O54      1.0000 0.27648  0.62486  0.54474  Biso   1.000  O
  O55      1.0000 0.22530  0.87317  0.79490  Biso   1.000  O
  O56      1.0000 0.22534  0.87486  0.54500  Biso   1.000  O
  O57      1.0000 0.53379  0.66515  0.66570  Biso   1.000  O
  O58      1.0000 0.53441  0.58307  0.91717  Biso   1.000  O
  O59      1.0000 0.96941  0.91418  0.66523  Biso   1.000  O
  O60      1.0000 0.96913  0.83399  0.91709  Biso   1.000  O
  O61      1.0000 0.77781  0.62372  0.95582  Biso   1.000  O
  O62      1.0000 0.77646  0.62471  0.70586  Biso   1.000  O
  O63      1.0000 0.72554  0.87142  0.95542  Biso   1.000  O
  O64      1.0000 0.72532  0.87426  0.70506  Biso   1.000  O
  Ni1      1.0000 0.59060  0.28602  0.06346  Biso   1.000  Ni
