data_image0
_cell_length_a       5.07962
_cell_length_b       10.3287
_cell_length_c       10.1119
_cell_angle_alpha    90.9688
_cell_angle_beta     90.1134
_cell_angle_gamma    90.3321

_symmetry_space_group_name_H-M    "P 1"
_symmetry_int_tables_number       1

loop_
  _symmetry_equiv_pos_as_xyz
  'x, y, z'

loop_
  _atom_site_label
  _atom_site_occupancy
  _atom_site_fract_x
  _atom_site_fract_y
  _atom_site_fract_z
  _atom_site_thermal_displace_type
  _atom_site_B_iso_or_equiv
  _atom_site_type_symbol
  Zr1      1.0000 0.28052  0.99296  0.13583  Biso   1.000  Zr
  Zr2      1.0000 0.25208  0.24236  0.37072  Biso   1.000  Zr
  Zr3      1.0000 0.67638  0.26029  0.11773  Biso   1.000  Zr
  Zr4      1.0000 0.76820  0.99896  0.37961  Biso   1.000  Zr
  O1       1.0000 0.95112  0.16545  0.98808  Biso   1.000  O
  O2       1.0000 0.04609  0.08423  0.26576  Biso   1.000  O
  O3       1.0000 0.95886  0.32880  0.26394  Biso   1.000  O
  O4       1.0000 0.91244  0.42484  0.02605  Biso   1.000  O
  O5       1.0000 0.53842  0.13704  0.25806  Biso   1.000  O
  O6       1.0000 0.47352  0.10530  0.99494  Biso   1.000  O
  O7       1.0000 0.42128  0.36139  0.99939  Biso   1.000  O
  O8       1.0000 0.47684  0.40149  0.25464  Biso   1.000  O
  Zr5      1.0000 0.26665  0.99441  0.62335  Biso   1.000  Zr
  Zr6      1.0000 0.24591  0.23714  0.85731  Biso   1.000  Zr
  Zr7      1.0000 0.75512  0.24894  0.62066  Biso   1.000  Zr
  Zr8      1.0000 0.76247  0.00317  0.88003  Biso   1.000  Zr
  O9       1.0000 0.00897  0.14358  0.50462  Biso   1.000  O
  O10      1.0000 0.01744  0.09732  0.74752  Biso   1.000  O
  O11      1.0000 0.99009  0.35360  0.75739  Biso   1.000  O
  O12      1.0000 0.00592  0.39369  0.50484  Biso   1.000  O
  O13      1.0000 0.52045  0.14248  0.74755  Biso   1.000  O
  O14      1.0000 0.51025  0.09866  0.50157  Biso   1.000  O
  O15      1.0000 0.50785  0.34840  0.50027  Biso   1.000  O
  O16      1.0000 0.49540  0.39408  0.75009  Biso   1.000  O
  Zr9      1.0000 0.25098  0.52198  0.11779  Biso   1.000  Zr
  Zr10     1.0000 0.25517  0.74406  0.37939  Biso   1.000  Zr
  Zr11     1.0000 0.75549  0.74843  0.12931  Biso   1.000  Zr
  Zr12     1.0000 0.75429  0.48940  0.37641  Biso   1.000  Zr
  O17      1.0000 0.02273  0.66216  0.00334  Biso   1.000  O
  O18      1.0000 0.99486  0.59740  0.25620  Biso   1.000  O
  O19      1.0000 0.03070  0.84295  0.24467  Biso   1.000  O
  O20      1.0000 0.03564  0.91153  0.99470  Biso   1.000  O
  O21      1.0000 0.49715  0.64673  0.24526  Biso   1.000  O
  O22      1.0000 0.51173  0.61379  0.99389  Biso   1.000  O
  O23      1.0000 0.53302  0.85849  0.00166  Biso   1.000  O
  O24      1.0000 0.52899  0.89027  0.25348  Biso   1.000  O
  Zr13     1.0000 0.25934  0.49951  0.62359  Biso   1.000  Zr
  Zr14     1.0000 0.26821  0.75900  0.87486  Biso   1.000  Zr
  Zr15     1.0000 0.76236  0.74854  0.62546  Biso   1.000  Zr
  Zr16     1.0000 0.75120  0.50596  0.86599  Biso   1.000  Zr
  O25      1.0000 0.00950  0.64271  0.50448  Biso   1.000  O
  O26      1.0000 0.01492  0.60323  0.75300  Biso   1.000  O
  O27      1.0000 0.00515  0.85158  0.74981  Biso   1.000  O
  O28      1.0000 0.01599  0.89045  0.49865  Biso   1.000  O
  O29      1.0000 0.51033  0.64724  0.74629  Biso   1.000  O
  O30      1.0000 0.50440  0.59818  0.49666  Biso   1.000  O
  O31      1.0000 0.51212  0.84866  0.50317  Biso   1.000  O
  O32      1.0000 0.50494  0.89688  0.75383  Biso   1.000  O
  Ni1      1.0000 0.15261  0.28725  0.10626  Biso   1.000  Ni
