data_image0
_cell_length_a       10.0183
_cell_length_b       5.25409
_cell_length_c       10.1051
_cell_angle_alpha    90.2206
_cell_angle_beta     90.1865
_cell_angle_gamma    90.4497

_symmetry_space_group_name_H-M    "P 1"
_symmetry_int_tables_number       1

loop_
  _symmetry_equiv_pos_as_xyz
  'x, y, z'

loop_
  _atom_site_label
  _atom_site_occupancy
  _atom_site_fract_x
  _atom_site_fract_y
  _atom_site_fract_z
  _atom_site_thermal_displace_type
  _atom_site_B_iso_or_equiv
  _atom_site_type_symbol
  Hf1      1.0000 0.12541  0.11878  0.10894  Biso   1.000  Hf
  Hf2      1.0000 0.13465  0.45400  0.39232  Biso   1.000  Hf
  Hf3      1.0000 0.36926  0.52273  0.11774  Biso   1.000  Hf
  Hf4      1.0000 0.36586  0.95670  0.37401  Biso   1.000  Hf
  O1       1.0000 0.00522  0.37153  0.23310  Biso   1.000  O
  O2       1.0000 0.03410  0.12497  0.45517  Biso   1.000  O
  O3       1.0000 0.46460  0.85741  0.19604  Biso   1.000  O
  O4       1.0000 0.46604  0.62709  0.44731  Biso   1.000  O
  O5       1.0000 0.26314  0.20131  0.25166  Biso   1.000  O
  O6       1.0000 0.27449  0.25548  0.50134  Biso   1.000  O
  O7       1.0000 0.23241  0.76129  0.50319  Biso   1.000  O
  O8       1.0000 0.24016  0.68048  0.26036  Biso   1.000  O
  Hf5      1.0000 0.13481  0.02305  0.62784  Biso   1.000  Hf
  Hf6      1.0000 0.14291  0.46230  0.86519  Biso   1.000  Hf
  Hf7      1.0000 0.37175  0.52746  0.62410  Biso   1.000  Hf
  Hf8      1.0000 0.37346  0.96500  0.87124  Biso   1.000  Hf
  O9       1.0000 0.03907  0.36588  0.68706  Biso   1.000  O
  O10      1.0000 0.03597  0.13652  0.92552  Biso   1.000  O
  O11      1.0000 0.47166  0.86010  0.69321  Biso   1.000  O
  O12      1.0000 0.47122  0.63533  0.94269  Biso   1.000  O
  O13      1.0000 0.27283  0.22612  0.74435  Biso   1.000  O
  O14      1.0000 0.28968  0.26391  0.98183  Biso   1.000  O
  O15      1.0000 0.23824  0.80216  0.00203  Biso   1.000  O
  O16      1.0000 0.23863  0.72948  0.74868  Biso   1.000  O
  Hf9      1.0000 0.62884  0.02686  0.12596  Biso   1.000  Hf
  Hf10     1.0000 0.63103  0.45956  0.37664  Biso   1.000  Hf
  Hf11     1.0000 0.84691  0.53144  0.12720  Biso   1.000  Hf
  Hf12     1.0000 0.86690  0.97113  0.37502  Biso   1.000  Hf
  O17      1.0000 0.53016  0.35357  0.19820  Biso   1.000  O
  O18      1.0000 0.53404  0.12636  0.44678  Biso   1.000  O
  O19      1.0000 0.95577  0.90233  0.19242  Biso   1.000  O
  O20      1.0000 0.96802  0.64315  0.45145  Biso   1.000  O
  O21      1.0000 0.75850  0.22727  0.25099  Biso   1.000  O
  O22      1.0000 0.77000  0.26727  0.49823  Biso   1.000  O
  O23      1.0000 0.73255  0.76519  0.49985  Biso   1.000  O
  O24      1.0000 0.72416  0.73180  0.25273  Biso   1.000  O
  Hf13     1.0000 0.63701  0.02790  0.62253  Biso   1.000  Hf
  Hf14     1.0000 0.63529  0.46137  0.87269  Biso   1.000  Hf
  Hf15     1.0000 0.86933  0.53235  0.62336  Biso   1.000  Hf
  Hf16     1.0000 0.86342  0.96379  0.87405  Biso   1.000  Hf
  O25      1.0000 0.53835  0.36033  0.69510  Biso   1.000  O
  O26      1.0000 0.54191  0.13067  0.94364  Biso   1.000  O
  O27      1.0000 0.96890  0.85621  0.70300  Biso   1.000  O
  O28      1.0000 0.97185  0.63652  0.95423  Biso   1.000  O
  O29      1.0000 0.77314  0.22721  0.74828  Biso   1.000  O
  O30      1.0000 0.77200  0.26182  0.99881  Biso   1.000  O
  O31      1.0000 0.72813  0.76185  0.99948  Biso   1.000  O
  O32      1.0000 0.73460  0.72702  0.75000  Biso   1.000  O
  Os1      1.0000 0.10140  0.62174  0.11356  Biso   1.000  Os
