data_image0
_cell_length_a       4.97268
_cell_length_b       10.3268
_cell_length_c       9.97671
_cell_angle_alpha    89.7643
_cell_angle_beta     89.9103
_cell_angle_gamma    90.0385

_symmetry_space_group_name_H-M    "P 1"
_symmetry_int_tables_number       1

loop_
  _symmetry_equiv_pos_as_xyz
  'x, y, z'

loop_
  _atom_site_label
  _atom_site_occupancy
  _atom_site_fract_x
  _atom_site_fract_y
  _atom_site_fract_z
  _atom_site_thermal_displace_type
  _atom_site_B_iso_or_equiv
  _atom_site_type_symbol
  Os1      1.0000 0.27485  0.02108  0.11929  Biso   1.000  Os
  Hf1      1.0000 0.26504  0.23215  0.37531  Biso   1.000  Hf
  Hf2      1.0000 0.73433  0.26549  0.12627  Biso   1.000  Hf
  Hf3      1.0000 0.73220  0.48453  0.37629  Biso   1.000  Hf
  O1       1.0000 0.06653  0.17705  0.19821  Biso   1.000  O
  O2       1.0000 0.06735  0.06795  0.45058  Biso   1.000  O
  O3       1.0000 0.93144  0.43151  0.19511  Biso   1.000  O
  O4       1.0000 0.92841  0.31693  0.44550  Biso   1.000  O
  O5       1.0000 0.52978  0.11703  0.24519  Biso   1.000  O
  O6       1.0000 0.54195  0.13340  0.49747  Biso   1.000  O
  O7       1.0000 0.45875  0.38277  0.50010  Biso   1.000  O
  O8       1.0000 0.46146  0.36807  0.25030  Biso   1.000  O
  Hf4      1.0000 0.26910  0.01614  0.62588  Biso   1.000  Hf
  Hf5      1.0000 0.26936  0.23342  0.87758  Biso   1.000  Hf
  Hf6      1.0000 0.73227  0.26592  0.62619  Biso   1.000  Hf
  Hf7      1.0000 0.73109  0.48362  0.87583  Biso   1.000  Hf
  O9       1.0000 0.06936  0.18219  0.70055  Biso   1.000  O
  O10      1.0000 0.07092  0.06503  0.95775  Biso   1.000  O
  O11      1.0000 0.92638  0.43404  0.69392  Biso   1.000  O
  O12      1.0000 0.92429  0.31315  0.94400  Biso   1.000  O
  O13      1.0000 0.54078  0.11743  0.75031  Biso   1.000  O
  O14      1.0000 0.54361  0.12728  0.00045  Biso   1.000  O
  O15      1.0000 0.45774  0.38028  0.00049  Biso   1.000  O
  O16      1.0000 0.45781  0.36687  0.75040  Biso   1.000  O
  Hf8      1.0000 0.27131  0.51717  0.12700  Biso   1.000  Hf
  Hf9      1.0000 0.26861  0.73683  0.37329  Biso   1.000  Hf
  Hf10     1.0000 0.73538  0.77039  0.12524  Biso   1.000  Hf
  Hf11     1.0000 0.73792  0.98580  0.37111  Biso   1.000  Hf
  O17      1.0000 0.07459  0.68338  0.19253  Biso   1.000  O
  O18      1.0000 0.07314  0.56773  0.44311  Biso   1.000  O
  O19      1.0000 0.94181  0.93327  0.19240  Biso   1.000  O
  O20      1.0000 0.92780  0.81721  0.44321  Biso   1.000  O
  O21      1.0000 0.54503  0.62084  0.24972  Biso   1.000  O
  O22      1.0000 0.54028  0.63374  0.49898  Biso   1.000  O
  O23      1.0000 0.46141  0.88408  0.49757  Biso   1.000  O
  O24      1.0000 0.45722  0.87497  0.24542  Biso   1.000  O
  Hf12     1.0000 0.26743  0.51685  0.62493  Biso   1.000  Hf
  Hf13     1.0000 0.26611  0.73244  0.87620  Biso   1.000  Hf
  Hf14     1.0000 0.73223  0.76700  0.62508  Biso   1.000  Hf
  Hf15     1.0000 0.73064  0.98190  0.87706  Biso   1.000  Hf
  O25      1.0000 0.07187  0.68427  0.69397  Biso   1.000  O
  O26      1.0000 0.07421  0.56344  0.94399  Biso   1.000  O
  O27      1.0000 0.92979  0.93386  0.69644  Biso   1.000  O
  O28      1.0000 0.91975  0.81368  0.94135  Biso   1.000  O
  O29      1.0000 0.54023  0.61740  0.74928  Biso   1.000  O
  O30      1.0000 0.54318  0.63174  0.99956  Biso   1.000  O
  O31      1.0000 0.44778  0.88253  0.00037  Biso   1.000  O
  O32      1.0000 0.46009  0.86722  0.74997  Biso   1.000  O
