data_image0
_cell_length_a       9.9972
_cell_length_b       10.1896
_cell_length_c       5.22647
_cell_angle_alpha    89.8548
_cell_angle_beta     89.8425
_cell_angle_gamma    90.0305

_symmetry_space_group_name_H-M    "P 1"
_symmetry_int_tables_number       1

loop_
  _symmetry_equiv_pos_as_xyz
  'x, y, z'

loop_
  _atom_site_label
  _atom_site_occupancy
  _atom_site_fract_x
  _atom_site_fract_y
  _atom_site_fract_z
  _atom_site_thermal_displace_type
  _atom_site_B_iso_or_equiv
  _atom_site_type_symbol
  Os1      1.0000 0.14068  0.02071  0.35238  Biso   1.000  Os
  Hf1      1.0000 0.13786  0.22676  0.84575  Biso   1.000  Hf
  Hf2      1.0000 0.35913  0.27004  0.34676  Biso   1.000  Hf
  Hf3      1.0000 0.36097  0.47910  0.84466  Biso   1.000  Hf
  Hf4      1.0000 0.63834  0.02212  0.15475  Biso   1.000  Hf
  Hf5      1.0000 0.63828  0.22988  0.65712  Biso   1.000  Hf
  Hf6      1.0000 0.86415  0.26913  0.15895  Biso   1.000  Hf
  Hf7      1.0000 0.86093  0.47893  0.65811  Biso   1.000  Hf
  O1       1.0000 0.03157  0.15796  0.15624  Biso   1.000  O
  O2       1.0000 0.03449  0.08885  0.64233  Biso   1.000  O
  O3       1.0000 0.46629  0.41495  0.16985  Biso   1.000  O
  O4       1.0000 0.46574  0.33434  0.66921  Biso   1.000  O
  O5       1.0000 0.27751  0.12050  0.59592  Biso   1.000  O
  O6       1.0000 0.27215  0.12047  0.10602  Biso   1.000  O
  O7       1.0000 0.22323  0.37394  0.59141  Biso   1.000  O
  O8       1.0000 0.22383  0.37410  0.09049  Biso   1.000  O
  O9       1.0000 0.53205  0.16470  0.33585  Biso   1.000  O
  O10      1.0000 0.53039  0.08740  0.83797  Biso   1.000  O
  O11      1.0000 0.96810  0.41347  0.33668  Biso   1.000  O
  O12      1.0000 0.96827  0.33459  0.83549  Biso   1.000  O
  O13      1.0000 0.77662  0.12362  0.90493  Biso   1.000  O
  O14      1.0000 0.77544  0.12626  0.40766  Biso   1.000  O
  O15      1.0000 0.72401  0.37368  0.91184  Biso   1.000  O
  O16      1.0000 0.72377  0.37635  0.41120  Biso   1.000  O
  Hf8      1.0000 0.13913  0.52107  0.34448  Biso   1.000  Hf
  Hf9      1.0000 0.13839  0.72989  0.84288  Biso   1.000  Hf
  Hf10     1.0000 0.35889  0.77411  0.34219  Biso   1.000  Hf
  Hf11     1.0000 0.36029  0.97724  0.84578  Biso   1.000  Hf
  Hf12     1.0000 0.63858  0.52140  0.15926  Biso   1.000  Hf
  Hf13     1.0000 0.63843  0.72889  0.65642  Biso   1.000  Hf
  Hf14     1.0000 0.86329  0.77251  0.15422  Biso   1.000  Hf
  Hf15     1.0000 0.86106  0.98047  0.65294  Biso   1.000  Hf
  O17      1.0000 0.03180  0.66292  0.16268  Biso   1.000  O
  O18      1.0000 0.03219  0.58623  0.66452  Biso   1.000  O
  O19      1.0000 0.46901  0.91359  0.16485  Biso   1.000  O
  O20      1.0000 0.46602  0.83591  0.66566  Biso   1.000  O
  O21      1.0000 0.27659  0.62485  0.59160  Biso   1.000  O
  O22      1.0000 0.27647  0.62705  0.09104  Biso   1.000  O
  O23      1.0000 0.21964  0.87538  0.58500  Biso   1.000  O
  O24      1.0000 0.22098  0.87727  0.08921  Biso   1.000  O
  O25      1.0000 0.53244  0.66622  0.33362  Biso   1.000  O
  O26      1.0000 0.53359  0.58447  0.83345  Biso   1.000  O
  O27      1.0000 0.97602  0.91757  0.32881  Biso   1.000  O
  O28      1.0000 0.96763  0.83778  0.83170  Biso   1.000  O
  O29      1.0000 0.77716  0.62519  0.91148  Biso   1.000  O
  O30      1.0000 0.77670  0.62660  0.41077  Biso   1.000  O
  O31      1.0000 0.72304  0.87455  0.90747  Biso   1.000  O
  O32      1.0000 0.72884  0.87698  0.40839  Biso   1.000  O
