data_image0
_cell_length_a       10.1564
_cell_length_b       10.2703
_cell_length_c       10.5316
_cell_angle_alpha    89.9226
_cell_angle_beta     79.9721
_cell_angle_gamma    90.4389

_symmetry_space_group_name_H-M    "P 1"
_symmetry_int_tables_number       1

loop_
  _symmetry_equiv_pos_as_xyz
  'x, y, z'

loop_
  _atom_site_label
  _atom_site_occupancy
  _atom_site_fract_x
  _atom_site_fract_y
  _atom_site_fract_z
  _atom_site_thermal_displace_type
  _atom_site_B_iso_or_equiv
  _atom_site_type_symbol
  Hf1      1.0000 0.13655  0.02215  0.14660  Biso   1.000  Hf
  Hf2      1.0000 0.13947  0.23624  0.39453  Biso   1.000  Hf
  Hf3      1.0000 0.35631  0.27027  0.09575  Biso   1.000  Hf
  Hf4      1.0000 0.34899  0.48294  0.35456  Biso   1.000  Hf
  O1       1.0000 0.03545  0.16836  0.07688  Biso   1.000  O
  O2       1.0000 0.03651  0.08598  0.32597  Biso   1.000  O
  O3       1.0000 0.47457  0.38521  0.19589  Biso   1.000  O
  O4       1.0000 0.48626  0.36511  0.44195  Biso   1.000  O
  O5       1.0000 0.28328  0.12574  0.23780  Biso   1.000  O
  O6       1.0000 0.29187  0.12282  0.47865  Biso   1.000  O
  O7       1.0000 0.22216  0.38079  0.00404  Biso   1.000  O
  O8       1.0000 0.20583  0.37932  0.24906  Biso   1.000  O
  Hf5      1.0000 0.13740  0.02109  0.64616  Biso   1.000  Hf
  Hf6      1.0000 0.13634  0.22908  0.89303  Biso   1.000  Hf
  Hf7      1.0000 0.36187  0.27762  0.60473  Biso   1.000  Hf
  Hf8      1.0000 0.35978  0.48028  0.85452  Biso   1.000  Hf
  O9       1.0000 0.04087  0.16803  0.57630  Biso   1.000  O
  O10      1.0000 0.03310  0.08278  0.82650  Biso   1.000  O
  O11      1.0000 0.46863  0.41155  0.68280  Biso   1.000  O
  O12      1.0000 0.47074  0.34409  0.93013  Biso   1.000  O
  O13      1.0000 0.27493  0.12950  0.73712  Biso   1.000  O
  O14      1.0000 0.27390  0.12227  0.98628  Biso   1.000  O
  O15      1.0000 0.21728  0.38439  0.51660  Biso   1.000  O
  O16      1.0000 0.22373  0.37278  0.75916  Biso   1.000  O
  Hf9      1.0000 0.13615  0.52348  0.14221  Biso   1.000  Hf
  Hf10     1.0000 0.13423  0.72961  0.39681  Biso   1.000  Hf
  Hf11     1.0000 0.35973  0.77046  0.10264  Biso   1.000  Hf
  Hf12     1.0000 0.36535  0.96580  0.35428  Biso   1.000  Hf
  O17      1.0000 0.03155  0.67114  0.07766  Biso   1.000  O
  O18      1.0000 0.03134  0.58836  0.32510  Biso   1.000  O
  O19      1.0000 0.46844  0.90901  0.17431  Biso   1.000  O
  O20      1.0000 0.46370  0.82505  0.42504  Biso   1.000  O
  O21      1.0000 0.27401  0.62887  0.23963  Biso   1.000  O
  O22      1.0000 0.26928  0.62489  0.49309  Biso   1.000  O
  O23      1.0000 0.22384  0.87999  0.01039  Biso   1.000  O
  O24      1.0000 0.22282  0.86949  0.25934  Biso   1.000  O
  Hf13     1.0000 0.13510  0.52536  0.64842  Biso   1.000  Hf
  Hf14     1.0000 0.13577  0.73079  0.89694  Biso   1.000  Hf
  Hf15     1.0000 0.36096  0.76935  0.60593  Biso   1.000  Hf
  Hf16     1.0000 0.36107  0.97872  0.85304  Biso   1.000  Hf
  O25      1.0000 0.02904  0.66730  0.57814  Biso   1.000  O
  O26      1.0000 0.03161  0.58517  0.83050  Biso   1.000  O
  O27      1.0000 0.46574  0.91437  0.67297  Biso   1.000  O
  O28      1.0000 0.46648  0.83661  0.92417  Biso   1.000  O
  O29      1.0000 0.27464  0.62920  0.74182  Biso   1.000  O
  O30      1.0000 0.27336  0.62361  0.98931  Biso   1.000  O
  O31      1.0000 0.22408  0.88038  0.51121  Biso   1.000  O
  O32      1.0000 0.22260  0.87208  0.76043  Biso   1.000  O
  Hf17     1.0000 0.63965  0.02037  0.14573  Biso   1.000  Hf
  Hf18     1.0000 0.64493  0.22950  0.40120  Biso   1.000  Hf
  Hf19     1.0000 0.86146  0.27230  0.10487  Biso   1.000  Hf
  Hf20     1.0000 0.86168  0.47895  0.35464  Biso   1.000  Hf
  O33      1.0000 0.52909  0.15483  0.06936  Biso   1.000  O
  O34      1.0000 0.55188  0.05898  0.33628  Biso   1.000  O
  O35      1.0000 0.96171  0.42092  0.16933  Biso   1.000  O
  O36      1.0000 0.96685  0.33771  0.42402  Biso   1.000  O
  O37      1.0000 0.77927  0.12917  0.23867  Biso   1.000  O
  O38      1.0000 0.78072  0.11998  0.49218  Biso   1.000  O
  O39      1.0000 0.72290  0.37756  0.01293  Biso   1.000  O
  O40      1.0000 0.72611  0.37143  0.26278  Biso   1.000  O
  Hf21     1.0000 0.63789  0.02270  0.64472  Biso   1.000  Hf
  Hf22     1.0000 0.63816  0.22735  0.89713  Biso   1.000  Hf
  Hf23     1.0000 0.86411  0.27193  0.60647  Biso   1.000  Hf
  Hf24     1.0000 0.85872  0.47843  0.85688  Biso   1.000  Hf
  O41      1.0000 0.53427  0.16756  0.57860  Biso   1.000  O
  O42      1.0000 0.53158  0.08808  0.82321  Biso   1.000  O
  O43      1.0000 0.96426  0.41733  0.67553  Biso   1.000  O
  O44      1.0000 0.96396  0.33290  0.92095  Biso   1.000  O
  O45      1.0000 0.77616  0.12874  0.74066  Biso   1.000  O
  O46      1.0000 0.77582  0.12170  0.98978  Biso   1.000  O
  O47      1.0000 0.72943  0.37771  0.51454  Biso   1.000  O
  O48      1.0000 0.72372  0.37145  0.76247  Biso   1.000  O
  Hf25     1.0000 0.63714  0.51947  0.14994  Biso   1.000  Hf
  Hf26     1.0000 0.63768  0.72481  0.39528  Biso   1.000  Hf
  Hf27     1.0000 0.85933  0.77158  0.10408  Biso   1.000  Hf
  Hf28     1.0000 0.86044  0.97973  0.35348  Biso   1.000  Hf
  O49      1.0000 0.52662  0.65377  0.07323  Biso   1.000  O
  O50      1.0000 0.52729  0.58932  0.32068  Biso   1.000  O
  O51      1.0000 0.96571  0.91816  0.17101  Biso   1.000  O
  O52      1.0000 0.96454  0.83700  0.42355  Biso   1.000  O
  O53      1.0000 0.77309  0.62594  0.23934  Biso   1.000  O
  O54      1.0000 0.77456  0.62119  0.48952  Biso   1.000  O
  O55      1.0000 0.72193  0.87831  0.01096  Biso   1.000  O
  O56      1.0000 0.72707  0.86715  0.25935  Biso   1.000  O
  Hf29     1.0000 0.63918  0.52075  0.64727  Biso   1.000  Hf
  Hf30     1.0000 0.63690  0.72717  0.89666  Biso   1.000  Hf
  Hf31     1.0000 0.85794  0.77326  0.60431  Biso   1.000  Hf
  Hf32     1.0000 0.85872  0.97862  0.85444  Biso   1.000  Hf
  O57      1.0000 0.53182  0.66070  0.57645  Biso   1.000  O
  O58      1.0000 0.53164  0.58899  0.82412  Biso   1.000  O
  O59      1.0000 0.96480  0.91685  0.67291  Biso   1.000  O
  O60      1.0000 0.96325  0.83512  0.92205  Biso   1.000  O
  O61      1.0000 0.77501  0.62910  0.74096  Biso   1.000  O
  O62      1.0000 0.77285  0.62147  0.99174  Biso   1.000  O
  O63      1.0000 0.72159  0.87825  0.50963  Biso   1.000  O
  O64      1.0000 0.72203  0.87173  0.76028  Biso   1.000  O
  Os1      1.0000 0.40914  0.23647  0.33237  Biso   1.000  Os
