data_image0
_cell_length_a       10.1949
_cell_length_b       10.1764
_cell_length_c       10.1948
_cell_angle_alpha    90.1266
_cell_angle_beta     83.6559
_cell_angle_gamma    90.1264

_symmetry_space_group_name_H-M    "P 1"
_symmetry_int_tables_number       1

loop_
  _symmetry_equiv_pos_as_xyz
  'x, y, z'

loop_
  _atom_site_label
  _atom_site_occupancy
  _atom_site_fract_x
  _atom_site_fract_y
  _atom_site_fract_z
  _atom_site_thermal_displace_type
  _atom_site_B_iso_or_equiv
  _atom_site_type_symbol
  Hf1      1.0000 0.12693  0.99074  0.12689  Biso   1.000  Hf
  Hf2      1.0000 0.13230  0.25074  0.37877  Biso   1.000  Hf
  Hf3      1.0000 0.37881  0.25074  0.13228  Biso   1.000  Hf
  Hf4      1.0000 0.37590  0.99051  0.37587  Biso   1.000  Hf
  O1       1.0000 0.03861  0.16191  0.03857  Biso   1.000  O
  O2       1.0000 0.04412  0.08047  0.29524  Biso   1.000  O
  O3       1.0000 0.97937  0.32859  0.27882  Biso   1.000  O
  O4       1.0000 0.99110  0.40253  0.99101  Biso   1.000  O
  O5       1.0000 0.30232  0.15522  0.30229  Biso   1.000  O
  O6       1.0000 0.29528  0.08048  0.04409  Biso   1.000  O
  O7       1.0000 0.27885  0.32863  0.97937  Biso   1.000  O
  O8       1.0000 0.24959  0.40147  0.24955  Biso   1.000  O
  Hf5      1.0000 0.12534  0.99293  0.62333  Biso   1.000  Hf
  Hf6      1.0000 0.12865  0.25510  0.86450  Biso   1.000  Hf
  Hf7      1.0000 0.37544  0.25541  0.62314  Biso   1.000  Hf
  Hf8      1.0000 0.37642  0.99291  0.87511  Biso   1.000  Hf
  O9       1.0000 0.03919  0.15424  0.54358  Biso   1.000  O
  O10      1.0000 0.04350  0.08876  0.79154  Biso   1.000  O
  O11      1.0000 0.00409  0.34901  0.74871  Biso   1.000  O
  O12      1.0000 0.99721  0.40068  0.50522  Biso   1.000  O
  O13      1.0000 0.29332  0.15412  0.78656  Biso   1.000  O
  O14      1.0000 0.29032  0.08945  0.54272  Biso   1.000  O
  O15      1.0000 0.25302  0.35020  0.50505  Biso   1.000  O
  O16      1.0000 0.24908  0.40081  0.74427  Biso   1.000  O
  Hf9      1.0000 0.09641  0.55473  0.09635  Biso   1.000  Hf
  Hf10     1.0000 0.12403  0.75679  0.37811  Biso   1.000  Hf
  Hf11     1.0000 0.37816  0.75679  0.12398  Biso   1.000  Hf
  Hf12     1.0000 0.37292  0.49120  0.37288  Biso   1.000  Hf
  O17      1.0000 0.97261  0.65632  0.97254  Biso   1.000  O
  O18      1.0000 0.93592  0.59552  0.21910  Biso   1.000  O
  O19      1.0000 0.99514  0.84538  0.24811  Biso   1.000  O
  O20      1.0000 0.00227  0.90436  0.00222  Biso   1.000  O
  O21      1.0000 0.20474  0.66723  0.20469  Biso   1.000  O
  O22      1.0000 0.21919  0.59556  0.93588  Biso   1.000  O
  O23      1.0000 0.24817  0.84540  0.99510  Biso   1.000  O
  O24      1.0000 0.25292  0.89950  0.25289  Biso   1.000  O
  Hf13     1.0000 0.12555  0.49448  0.62404  Biso   1.000  Hf
  Hf14     1.0000 0.12860  0.76337  0.86549  Biso   1.000  Hf
  Hf15     1.0000 0.37679  0.75556  0.62340  Biso   1.000  Hf
  Hf16     1.0000 0.38336  0.48812  0.87383  Biso   1.000  Hf
  O25      1.0000 0.95916  0.65551  0.46414  Biso   1.000  O
  O26      1.0000 0.95972  0.59449  0.71620  Biso   1.000  O
  O27      1.0000 0.99555  0.85042  0.74836  Biso   1.000  O
  O28      1.0000 0.00246  0.89726  0.50363  Biso   1.000  O
  O29      1.0000 0.20554  0.66481  0.69708  Biso   1.000  O
  O30      1.0000 0.20682  0.58944  0.45250  Biso   1.000  O
  O31      1.0000 0.24814  0.84906  0.49711  Biso   1.000  O
  O32      1.0000 0.25395  0.90084  0.75135  Biso   1.000  O
  Hf17     1.0000 0.62338  0.99294  0.12530  Biso   1.000  Hf
  Hf18     1.0000 0.62317  0.25541  0.37540  Biso   1.000  Hf
  Hf19     1.0000 0.86453  0.25510  0.12860  Biso   1.000  Hf
  Hf20     1.0000 0.87514  0.99290  0.37637  Biso   1.000  Hf
  O33      1.0000 0.54361  0.15425  0.03915  Biso   1.000  O
  O34      1.0000 0.54274  0.08945  0.29028  Biso   1.000  O
  O35      1.0000 0.50509  0.35020  0.25298  Biso   1.000  O
  O36      1.0000 0.50528  0.40067  0.99716  Biso   1.000  O
  O37      1.0000 0.78657  0.15410  0.29325  Biso   1.000  O
  O38      1.0000 0.79157  0.08877  0.04343  Biso   1.000  O
  O39      1.0000 0.74878  0.34902  0.00403  Biso   1.000  O
  O40      1.0000 0.74430  0.40080  0.24903  Biso   1.000  O
  Hf21     1.0000 0.62523  0.99194  0.62518  Biso   1.000  Hf
  Hf22     1.0000 0.62445  0.25512  0.87601  Biso   1.000  Hf
  Hf23     1.0000 0.87606  0.25512  0.62439  Biso   1.000  Hf
  Hf24     1.0000 0.87470  0.99476  0.87465  Biso   1.000  Hf
  O41      1.0000 0.54154  0.15675  0.54150  Biso   1.000  O
  O42      1.0000 0.54374  0.08876  0.79163  Biso   1.000  O
  O43      1.0000 0.50389  0.34713  0.75146  Biso   1.000  O
  O44      1.0000 0.49721  0.39892  0.49717  Biso   1.000  O
  O45      1.0000 0.79430  0.16090  0.79424  Biso   1.000  O
  O46      1.0000 0.79167  0.08877  0.54367  Biso   1.000  O
  O47      1.0000 0.75151  0.34714  0.50384  Biso   1.000  O
  O48      1.0000 0.74707  0.40009  0.74703  Biso   1.000  O
  Hf25     1.0000 0.62408  0.49448  0.12550  Biso   1.000  Hf
  Hf26     1.0000 0.62343  0.75556  0.37674  Biso   1.000  Hf
  Hf27     1.0000 0.86552  0.76335  0.12854  Biso   1.000  Hf
  Hf28     1.0000 0.87387  0.48813  0.38330  Biso   1.000  Hf
  O49      1.0000 0.46423  0.65550  0.95913  Biso   1.000  O
  O50      1.0000 0.45254  0.58944  0.20679  Biso   1.000  O
  O51      1.0000 0.49715  0.84906  0.24811  Biso   1.000  O
  O52      1.0000 0.50368  0.89727  0.00243  Biso   1.000  O
  O53      1.0000 0.69711  0.66481  0.20551  Biso   1.000  O
  O54      1.0000 0.71629  0.59451  0.95969  Biso   1.000  O
  O55      1.0000 0.74842  0.85043  0.99550  Biso   1.000  O
  O56      1.0000 0.75138  0.90083  0.25390  Biso   1.000  O
  Hf29     1.0000 0.62373  0.49192  0.62368  Biso   1.000  Hf
  Hf30     1.0000 0.62586  0.75608  0.87450  Biso   1.000  Hf
  Hf31     1.0000 0.87454  0.75608  0.62580  Biso   1.000  Hf
  Hf32     1.0000 0.87120  0.49091  0.87114  Biso   1.000  Hf
  O57      1.0000 0.45705  0.65780  0.45701  Biso   1.000  O
  O58      1.0000 0.45752  0.58913  0.70635  Biso   1.000  O
  O59      1.0000 0.49796  0.84707  0.74783  Biso   1.000  O
  O60      1.0000 0.50344  0.89889  0.50340  Biso   1.000  O
  O61      1.0000 0.70792  0.65723  0.70788  Biso   1.000  O
  O62      1.0000 0.70639  0.58913  0.45747  Biso   1.000  O
  O63      1.0000 0.74787  0.84707  0.49791  Biso   1.000  O
  O64      1.0000 0.75266  0.90044  0.75260  Biso   1.000  O
  Os1      1.0000 0.12859  0.31659  0.12857  Biso   1.000  Os
