data_image0
_cell_length_a       10.1807
_cell_length_b       10.2973
_cell_length_c       5.28288
_cell_angle_alpha    89.9553
_cell_angle_beta     79.8721
_cell_angle_gamma    90.9944

_symmetry_space_group_name_H-M    "P 1"
_symmetry_int_tables_number       1

loop_
  _symmetry_equiv_pos_as_xyz
  'x, y, z'

loop_
  _atom_site_label
  _atom_site_occupancy
  _atom_site_fract_x
  _atom_site_fract_y
  _atom_site_fract_z
  _atom_site_thermal_displace_type
  _atom_site_B_iso_or_equiv
  _atom_site_type_symbol
  Hf1      1.0000 0.13599  0.02174  0.29605  Biso   1.000  Hf
  Hf2      1.0000 0.13780  0.23723  0.78566  Biso   1.000  Hf
  Hf3      1.0000 0.35585  0.27824  0.19185  Biso   1.000  Hf
  Hf4      1.0000 0.34718  0.48494  0.70794  Biso   1.000  Hf
  O1       1.0000 0.04221  0.16924  0.15126  Biso   1.000  O
  O2       1.0000 0.03584  0.08568  0.64994  Biso   1.000  O
  O3       1.0000 0.47431  0.38606  0.39930  Biso   1.000  O
  O4       1.0000 0.48603  0.36825  0.88938  Biso   1.000  O
  O5       1.0000 0.28308  0.12871  0.47211  Biso   1.000  O
  O6       1.0000 0.28903  0.12261  0.95344  Biso   1.000  O
  O7       1.0000 0.21308  0.38842  0.02175  Biso   1.000  O
  O8       1.0000 0.20690  0.38176  0.49729  Biso   1.000  O
  Hf5      1.0000 0.13205  0.52753  0.29054  Biso   1.000  Hf
  Hf6      1.0000 0.13154  0.73219  0.79602  Biso   1.000  Hf
  Hf7      1.0000 0.35962  0.76837  0.20866  Biso   1.000  Hf
  Hf8      1.0000 0.36599  0.96633  0.70788  Biso   1.000  Hf
  O9       1.0000 0.02599  0.67087  0.15462  Biso   1.000  O
  O10      1.0000 0.02796  0.59040  0.65525  Biso   1.000  O
  O11      1.0000 0.46777  0.90899  0.34742  Biso   1.000  O
  O12      1.0000 0.46466  0.82688  0.85140  Biso   1.000  O
  O13      1.0000 0.27169  0.63033  0.48283  Biso   1.000  O
  O14      1.0000 0.26683  0.62718  0.98357  Biso   1.000  O
  O15      1.0000 0.22480  0.88113  0.02425  Biso   1.000  O
  O16      1.0000 0.22225  0.87096  0.52056  Biso   1.000  O
  Hf9      1.0000 0.63970  0.02083  0.28883  Biso   1.000  Hf
  Hf10     1.0000 0.64346  0.22814  0.80530  Biso   1.000  Hf
  Hf11     1.0000 0.86434  0.27192  0.21372  Biso   1.000  Hf
  Hf12     1.0000 0.85903  0.47828  0.71440  Biso   1.000  Hf
  O17      1.0000 0.53178  0.16058  0.15086  Biso   1.000  O
  O18      1.0000 0.55106  0.06075  0.66614  Biso   1.000  O
  O19      1.0000 0.96035  0.42060  0.34742  Biso   1.000  O
  O20      1.0000 0.96534  0.33699  0.84608  Biso   1.000  O
  O21      1.0000 0.78028  0.12896  0.47868  Biso   1.000  O
  O22      1.0000 0.78025  0.11951  0.98347  Biso   1.000  O
  O23      1.0000 0.72847  0.37616  0.03357  Biso   1.000  O
  O24      1.0000 0.72459  0.37099  0.52979  Biso   1.000  O
  Hf13     1.0000 0.63733  0.51851  0.30022  Biso   1.000  Hf
  Hf14     1.0000 0.63589  0.72298  0.79166  Biso   1.000  Hf
  Hf15     1.0000 0.85631  0.77293  0.20829  Biso   1.000  Hf
  Hf16     1.0000 0.85856  0.97971  0.70752  Biso   1.000  Hf
  O25      1.0000 0.52522  0.65019  0.14566  Biso   1.000  O
  O26      1.0000 0.52558  0.59140  0.63640  Biso   1.000  O
  O27      1.0000 0.96589  0.91764  0.34458  Biso   1.000  O
  O28      1.0000 0.96284  0.83913  0.84812  Biso   1.000  O
  O29      1.0000 0.77175  0.62593  0.48016  Biso   1.000  O
  O30      1.0000 0.77103  0.62076  0.98221  Biso   1.000  O
  O31      1.0000 0.72024  0.87704  0.02040  Biso   1.000  O
  O32      1.0000 0.72577  0.86719  0.51899  Biso   1.000  O
  Os1      1.0000 0.40780  0.23881  0.66849  Biso   1.000  Os
