data_image0
_cell_length_a       10.0416
_cell_length_b       5.19003
_cell_length_c       10.5326
_cell_angle_alpha    89.7607
_cell_angle_beta     90.5466
_cell_angle_gamma    90.1818

_symmetry_space_group_name_H-M    "P 1"
_symmetry_int_tables_number       1

loop_
  _symmetry_equiv_pos_as_xyz
  'x, y, z'

loop_
  _atom_site_label
  _atom_site_occupancy
  _atom_site_fract_x
  _atom_site_fract_y
  _atom_site_fract_z
  _atom_site_thermal_displace_type
  _atom_site_B_iso_or_equiv
  _atom_site_type_symbol
  Hf1      1.0000 0.14001  0.03273  0.16978  Biso   1.000  Hf
  Hf2      1.0000 0.13519  0.45605  0.41948  Biso   1.000  Hf
  Hf3      1.0000 0.35869  0.53382  0.17402  Biso   1.000  Hf
  Hf4      1.0000 0.35987  0.95927  0.42390  Biso   1.000  Hf
  Hf5      1.0000 0.63976  0.07839  0.06981  Biso   1.000  Hf
  Hf6      1.0000 0.63193  0.46408  0.34687  Biso   1.000  Hf
  Hf7      1.0000 0.88360  0.54097  0.06555  Biso   1.000  Hf
  Hf8      1.0000 0.86181  0.95499  0.33785  Biso   1.000  Hf
  O1       1.0000 0.04422  0.31943  0.07463  Biso   1.000  O
  O2       1.0000 0.02810  0.18007  0.32435  Biso   1.000  O
  O3       1.0000 0.46892  0.82762  0.07698  Biso   1.000  O
  O4       1.0000 0.45820  0.66486  0.34159  Biso   1.000  O
  O5       1.0000 0.27033  0.24392  0.29415  Biso   1.000  O
  O6       1.0000 0.28419  0.23882  0.04152  Biso   1.000  O
  O7       1.0000 0.21989  0.74411  0.29194  Biso   1.000  O
  O8       1.0000 0.22500  0.74243  0.04185  Biso   1.000  O
  O9       1.0000 0.51778  0.28428  0.19624  Biso   1.000  O
  O10      1.0000 0.52932  0.17209  0.43152  Biso   1.000  O
  O11      1.0000 0.96135  0.83260  0.16812  Biso   1.000  O
  O12      1.0000 0.96313  0.66653  0.41829  Biso   1.000  O
  O13      1.0000 0.77626  0.24116  0.45731  Biso   1.000  O
  O14      1.0000 0.76317  0.34066  0.19595  Biso   1.000  O
  O15      1.0000 0.72318  0.73969  0.47120  Biso   1.000  O
  O16      1.0000 0.70334  0.85641  0.23408  Biso   1.000  O
  Hf9      1.0000 0.13936  0.03677  0.66669  Biso   1.000  Hf
  Hf10     1.0000 0.15036  0.44747  0.91470  Biso   1.000  Hf
  Hf11     1.0000 0.36411  0.53486  0.66796  Biso   1.000  Hf
  Hf12     1.0000 0.36164  0.94761  0.91307  Biso   1.000  Hf
  Hf13     1.0000 0.63887  0.03803  0.58663  Biso   1.000  Hf
  Hf14     1.0000 0.63604  0.44883  0.83610  Biso   1.000  Hf
  Hf15     1.0000 0.86065  0.53495  0.58552  Biso   1.000  Hf
  Hf16     1.0000 0.86672  0.95673  0.82713  Biso   1.000  Hf
  O17      1.0000 0.03263  0.32491  0.57959  Biso   1.000  O
  O18      1.0000 0.03947  0.16579  0.82766  Biso   1.000  O
  O19      1.0000 0.46452  0.83403  0.58966  Biso   1.000  O
  O20      1.0000 0.46075  0.64320  0.83629  Biso   1.000  O
  O21      1.0000 0.28016  0.23819  0.78969  Biso   1.000  O
  O22      1.0000 0.27344  0.25059  0.54236  Biso   1.000  O
  O23      1.0000 0.22540  0.74101  0.78877  Biso   1.000  O
  O24      1.0000 0.22320  0.74948  0.54090  Biso   1.000  O
  O25      1.0000 0.53638  0.33669  0.66637  Biso   1.000  O
  O26      1.0000 0.54128  0.11747  0.89384  Biso   1.000  O
  O27      1.0000 0.96738  0.83055  0.66184  Biso   1.000  O
  O28      1.0000 0.97944  0.66606  0.90643  Biso   1.000  O
  O29      1.0000 0.79435  0.23879  0.94791  Biso   1.000  O
  O30      1.0000 0.77836  0.24338  0.70561  Biso   1.000  O
  O31      1.0000 0.73242  0.75640  0.96619  Biso   1.000  O
  O32      1.0000 0.72665  0.74255  0.71626  Biso   1.000  O
  Os1      1.0000 0.61798  0.56132  0.10114  Biso   1.000  Os
