data_image0
_cell_length_a       10.083
_cell_length_b       10.2803
_cell_length_c       10.5096
_cell_angle_alpha    89.9335
_cell_angle_beta     89.8965
_cell_angle_gamma    90.0008

_symmetry_space_group_name_H-M    "P 1"
_symmetry_int_tables_number       1

loop_
  _symmetry_equiv_pos_as_xyz
  'x, y, z'

loop_
  _atom_site_label
  _atom_site_occupancy
  _atom_site_fract_x
  _atom_site_fract_y
  _atom_site_fract_z
  _atom_site_thermal_displace_type
  _atom_site_B_iso_or_equiv
  _atom_site_type_symbol
  Os1      1.0000 0.14083  0.02080  0.17709  Biso   1.000  Os
  Zr1      1.0000 0.13864  0.02108  0.67104  Biso   1.000  Zr
  Zr2      1.0000 0.13903  0.52135  0.17118  Biso   1.000  Zr
  Zr3      1.0000 0.13885  0.52084  0.67204  Biso   1.000  Zr
  Zr4      1.0000 0.13956  0.22994  0.42016  Biso   1.000  Zr
  Zr5      1.0000 0.13689  0.22524  0.92409  Biso   1.000  Zr
  Zr6      1.0000 0.13784  0.72917  0.42104  Biso   1.000  Zr
  Zr7      1.0000 0.13916  0.72989  0.92140  Biso   1.000  Zr
  Zr8      1.0000 0.35976  0.26997  0.17218  Biso   1.000  Zr
  Zr9      1.0000 0.36105  0.27157  0.67221  Biso   1.000  Zr
  Zr10     1.0000 0.35842  0.77505  0.17078  Biso   1.000  Zr
  Zr11     1.0000 0.36143  0.77071  0.67125  Biso   1.000  Zr
  Zr12     1.0000 0.36118  0.47975  0.42139  Biso   1.000  Zr
  Zr13     1.0000 0.36104  0.47846  0.92181  Biso   1.000  Zr
  Zr14     1.0000 0.36100  0.97881  0.42173  Biso   1.000  Zr
  Zr15     1.0000 0.36036  0.97774  0.92219  Biso   1.000  Zr
  Zr16     1.0000 0.63839  0.02203  0.07773  Biso   1.000  Zr
  Zr17     1.0000 0.63859  0.02129  0.57852  Biso   1.000  Zr
  Zr18     1.0000 0.63868  0.52137  0.07940  Biso   1.000  Zr
  Zr19     1.0000 0.63889  0.52126  0.57945  Biso   1.000  Zr
  Zr20     1.0000 0.63833  0.22922  0.32853  Biso   1.000  Zr
  Zr21     1.0000 0.63894  0.22973  0.82912  Biso   1.000  Zr
  Zr22     1.0000 0.63801  0.72891  0.32774  Biso   1.000  Zr
  Zr23     1.0000 0.63898  0.72884  0.82970  Biso   1.000  Zr
  Zr24     1.0000 0.86472  0.26849  0.08033  Biso   1.000  Zr
  Zr25     1.0000 0.86146  0.27119  0.57825  Biso   1.000  Zr
  Zr26     1.0000 0.86429  0.77273  0.07808  Biso   1.000  Zr
  Zr27     1.0000 0.86064  0.77128  0.57813  Biso   1.000  Zr
  Zr28     1.0000 0.86078  0.47926  0.32829  Biso   1.000  Zr
  Zr29     1.0000 0.86146  0.47857  0.82987  Biso   1.000  Zr
  Zr30     1.0000 0.86154  0.98008  0.32711  Biso   1.000  Zr
  Zr31     1.0000 0.86072  0.97903  0.82794  Biso   1.000  Zr
  O1       1.0000 0.03226  0.15956  0.08317  Biso   1.000  O
  O2       1.0000 0.03053  0.16026  0.57655  Biso   1.000  O
  O3       1.0000 0.03222  0.66329  0.08182  Biso   1.000  O
  O4       1.0000 0.03110  0.66326  0.58140  Biso   1.000  O
  O5       1.0000 0.03686  0.08676  0.32288  Biso   1.000  O
  O6       1.0000 0.03007  0.08747  0.82834  Biso   1.000  O
  O7       1.0000 0.03183  0.58625  0.33186  Biso   1.000  O
  O8       1.0000 0.03204  0.58604  0.83258  Biso   1.000  O
  O9       1.0000 0.46732  0.41427  0.08416  Biso   1.000  O
  O10      1.0000 0.46708  0.41550  0.58366  Biso   1.000  O
  O11      1.0000 0.46885  0.91358  0.08155  Biso   1.000  O
  O12      1.0000 0.46785  0.91471  0.58372  Biso   1.000  O
  O13      1.0000 0.46607  0.33402  0.33414  Biso   1.000  O
  O14      1.0000 0.46777  0.33580  0.83340  Biso   1.000  O
  O15      1.0000 0.46634  0.83654  0.33217  Biso   1.000  O
  O16      1.0000 0.46704  0.83474  0.83382  Biso   1.000  O
  O17      1.0000 0.27651  0.12089  0.29519  Biso   1.000  O
  O18      1.0000 0.27553  0.12396  0.79816  Biso   1.000  O
  O19      1.0000 0.27547  0.62568  0.29537  Biso   1.000  O
  O20      1.0000 0.27584  0.62403  0.79534  Biso   1.000  O
  O21      1.0000 0.27017  0.11875  0.05386  Biso   1.000  O
  O22      1.0000 0.27603  0.12648  0.54572  Biso   1.000  O
  O23      1.0000 0.27584  0.62700  0.04506  Biso   1.000  O
  O24      1.0000 0.27540  0.62586  0.54539  Biso   1.000  O
  O25      1.0000 0.22445  0.37470  0.29497  Biso   1.000  O
  O26      1.0000 0.22424  0.37390  0.79551  Biso   1.000  O
  O27      1.0000 0.21968  0.87666  0.29264  Biso   1.000  O
  O28      1.0000 0.22443  0.87411  0.79427  Biso   1.000  O
  O29      1.0000 0.22523  0.37376  0.04529  Biso   1.000  O
  O30      1.0000 0.22402  0.37554  0.54469  Biso   1.000  O
  O31      1.0000 0.22001  0.87849  0.04517  Biso   1.000  O
  O32      1.0000 0.22463  0.87536  0.54450  Biso   1.000  O
  O33      1.0000 0.53202  0.16460  0.16762  Biso   1.000  O
  O34      1.0000 0.53216  0.16473  0.66769  Biso   1.000  O
  O35      1.0000 0.53146  0.66597  0.16682  Biso   1.000  O
  O36      1.0000 0.53297  0.66514  0.66715  Biso   1.000  O
  O37      1.0000 0.53236  0.08550  0.41768  Biso   1.000  O
  O38      1.0000 0.52965  0.08778  0.91878  Biso   1.000  O
  O39      1.0000 0.53252  0.58545  0.41692  Biso   1.000  O
  O40      1.0000 0.53310  0.58443  0.91697  Biso   1.000  O
  O41      1.0000 0.96815  0.41490  0.16755  Biso   1.000  O
  O42      1.0000 0.96867  0.41214  0.66860  Biso   1.000  O
  O43      1.0000 0.97765  0.91803  0.16462  Biso   1.000  O
  O44      1.0000 0.96830  0.91314  0.66709  Biso   1.000  O
  O45      1.0000 0.96789  0.33575  0.41675  Biso   1.000  O
  O46      1.0000 0.96903  0.33456  0.91886  Biso   1.000  O
  O47      1.0000 0.96811  0.83798  0.41680  Biso   1.000  O
  O48      1.0000 0.96768  0.83592  0.91664  Biso   1.000  O
  O49      1.0000 0.77422  0.12445  0.95398  Biso   1.000  O
  O50      1.0000 0.77718  0.12358  0.45323  Biso   1.000  O
  O51      1.0000 0.77670  0.62541  0.95602  Biso   1.000  O
  O52      1.0000 0.77519  0.62444  0.45483  Biso   1.000  O
  O53      1.0000 0.77490  0.12550  0.20469  Biso   1.000  O
  O54      1.0000 0.77540  0.12598  0.70399  Biso   1.000  O
  O55      1.0000 0.77540  0.62642  0.20504  Biso   1.000  O
  O56      1.0000 0.77605  0.62559  0.70560  Biso   1.000  O
  O57      1.0000 0.72531  0.37449  0.95551  Biso   1.000  O
  O58      1.0000 0.72417  0.37374  0.45555  Biso   1.000  O
  O59      1.0000 0.72411  0.87468  0.95476  Biso   1.000  O
  O60      1.0000 0.72393  0.87443  0.45398  Biso   1.000  O
  O61      1.0000 0.72476  0.37551  0.20545  Biso   1.000  O
  O62      1.0000 0.72449  0.37621  0.70529  Biso   1.000  O
  O63      1.0000 0.73013  0.87675  0.20469  Biso   1.000  O
  O64      1.0000 0.72419  0.87591  0.70468  Biso   1.000  O
