data_image0
_cell_length_a       10.0925
_cell_length_b       5.28041
_cell_length_c       10.1686
_cell_angle_alpha    90.1374
_cell_angle_beta     90.1082
_cell_angle_gamma    90.39

_symmetry_space_group_name_H-M    "P 1"
_symmetry_int_tables_number       1

loop_
  _symmetry_equiv_pos_as_xyz
  'x, y, z'

loop_
  _atom_site_label
  _atom_site_occupancy
  _atom_site_fract_x
  _atom_site_fract_y
  _atom_site_fract_z
  _atom_site_thermal_displace_type
  _atom_site_B_iso_or_equiv
  _atom_site_type_symbol
  Zr1      1.0000 0.12669  0.11580  0.10997  Biso   1.000  Zr
  Zr2      1.0000 0.13542  0.45768  0.39154  Biso   1.000  Zr
  Zr3      1.0000 0.36839  0.52110  0.11879  Biso   1.000  Zr
  Zr4      1.0000 0.36666  0.96068  0.37350  Biso   1.000  Zr
  O1       1.0000 0.00559  0.37176  0.23314  Biso   1.000  O
  O2       1.0000 0.03391  0.12788  0.45505  Biso   1.000  O
  O3       1.0000 0.46440  0.85669  0.19620  Biso   1.000  O
  O4       1.0000 0.46729  0.62896  0.44697  Biso   1.000  O
  O5       1.0000 0.26554  0.20984  0.25104  Biso   1.000  O
  O6       1.0000 0.27351  0.25790  0.50066  Biso   1.000  O
  O7       1.0000 0.23458  0.76359  0.50154  Biso   1.000  O
  O8       1.0000 0.23635  0.69017  0.25677  Biso   1.000  O
  Zr5      1.0000 0.13477  0.02156  0.62720  Biso   1.000  Zr
  Zr6      1.0000 0.14275  0.46355  0.86456  Biso   1.000  Zr
  Zr7      1.0000 0.37255  0.52605  0.62343  Biso   1.000  Zr
  Zr8      1.0000 0.37280  0.96461  0.87133  Biso   1.000  Zr
  O9       1.0000 0.03793  0.36269  0.68789  Biso   1.000  O
  O10      1.0000 0.03492  0.13626  0.92811  Biso   1.000  O
  O11      1.0000 0.47311  0.85894  0.69427  Biso   1.000  O
  O12      1.0000 0.47103  0.63561  0.94360  Biso   1.000  O
  O13      1.0000 0.27188  0.22431  0.74361  Biso   1.000  O
  O14      1.0000 0.28833  0.26309  0.98183  Biso   1.000  O
  O15      1.0000 0.23501  0.79651  0.00042  Biso   1.000  O
  O16      1.0000 0.24024  0.72777  0.74695  Biso   1.000  O
  Zr9      1.0000 0.62841  0.02524  0.12536  Biso   1.000  Zr
  Zr10     1.0000 0.63151  0.46106  0.37581  Biso   1.000  Zr
  Zr11     1.0000 0.84702  0.52838  0.12591  Biso   1.000  Zr
  Zr12     1.0000 0.86790  0.97279  0.37401  Biso   1.000  Zr
  O17      1.0000 0.53006  0.35263  0.19862  Biso   1.000  O
  O18      1.0000 0.53318  0.12797  0.44740  Biso   1.000  O
  O19      1.0000 0.95880  0.89742  0.19319  Biso   1.000  O
  O20      1.0000 0.97012  0.64561  0.45284  Biso   1.000  O
  O21      1.0000 0.75816  0.22499  0.24977  Biso   1.000  O
  O22      1.0000 0.76944  0.26856  0.49709  Biso   1.000  O
  O23      1.0000 0.73424  0.76703  0.49859  Biso   1.000  O
  O24      1.0000 0.72525  0.73106  0.25144  Biso   1.000  O
  Zr13     1.0000 0.63747  0.02577  0.62233  Biso   1.000  Zr
  Zr14     1.0000 0.63434  0.46250  0.87229  Biso   1.000  Zr
  Zr15     1.0000 0.86976  0.53037  0.62297  Biso   1.000  Zr
  Zr16     1.0000 0.86368  0.96442  0.87381  Biso   1.000  Zr
  O25      1.0000 0.53794  0.35937  0.69519  Biso   1.000  O
  O26      1.0000 0.54001  0.13158  0.94390  Biso   1.000  O
  O27      1.0000 0.97087  0.85318  0.70476  Biso   1.000  O
  O28      1.0000 0.97183  0.63477  0.95577  Biso   1.000  O
  O29      1.0000 0.77233  0.22519  0.74730  Biso   1.000  O
  O30      1.0000 0.76984  0.26143  0.99759  Biso   1.000  O
  O31      1.0000 0.72836  0.76224  0.99817  Biso   1.000  O
  O32      1.0000 0.73593  0.72533  0.74890  Biso   1.000  O
  Os1      1.0000 0.09968  0.61916  0.11235  Biso   1.000  Os
