data_image0
_cell_length_a       10.0402
_cell_length_b       10.0402
_cell_length_c       5.06079
_cell_angle_alpha    90.0003
_cell_angle_beta     90.0025
_cell_angle_gamma    90.0003

_symmetry_space_group_name_H-M    "P 1"
_symmetry_int_tables_number       1

loop_
  _symmetry_equiv_pos_as_xyz
  'x, y, z'

loop_
  _atom_site_label
  _atom_site_occupancy
  _atom_site_fract_x
  _atom_site_fract_y
  _atom_site_fract_z
  _atom_site_thermal_displace_type
  _atom_site_B_iso_or_equiv
  _atom_site_type_symbol
  Os1      1.0000 0.12504  0.99992  0.25035  Biso   1.000  Os
  Zr1      1.0000 0.12504  0.49993  0.25036  Biso   1.000  Zr
  Zr2      1.0000 0.62505  0.99993  0.25037  Biso   1.000  Zr
  Zr3      1.0000 0.62505  0.49993  0.25037  Biso   1.000  Zr
  Zr4      1.0000 0.12505  0.24670  0.75035  Biso   1.000  Zr
  Zr5      1.0000 0.12505  0.75314  0.75035  Biso   1.000  Zr
  Zr6      1.0000 0.62505  0.25064  0.75037  Biso   1.000  Zr
  Zr7      1.0000 0.62505  0.74920  0.75036  Biso   1.000  Zr
  Zr8      1.0000 0.37396  0.24884  0.24732  Biso   1.000  Zr
  Zr9      1.0000 0.37396  0.75101  0.25340  Biso   1.000  Zr
  Zr10     1.0000 0.87613  0.24884  0.25340  Biso   1.000  Zr
  Zr11     1.0000 0.87613  0.75100  0.24732  Biso   1.000  Zr
  Zr12     1.0000 0.37183  0.99992  0.75036  Biso   1.000  Zr
  Zr13     1.0000 0.37577  0.49992  0.75036  Biso   1.000  Zr
  Zr14     1.0000 0.87827  0.99992  0.75036  Biso   1.000  Zr
  Zr15     1.0000 0.87433  0.49992  0.75036  Biso   1.000  Zr
  O1       1.0000 0.99927  0.12569  0.98379  Biso   1.000  O
  O2       1.0000 0.99306  0.63280  0.96282  Biso   1.000  O
  O3       1.0000 0.49215  0.13192  0.96282  Biso   1.000  O
  O4       1.0000 0.49362  0.63137  0.96676  Biso   1.000  O
  O5       1.0000 0.00700  0.11797  0.47197  Biso   1.000  O
  O6       1.0000 0.00422  0.62174  0.46604  Biso   1.000  O
  O7       1.0000 0.50322  0.12074  0.46606  Biso   1.000  O
  O8       1.0000 0.50415  0.62080  0.46778  Biso   1.000  O
  O9       1.0000 0.99305  0.36704  0.53791  Biso   1.000  O
  O10      1.0000 0.99928  0.87415  0.51692  Biso   1.000  O
  O11      1.0000 0.49361  0.36848  0.53397  Biso   1.000  O
  O12      1.0000 0.49216  0.86792  0.53791  Biso   1.000  O
  O13      1.0000 0.00423  0.37810  0.03469  Biso   1.000  O
  O14      1.0000 0.00700  0.88186  0.02873  Biso   1.000  O
  O15      1.0000 0.50416  0.37905  0.03295  Biso   1.000  O
  O16      1.0000 0.50323  0.87911  0.03468  Biso   1.000  O
  O17      1.0000 0.25082  0.12570  0.51691  Biso   1.000  O
  O18      1.0000 0.25704  0.63282  0.53790  Biso   1.000  O
  O19      1.0000 0.75793  0.13191  0.53792  Biso   1.000  O
  O20      1.0000 0.75648  0.63135  0.53399  Biso   1.000  O
  O21      1.0000 0.24309  0.11797  0.02872  Biso   1.000  O
  O22      1.0000 0.24588  0.62173  0.03467  Biso   1.000  O
  O23      1.0000 0.74686  0.12075  0.03470  Biso   1.000  O
  O24      1.0000 0.74594  0.62081  0.03297  Biso   1.000  O
  O25      1.0000 0.25704  0.36703  0.96282  Biso   1.000  O
  O26      1.0000 0.25081  0.87415  0.98380  Biso   1.000  O
  O27      1.0000 0.75649  0.36849  0.96674  Biso   1.000  O
  O28      1.0000 0.75793  0.86793  0.96280  Biso   1.000  O
  O29      1.0000 0.24587  0.37811  0.46603  Biso   1.000  O
  O30      1.0000 0.24310  0.88188  0.47198  Biso   1.000  O
  O31      1.0000 0.74593  0.37903  0.46776  Biso   1.000  O
  O32      1.0000 0.74686  0.87909  0.46602  Biso   1.000  O
