data_image0
_cell_length_a       5.08447
_cell_length_b       10.3144
_cell_length_c       10.4763
_cell_angle_alpha    89.8146
_cell_angle_beta     80.0736
_cell_angle_gamma    89.9725

_symmetry_space_group_name_H-M    "P 1"
_symmetry_int_tables_number       1

loop_
  _symmetry_equiv_pos_as_xyz
  'x, y, z'

loop_
  _atom_site_label
  _atom_site_occupancy
  _atom_site_fract_x
  _atom_site_fract_y
  _atom_site_fract_z
  _atom_site_thermal_displace_type
  _atom_site_B_iso_or_equiv
  _atom_site_type_symbol
  Os1      1.0000 0.28255  0.02177  0.15106  Biso   1.000  Os
  Zr1      1.0000 0.27620  0.02078  0.64551  Biso   1.000  Zr
  Zr2      1.0000 0.27950  0.52248  0.14505  Biso   1.000  Zr
  Zr3      1.0000 0.27774  0.52103  0.64652  Biso   1.000  Zr
  Zr4      1.0000 0.27956  0.23030  0.39422  Biso   1.000  Zr
  Zr5      1.0000 0.27310  0.22542  0.89921  Biso   1.000  Zr
  Zr6      1.0000 0.27875  0.72956  0.39482  Biso   1.000  Zr
  Zr7      1.0000 0.27599  0.72899  0.89672  Biso   1.000  Zr
  Zr8      1.0000 0.72723  0.26884  0.10634  Biso   1.000  Zr
  Zr9      1.0000 0.72111  0.27150  0.60526  Biso   1.000  Zr
  Zr10     1.0000 0.72394  0.77713  0.10356  Biso   1.000  Zr
  Zr11     1.0000 0.72217  0.77122  0.60419  Biso   1.000  Zr
  Zr12     1.0000 0.72358  0.47989  0.35401  Biso   1.000  Zr
  Zr13     1.0000 0.71964  0.47792  0.85589  Biso   1.000  Zr
  Zr14     1.0000 0.72279  0.97980  0.35232  Biso   1.000  Zr
  Zr15     1.0000 0.71717  0.97837  0.85542  Biso   1.000  Zr
  O1       1.0000 0.06957  0.16403  0.08106  Biso   1.000  O
  O2       1.0000 0.06818  0.16556  0.57535  Biso   1.000  O
  O3       1.0000 0.06785  0.66840  0.07991  Biso   1.000  O
  O4       1.0000 0.07065  0.66849  0.57926  Biso   1.000  O
  O5       1.0000 0.07866  0.08369  0.31805  Biso   1.000  O
  O6       1.0000 0.06456  0.08190  0.82772  Biso   1.000  O
  O7       1.0000 0.07260  0.58131  0.33056  Biso   1.000  O
  O8       1.0000 0.06944  0.58029  0.83093  Biso   1.000  O
  O9       1.0000 0.93043  0.41994  0.16974  Biso   1.000  O
  O10      1.0000 0.93004  0.41725  0.67090  Biso   1.000  O
  O11      1.0000 0.95011  0.92040  0.16689  Biso   1.000  O
  O12      1.0000 0.92913  0.91785  0.66980  Biso   1.000  O
  O13      1.0000 0.92901  0.33135  0.41976  Biso   1.000  O
  O14      1.0000 0.92643  0.32760  0.92095  Biso   1.000  O
  O15      1.0000 0.93247  0.83332  0.41879  Biso   1.000  O
  O16      1.0000 0.92446  0.83054  0.91885  Biso   1.000  O
  O17      1.0000 0.55338  0.12596  0.24100  Biso   1.000  O
  O18      1.0000 0.55037  0.12829  0.74336  Biso   1.000  O
  O19      1.0000 0.55299  0.63266  0.24083  Biso   1.000  O
  O20      1.0000 0.55212  0.62838  0.74130  Biso   1.000  O
  O21      1.0000 0.55612  0.12118  0.48983  Biso   1.000  O
  O22      1.0000 0.54038  0.11527  0.00079  Biso   1.000  O
  O23      1.0000 0.55284  0.62145  0.49082  Biso   1.000  O
  O24      1.0000 0.55301  0.62294  0.99118  Biso   1.000  O
  O25      1.0000 0.44821  0.37821  0.01037  Biso   1.000  O
  O26      1.0000 0.44746  0.37828  0.50972  Biso   1.000  O
  O27      1.0000 0.43660  0.88217  0.00995  Biso   1.000  O
  O28      1.0000 0.44882  0.87882  0.50770  Biso   1.000  O
  O29      1.0000 0.45049  0.37154  0.25961  Biso   1.000  O
  O30      1.0000 0.44640  0.37038  0.76049  Biso   1.000  O
  O31      1.0000 0.44963  0.87676  0.25589  Biso   1.000  O
  O32      1.0000 0.44659  0.87078  0.75854  Biso   1.000  O
