data_image0
_cell_length_a       10.1173
_cell_length_b       10.3482
_cell_length_c       10.5694
_cell_angle_alpha    89.5799
_cell_angle_beta     90.3397
_cell_angle_gamma    89.9602

_symmetry_space_group_name_H-M    "P 1"
_symmetry_int_tables_number       1

loop_
  _symmetry_equiv_pos_as_xyz
  'x, y, z'

loop_
  _atom_site_label
  _atom_site_occupancy
  _atom_site_fract_x
  _atom_site_fract_y
  _atom_site_fract_z
  _atom_site_thermal_displace_type
  _atom_site_B_iso_or_equiv
  _atom_site_type_symbol
  Zr1      1.0000 0.14230  0.01904  0.17069  Biso   1.000  Zr
  Zr2      1.0000 0.13576  0.23001  0.42036  Biso   1.000  Zr
  Zr3      1.0000 0.36098  0.26547  0.17402  Biso   1.000  Zr
  Zr4      1.0000 0.36021  0.48082  0.42156  Biso   1.000  Zr
  Zr5      1.0000 0.63419  0.01611  0.06647  Biso   1.000  Zr
  Zr6      1.0000 0.63285  0.23305  0.34324  Biso   1.000  Zr
  Zr7      1.0000 0.88057  0.26815  0.06979  Biso   1.000  Zr
  Zr8      1.0000 0.86080  0.48207  0.33546  Biso   1.000  Zr
  O1       1.0000 0.04283  0.16058  0.07510  Biso   1.000  O
  O2       1.0000 0.02611  0.09311  0.32440  Biso   1.000  O
  O3       1.0000 0.47592  0.41118  0.07933  Biso   1.000  O
  O4       1.0000 0.45960  0.33292  0.33959  Biso   1.000  O
  O5       1.0000 0.27004  0.12353  0.29604  Biso   1.000  O
  O6       1.0000 0.28182  0.12137  0.04206  Biso   1.000  O
  O7       1.0000 0.22183  0.37426  0.29281  Biso   1.000  O
  O8       1.0000 0.22838  0.37412  0.04247  Biso   1.000  O
  O9       1.0000 0.51707  0.13332  0.19548  Biso   1.000  O
  O10      1.0000 0.52732  0.08971  0.43240  Biso   1.000  O
  O11      1.0000 0.96265  0.41432  0.16932  Biso   1.000  O
  O12      1.0000 0.96621  0.33818  0.42056  Biso   1.000  O
  O13      1.0000 0.77600  0.12286  0.45377  Biso   1.000  O
  O14      1.0000 0.75815  0.14852  0.19159  Biso   1.000  O
  O15      1.0000 0.72541  0.37298  0.46917  Biso   1.000  O
  O16      1.0000 0.70656  0.40773  0.23217  Biso   1.000  O
  Zr9      1.0000 0.13993  0.02039  0.66875  Biso   1.000  Zr
  Zr10     1.0000 0.14873  0.22558  0.91552  Biso   1.000  Zr
  Zr11     1.0000 0.36369  0.27088  0.66901  Biso   1.000  Zr
  Zr12     1.0000 0.36225  0.47856  0.91814  Biso   1.000  Zr
  Zr13     1.0000 0.63820  0.02158  0.58309  Biso   1.000  Zr
  Zr14     1.0000 0.63579  0.22247  0.83603  Biso   1.000  Zr
  Zr15     1.0000 0.86118  0.26975  0.58483  Biso   1.000  Zr
  Zr16     1.0000 0.86251  0.47960  0.83011  Biso   1.000  Zr
  O17      1.0000 0.03157  0.16242  0.57959  Biso   1.000  O
  O18      1.0000 0.03769  0.08538  0.82828  Biso   1.000  O
  O19      1.0000 0.46710  0.41673  0.58403  Biso   1.000  O
  O20      1.0000 0.46718  0.33515  0.83339  Biso   1.000  O
  O21      1.0000 0.27971  0.12197  0.79175  Biso   1.000  O
  O22      1.0000 0.27387  0.12629  0.54395  Biso   1.000  O
  O23      1.0000 0.22626  0.37300  0.79163  Biso   1.000  O
  O24      1.0000 0.22389  0.37635  0.54314  Biso   1.000  O
  O25      1.0000 0.53340  0.16693  0.66865  Biso   1.000  O
  O26      1.0000 0.53853  0.05705  0.89343  Biso   1.000  O
  O27      1.0000 0.96678  0.41509  0.66758  Biso   1.000  O
  O28      1.0000 0.97551  0.33553  0.91125  Biso   1.000  O
  O29      1.0000 0.79212  0.11666  0.94627  Biso   1.000  O
  O30      1.0000 0.77619  0.12343  0.70299  Biso   1.000  O
  O31      1.0000 0.72672  0.37618  0.96968  Biso   1.000  O
  O32      1.0000 0.72583  0.37463  0.71613  Biso   1.000  O
  Zr17     1.0000 0.13825  0.51964  0.17062  Biso   1.000  Zr
  Zr18     1.0000 0.13728  0.72912  0.41995  Biso   1.000  Zr
  Zr19     1.0000 0.35868  0.77163  0.17186  Biso   1.000  Zr
  Zr20     1.0000 0.36193  0.97913  0.42389  Biso   1.000  Zr
  Zr21     1.0000 0.64514  0.53892  0.08324  Biso   1.000  Zr
  Zr22     1.0000 0.63881  0.73302  0.33113  Biso   1.000  Zr
  Zr23     1.0000 0.86562  0.77657  0.07930  Biso   1.000  Zr
  Zr24     1.0000 0.86072  0.98028  0.32878  Biso   1.000  Zr
  O33      1.0000 0.03277  0.66252  0.08017  Biso   1.000  O
  O34      1.0000 0.03231  0.58872  0.32894  Biso   1.000  O
  O35      1.0000 0.46506  0.90810  0.07673  Biso   1.000  O
  O36      1.0000 0.46768  0.83969  0.33133  Biso   1.000  O
  O37      1.0000 0.27399  0.62433  0.29444  Biso   1.000  O
  O38      1.0000 0.27712  0.62264  0.04525  Biso   1.000  O
  O39      1.0000 0.22387  0.87395  0.29503  Biso   1.000  O
  O40      1.0000 0.22198  0.87242  0.04516  Biso   1.000  O
  O41      1.0000 0.53098  0.66740  0.17137  Biso   1.000  O
  O42      1.0000 0.53152  0.58842  0.42002  Biso   1.000  O
  O43      1.0000 0.96867  0.91809  0.16752  Biso   1.000  O
  O44      1.0000 0.96591  0.83941  0.41579  Biso   1.000  O
  O45      1.0000 0.77430  0.62521  0.45669  Biso   1.000  O
  O46      1.0000 0.78026  0.64022  0.20673  Biso   1.000  O
  O47      1.0000 0.72350  0.87515  0.45661  Biso   1.000  O
  O48      1.0000 0.72610  0.88432  0.20611  Biso   1.000  O
  Zr25     1.0000 0.13775  0.52014  0.66921  Biso   1.000  Zr
  Zr26     1.0000 0.13936  0.72645  0.92053  Biso   1.000  Zr
  Zr27     1.0000 0.36126  0.76812  0.67038  Biso   1.000  Zr
  Zr28     1.0000 0.36078  0.97231  0.91650  Biso   1.000  Zr
  Zr29     1.0000 0.63900  0.52047  0.58181  Biso   1.000  Zr
  Zr30     1.0000 0.63935  0.72812  0.82759  Biso   1.000  Zr
  Zr31     1.0000 0.86079  0.77199  0.57903  Biso   1.000  Zr
  Zr32     1.0000 0.86484  0.97742  0.82652  Biso   1.000  Zr
  O49      1.0000 0.03062  0.66343  0.57871  Biso   1.000  O
  O50      1.0000 0.03191  0.58653  0.82900  Biso   1.000  O
  O51      1.0000 0.46764  0.91195  0.58529  Biso   1.000  O
  O52      1.0000 0.46347  0.82378  0.83281  Biso   1.000  O
  O53      1.0000 0.27474  0.62095  0.79369  Biso   1.000  O
  O54      1.0000 0.27321  0.62562  0.54394  Biso   1.000  O
  O55      1.0000 0.22413  0.87142  0.79283  Biso   1.000  O
  O56      1.0000 0.22475  0.87527  0.54321  Biso   1.000  O
  O57      1.0000 0.53253  0.66255  0.66816  Biso   1.000  O
  O58      1.0000 0.53396  0.58648  0.92029  Biso   1.000  O
  O59      1.0000 0.97001  0.91299  0.66413  Biso   1.000  O
  O60      1.0000 0.97243  0.83661  0.91745  Biso   1.000  O
  O61      1.0000 0.77939  0.62567  0.95496  Biso   1.000  O
  O62      1.0000 0.77663  0.62468  0.70545  Biso   1.000  O
  O63      1.0000 0.72771  0.86962  0.95407  Biso   1.000  O
  O64      1.0000 0.72631  0.87335  0.70550  Biso   1.000  O
  Os1      1.0000 0.61639  0.26914  0.09926  Biso   1.000  Os
