data_image0
_cell_length_a       10.014
_cell_length_b       10.3814
_cell_length_c       5.01902
_cell_angle_alpha    89.7341
_cell_angle_beta     89.778
_cell_angle_gamma    90.0631

_symmetry_space_group_name_H-M    "P 1"
_symmetry_int_tables_number       1

loop_
  _symmetry_equiv_pos_as_xyz
  'x, y, z'

loop_
  _atom_site_label
  _atom_site_occupancy
  _atom_site_fract_x
  _atom_site_fract_y
  _atom_site_fract_z
  _atom_site_thermal_displace_type
  _atom_site_B_iso_or_equiv
  _atom_site_type_symbol
  Os1      1.0000 0.13765  0.02088  0.24670  Biso   1.000  Os
  Zr1      1.0000 0.13396  0.51558  0.25266  Biso   1.000  Zr
  Zr2      1.0000 0.63369  0.01488  0.24566  Biso   1.000  Zr
  Zr3      1.0000 0.63477  0.51690  0.25007  Biso   1.000  Zr
  Zr4      1.0000 0.13369  0.23222  0.75626  Biso   1.000  Zr
  Zr5      1.0000 0.13266  0.73540  0.75014  Biso   1.000  Zr
  Zr6      1.0000 0.63286  0.23384  0.74950  Biso   1.000  Zr
  Zr7      1.0000 0.63483  0.73560  0.74683  Biso   1.000  Zr
  Zr8      1.0000 0.36644  0.26684  0.25160  Biso   1.000  Zr
  Zr9      1.0000 0.36414  0.76796  0.25193  Biso   1.000  Zr
  Zr10     1.0000 0.86656  0.26219  0.25199  Biso   1.000  Zr
  Zr11     1.0000 0.86979  0.76801  0.24546  Biso   1.000  Zr
  Zr12     1.0000 0.36597  0.48544  0.75173  Biso   1.000  Zr
  Zr13     1.0000 0.36397  0.98297  0.75170  Biso   1.000  Zr
  Zr14     1.0000 0.86581  0.48395  0.75042  Biso   1.000  Zr
  Zr15     1.0000 0.87227  0.98688  0.74142  Biso   1.000  Zr
  O1       1.0000 0.03065  0.17138  0.41668  Biso   1.000  O
  O2       1.0000 0.03515  0.68067  0.38886  Biso   1.000  O
  O3       1.0000 0.53469  0.18393  0.38644  Biso   1.000  O
  O4       1.0000 0.53616  0.68536  0.38515  Biso   1.000  O
  O5       1.0000 0.03238  0.06720  0.93857  Biso   1.000  O
  O6       1.0000 0.03502  0.56593  0.89038  Biso   1.000  O
  O7       1.0000 0.53404  0.06583  0.88631  Biso   1.000  O
  O8       1.0000 0.53671  0.56607  0.88469  Biso   1.000  O
  O9       1.0000 0.46342  0.43492  0.38645  Biso   1.000  O
  O10      1.0000 0.46483  0.93310  0.38974  Biso   1.000  O
  O11      1.0000 0.96643  0.42834  0.39162  Biso   1.000  O
  O12      1.0000 0.97437  0.93162  0.38558  Biso   1.000  O
  O13      1.0000 0.46159  0.31501  0.88573  Biso   1.000  O
  O14      1.0000 0.46072  0.81536  0.88515  Biso   1.000  O
  O15      1.0000 0.96525  0.31505  0.89288  Biso   1.000  O
  O16      1.0000 0.96278  0.81638  0.88103  Biso   1.000  O
  O17      1.0000 0.26665  0.11625  0.49252  Biso   1.000  O
  O18      1.0000 0.27001  0.61956  0.49839  Biso   1.000  O
  O19      1.0000 0.76644  0.11622  0.49504  Biso   1.000  O
  O20      1.0000 0.77020  0.61725  0.49638  Biso   1.000  O
  O21      1.0000 0.26997  0.12762  0.00134  Biso   1.000  O
  O22      1.0000 0.26949  0.63318  0.99768  Biso   1.000  O
  O23      1.0000 0.76911  0.13362  0.99324  Biso   1.000  O
  O24      1.0000 0.76981  0.63366  0.99575  Biso   1.000  O
  O25      1.0000 0.22962  0.38179  0.00035  Biso   1.000  O
  O26      1.0000 0.22354  0.88394  0.00596  Biso   1.000  O
  O27      1.0000 0.73023  0.38230  0.99788  Biso   1.000  O
  O28      1.0000 0.73077  0.88479  0.98800  Biso   1.000  O
  O29      1.0000 0.23005  0.36637  0.50200  Biso   1.000  O
  O30      1.0000 0.22600  0.87336  0.49625  Biso   1.000  O
  O31      1.0000 0.73081  0.36651  0.49654  Biso   1.000  O
  O32      1.0000 0.73542  0.86852  0.49094  Biso   1.000  O
