data_image0
_cell_length_a       10.1175
_cell_length_b       10.3413
_cell_length_c       10.4476
_cell_angle_alpha    90.1925
_cell_angle_beta     80.3392
_cell_angle_gamma    90.2211

_symmetry_space_group_name_H-M    "P 1"
_symmetry_int_tables_number       1

loop_
  _symmetry_equiv_pos_as_xyz
  'x, y, z'

loop_
  _atom_site_label
  _atom_site_occupancy
  _atom_site_fract_x
  _atom_site_fract_y
  _atom_site_fract_z
  _atom_site_thermal_displace_type
  _atom_site_B_iso_or_equiv
  _atom_site_type_symbol
  Hf1      1.0000 0.13703  0.02192  0.14612  Biso   1.000  Hf
  Hf2      1.0000 0.14420  0.22960  0.39482  Biso   1.000  Hf
  Hf3      1.0000 0.35863  0.27335  0.10370  Biso   1.000  Hf
  Hf4      1.0000 0.35026  0.49027  0.34768  Biso   1.000  Hf
  O1       1.0000 0.03493  0.17109  0.08129  Biso   1.000  O
  O2       1.0000 0.03619  0.08017  0.33163  Biso   1.000  O
  O3       1.0000 0.45692  0.43477  0.15898  Biso   1.000  O
  O4       1.0000 0.48464  0.37100  0.43513  Biso   1.000  O
  O5       1.0000 0.27568  0.12371  0.23894  Biso   1.000  O
  O6       1.0000 0.27520  0.11234  0.49483  Biso   1.000  O
  O7       1.0000 0.22144  0.38010  0.00687  Biso   1.000  O
  O8       1.0000 0.20899  0.37615  0.25385  Biso   1.000  O
  Hf5      1.0000 0.13694  0.01892  0.64707  Biso   1.000  Hf
  Hf6      1.0000 0.13645  0.22850  0.89661  Biso   1.000  Hf
  Hf7      1.0000 0.35852  0.27138  0.60966  Biso   1.000  Hf
  Hf8      1.0000 0.36026  0.47792  0.85611  Biso   1.000  Hf
  O9       1.0000 0.04019  0.17119  0.58161  Biso   1.000  O
  O10      1.0000 0.03485  0.07911  0.83145  Biso   1.000  O
  O11      1.0000 0.46476  0.41471  0.67658  Biso   1.000  O
  O12      1.0000 0.46317  0.32959  0.92147  Biso   1.000  O
  O13      1.0000 0.27565  0.13019  0.74192  Biso   1.000  O
  O14      1.0000 0.27472  0.12200  0.99054  Biso   1.000  O
  O15      1.0000 0.22630  0.37937  0.51009  Biso   1.000  O
  O16      1.0000 0.22185  0.37063  0.75957  Biso   1.000  O
  Hf9      1.0000 0.13540  0.52193  0.14271  Biso   1.000  Hf
  Hf10     1.0000 0.13501  0.73088  0.39679  Biso   1.000  Hf
  Hf11     1.0000 0.35958  0.77258  0.10253  Biso   1.000  Hf
  Hf12     1.0000 0.36370  0.97054  0.35723  Biso   1.000  Hf
  O17      1.0000 0.03448  0.67243  0.08003  Biso   1.000  O
  O18      1.0000 0.03479  0.58143  0.32988  Biso   1.000  O
  O19      1.0000 0.46211  0.91930  0.16913  Biso   1.000  O
  O20      1.0000 0.45828  0.81904  0.42013  Biso   1.000  O
  O21      1.0000 0.27206  0.63287  0.23948  Biso   1.000  O
  O22      1.0000 0.27059  0.62147  0.49135  Biso   1.000  O
  O23      1.0000 0.22264  0.88023  0.00944  Biso   1.000  O
  O24      1.0000 0.22225  0.87015  0.26008  Biso   1.000  O
  Hf13     1.0000 0.13700  0.52228  0.64641  Biso   1.000  Hf
  Hf14     1.0000 0.13685  0.72931  0.89594  Biso   1.000  Hf
  Hf15     1.0000 0.36079  0.76892  0.60575  Biso   1.000  Hf
  Hf16     1.0000 0.35967  0.97935  0.85449  Biso   1.000  Hf
  O25      1.0000 0.03232  0.66933  0.58184  Biso   1.000  O
  O26      1.0000 0.03492  0.57999  0.83147  Biso   1.000  O
  O27      1.0000 0.46203  0.92002  0.66805  Biso   1.000  O
  O28      1.0000 0.46251  0.83129  0.91768  Biso   1.000  O
  O29      1.0000 0.27550  0.62791  0.74089  Biso   1.000  O
  O30      1.0000 0.27482  0.62187  0.99007  Biso   1.000  O
  O31      1.0000 0.22170  0.87570  0.51150  Biso   1.000  O
  O32      1.0000 0.22248  0.87066  0.76029  Biso   1.000  O
  Hf17     1.0000 0.63764  0.01818  0.14869  Biso   1.000  Hf
  Hf18     1.0000 0.65390  0.22731  0.39900  Biso   1.000  Hf
  Hf19     1.0000 0.85939  0.27167  0.10447  Biso   1.000  Hf
  Hf20     1.0000 0.86300  0.47769  0.35469  Biso   1.000  Hf
  O33      1.0000 0.53319  0.16598  0.08154  Biso   1.000  O
  O34      1.0000 0.55231  0.04756  0.34196  Biso   1.000  O
  O35      1.0000 0.96026  0.42282  0.16662  Biso   1.000  O
  O36      1.0000 0.96598  0.32881  0.41934  Biso   1.000  O
  O37      1.0000 0.77865  0.12944  0.24162  Biso   1.000  O
  O38      1.0000 0.78132  0.11611  0.49399  Biso   1.000  O
  O39      1.0000 0.72149  0.37919  0.01100  Biso   1.000  O
  O40      1.0000 0.72379  0.37126  0.26065  Biso   1.000  O
  Hf21     1.0000 0.63700  0.02143  0.64489  Biso   1.000  Hf
  Hf22     1.0000 0.63773  0.22767  0.89747  Biso   1.000  Hf
  Hf23     1.0000 0.86534  0.26990  0.60652  Biso   1.000  Hf
  Hf24     1.0000 0.85950  0.47814  0.85565  Biso   1.000  Hf
  O41      1.0000 0.53581  0.17194  0.57735  Biso   1.000  O
  O42      1.0000 0.53424  0.08145  0.82852  Biso   1.000  O
  O43      1.0000 0.96365  0.42007  0.67086  Biso   1.000  O
  O44      1.0000 0.96174  0.32950  0.91901  Biso   1.000  O
  O45      1.0000 0.77538  0.12884  0.74182  Biso   1.000  O
  O46      1.0000 0.77520  0.12101  0.99183  Biso   1.000  O
  O47      1.0000 0.72916  0.37642  0.51254  Biso   1.000  O
  O48      1.0000 0.72355  0.36979  0.76152  Biso   1.000  O
  Hf25     1.0000 0.63781  0.52449  0.14443  Biso   1.000  Hf
  Hf26     1.0000 0.63843  0.72595  0.39545  Biso   1.000  Hf
  Hf27     1.0000 0.85976  0.77078  0.10387  Biso   1.000  Hf
  Hf28     1.0000 0.86139  0.97660  0.35389  Biso   1.000  Hf
  O49      1.0000 0.53612  0.67400  0.07860  Biso   1.000  O
  O50      1.0000 0.53078  0.58692  0.32320  Biso   1.000  O
  O51      1.0000 0.96329  0.91962  0.16927  Biso   1.000  O
  O52      1.0000 0.96113  0.82954  0.42056  Biso   1.000  O
  O53      1.0000 0.77604  0.62746  0.24099  Biso   1.000  O
  O54      1.0000 0.77447  0.61844  0.49070  Biso   1.000  O
  O55      1.0000 0.72248  0.87951  0.00961  Biso   1.000  O
  O56      1.0000 0.72639  0.86557  0.25804  Biso   1.000  O
  Hf29     1.0000 0.63841  0.51917  0.64726  Biso   1.000  Hf
  Hf30     1.0000 0.63700  0.72934  0.89533  Biso   1.000  Hf
  Hf31     1.0000 0.85788  0.77092  0.60511  Biso   1.000  Hf
  Hf32     1.0000 0.85897  0.97885  0.85497  Biso   1.000  Hf
  O57      1.0000 0.53445  0.66527  0.58107  Biso   1.000  O
  O58      1.0000 0.53504  0.58017  0.83128  Biso   1.000  O
  O59      1.0000 0.96116  0.91996  0.66909  Biso   1.000  O
  O60      1.0000 0.96218  0.83034  0.91835  Biso   1.000  O
  O61      1.0000 0.77498  0.62869  0.74092  Biso   1.000  O
  O62      1.0000 0.77494  0.62118  0.99026  Biso   1.000  O
  O63      1.0000 0.72071  0.87718  0.50969  Biso   1.000  O
  O64      1.0000 0.72102  0.87138  0.75924  Biso   1.000  O
  P1       1.0000 0.43802  0.25895  0.33260  Biso   1.000  P
