data_image0
_cell_length_a       5.10068
_cell_length_b       10.3773
_cell_length_c       10.5287
_cell_angle_alpha    89.2623
_cell_angle_beta     79.5657
_cell_angle_gamma    88.9281

_symmetry_space_group_name_H-M    "P 1"
_symmetry_int_tables_number       1

loop_
  _symmetry_equiv_pos_as_xyz
  'x, y, z'

loop_
  _atom_site_label
  _atom_site_occupancy
  _atom_site_fract_x
  _atom_site_fract_y
  _atom_site_fract_z
  _atom_site_thermal_displace_type
  _atom_site_B_iso_or_equiv
  _atom_site_type_symbol
  Hf1      1.0000 0.26234  0.01319  0.14037  Biso   1.000  Hf
  Hf2      1.0000 0.34292  0.24423  0.40420  Biso   1.000  Hf
  Hf3      1.0000 0.71608  0.27134  0.11030  Biso   1.000  Hf
  Hf4      1.0000 0.72938  0.48863  0.35564  Biso   1.000  Hf
  O1       1.0000 0.04822  0.15394  0.07100  Biso   1.000  O
  O2       1.0000 0.01429  0.06776  0.32391  Biso   1.000  O
  O3       1.0000 0.93283  0.42426  0.17144  Biso   1.000  O
  O4       1.0000 0.98121  0.38061  0.44811  Biso   1.000  O
  O5       1.0000 0.50842  0.11901  0.24057  Biso   1.000  O
  O6       1.0000 0.56068  0.10576  0.49579  Biso   1.000  O
  O7       1.0000 0.44019  0.37722  0.01369  Biso   1.000  O
  O8       1.0000 0.45598  0.38497  0.26185  Biso   1.000  O
  Hf5      1.0000 0.27356  0.02180  0.64664  Biso   1.000  Hf
  Hf6      1.0000 0.27445  0.22825  0.89600  Biso   1.000  Hf
  Hf7      1.0000 0.74680  0.27665  0.60927  Biso   1.000  Hf
  Hf8      1.0000 0.72054  0.47640  0.86013  Biso   1.000  Hf
  O9       1.0000 0.08245  0.16771  0.56833  Biso   1.000  O
  O10      1.0000 0.05909  0.08980  0.82295  Biso   1.000  O
  O11      1.0000 0.94919  0.40639  0.68935  Biso   1.000  O
  O12      1.0000 0.93064  0.33683  0.93312  Biso   1.000  O
  O13      1.0000 0.54722  0.13147  0.73984  Biso   1.000  O
  O14      1.0000 0.54087  0.12075  0.99038  Biso   1.000  O
  O15      1.0000 0.47504  0.38164  0.51772  Biso   1.000  O
  O16      1.0000 0.45721  0.37344  0.76483  Biso   1.000  O
  Hf9      1.0000 0.27752  0.52366  0.14549  Biso   1.000  Hf
  Hf10     1.0000 0.26162  0.72552  0.39752  Biso   1.000  Hf
  Hf11     1.0000 0.71597  0.76899  0.10134  Biso   1.000  Hf
  Hf12     1.0000 0.67736  0.96256  0.35479  Biso   1.000  Hf
  O17      1.0000 0.06385  0.66673  0.07224  Biso   1.000  O
  O18      1.0000 0.05762  0.59756  0.31789  Biso   1.000  O
  O19      1.0000 0.91015  0.90883  0.17228  Biso   1.000  O
  O20      1.0000 0.91162  0.83114  0.42514  Biso   1.000  O
  O21      1.0000 0.54760  0.63248  0.24136  Biso   1.000  O
  O22      1.0000 0.53916  0.62279  0.49207  Biso   1.000  O
  O23      1.0000 0.44143  0.87763  0.00695  Biso   1.000  O
  O24      1.0000 0.41700  0.86658  0.25863  Biso   1.000  O
  Hf13     1.0000 0.27462  0.52324  0.65041  Biso   1.000  Hf
  Hf14     1.0000 0.27097  0.72821  0.89435  Biso   1.000  Hf
  Hf15     1.0000 0.71513  0.77309  0.60666  Biso   1.000  Hf
  Hf16     1.0000 0.71919  0.98100  0.85216  Biso   1.000  Hf
  O25      1.0000 0.05101  0.65980  0.57793  Biso   1.000  O
  O26      1.0000 0.06057  0.58700  0.82780  Biso   1.000  O
  O27      1.0000 0.92687  0.91705  0.67120  Biso   1.000  O
  O28      1.0000 0.92822  0.83641  0.92010  Biso   1.000  O
  O29      1.0000 0.54474  0.62865  0.74047  Biso   1.000  O
  O30      1.0000 0.54763  0.62097  0.99009  Biso   1.000  O
  O31      1.0000 0.42230  0.87176  0.51272  Biso   1.000  O
  O32      1.0000 0.44599  0.87363  0.76037  Biso   1.000  O
  P1       1.0000 0.94530  0.22509  0.31241  Biso   1.000  P
