data_image0
_cell_length_a       10.0685
_cell_length_b       10.2767
_cell_length_c       10.4184
_cell_angle_alpha    89.7695
_cell_angle_beta     90.6476
_cell_angle_gamma    90.0939

_symmetry_space_group_name_H-M    "P 1"
_symmetry_int_tables_number       1

loop_
  _symmetry_equiv_pos_as_xyz
  'x, y, z'

loop_
  _atom_site_label
  _atom_site_occupancy
  _atom_site_fract_x
  _atom_site_fract_y
  _atom_site_fract_z
  _atom_site_thermal_displace_type
  _atom_site_B_iso_or_equiv
  _atom_site_type_symbol
  Hf1      1.0000 0.13669  0.01828  0.17258  Biso   1.000  Hf
  Hf2      1.0000 0.13902  0.22779  0.42270  Biso   1.000  Hf
  Hf3      1.0000 0.35056  0.27164  0.17822  Biso   1.000  Hf
  Hf4      1.0000 0.36402  0.47817  0.41987  Biso   1.000  Hf
  Hf5      1.0000 0.64106  0.01972  0.07669  Biso   1.000  Hf
  Hf6      1.0000 0.63762  0.22862  0.33034  Biso   1.000  Hf
  Hf7      1.0000 0.86443  0.27239  0.07745  Biso   1.000  Hf
  Hf8      1.0000 0.86036  0.47886  0.32863  Biso   1.000  Hf
  O1       1.0000 0.03436  0.16798  0.08736  Biso   1.000  O
  O2       1.0000 0.03328  0.08217  0.33634  Biso   1.000  O
  O3       1.0000 0.44457  0.45257  0.13502  Biso   1.000  O
  O4       1.0000 0.46069  0.32088  0.34797  Biso   1.000  O
  O5       1.0000 0.27374  0.12315  0.29768  Biso   1.000  O
  O6       1.0000 0.26998  0.11893  0.04834  Biso   1.000  O
  O7       1.0000 0.21827  0.37520  0.30033  Biso   1.000  O
  O8       1.0000 0.21429  0.37848  0.05036  Biso   1.000  O
  O9       1.0000 0.52973  0.16967  0.16564  Biso   1.000  O
  O10      1.0000 0.53685  0.07596  0.41241  Biso   1.000  O
  O11      1.0000 0.96424  0.41858  0.16634  Biso   1.000  O
  O12      1.0000 0.96703  0.33151  0.41422  Biso   1.000  O
  O13      1.0000 0.77717  0.12433  0.45374  Biso   1.000  O
  O14      1.0000 0.77375  0.12572  0.20292  Biso   1.000  O
  O15      1.0000 0.72494  0.37402  0.45461  Biso   1.000  O
  O16      1.0000 0.72135  0.37302  0.20491  Biso   1.000  O
  Hf9      1.0000 0.14137  0.01945  0.67303  Biso   1.000  Hf
  Hf10     1.0000 0.14164  0.22789  0.92299  Biso   1.000  Hf
  Hf11     1.0000 0.36441  0.26842  0.66783  Biso   1.000  Hf
  Hf12     1.0000 0.35381  0.48594  0.93395  Biso   1.000  Hf
  Hf13     1.0000 0.64132  0.01795  0.57770  Biso   1.000  Hf
  Hf14     1.0000 0.65872  0.22701  0.81890  Biso   1.000  Hf
  Hf15     1.0000 0.86671  0.27110  0.57636  Biso   1.000  Hf
  Hf16     1.0000 0.86841  0.48230  0.82834  Biso   1.000  Hf
  O17      1.0000 0.03748  0.16635  0.58654  Biso   1.000  O
  O18      1.0000 0.03944  0.07899  0.83725  Biso   1.000  O
  O19      1.0000 0.46843  0.41852  0.58749  Biso   1.000  O
  O20      1.0000 0.47945  0.33545  0.82846  Biso   1.000  O
  O21      1.0000 0.28153  0.12469  0.79558  Biso   1.000  O
  O22      1.0000 0.27927  0.12437  0.54608  Biso   1.000  O
  O23      1.0000 0.23417  0.37259  0.79909  Biso   1.000  O
  O24      1.0000 0.22679  0.37393  0.54729  Biso   1.000  O
  O25      1.0000 0.54143  0.16877  0.66095  Biso   1.000  O
  O26      1.0000 0.53787  0.07141  0.90435  Biso   1.000  O
  O27      1.0000 0.97201  0.41674  0.66426  Biso   1.000  O
  O28      1.0000 0.97174  0.32935  0.91169  Biso   1.000  O
  O29      1.0000 0.78195  0.12280  0.95243  Biso   1.000  O
  O30      1.0000 0.78611  0.12106  0.70086  Biso   1.000  O
  O31      1.0000 0.74343  0.38505  0.95187  Biso   1.000  O
  O32      1.0000 0.73164  0.37467  0.70199  Biso   1.000  O
  Hf17     1.0000 0.13658  0.52270  0.17510  Biso   1.000  Hf
  Hf18     1.0000 0.13942  0.72864  0.42348  Biso   1.000  Hf
  Hf19     1.0000 0.36370  0.77172  0.17419  Biso   1.000  Hf
  Hf20     1.0000 0.36250  0.97743  0.42324  Biso   1.000  Hf
  Hf21     1.0000 0.63211  0.51710  0.08155  Biso   1.000  Hf
  Hf22     1.0000 0.64010  0.72975  0.32844  Biso   1.000  Hf
  Hf23     1.0000 0.85922  0.76805  0.08002  Biso   1.000  Hf
  Hf24     1.0000 0.86166  0.97938  0.32858  Biso   1.000  Hf
  O33      1.0000 0.03296  0.66785  0.08686  Biso   1.000  O
  O34      1.0000 0.03248  0.58283  0.33839  Biso   1.000  O
  O35      1.0000 0.46589  0.92290  0.08976  Biso   1.000  O
  O36      1.0000 0.46621  0.82940  0.33993  Biso   1.000  O
  O37      1.0000 0.27454  0.62640  0.29711  Biso   1.000  O
  O38      1.0000 0.27308  0.62872  0.04692  Biso   1.000  O
  O39      1.0000 0.22492  0.87446  0.29758  Biso   1.000  O
  O40      1.0000 0.22465  0.87337  0.04782  Biso   1.000  O
  O41      1.0000 0.54068  0.67987  0.15995  Biso   1.000  O
  O42      1.0000 0.53658  0.57993  0.41187  Biso   1.000  O
  O43      1.0000 0.96414  0.91694  0.16440  Biso   1.000  O
  O44      1.0000 0.96708  0.83232  0.41578  Biso   1.000  O
  O45      1.0000 0.77779  0.62386  0.45576  Biso   1.000  O
  O46      1.0000 0.77542  0.62342  0.20575  Biso   1.000  O
  O47      1.0000 0.72645  0.87340  0.45624  Biso   1.000  O
  O48      1.0000 0.72417  0.87622  0.20601  Biso   1.000  O
  Hf25     1.0000 0.14418  0.51895  0.67278  Biso   1.000  Hf
  Hf26     1.0000 0.13867  0.73110  0.92279  Biso   1.000  Hf
  Hf27     1.0000 0.36375  0.76894  0.67362  Biso   1.000  Hf
  Hf28     1.0000 0.36179  0.97745  0.92313  Biso   1.000  Hf
  Hf29     1.0000 0.64071  0.52061  0.57804  Biso   1.000  Hf
  Hf30     1.0000 0.63951  0.72704  0.83040  Biso   1.000  Hf
  Hf31     1.0000 0.86448  0.76943  0.57986  Biso   1.000  Hf
  Hf32     1.0000 0.86571  0.97637  0.82975  Biso   1.000  Hf
  O49      1.0000 0.03761  0.66666  0.58849  Biso   1.000  O
  O50      1.0000 0.04117  0.58024  0.83837  Biso   1.000  O
  O51      1.0000 0.46806  0.91692  0.58894  Biso   1.000  O
  O52      1.0000 0.46568  0.82654  0.84082  Biso   1.000  O
  O53      1.0000 0.27853  0.62449  0.79764  Biso   1.000  O
  O54      1.0000 0.27894  0.62383  0.54622  Biso   1.000  O
  O55      1.0000 0.22579  0.87356  0.79683  Biso   1.000  O
  O56      1.0000 0.22588  0.87469  0.54737  Biso   1.000  O
  O57      1.0000 0.53608  0.66626  0.66543  Biso   1.000  O
  O58      1.0000 0.53091  0.57771  0.91819  Biso   1.000  O
  O59      1.0000 0.96954  0.91541  0.66604  Biso   1.000  O
  O60      1.0000 0.96575  0.82974  0.91558  Biso   1.000  O
  O61      1.0000 0.77500  0.62770  0.95447  Biso   1.000  O
  O62      1.0000 0.77819  0.62471  0.70511  Biso   1.000  O
  O63      1.0000 0.72482  0.87538  0.95653  Biso   1.000  O
  O64      1.0000 0.72657  0.87324  0.70717  Biso   1.000  O
  P1       1.0000 0.50208  0.28425  0.98702  Biso   1.000  P
