data_image0
_cell_length_a       10.0196
_cell_length_b       10.1878
_cell_length_c       5.22516
_cell_angle_alpha    89.6182
_cell_angle_beta     90.6296
_cell_angle_gamma    89.4572

_symmetry_space_group_name_H-M    "P 1"
_symmetry_int_tables_number       1

loop_
  _symmetry_equiv_pos_as_xyz
  'x, y, z'

loop_
  _atom_site_label
  _atom_site_occupancy
  _atom_site_fract_x
  _atom_site_fract_y
  _atom_site_fract_z
  _atom_site_thermal_displace_type
  _atom_site_B_iso_or_equiv
  _atom_site_type_symbol
  P1       1.0000 0.09020  0.02661  0.37129  Biso   1.000  P
  Hf1      1.0000 0.15155  0.22849  0.84209  Biso   1.000  Hf
  Hf2      1.0000 0.35858  0.26716  0.34062  Biso   1.000  Hf
  Hf3      1.0000 0.36131  0.47955  0.84494  Biso   1.000  Hf
  Hf4      1.0000 0.63496  0.02125  0.15688  Biso   1.000  Hf
  Hf5      1.0000 0.63773  0.23023  0.65920  Biso   1.000  Hf
  Hf6      1.0000 0.86109  0.26989  0.16456  Biso   1.000  Hf
  Hf7      1.0000 0.86603  0.47583  0.66374  Biso   1.000  Hf
  O1       1.0000 0.04206  0.14342  0.17408  Biso   1.000  O
  O2       1.0000 0.03316  0.08416  0.64000  Biso   1.000  O
  O3       1.0000 0.46614  0.41662  0.17090  Biso   1.000  O
  O4       1.0000 0.46849  0.33535  0.66950  Biso   1.000  O
  O5       1.0000 0.27368  0.12683  0.58291  Biso   1.000  O
  O6       1.0000 0.29624  0.14037  0.06031  Biso   1.000  O
  O7       1.0000 0.22467  0.37513  0.59469  Biso   1.000  O
  O8       1.0000 0.21993  0.37798  0.09196  Biso   1.000  O
  O9       1.0000 0.53650  0.16884  0.33001  Biso   1.000  O
  O10      1.0000 0.53912  0.08103  0.82358  Biso   1.000  O
  O11      1.0000 0.97158  0.40779  0.34353  Biso   1.000  O
  O12      1.0000 0.97022  0.32697  0.84833  Biso   1.000  O
  O13      1.0000 0.78094  0.12147  0.91668  Biso   1.000  O
  O14      1.0000 0.77843  0.12541  0.41399  Biso   1.000  O
  O15      1.0000 0.72691  0.37231  0.91727  Biso   1.000  O
  O16      1.0000 0.72691  0.37541  0.41325  Biso   1.000  O
  Hf8      1.0000 0.14038  0.52248  0.34570  Biso   1.000  Hf
  Hf9      1.0000 0.14181  0.73363  0.83911  Biso   1.000  Hf
  Hf10     1.0000 0.35497  0.77879  0.33538  Biso   1.000  Hf
  Hf11     1.0000 0.35650  0.98133  0.83389  Biso   1.000  Hf
  Hf12     1.0000 0.63649  0.52103  0.16193  Biso   1.000  Hf
  Hf13     1.0000 0.63433  0.72748  0.65371  Biso   1.000  Hf
  Hf14     1.0000 0.86040  0.76603  0.15462  Biso   1.000  Hf
  Hf15     1.0000 0.85026  0.97732  0.66863  Biso   1.000  Hf
  O17      1.0000 0.03349  0.66831  0.17221  Biso   1.000  O
  O18      1.0000 0.03358  0.58326  0.67153  Biso   1.000  O
  O19      1.0000 0.46867  0.91661  0.16269  Biso   1.000  O
  O20      1.0000 0.46701  0.83818  0.65745  Biso   1.000  O
  O21      1.0000 0.27687  0.62565  0.58803  Biso   1.000  O
  O22      1.0000 0.27540  0.62557  0.09002  Biso   1.000  O
  O23      1.0000 0.21778  0.87537  0.58059  Biso   1.000  O
  O24      1.0000 0.22934  0.87486  0.06825  Biso   1.000  O
  O25      1.0000 0.53231  0.66775  0.32860  Biso   1.000  O
  O26      1.0000 0.53388  0.58336  0.83146  Biso   1.000  O
  O27      1.0000 0.96981  0.92460  0.33487  Biso   1.000  O
  O28      1.0000 0.96483  0.83707  0.83465  Biso   1.000  O
  O29      1.0000 0.77782  0.62299  0.91548  Biso   1.000  O
  O30      1.0000 0.77716  0.62386  0.41410  Biso   1.000  O
  O31      1.0000 0.72055  0.87149  0.91179  Biso   1.000  O
  O32      1.0000 0.72995  0.87485  0.41104  Biso   1.000  O
