data_image0
_cell_length_a       5.07117
_cell_length_b       10.2076
_cell_length_c       10.491
_cell_angle_alpha    90.1148
_cell_angle_beta     80.2873
_cell_angle_gamma    89.5689

_symmetry_space_group_name_H-M    "P 1"
_symmetry_int_tables_number       1

loop_
  _symmetry_equiv_pos_as_xyz
  'x, y, z'

loop_
  _atom_site_label
  _atom_site_occupancy
  _atom_site_fract_x
  _atom_site_fract_y
  _atom_site_fract_z
  _atom_site_thermal_displace_type
  _atom_site_B_iso_or_equiv
  _atom_site_type_symbol
  P1       1.0000 0.16710  0.03247  0.16182  Biso   1.000  P
  Hf1      1.0000 0.28971  0.23087  0.39490  Biso   1.000  Hf
  Hf2      1.0000 0.70557  0.26839  0.10588  Biso   1.000  Hf
  Hf3      1.0000 0.72318  0.47729  0.35164  Biso   1.000  Hf
  O1       1.0000 0.07764  0.15188  0.08178  Biso   1.000  O
  O2       1.0000 0.07804  0.08221  0.31007  Biso   1.000  O
  O3       1.0000 0.93084  0.41081  0.17279  Biso   1.000  O
  O4       1.0000 0.93324  0.33120  0.42068  Biso   1.000  O
  O5       1.0000 0.57130  0.13566  0.25000  Biso   1.000  O
  O6       1.0000 0.55150  0.11885  0.49290  Biso   1.000  O
  O7       1.0000 0.44724  0.38003  0.01044  Biso   1.000  O
  O8       1.0000 0.43972  0.37306  0.25858  Biso   1.000  O
  Hf4      1.0000 0.27401  0.01968  0.64785  Biso   1.000  Hf
  Hf5      1.0000 0.29103  0.22787  0.89284  Biso   1.000  Hf
  Hf6      1.0000 0.72906  0.27018  0.60294  Biso   1.000  Hf
  Hf7      1.0000 0.73316  0.47691  0.85610  Biso   1.000  Hf
  O9       1.0000 0.06522  0.15785  0.56748  Biso   1.000  O
  O10      1.0000 0.07176  0.08648  0.82651  Biso   1.000  O
  O11      1.0000 0.94294  0.41067  0.67511  Biso   1.000  O
  O12      1.0000 0.94366  0.33519  0.93023  Biso   1.000  O
  O13      1.0000 0.55332  0.12812  0.73592  Biso   1.000  O
  O14      1.0000 0.57821  0.13440  0.97784  Biso   1.000  O
  O15      1.0000 0.44953  0.37614  0.50897  Biso   1.000  O
  O16      1.0000 0.45756  0.37081  0.76004  Biso   1.000  O
  Hf8      1.0000 0.26920  0.52228  0.14469  Biso   1.000  Hf
  Hf9      1.0000 0.27755  0.72625  0.39517  Biso   1.000  Hf
  Hf10     1.0000 0.70914  0.77235  0.10132  Biso   1.000  Hf
  Hf11     1.0000 0.69892  0.97694  0.35828  Biso   1.000  Hf
  O17      1.0000 0.06539  0.67085  0.07965  Biso   1.000  O
  O18      1.0000 0.06301  0.58384  0.32699  Biso   1.000  O
  O19      1.0000 0.93435  0.92910  0.16807  Biso   1.000  O
  O20      1.0000 0.93593  0.83830  0.42167  Biso   1.000  O
  O21      1.0000 0.54771  0.62445  0.23792  Biso   1.000  O
  O22      1.0000 0.55405  0.61984  0.48972  Biso   1.000  O
  O23      1.0000 0.45234  0.87899  0.00530  Biso   1.000  O
  O24      1.0000 0.46990  0.86275  0.26444  Biso   1.000  O
  Hf12     1.0000 0.28215  0.52215  0.64763  Biso   1.000  Hf
  Hf13     1.0000 0.28019  0.73345  0.89724  Biso   1.000  Hf
  Hf14     1.0000 0.72500  0.77137  0.60466  Biso   1.000  Hf
  Hf15     1.0000 0.71878  0.98117  0.85713  Biso   1.000  Hf
  O25      1.0000 0.06884  0.66369  0.57704  Biso   1.000  O
  O26      1.0000 0.07259  0.58470  0.82799  Biso   1.000  O
  O27      1.0000 0.93155  0.91392  0.67509  Biso   1.000  O
  O28      1.0000 0.93488  0.83781  0.92502  Biso   1.000  O
  O29      1.0000 0.55758  0.62834  0.74035  Biso   1.000  O
  O30      1.0000 0.55405  0.62208  0.99108  Biso   1.000  O
  O31      1.0000 0.44384  0.87667  0.51152  Biso   1.000  O
  O32      1.0000 0.44850  0.87166  0.75869  Biso   1.000  O
