data_image0
_cell_length_a       10.0234
_cell_length_b       10.2107
_cell_length_c       10.4637
_cell_angle_alpha    89.8418
_cell_angle_beta     90.2533
_cell_angle_gamma    89.7757

_symmetry_space_group_name_H-M    "P 1"
_symmetry_int_tables_number       1

loop_
  _symmetry_equiv_pos_as_xyz
  'x, y, z'

loop_
  _atom_site_label
  _atom_site_occupancy
  _atom_site_fract_x
  _atom_site_fract_y
  _atom_site_fract_z
  _atom_site_thermal_displace_type
  _atom_site_B_iso_or_equiv
  _atom_site_type_symbol
  P1       1.0000 0.08518  0.03204  0.18527  Biso   1.000  P
  Hf1      1.0000 0.14446  0.23272  0.42223  Biso   1.000  Hf
  Hf2      1.0000 0.35703  0.26629  0.17047  Biso   1.000  Hf
  Hf3      1.0000 0.36166  0.48038  0.42061  Biso   1.000  Hf
  Hf4      1.0000 0.63885  0.02182  0.07722  Biso   1.000  Hf
  Hf5      1.0000 0.63582  0.22995  0.32892  Biso   1.000  Hf
  Hf6      1.0000 0.85816  0.27238  0.08084  Biso   1.000  Hf
  Hf7      1.0000 0.86194  0.47899  0.32912  Biso   1.000  Hf
  O1       1.0000 0.04062  0.15039  0.09239  Biso   1.000  O
  O2       1.0000 0.03085  0.08537  0.32076  Biso   1.000  O
  O3       1.0000 0.46578  0.41454  0.08476  Biso   1.000  O
  O4       1.0000 0.46713  0.33592  0.33427  Biso   1.000  O
  O5       1.0000 0.27645  0.13069  0.30032  Biso   1.000  O
  O6       1.0000 0.29368  0.13923  0.03051  Biso   1.000  O
  O7       1.0000 0.22314  0.37714  0.29579  Biso   1.000  O
  O8       1.0000 0.21958  0.37711  0.04612  Biso   1.000  O
  O9       1.0000 0.53490  0.16663  0.16587  Biso   1.000  O
  O10      1.0000 0.53337  0.08402  0.41560  Biso   1.000  O
  O11      1.0000 0.96823  0.41203  0.16826  Biso   1.000  O
  O12      1.0000 0.96755  0.33338  0.41633  Biso   1.000  O
  O13      1.0000 0.77568  0.12173  0.45629  Biso   1.000  O
  O14      1.0000 0.77786  0.12599  0.20684  Biso   1.000  O
  O15      1.0000 0.72466  0.37291  0.45605  Biso   1.000  O
  O16      1.0000 0.72370  0.37608  0.20509  Biso   1.000  O
  Hf8      1.0000 0.13936  0.01993  0.66996  Biso   1.000  Hf
  Hf9      1.0000 0.14729  0.22587  0.92045  Biso   1.000  Hf
  Hf10     1.0000 0.36279  0.27131  0.67160  Biso   1.000  Hf
  Hf11     1.0000 0.36114  0.47764  0.92329  Biso   1.000  Hf
  Hf12     1.0000 0.63505  0.02020  0.58002  Biso   1.000  Hf
  Hf13     1.0000 0.64023  0.22854  0.82901  Biso   1.000  Hf
  Hf14     1.0000 0.86243  0.26986  0.57841  Biso   1.000  Hf
  Hf15     1.0000 0.86540  0.47576  0.83066  Biso   1.000  Hf
  O17      1.0000 0.03112  0.15817  0.57412  Biso   1.000  O
  O18      1.0000 0.03420  0.08608  0.83245  Biso   1.000  O
  O19      1.0000 0.46719  0.41662  0.58396  Biso   1.000  O
  O20      1.0000 0.46869  0.33443  0.83356  Biso   1.000  O
  O21      1.0000 0.27663  0.12189  0.78984  Biso   1.000  O
  O22      1.0000 0.27724  0.12722  0.54533  Biso   1.000  O
  O23      1.0000 0.22481  0.37172  0.79594  Biso   1.000  O
  O24      1.0000 0.22376  0.37642  0.54479  Biso   1.000  O
  O25      1.0000 0.53429  0.16670  0.66617  Biso   1.000  O
  O26      1.0000 0.53876  0.08185  0.91380  Biso   1.000  O
  O27      1.0000 0.97061  0.40986  0.67006  Biso   1.000  O
  O28      1.0000 0.97001  0.33024  0.92448  Biso   1.000  O
  O29      1.0000 0.78094  0.12383  0.95677  Biso   1.000  O
  O30      1.0000 0.77700  0.12570  0.70507  Biso   1.000  O
  O31      1.0000 0.72536  0.37323  0.95711  Biso   1.000  O
  O32      1.0000 0.72611  0.37589  0.70615  Biso   1.000  O
  Hf16     1.0000 0.13964  0.52153  0.17171  Biso   1.000  Hf
  Hf17     1.0000 0.13898  0.73076  0.41942  Biso   1.000  Hf
  Hf18     1.0000 0.35537  0.77744  0.16992  Biso   1.000  Hf
  Hf19     1.0000 0.35700  0.98085  0.41666  Biso   1.000  Hf
  Hf20     1.0000 0.63497  0.52166  0.07976  Biso   1.000  Hf
  Hf21     1.0000 0.63499  0.72726  0.32710  Biso   1.000  Hf
  Hf22     1.0000 0.86120  0.76714  0.07550  Biso   1.000  Hf
  Hf23     1.0000 0.84875  0.97714  0.33504  Biso   1.000  Hf
  O33      1.0000 0.03394  0.66872  0.08576  Biso   1.000  O
  O34      1.0000 0.03176  0.58588  0.33334  Biso   1.000  O
  O35      1.0000 0.47130  0.91547  0.08307  Biso   1.000  O
  O36      1.0000 0.46745  0.83874  0.33069  Biso   1.000  O
  O37      1.0000 0.27615  0.62534  0.29452  Biso   1.000  O
  O38      1.0000 0.27590  0.62356  0.04576  Biso   1.000  O
  O39      1.0000 0.22072  0.87373  0.29551  Biso   1.000  O
  O40      1.0000 0.23255  0.87055  0.03615  Biso   1.000  O
  O41      1.0000 0.53083  0.66660  0.16609  Biso   1.000  O
  O42      1.0000 0.53320  0.58481  0.41677  Biso   1.000  O
  O43      1.0000 0.96884  0.92750  0.16574  Biso   1.000  O
  O44      1.0000 0.96447  0.83759  0.41544  Biso   1.000  O
  O45      1.0000 0.77629  0.62331  0.45553  Biso   1.000  O
  O46      1.0000 0.77536  0.62540  0.20490  Biso   1.000  O
  O47      1.0000 0.71929  0.87194  0.45624  Biso   1.000  O
  O48      1.0000 0.72998  0.87544  0.20563  Biso   1.000  O
  Hf24     1.0000 0.13925  0.52225  0.67253  Biso   1.000  Hf
  Hf25     1.0000 0.14285  0.73119  0.92163  Biso   1.000  Hf
  Hf26     1.0000 0.36174  0.77180  0.67037  Biso   1.000  Hf
  Hf27     1.0000 0.36066  0.97915  0.92315  Biso   1.000  Hf
  Hf28     1.0000 0.63985  0.52051  0.57979  Biso   1.000  Hf
  Hf29     1.0000 0.63847  0.72892  0.82839  Biso   1.000  Hf
  Hf30     1.0000 0.86078  0.76959  0.57981  Biso   1.000  Hf
  Hf31     1.0000 0.86292  0.97914  0.82825  Biso   1.000  Hf
  O49      1.0000 0.03239  0.66454  0.58331  Biso   1.000  O
  O50      1.0000 0.03447  0.58275  0.83488  Biso   1.000  O
  O51      1.0000 0.46471  0.91618  0.58218  Biso   1.000  O
  O52      1.0000 0.46825  0.83487  0.83150  Biso   1.000  O
  O53      1.0000 0.27765  0.62273  0.79458  Biso   1.000  O
  O54      1.0000 0.27594  0.62688  0.54449  Biso   1.000  O
  O55      1.0000 0.22367  0.87263  0.79142  Biso   1.000  O
  O56      1.0000 0.22210  0.87731  0.54315  Biso   1.000  O
  O57      1.0000 0.53467  0.66568  0.66567  Biso   1.000  O
  O58      1.0000 0.53349  0.58351  0.91616  Biso   1.000  O
  O59      1.0000 0.96689  0.91357  0.66728  Biso   1.000  O
  O60      1.0000 0.96823  0.83486  0.91818  Biso   1.000  O
  O61      1.0000 0.77788  0.62346  0.95703  Biso   1.000  O
  O62      1.0000 0.77841  0.62460  0.70681  Biso   1.000  O
  O63      1.0000 0.72519  0.87330  0.95501  Biso   1.000  O
  O64      1.0000 0.72395  0.87549  0.70524  Biso   1.000  O
