data_image0
_cell_length_a       10.1023
_cell_length_b       10.2946
_cell_length_c       10.1208
_cell_angle_alpha    90.7858
_cell_angle_beta     92.2559
_cell_angle_gamma    88.6726

_symmetry_space_group_name_H-M    "P 1"
_symmetry_int_tables_number       1

loop_
  _symmetry_equiv_pos_as_xyz
  'x, y, z'

loop_
  _atom_site_label
  _atom_site_occupancy
  _atom_site_fract_x
  _atom_site_fract_y
  _atom_site_fract_z
  _atom_site_thermal_displace_type
  _atom_site_B_iso_or_equiv
  _atom_site_type_symbol
  Hf1      1.0000 0.13795  0.97284  0.12592  Biso   1.000  Hf
  Hf2      1.0000 0.11717  0.21627  0.35753  Biso   1.000  Hf
  Hf3      1.0000 0.36667  0.23121  0.10739  Biso   1.000  Hf
  Hf4      1.0000 0.39623  0.00650  0.36931  Biso   1.000  Hf
  O1       1.0000 0.00261  0.17586  0.99745  Biso   1.000  O
  O2       1.0000 0.99809  0.08163  0.24669  Biso   1.000  O
  O3       1.0000 0.96326  0.33947  0.31653  Biso   1.000  O
  O4       1.0000 0.94270  0.43004  0.05553  Biso   1.000  O
  O5       1.0000 0.25928  0.12390  0.23948  Biso   1.000  O
  O6       1.0000 0.25629  0.07689  0.98799  Biso   1.000  O
  O7       1.0000 0.31604  0.30916  0.92571  Biso   1.000  O
  O8       1.0000 0.24474  0.39403  0.19786  Biso   1.000  O
  Hf5      1.0000 0.13423  0.98558  0.62020  Biso   1.000  Hf
  Hf6      1.0000 0.14061  0.23698  0.84824  Biso   1.000  Hf
  Hf7      1.0000 0.36068  0.24542  0.59943  Biso   1.000  Hf
  Hf8      1.0000 0.39992  0.00970  0.86805  Biso   1.000  Hf
  O9       1.0000 0.00536  0.15306  0.50731  Biso   1.000  O
  O10      1.0000 0.00928  0.09947  0.74879  Biso   1.000  O
  O11      1.0000 0.97970  0.34968  0.79735  Biso   1.000  O
  O12      1.0000 0.96770  0.41541  0.55164  Biso   1.000  O
  O13      1.0000 0.26028  0.13067  0.72559  Biso   1.000  O
  O14      1.0000 0.25267  0.08764  0.48578  Biso   1.000  O
  O15      1.0000 0.25103  0.33505  0.45239  Biso   1.000  O
  O16      1.0000 0.22752  0.38297  0.71020  Biso   1.000  O
  Hf9      1.0000 0.11046  0.53319  0.11251  Biso   1.000  Hf
  Hf10     1.0000 0.12545  0.74904  0.37540  Biso   1.000  Hf
  Hf11     1.0000 0.39018  0.75697  0.15048  Biso   1.000  Hf
  Hf12     1.0000 0.35147  0.48743  0.34495  Biso   1.000  Hf
  O17      1.0000 0.99038  0.66534  0.99749  Biso   1.000  O
  O18      1.0000 0.99349  0.60004  0.26198  Biso   1.000  O
  O19      1.0000 0.02787  0.83064  0.21011  Biso   1.000  O
  O20      1.0000 0.02530  0.91665  0.96218  Biso   1.000  O
  O21      1.0000 0.24672  0.64158  0.23032  Biso   1.000  O
  O22      1.0000 0.22056  0.57010  0.95831  Biso   1.000  O
  O23      1.0000 0.24307  0.81889  0.02658  Biso   1.000  O
  O24      1.0000 0.26481  0.88507  0.27205  Biso   1.000  O
  Hf13     1.0000 0.11654  0.52545  0.61415  Biso   1.000  Hf
  Hf14     1.0000 0.12775  0.75131  0.87017  Biso   1.000  Hf
  Hf15     1.0000 0.39025  0.76167  0.64742  Biso   1.000  Hf
  Hf16     1.0000 0.35932  0.48627  0.84484  Biso   1.000  Hf
  O25      1.0000 0.99089  0.66022  0.50111  Biso   1.000  O
  O26      1.0000 0.99949  0.60667  0.75596  Biso   1.000  O
  O27      1.0000 0.02717  0.84263  0.71277  Biso   1.000  O
  O28      1.0000 0.02126  0.90750  0.46212  Biso   1.000  O
  O29      1.0000 0.25195  0.64263  0.72891  Biso   1.000  O
  O30      1.0000 0.22778  0.58497  0.46604  Biso   1.000  O
  O31      1.0000 0.24649  0.83174  0.52422  Biso   1.000  O
  O32      1.0000 0.26635  0.89006  0.77144  Biso   1.000  O
  Hf17     1.0000 0.63891  0.00309  0.12631  Biso   1.000  Hf
  Hf18     1.0000 0.61175  0.26758  0.36889  Biso   1.000  Hf
  Hf19     1.0000 0.85890  0.25832  0.14852  Biso   1.000  Hf
  Hf20     1.0000 0.86891  0.01067  0.38634  Biso   1.000  Hf
  O33      1.0000 0.51741  0.14579  0.99515  Biso   1.000  O
  O34      1.0000 0.50324  0.10836  0.24096  Biso   1.000  O
  O35      1.0000 0.48810  0.35436  0.22472  Biso   1.000  O
  O36      1.0000 0.51131  0.42472  0.96645  Biso   1.000  O
  O37      1.0000 0.74644  0.15082  0.27336  Biso   1.000  O
  O38      1.0000 0.77714  0.09694  0.03102  Biso   1.000  O
  O39      1.0000 0.71983  0.33852  0.02742  Biso   1.000  O
  O40      1.0000 0.73182  0.40422  0.26844  Biso   1.000  O
  Hf21     1.0000 0.63581  0.00689  0.63108  Biso   1.000  Hf
  Hf22     1.0000 0.61011  0.27207  0.86618  Biso   1.000  Hf
  Hf23     1.0000 0.87707  0.25501  0.63433  Biso   1.000  Hf
  Hf24     1.0000 0.87670  0.02038  0.87927  Biso   1.000  Hf
  O41      1.0000 0.50317  0.15094  0.49054  Biso   1.000  O
  O42      1.0000 0.50932  0.11588  0.74396  Biso   1.000  O
  O43      1.0000 0.48534  0.36006  0.71917  Biso   1.000  O
  O44      1.0000 0.48990  0.40680  0.47598  Biso   1.000  O
  O45      1.0000 0.75737  0.16463  0.77296  Biso   1.000  O
  O46      1.0000 0.76327  0.10531  0.52581  Biso   1.000  O
  O47      1.0000 0.72774  0.34897  0.52070  Biso   1.000  O
  O48      1.0000 0.72833  0.41540  0.77060  Biso   1.000  O
  Hf25     1.0000 0.61332  0.49812  0.12284  Biso   1.000  Hf
  Hf26     1.0000 0.62038  0.73970  0.39900  Biso   1.000  Hf
  Hf27     1.0000 0.86090  0.74438  0.13943  Biso   1.000  Hf
  Hf28     1.0000 0.87132  0.50392  0.38740  Biso   1.000  Hf
  O49      1.0000 0.49774  0.65330  0.02439  Biso   1.000  O
  O50      1.0000 0.49582  0.60599  0.26894  Biso   1.000  O
  O51      1.0000 0.52110  0.86202  0.26636  Biso   1.000  O
  O52      1.0000 0.49652  0.89866  0.01472  Biso   1.000  O
  O53      1.0000 0.74638  0.65170  0.26922  Biso   1.000  O
  O54      1.0000 0.74354  0.60206  0.01513  Biso   1.000  O
  O55      1.0000 0.75167  0.85516  0.99960  Biso   1.000  O
  O56      1.0000 0.77565  0.90239  0.24389  Biso   1.000  O
  Hf29     1.0000 0.60829  0.49692  0.61974  Biso   1.000  Hf
  Hf30     1.0000 0.61787  0.73973  0.90012  Biso   1.000  Hf
  Hf31     1.0000 0.86631  0.74945  0.63930  Biso   1.000  Hf
  Hf32     1.0000 0.87281  0.51029  0.87669  Biso   1.000  Hf
  O57      1.0000 0.49859  0.65182  0.52135  Biso   1.000  O
  O58      1.0000 0.50146  0.61045  0.76583  Biso   1.000  O
  O59      1.0000 0.52354  0.86592  0.76453  Biso   1.000  O
  O60      1.0000 0.50098  0.90055  0.51649  Biso   1.000  O
  O61      1.0000 0.75667  0.66409  0.77436  Biso   1.000  O
  O62      1.0000 0.74453  0.60359  0.51965  Biso   1.000  O
  O63      1.0000 0.75561  0.85737  0.49739  Biso   1.000  O
  O64      1.0000 0.77871  0.91346  0.74128  Biso   1.000  O
  P1       1.0000 0.10276  0.27525  0.08918  Biso   1.000  P
