data_image0
_cell_length_a       10.0905
_cell_length_b       5.12398
_cell_length_c       10.572
_cell_angle_alpha    90.3021
_cell_angle_beta     91.2185
_cell_angle_gamma    89.1414

_symmetry_space_group_name_H-M    "P 1"
_symmetry_int_tables_number       1

loop_
  _symmetry_equiv_pos_as_xyz
  'x, y, z'

loop_
  _atom_site_label
  _atom_site_occupancy
  _atom_site_fract_x
  _atom_site_fract_y
  _atom_site_fract_z
  _atom_site_thermal_displace_type
  _atom_site_B_iso_or_equiv
  _atom_site_type_symbol
  Hf1      1.0000 0.13457  0.03389  0.17639  Biso   1.000  Hf
  Hf2      1.0000 0.13904  0.45513  0.42597  Biso   1.000  Hf
  Hf3      1.0000 0.35476  0.51922  0.18411  Biso   1.000  Hf
  Hf4      1.0000 0.36527  0.95475  0.42570  Biso   1.000  Hf
  Hf5      1.0000 0.64960  0.05633  0.07899  Biso   1.000  Hf
  Hf6      1.0000 0.63969  0.45769  0.33151  Biso   1.000  Hf
  Hf7      1.0000 0.86230  0.54776  0.07658  Biso   1.000  Hf
  Hf8      1.0000 0.86204  0.95762  0.33037  Biso   1.000  Hf
  O1       1.0000 0.03061  0.32568  0.08444  Biso   1.000  O
  O2       1.0000 0.03068  0.17292  0.33573  Biso   1.000  O
  O3       1.0000 0.48284  0.82456  0.08046  Biso   1.000  O
  O4       1.0000 0.47178  0.68621  0.32443  Biso   1.000  O
  O5       1.0000 0.27122  0.24475  0.30022  Biso   1.000  O
  O6       1.0000 0.26646  0.21824  0.05197  Biso   1.000  O
  O7       1.0000 0.22192  0.74597  0.30395  Biso   1.000  O
  O8       1.0000 0.22444  0.73774  0.05628  Biso   1.000  O
  O9       1.0000 0.52319  0.26735  0.19851  Biso   1.000  O
  O10      1.0000 0.52749  0.19716  0.43407  Biso   1.000  O
  O11      1.0000 0.96520  0.82858  0.17088  Biso   1.000  O
  O12      1.0000 0.96948  0.67365  0.42068  Biso   1.000  O
  O13      1.0000 0.77585  0.24811  0.45486  Biso   1.000  O
  O14      1.0000 0.77747  0.26287  0.20472  Biso   1.000  O
  O15      1.0000 0.72784  0.75242  0.45601  Biso   1.000  O
  O16      1.0000 0.72400  0.75574  0.20588  Biso   1.000  O
  Hf9      1.0000 0.14368  0.04245  0.67446  Biso   1.000  Hf
  Hf10     1.0000 0.14338  0.45209  0.92823  Biso   1.000  Hf
  Hf11     1.0000 0.36601  0.54239  0.67334  Biso   1.000  Hf
  Hf12     1.0000 0.35595  0.94310  0.92597  Biso   1.000  Hf
  Hf13     1.0000 0.64042  0.04537  0.57912  Biso   1.000  Hf
  Hf14     1.0000 0.65105  0.48115  0.82064  Biso   1.000  Hf
  Hf15     1.0000 0.86672  0.54497  0.57884  Biso   1.000  Hf
  Hf16     1.0000 0.87112  0.96619  0.82846  Biso   1.000  Hf
  O17      1.0000 0.03625  0.32642  0.58414  Biso   1.000  O
  O18      1.0000 0.04047  0.17136  0.83394  Biso   1.000  O
  O19      1.0000 0.47821  0.80290  0.57074  Biso   1.000  O
  O20      1.0000 0.48255  0.73316  0.80622  Biso   1.000  O
  O21      1.0000 0.28167  0.24409  0.79895  Biso   1.000  O
  O22      1.0000 0.27789  0.24771  0.54882  Biso   1.000  O
  O23      1.0000 0.22815  0.73691  0.80009  Biso   1.000  O
  O24      1.0000 0.22986  0.75199  0.54997  Biso   1.000  O
  O25      1.0000 0.53393  0.31389  0.68047  Biso   1.000  O
  O26      1.0000 0.52251  0.17574  0.92458  Biso   1.000  O
  O27      1.0000 0.97501  0.82719  0.66910  Biso   1.000  O
  O28      1.0000 0.97499  0.67417  0.92034  Biso   1.000  O
  O29      1.0000 0.78104  0.26222  0.94856  Biso   1.000  O
  O30      1.0000 0.78381  0.25421  0.70086  Biso   1.000  O
  O31      1.0000 0.73917  0.78175  0.95286  Biso   1.000  O
  O32      1.0000 0.73451  0.75546  0.70459  Biso   1.000  O
  P1       1.0000 0.50270  0.49943  0.00218  Biso   1.000  P
