data_image0
_cell_length_a       9.94901
_cell_length_b       10.3637
_cell_length_c       9.99916
_cell_angle_alpha    90.0716
_cell_angle_beta     89.6585
_cell_angle_gamma    89.9295

_symmetry_space_group_name_H-M    "P 1"
_symmetry_int_tables_number       1

loop_
  _symmetry_equiv_pos_as_xyz
  'x, y, z'

loop_
  _atom_site_label
  _atom_site_occupancy
  _atom_site_fract_x
  _atom_site_fract_y
  _atom_site_fract_z
  _atom_site_thermal_displace_type
  _atom_site_B_iso_or_equiv
  _atom_site_type_symbol
  P1       1.0000 0.08537  0.03542  0.10800  Biso   1.000  P
  Hf1      1.0000 0.14327  0.23054  0.37697  Biso   1.000  Hf
  Hf2      1.0000 0.36488  0.26357  0.12773  Biso   1.000  Hf
  Hf3      1.0000 0.36707  0.48356  0.37632  Biso   1.000  Hf
  O1       1.0000 0.04258  0.17193  0.18001  Biso   1.000  O
  O2       1.0000 0.03814  0.06650  0.44424  Biso   1.000  O
  O3       1.0000 0.46315  0.43346  0.19490  Biso   1.000  O
  O4       1.0000 0.46504  0.31615  0.44620  Biso   1.000  O
  O5       1.0000 0.28767  0.13090  0.26137  Biso   1.000  O
  O6       1.0000 0.26950  0.13137  0.50712  Biso   1.000  O
  O7       1.0000 0.23013  0.38062  0.50041  Biso   1.000  O
  O8       1.0000 0.22627  0.36899  0.24948  Biso   1.000  O
  Hf4      1.0000 0.13507  0.01640  0.62888  Biso   1.000  Hf
  Hf5      1.0000 0.13819  0.23814  0.87736  Biso   1.000  Hf
  Hf6      1.0000 0.36667  0.26693  0.62771  Biso   1.000  Hf
  Hf7      1.0000 0.36679  0.48468  0.87692  Biso   1.000  Hf
  O9       1.0000 0.03250  0.18063  0.70354  Biso   1.000  O
  O10      1.0000 0.02999  0.06309  0.95931  Biso   1.000  O
  O11      1.0000 0.46358  0.43537  0.69370  Biso   1.000  O
  O12      1.0000 0.46221  0.31529  0.94089  Biso   1.000  O
  O13      1.0000 0.26935  0.11856  0.75443  Biso   1.000  O
  O14      1.0000 0.26476  0.13449  0.00222  Biso   1.000  O
  O15      1.0000 0.22972  0.38352  0.00057  Biso   1.000  O
  O16      1.0000 0.22900  0.36903  0.75088  Biso   1.000  O
  Hf8      1.0000 0.13493  0.51635  0.12738  Biso   1.000  Hf
  Hf9      1.0000 0.13809  0.73416  0.37777  Biso   1.000  Hf
  Hf10     1.0000 0.36255  0.76766  0.12757  Biso   1.000  Hf
  Hf11     1.0000 0.36249  0.98276  0.37247  Biso   1.000  Hf
  O17      1.0000 0.03692  0.68643  0.19410  Biso   1.000  O
  O18      1.0000 0.03742  0.56450  0.44471  Biso   1.000  O
  O19      1.0000 0.46989  0.93285  0.19630  Biso   1.000  O
  O20      1.0000 0.46988  0.81821  0.45215  Biso   1.000  O
  O21      1.0000 0.27008  0.61383  0.25049  Biso   1.000  O
  O22      1.0000 0.27360  0.63194  0.50137  Biso   1.000  O
  O23      1.0000 0.22936  0.88183  0.50504  Biso   1.000  O
  O24      1.0000 0.24330  0.85731  0.26170  Biso   1.000  O
  Hf12     1.0000 0.13490  0.51818  0.62592  Biso   1.000  Hf
  Hf13     1.0000 0.13538  0.73446  0.87969  Biso   1.000  Hf
  Hf14     1.0000 0.36638  0.76905  0.62873  Biso   1.000  Hf
  Hf15     1.0000 0.35883  0.98362  0.88540  Biso   1.000  Hf
  O25      1.0000 0.03716  0.68489  0.69291  Biso   1.000  O
  O26      1.0000 0.03418  0.56630  0.94609  Biso   1.000  O
  O27      1.0000 0.46160  0.93537  0.69995  Biso   1.000  O
  O28      1.0000 0.46170  0.81630  0.94471  Biso   1.000  O
  O29      1.0000 0.27018  0.61919  0.75176  Biso   1.000  O
  O30      1.0000 0.27095  0.63023  0.00163  Biso   1.000  O
  O31      1.0000 0.22431  0.87842  0.00478  Biso   1.000  O
  O32      1.0000 0.22678  0.87025  0.75381  Biso   1.000  O
  Hf16     1.0000 0.63488  0.01753  0.12553  Biso   1.000  Hf
  Hf17     1.0000 0.63353  0.23339  0.37529  Biso   1.000  Hf
  Hf18     1.0000 0.85959  0.26980  0.12261  Biso   1.000  Hf
  Hf19     1.0000 0.86823  0.48208  0.37594  Biso   1.000  Hf
  O33      1.0000 0.54376  0.18774  0.19011  Biso   1.000  O
  O34      1.0000 0.53694  0.06600  0.44139  Biso   1.000  O
  O35      1.0000 0.96556  0.42768  0.19438  Biso   1.000  O
  O36      1.0000 0.96589  0.31280  0.44147  Biso   1.000  O
  O37      1.0000 0.77677  0.11897  0.24769  Biso   1.000  O
  O38      1.0000 0.77144  0.13167  0.49773  Biso   1.000  O
  O39      1.0000 0.73138  0.38181  0.49939  Biso   1.000  O
  O40      1.0000 0.72845  0.36947  0.24985  Biso   1.000  O
  Hf20     1.0000 0.62811  0.01420  0.62256  Biso   1.000  Hf
  Hf21     1.0000 0.63149  0.23188  0.87416  Biso   1.000  Hf
  Hf22     1.0000 0.86727  0.26465  0.62437  Biso   1.000  Hf
  Hf23     1.0000 0.86646  0.48308  0.87369  Biso   1.000  Hf
  O41      1.0000 0.53605  0.18433  0.69263  Biso   1.000  O
  O42      1.0000 0.53361  0.06614  0.94685  Biso   1.000  O
  O43      1.0000 0.96501  0.43263  0.69303  Biso   1.000  O
  O44      1.0000 0.96399  0.31505  0.94456  Biso   1.000  O
  O45      1.0000 0.76625  0.11457  0.74597  Biso   1.000  O
  O46      1.0000 0.77105  0.13137  0.99595  Biso   1.000  O
  O47      1.0000 0.72915  0.38143  0.99991  Biso   1.000  O
  O48      1.0000 0.73024  0.36587  0.74905  Biso   1.000  O
  Hf24     1.0000 0.63244  0.51753  0.12788  Biso   1.000  Hf
  Hf25     1.0000 0.63540  0.73523  0.37408  Biso   1.000  Hf
  Hf26     1.0000 0.86830  0.76216  0.11981  Biso   1.000  Hf
  Hf27     1.0000 0.86710  0.98672  0.37841  Biso   1.000  Hf
  O49      1.0000 0.53749  0.68534  0.19537  Biso   1.000  O
  O50      1.0000 0.53855  0.56600  0.44226  Biso   1.000  O
  O51      1.0000 0.97305  0.94514  0.17559  Biso   1.000  O
  O52      1.0000 0.96511  0.81795  0.43994  Biso   1.000  O
  O53      1.0000 0.77347  0.61613  0.24780  Biso   1.000  O
  O54      1.0000 0.77101  0.63311  0.49797  Biso   1.000  O
  O55      1.0000 0.73213  0.88377  0.49827  Biso   1.000  O
  O56      1.0000 0.74233  0.86831  0.24752  Biso   1.000  O
  Hf28     1.0000 0.63436  0.51637  0.62444  Biso   1.000  Hf
  Hf29     1.0000 0.63078  0.73275  0.87539  Biso   1.000  Hf
  Hf30     1.0000 0.86767  0.76536  0.62334  Biso   1.000  Hf
  Hf31     1.0000 0.85735  0.97999  0.87017  Biso   1.000  Hf
  O57      1.0000 0.53585  0.68310  0.69545  Biso   1.000  O
  O58      1.0000 0.53680  0.56505  0.94547  Biso   1.000  O
  O59      1.0000 0.96215  0.93426  0.69301  Biso   1.000  O
  O60      1.0000 0.95938  0.81511  0.93764  Biso   1.000  O
  O61      1.0000 0.77103  0.61647  0.74825  Biso   1.000  O
  O62      1.0000 0.76971  0.63201  0.99864  Biso   1.000  O
  O63      1.0000 0.72646  0.88145  0.99761  Biso   1.000  O
  O64      1.0000 0.72782  0.86545  0.74748  Biso   1.000  O
