data_image0
_cell_length_a       10.0164
_cell_length_b       10.4083
_cell_length_c       5.07507
_cell_angle_alpha    89.7464
_cell_angle_beta     89.6611
_cell_angle_gamma    91.0648

_symmetry_space_group_name_H-M    "P 1"
_symmetry_int_tables_number       1

loop_
  _symmetry_equiv_pos_as_xyz
  'x, y, z'

loop_
  _atom_site_label
  _atom_site_occupancy
  _atom_site_fract_x
  _atom_site_fract_y
  _atom_site_fract_z
  _atom_site_thermal_displace_type
  _atom_site_B_iso_or_equiv
  _atom_site_type_symbol
  Hf1      1.0000 0.14555  0.00779  0.24709  Biso   1.000  Hf
  Hf2      1.0000 0.14185  0.22190  0.78451  Biso   1.000  Hf
  Hf3      1.0000 0.37107  0.26182  0.24509  Biso   1.000  Hf
  Hf4      1.0000 0.37188  0.48727  0.74292  Biso   1.000  Hf
  O1       1.0000 0.02577  0.18018  0.44236  Biso   1.000  O
  O2       1.0000 0.03739  0.06111  0.91030  Biso   1.000  O
  O3       1.0000 0.46267  0.43146  0.38790  Biso   1.000  O
  O4       1.0000 0.46711  0.31453  0.88505  Biso   1.000  O
  O5       1.0000 0.26833  0.10988  0.50656  Biso   1.000  O
  O6       1.0000 0.29313  0.11610  0.99160  Biso   1.000  O
  O7       1.0000 0.24150  0.38955  0.99932  Biso   1.000  O
  O8       1.0000 0.23168  0.35874  0.52514  Biso   1.000  O
  Hf5      1.0000 0.12530  0.52202  0.24075  Biso   1.000  Hf
  Hf6      1.0000 0.13261  0.73347  0.74757  Biso   1.000  Hf
  Hf7      1.0000 0.36805  0.76091  0.24754  Biso   1.000  Hf
  Hf8      1.0000 0.37418  0.97711  0.74540  Biso   1.000  Hf
  O9       1.0000 0.03383  0.68770  0.39079  Biso   1.000  O
  O10      1.0000 0.03301  0.56801  0.88882  Biso   1.000  O
  O11      1.0000 0.46840  0.92935  0.38269  Biso   1.000  O
  O12      1.0000 0.46761  0.81350  0.89253  Biso   1.000  O
  O13      1.0000 0.26595  0.61261  0.49326  Biso   1.000  O
  O14      1.0000 0.26850  0.63446  0.99092  Biso   1.000  O
  O15      1.0000 0.23159  0.87813  0.99557  Biso   1.000  O
  O16      1.0000 0.23560  0.86148  0.49454  Biso   1.000  O
  Hf9      1.0000 0.63714  0.01649  0.24803  Biso   1.000  Hf
  Hf10     1.0000 0.63365  0.23132  0.74731  Biso   1.000  Hf
  Hf11     1.0000 0.85419  0.27730  0.23821  Biso   1.000  Hf
  Hf12     1.0000 0.86294  0.48524  0.74631  Biso   1.000  Hf
  O17      1.0000 0.53586  0.17836  0.38988  Biso   1.000  O
  O18      1.0000 0.54426  0.06089  0.88245  Biso   1.000  O
  O19      1.0000 0.94081  0.45402  0.38014  Biso   1.000  O
  O20      1.0000 0.95389  0.31734  0.84905  Biso   1.000  O
  O21      1.0000 0.77155  0.12012  0.49294  Biso   1.000  O
  O22      1.0000 0.77249  0.13495  0.99483  Biso   1.000  O
  O23      1.0000 0.72447  0.38315  0.99930  Biso   1.000  O
  O24      1.0000 0.71992  0.37077  0.49680  Biso   1.000  O
  Hf13     1.0000 0.63340  0.51919  0.25562  Biso   1.000  Hf
  Hf14     1.0000 0.63746  0.73489  0.75411  Biso   1.000  Hf
  Hf15     1.0000 0.86730  0.76926  0.25128  Biso   1.000  Hf
  Hf16     1.0000 0.86794  0.98637  0.74683  Biso   1.000  Hf
  O25      1.0000 0.53127  0.67995  0.40373  Biso   1.000  O
  O26      1.0000 0.53579  0.56792  0.90053  Biso   1.000  O
  O27      1.0000 0.97131  0.93505  0.39765  Biso   1.000  O
  O28      1.0000 0.96547  0.81756  0.89033  Biso   1.000  O
  O29      1.0000 0.76492  0.62375  0.50493  Biso   1.000  O
  O30      1.0000 0.76892  0.63508  0.00475  Biso   1.000  O
  O31      1.0000 0.73421  0.88439  0.99841  Biso   1.000  O
  O32      1.0000 0.73248  0.87026  0.49800  Biso   1.000  O
  P1       1.0000 0.11110  0.27846  0.24382  Biso   1.000  P
