data_image0
_cell_length_a       10.1157
_cell_length_b       10.2096
_cell_length_c       5.23305
_cell_angle_alpha    89.9875
_cell_angle_beta     80.5794
_cell_angle_gamma    89.47

_symmetry_space_group_name_H-M    "P 1"
_symmetry_int_tables_number       1

loop_
  _symmetry_equiv_pos_as_xyz
  'x, y, z'

loop_
  _atom_site_label
  _atom_site_occupancy
  _atom_site_fract_x
  _atom_site_fract_y
  _atom_site_fract_z
  _atom_site_thermal_displace_type
  _atom_site_B_iso_or_equiv
  _atom_site_type_symbol
  P1       1.0000 0.08904  0.02717  0.32714  Biso   1.000  P
  Hf1      1.0000 0.15101  0.22795  0.78363  Biso   1.000  Hf
  Hf2      1.0000 0.35858  0.26675  0.20748  Biso   1.000  Hf
  Hf3      1.0000 0.36165  0.47981  0.70744  Biso   1.000  Hf
  O1       1.0000 0.03901  0.14222  0.15125  Biso   1.000  O
  O2       1.0000 0.03414  0.08454  0.61899  Biso   1.000  O
  O3       1.0000 0.46486  0.41646  0.34322  Biso   1.000  O
  O4       1.0000 0.46890  0.33739  0.84503  Biso   1.000  O
  O5       1.0000 0.27565  0.13120  0.47857  Biso   1.000  O
  O6       1.0000 0.29077  0.13334  0.95373  Biso   1.000  O
  O7       1.0000 0.22190  0.37887  0.01713  Biso   1.000  O
  O8       1.0000 0.22454  0.37246  0.51896  Biso   1.000  O
  Hf4      1.0000 0.14114  0.52270  0.29222  Biso   1.000  Hf
  Hf5      1.0000 0.14227  0.73348  0.78894  Biso   1.000  Hf
  Hf6      1.0000 0.35559  0.77958  0.20620  Biso   1.000  Hf
  Hf7      1.0000 0.35544  0.98101  0.70546  Biso   1.000  Hf
  O9       1.0000 0.03483  0.66892  0.16107  Biso   1.000  O
  O10      1.0000 0.03563  0.58213  0.65905  Biso   1.000  O
  O11      1.0000 0.46669  0.91728  0.34503  Biso   1.000  O
  O12      1.0000 0.46773  0.83687  0.84436  Biso   1.000  O
  O13      1.0000 0.27664  0.62993  0.47797  Biso   1.000  O
  O14      1.0000 0.27650  0.62164  0.98056  Biso   1.000  O
  O15      1.0000 0.22448  0.88049  0.00491  Biso   1.000  O
  O16      1.0000 0.22235  0.87055  0.51770  Biso   1.000  O
  Hf8      1.0000 0.63578  0.02159  0.29698  Biso   1.000  Hf
  Hf9      1.0000 0.63743  0.22943  0.79259  Biso   1.000  Hf
  Hf10     1.0000 0.86001  0.27084  0.21261  Biso   1.000  Hf
  Hf11     1.0000 0.86631  0.47563  0.71034  Biso   1.000  Hf
  O17      1.0000 0.53825  0.16995  0.15930  Biso   1.000  O
  O18      1.0000 0.53901  0.08100  0.65997  Biso   1.000  O
  O19      1.0000 0.97106  0.40857  0.34990  Biso   1.000  O
  O20      1.0000 0.96885  0.32621  0.85497  Biso   1.000  O
  O21      1.0000 0.77915  0.12758  0.48164  Biso   1.000  O
  O22      1.0000 0.77848  0.12023  0.98388  Biso   1.000  O
  O23      1.0000 0.72761  0.37843  0.02289  Biso   1.000  O
  O24      1.0000 0.72659  0.37013  0.52055  Biso   1.000  O
  Hf12     1.0000 0.63546  0.52133  0.29281  Biso   1.000  Hf
  Hf13     1.0000 0.63520  0.72768  0.79522  Biso   1.000  Hf
  Hf14     1.0000 0.86022  0.76542  0.20554  Biso   1.000  Hf
  Hf15     1.0000 0.85179  0.97703  0.72094  Biso   1.000  Hf
  O25      1.0000 0.53396  0.66806  0.15572  Biso   1.000  O
  O26      1.0000 0.53478  0.58325  0.65540  Biso   1.000  O
  O27      1.0000 0.96833  0.92461  0.34090  Biso   1.000  O
  O28      1.0000 0.96407  0.83565  0.84406  Biso   1.000  O
  O29      1.0000 0.77719  0.62591  0.48132  Biso   1.000  O
  O30      1.0000 0.77859  0.62134  0.98286  Biso   1.000  O
  O31      1.0000 0.72202  0.87825  0.02373  Biso   1.000  O
  O32      1.0000 0.73053  0.86914  0.51981  Biso   1.000  O
