data_image0
_cell_length_a       10.0173
_cell_length_b       5.20167
_cell_length_c       10.1343
_cell_angle_alpha    89.4985
_cell_angle_beta     89.7708
_cell_angle_gamma    90.8723

_symmetry_space_group_name_H-M    "P 1"
_symmetry_int_tables_number       1

loop_
  _symmetry_equiv_pos_as_xyz
  'x, y, z'

loop_
  _atom_site_label
  _atom_site_occupancy
  _atom_site_fract_x
  _atom_site_fract_y
  _atom_site_fract_z
  _atom_site_thermal_displace_type
  _atom_site_B_iso_or_equiv
  _atom_site_type_symbol
  Hf1      1.0000 0.13483  0.03011  0.11719  Biso   1.000  Hf
  Hf2      1.0000 0.13895  0.46397  0.39804  Biso   1.000  Hf
  Hf3      1.0000 0.36534  0.51920  0.12149  Biso   1.000  Hf
  Hf4      1.0000 0.36959  0.96691  0.37427  Biso   1.000  Hf
  O1       1.0000 0.01873  0.38036  0.22762  Biso   1.000  O
  O2       1.0000 0.03803  0.13121  0.45187  Biso   1.000  O
  O3       1.0000 0.46038  0.86287  0.19323  Biso   1.000  O
  O4       1.0000 0.46564  0.63130  0.44607  Biso   1.000  O
  O5       1.0000 0.26236  0.22447  0.25339  Biso   1.000  O
  O6       1.0000 0.27759  0.25849  0.50388  Biso   1.000  O
  O7       1.0000 0.23549  0.76444  0.50393  Biso   1.000  O
  O8       1.0000 0.23081  0.72324  0.25955  Biso   1.000  O
  Hf5      1.0000 0.13726  0.02299  0.62748  Biso   1.000  Hf
  Hf6      1.0000 0.13515  0.45045  0.86756  Biso   1.000  Hf
  Hf7      1.0000 0.37208  0.53052  0.62788  Biso   1.000  Hf
  Hf8      1.0000 0.37597  0.96382  0.87141  Biso   1.000  Hf
  O9       1.0000 0.04111  0.36616  0.68738  Biso   1.000  O
  O10      1.0000 0.03856  0.11204  0.94079  Biso   1.000  O
  O11      1.0000 0.46832  0.86479  0.69114  Biso   1.000  O
  O12      1.0000 0.47009  0.62720  0.94364  Biso   1.000  O
  O13      1.0000 0.27066  0.22711  0.74841  Biso   1.000  O
  O14      1.0000 0.28838  0.24277  0.99001  Biso   1.000  O
  O15      1.0000 0.23986  0.76867  0.99327  Biso   1.000  O
  O16      1.0000 0.23370  0.72680  0.74931  Biso   1.000  O
  Hf9      1.0000 0.63104  0.03857  0.12849  Biso   1.000  Hf
  Hf10     1.0000 0.63434  0.46901  0.37812  Biso   1.000  Hf
  Hf11     1.0000 0.84918  0.55034  0.12216  Biso   1.000  Hf
  Hf12     1.0000 0.86813  0.97700  0.37720  Biso   1.000  Hf
  O17      1.0000 0.53101  0.36055  0.19918  Biso   1.000  O
  O18      1.0000 0.53844  0.13049  0.44547  Biso   1.000  O
  O19      1.0000 0.95056  0.90394  0.19750  Biso   1.000  O
  O20      1.0000 0.96968  0.64321  0.45254  Biso   1.000  O
  O21      1.0000 0.76505  0.24939  0.25172  Biso   1.000  O
  O22      1.0000 0.77245  0.27182  0.50036  Biso   1.000  O
  O23      1.0000 0.73260  0.76603  0.49948  Biso   1.000  O
  O24      1.0000 0.72274  0.74639  0.25089  Biso   1.000  O
  Hf13     1.0000 0.63844  0.03304  0.62379  Biso   1.000  Hf
  Hf14     1.0000 0.63694  0.46420  0.87445  Biso   1.000  Hf
  Hf15     1.0000 0.86904  0.53843  0.62887  Biso   1.000  Hf
  Hf16     1.0000 0.86479  0.96471  0.87109  Biso   1.000  Hf
  O25      1.0000 0.53756  0.36113  0.69678  Biso   1.000  O
  O26      1.0000 0.54363  0.12737  0.94431  Biso   1.000  O
  O27      1.0000 0.96295  0.87588  0.69182  Biso   1.000  O
  O28      1.0000 0.94811  0.61393  0.91158  Biso   1.000  O
  O29      1.0000 0.77208  0.23660  0.74888  Biso   1.000  O
  O30      1.0000 0.77064  0.26709  0.00223  Biso   1.000  O
  O31      1.0000 0.72764  0.76889  0.00043  Biso   1.000  O
  O32      1.0000 0.72706  0.73916  0.74729  Biso   1.000  O
  P1       1.0000 0.10228  0.54525  0.11327  Biso   1.000  P
