data_image0
_cell_length_a       10.2289
_cell_length_b       10.3881
_cell_length_c       5.25121
_cell_angle_alpha    89.0933
_cell_angle_beta     79.4195
_cell_angle_gamma    88.8125

_symmetry_space_group_name_H-M    "P 1"
_symmetry_int_tables_number       1

loop_
  _symmetry_equiv_pos_as_xyz
  'x, y, z'

loop_
  _atom_site_label
  _atom_site_occupancy
  _atom_site_fract_x
  _atom_site_fract_y
  _atom_site_fract_z
  _atom_site_thermal_displace_type
  _atom_site_B_iso_or_equiv
  _atom_site_type_symbol
  Hf1      1.0000 0.13187  0.01881  0.28445  Biso   1.000  Hf
  Hf2      1.0000 0.13907  0.22588  0.78389  Biso   1.000  Hf
  Hf3      1.0000 0.36454  0.27430  0.21269  Biso   1.000  Hf
  Hf4      1.0000 0.35980  0.48126  0.71512  Biso   1.000  Hf
  O1       1.0000 0.03393  0.16884  0.15711  Biso   1.000  O
  O2       1.0000 0.02843  0.08247  0.65836  Biso   1.000  O
  O3       1.0000 0.46910  0.42023  0.36385  Biso   1.000  O
  O4       1.0000 0.48403  0.37841  0.90199  Biso   1.000  O
  O5       1.0000 0.26229  0.11982  0.46352  Biso   1.000  O
  O6       1.0000 0.26716  0.10935  0.96934  Biso   1.000  O
  O7       1.0000 0.22452  0.37494  0.01736  Biso   1.000  O
  O8       1.0000 0.22263  0.37264  0.51887  Biso   1.000  O
  Hf5      1.0000 0.14013  0.51907  0.29203  Biso   1.000  Hf
  Hf6      1.0000 0.13282  0.72458  0.79335  Biso   1.000  Hf
  Hf7      1.0000 0.35704  0.76887  0.20403  Biso   1.000  Hf
  Hf8      1.0000 0.34113  0.96414  0.70120  Biso   1.000  Hf
  O9       1.0000 0.02926  0.66480  0.15941  Biso   1.000  O
  O10      1.0000 0.03519  0.58232  0.65675  Biso   1.000  O
  O11      1.0000 0.45887  0.91196  0.33093  Biso   1.000  O
  O12      1.0000 0.45639  0.82960  0.83782  Biso   1.000  O
  O13      1.0000 0.27342  0.62717  0.48037  Biso   1.000  O
  O14      1.0000 0.27095  0.61980  0.98325  Biso   1.000  O
  O15      1.0000 0.21347  0.87124  0.01720  Biso   1.000  O
  O16      1.0000 0.21380  0.86439  0.51235  Biso   1.000  O
  Hf9      1.0000 0.63554  0.01547  0.28717  Biso   1.000  Hf
  Hf10     1.0000 0.66293  0.24783  0.82189  Biso   1.000  Hf
  Hf11     1.0000 0.86537  0.27392  0.22830  Biso   1.000  Hf
  Hf12     1.0000 0.86553  0.48439  0.71700  Biso   1.000  Hf
  O17      1.0000 0.53095  0.15982  0.12953  Biso   1.000  O
  O18      1.0000 0.51510  0.06185  0.64745  Biso   1.000  O
  O19      1.0000 0.96961  0.41766  0.34834  Biso   1.000  O
  O20      1.0000 0.96293  0.33132  0.84805  Biso   1.000  O
  O21      1.0000 0.76742  0.13186  0.50028  Biso   1.000  O
  O22      1.0000 0.78118  0.11911  0.00296  Biso   1.000  O
  O23      1.0000 0.73122  0.38523  0.04558  Biso   1.000  O
  O24      1.0000 0.73408  0.38253  0.53653  Biso   1.000  O
  Hf13     1.0000 0.63667  0.52881  0.30232  Biso   1.000  Hf
  Hf14     1.0000 0.63441  0.73016  0.78999  Biso   1.000  Hf
  Hf15     1.0000 0.85889  0.77298  0.20902  Biso   1.000  Hf
  Hf16     1.0000 0.85793  0.98080  0.70918  Biso   1.000  Hf
  O25      1.0000 0.53104  0.66627  0.14918  Biso   1.000  O
  O26      1.0000 0.52920  0.59579  0.64796  Biso   1.000  O
  O27      1.0000 0.95739  0.91869  0.34253  Biso   1.000  O
  O28      1.0000 0.96067  0.83147  0.84202  Biso   1.000  O
  O29      1.0000 0.77438  0.63318  0.48466  Biso   1.000  O
  O30      1.0000 0.77349  0.62506  0.98346  Biso   1.000  O
  O31      1.0000 0.71857  0.87987  0.01679  Biso   1.000  O
  O32      1.0000 0.71878  0.87460  0.51918  Biso   1.000  O
  P1       1.0000 0.47707  0.21954  0.61482  Biso   1.000  P
