data_image0
_cell_length_a       10.213
_cell_length_b       5.14196
_cell_length_c       10.5593
_cell_angle_alpha    90.5763
_cell_angle_beta     80.2208
_cell_angle_gamma    90.0705

_symmetry_space_group_name_H-M    "P 1"
_symmetry_int_tables_number       1

loop_
  _symmetry_equiv_pos_as_xyz
  'x, y, z'

loop_
  _atom_site_label
  _atom_site_occupancy
  _atom_site_fract_x
  _atom_site_fract_y
  _atom_site_fract_z
  _atom_site_thermal_displace_type
  _atom_site_B_iso_or_equiv
  _atom_site_type_symbol
  Hf1      1.0000 0.13264  0.04258  0.14160  Biso   1.000  Hf
  Hf2      1.0000 0.14109  0.45983  0.39970  Biso   1.000  Hf
  Hf3      1.0000 0.36422  0.55043  0.10003  Biso   1.000  Hf
  Hf4      1.0000 0.34871  0.96418  0.34989  Biso   1.000  Hf
  O1       1.0000 0.03120  0.33971  0.07711  Biso   1.000  O
  O2       1.0000 0.03169  0.17023  0.32857  Biso   1.000  O
  O3       1.0000 0.45781  0.87731  0.16463  Biso   1.000  O
  O4       1.0000 0.47837  0.66416  0.42140  Biso   1.000  O
  O5       1.0000 0.26267  0.25211  0.23316  Biso   1.000  O
  O6       1.0000 0.26409  0.21641  0.50730  Biso   1.000  O
  O7       1.0000 0.22347  0.76278  0.00701  Biso   1.000  O
  O8       1.0000 0.20669  0.75569  0.25616  Biso   1.000  O
  Hf5      1.0000 0.13496  0.03701  0.65231  Biso   1.000  Hf
  Hf6      1.0000 0.13661  0.46032  0.89868  Biso   1.000  Hf
  Hf7      1.0000 0.35842  0.53364  0.61188  Biso   1.000  Hf
  Hf8      1.0000 0.36056  0.96014  0.85571  Biso   1.000  Hf
  O9       1.0000 0.03237  0.33200  0.58187  Biso   1.000  O
  O10      1.0000 0.03260  0.16717  0.83148  Biso   1.000  O
  O11      1.0000 0.46441  0.82934  0.67216  Biso   1.000  O
  O12      1.0000 0.46771  0.67432  0.92125  Biso   1.000  O
  O13      1.0000 0.27474  0.25905  0.74491  Biso   1.000  O
  O14      1.0000 0.27454  0.24788  0.98902  Biso   1.000  O
  O15      1.0000 0.22729  0.74779  0.51597  Biso   1.000  O
  O16      1.0000 0.22416  0.74176  0.76245  Biso   1.000  O
  Hf9      1.0000 0.63858  0.04476  0.14506  Biso   1.000  Hf
  Hf10     1.0000 0.65872  0.45210  0.39939  Biso   1.000  Hf
  Hf11     1.0000 0.85879  0.54340  0.10355  Biso   1.000  Hf
  Hf12     1.0000 0.86679  0.95357  0.35424  Biso   1.000  Hf
  O17      1.0000 0.53792  0.33695  0.07246  Biso   1.000  O
  O18      1.0000 0.54414  0.15288  0.33672  Biso   1.000  O
  O19      1.0000 0.95976  0.83750  0.17098  Biso   1.000  O
  O20      1.0000 0.96560  0.66722  0.42595  Biso   1.000  O
  O21      1.0000 0.77853  0.25737  0.24079  Biso   1.000  O
  O22      1.0000 0.78036  0.23482  0.49330  Biso   1.000  O
  O23      1.0000 0.72236  0.76116  0.01113  Biso   1.000  O
  O24      1.0000 0.72343  0.73921  0.26086  Biso   1.000  O
  Hf13     1.0000 0.63656  0.04111  0.64743  Biso   1.000  Hf
  Hf14     1.0000 0.63847  0.45837  0.89488  Biso   1.000  Hf
  Hf15     1.0000 0.86339  0.54065  0.60782  Biso   1.000  Hf
  Hf16     1.0000 0.85956  0.95842  0.85617  Biso   1.000  Hf
  O25      1.0000 0.53604  0.33258  0.57696  Biso   1.000  O
  O26      1.0000 0.53263  0.17139  0.82564  Biso   1.000  O
  O27      1.0000 0.96302  0.83280  0.67528  Biso   1.000  O
  O28      1.0000 0.96313  0.66961  0.92279  Biso   1.000  O
  O29      1.0000 0.77419  0.25723  0.74149  Biso   1.000  O
  O30      1.0000 0.77555  0.24525  0.99039  Biso   1.000  O
  O31      1.0000 0.72564  0.75262  0.51235  Biso   1.000  O
  O32      1.0000 0.72320  0.74454  0.76155  Biso   1.000  O
  P1       1.0000 0.40395  0.46857  0.32353  Biso   1.000  P
