data_image0
_cell_length_a       5.04376
_cell_length_b       10.4616
_cell_length_c       10.1807
_cell_angle_alpha    89.6288
_cell_angle_beta     91.2346
_cell_angle_gamma    90.9222

_symmetry_space_group_name_H-M    "P 1"
_symmetry_int_tables_number       1

loop_
  _symmetry_equiv_pos_as_xyz
  'x, y, z'

loop_
  _atom_site_label
  _atom_site_occupancy
  _atom_site_fract_x
  _atom_site_fract_y
  _atom_site_fract_z
  _atom_site_thermal_displace_type
  _atom_site_B_iso_or_equiv
  _atom_site_type_symbol
  Zr1      1.0000 0.27928  0.00903  0.11870  Biso   1.000  Zr
  Zr2      1.0000 0.26940  0.23073  0.40561  Biso   1.000  Zr
  Zr3      1.0000 0.65722  0.26741  0.13928  Biso   1.000  Zr
  Zr4      1.0000 0.73316  0.48504  0.38544  Biso   1.000  Zr
  O1       1.0000 0.02034  0.18470  0.21941  Biso   1.000  O
  O2       1.0000 0.08634  0.05745  0.44448  Biso   1.000  O
  O3       1.0000 0.88731  0.44053  0.20475  Biso   1.000  O
  O4       1.0000 0.93095  0.31705  0.45044  Biso   1.000  O
  O5       1.0000 0.50400  0.11694  0.25948  Biso   1.000  O
  O6       1.0000 0.56830  0.12859  0.50777  Biso   1.000  O
  O7       1.0000 0.46873  0.38008  0.50884  Biso   1.000  O
  O8       1.0000 0.42049  0.37141  0.26781  Biso   1.000  O
  Zr5      1.0000 0.28569  0.00791  0.62610  Biso   1.000  Zr
  Zr6      1.0000 0.28127  0.22820  0.85844  Biso   1.000  Zr
  Zr7      1.0000 0.75781  0.27164  0.63889  Biso   1.000  Zr
  Zr8      1.0000 0.73760  0.48449  0.86464  Biso   1.000  Zr
  O9       1.0000 0.11594  0.18334  0.66364  Biso   1.000  O
  O10      1.0000 0.10470  0.05717  0.93267  Biso   1.000  O
  O11      1.0000 0.90481  0.45713  0.66657  Biso   1.000  O
  O12      1.0000 0.91005  0.30426  0.84721  Biso   1.000  O
  O13      1.0000 0.55222  0.11438  0.75304  Biso   1.000  O
  O14      1.0000 0.59355  0.12156  0.00298  Biso   1.000  O
  O15      1.0000 0.48853  0.38499  0.99453  Biso   1.000  O
  O16      1.0000 0.44343  0.37530  0.74723  Biso   1.000  O
  Zr9      1.0000 0.25071  0.51940  0.13049  Biso   1.000  Zr
  Zr10     1.0000 0.27269  0.73621  0.37615  Biso   1.000  Zr
  Zr11     1.0000 0.73000  0.76291  0.12886  Biso   1.000  Zr
  Zr12     1.0000 0.73904  0.98504  0.37715  Biso   1.000  Zr
  O17      1.0000 0.07096  0.68441  0.19532  Biso   1.000  O
  O18      1.0000 0.08171  0.56929  0.44023  Biso   1.000  O
  O19      1.0000 0.93622  0.93728  0.19268  Biso   1.000  O
  O20      1.0000 0.93482  0.81599  0.44587  Biso   1.000  O
  O21      1.0000 0.53459  0.61907  0.25486  Biso   1.000  O
  O22      1.0000 0.54191  0.63507  0.50273  Biso   1.000  O
  O23      1.0000 0.47335  0.88156  0.49951  Biso   1.000  O
  O24      1.0000 0.47036  0.86747  0.24888  Biso   1.000  O
  Zr13     1.0000 0.27233  0.51940  0.62308  Biso   1.000  Zr
  Zr14     1.0000 0.27231  0.73293  0.87801  Biso   1.000  Zr
  Zr15     1.0000 0.74376  0.76664  0.62832  Biso   1.000  Zr
  Zr16     1.0000 0.74545  0.98048  0.87916  Biso   1.000  Zr
  O25      1.0000 0.08076  0.68676  0.69815  Biso   1.000  O
  O26      1.0000 0.07040  0.55919  0.94740  Biso   1.000  O
  O27      1.0000 0.94107  0.93424  0.69696  Biso   1.000  O
  O28      1.0000 0.93710  0.81162  0.94948  Biso   1.000  O
  O29      1.0000 0.54358  0.62119  0.75240  Biso   1.000  O
  O30      1.0000 0.53291  0.63253  0.00368  Biso   1.000  O
  O31      1.0000 0.46872  0.87873  0.00142  Biso   1.000  O
  O32      1.0000 0.47611  0.86479  0.75260  Biso   1.000  O
  P1       1.0000 0.15041  0.26834  0.10064  Biso   1.000  P
