data_image0
_cell_length_a       5.14434
_cell_length_b       10.4139
_cell_length_c       10.605
_cell_angle_alpha    89.2927
_cell_angle_beta     79.4871
_cell_angle_gamma    89.0691

_symmetry_space_group_name_H-M    "P 1"
_symmetry_int_tables_number       1

loop_
  _symmetry_equiv_pos_as_xyz
  'x, y, z'

loop_
  _atom_site_label
  _atom_site_occupancy
  _atom_site_fract_x
  _atom_site_fract_y
  _atom_site_fract_z
  _atom_site_thermal_displace_type
  _atom_site_B_iso_or_equiv
  _atom_site_type_symbol
  Zr1      1.0000 0.26436  0.01254  0.13989  Biso   1.000  Zr
  Zr2      1.0000 0.33512  0.24383  0.40353  Biso   1.000  Zr
  Zr3      1.0000 0.71031  0.26941  0.10828  Biso   1.000  Zr
  Zr4      1.0000 0.73062  0.48613  0.35709  Biso   1.000  Zr
  O1       1.0000 0.04415  0.15085  0.06929  Biso   1.000  O
  O2       1.0000 0.01742  0.07260  0.32545  Biso   1.000  O
  O3       1.0000 0.93783  0.41968  0.17589  Biso   1.000  O
  O4       1.0000 0.98399  0.38157  0.45170  Biso   1.000  O
  O5       1.0000 0.50943  0.11772  0.23953  Biso   1.000  O
  O6       1.0000 0.56139  0.10920  0.49508  Biso   1.000  O
  O7       1.0000 0.43909  0.37783  0.01264  Biso   1.000  O
  O8       1.0000 0.45742  0.38476  0.26106  Biso   1.000  O
  Zr5      1.0000 0.27414  0.02275  0.64604  Biso   1.000  Zr
  Zr6      1.0000 0.27180  0.22881  0.89505  Biso   1.000  Zr
  Zr7      1.0000 0.74608  0.27642  0.60970  Biso   1.000  Zr
  Zr8      1.0000 0.71916  0.47682  0.86020  Biso   1.000  Zr
  O9       1.0000 0.07743  0.16508  0.56678  Biso   1.000  O
  O10      1.0000 0.05466  0.09279  0.82058  Biso   1.000  O
  O11      1.0000 0.95212  0.40286  0.69247  Biso   1.000  O
  O12      1.0000 0.93150  0.33938  0.93538  Biso   1.000  O
  O13      1.0000 0.54422  0.13068  0.74013  Biso   1.000  O
  O14      1.0000 0.53718  0.12184  0.98957  Biso   1.000  O
  O15      1.0000 0.47626  0.37999  0.51701  Biso   1.000  O
  O16      1.0000 0.45851  0.37373  0.76415  Biso   1.000  O
  Zr9      1.0000 0.27794  0.52369  0.14601  Biso   1.000  Zr
  Zr10     1.0000 0.26208  0.72495  0.39727  Biso   1.000  Zr
  Zr11     1.0000 0.71739  0.76904  0.10281  Biso   1.000  Zr
  Zr12     1.0000 0.68013  0.96385  0.35602  Biso   1.000  Zr
  O17      1.0000 0.06009  0.66359  0.07053  Biso   1.000  O
  O18      1.0000 0.05386  0.59973  0.31689  Biso   1.000  O
  O19      1.0000 0.91513  0.90706  0.17565  Biso   1.000  O
  O20      1.0000 0.91571  0.83412  0.42730  Biso   1.000  O
  O21      1.0000 0.54587  0.63145  0.24164  Biso   1.000  O
  O22      1.0000 0.53681  0.62273  0.49219  Biso   1.000  O
  O23      1.0000 0.44489  0.87719  0.00766  Biso   1.000  O
  O24      1.0000 0.42149  0.86711  0.25916  Biso   1.000  O
  Zr13     1.0000 0.27283  0.52274  0.64935  Biso   1.000  Zr
  Zr14     1.0000 0.27029  0.72783  0.89413  Biso   1.000  Zr
  Zr15     1.0000 0.71533  0.77295  0.60698  Biso   1.000  Zr
  Zr16     1.0000 0.71952  0.98048  0.85240  Biso   1.000  Zr
  O25      1.0000 0.04775  0.65759  0.57620  Biso   1.000  O
  O26      1.0000 0.05641  0.58975  0.82524  Biso   1.000  O
  O27      1.0000 0.93025  0.91452  0.67355  Biso   1.000  O
  O28      1.0000 0.93268  0.83974  0.92313  Biso   1.000  O
  O29      1.0000 0.54191  0.62782  0.74041  Biso   1.000  O
  O30      1.0000 0.54583  0.62204  0.99025  Biso   1.000  O
  O31      1.0000 0.42576  0.87241  0.51282  Biso   1.000  O
  O32      1.0000 0.44756  0.87381  0.76065  Biso   1.000  O
  P1       1.0000 0.95095  0.22662  0.30025  Biso   1.000  P
