data_image0
_cell_length_a       10.0984
_cell_length_b       10.2845
_cell_length_c       10.5222
_cell_angle_alpha    89.8324
_cell_angle_beta     90.2654
_cell_angle_gamma    89.7637

_symmetry_space_group_name_H-M    "P 1"
_symmetry_int_tables_number       1

loop_
  _symmetry_equiv_pos_as_xyz
  'x, y, z'

loop_
  _atom_site_label
  _atom_site_occupancy
  _atom_site_fract_x
  _atom_site_fract_y
  _atom_site_fract_z
  _atom_site_thermal_displace_type
  _atom_site_B_iso_or_equiv
  _atom_site_type_symbol
  P1       1.0000 0.08307  0.03275  0.18531  Biso   1.000  P
  Zr1      1.0000 0.13938  0.01997  0.66964  Biso   1.000  Zr
  Zr2      1.0000 0.13957  0.52143  0.17145  Biso   1.000  Zr
  Zr3      1.0000 0.13919  0.52242  0.67221  Biso   1.000  Zr
  Zr4      1.0000 0.14469  0.23297  0.42233  Biso   1.000  Zr
  Zr5      1.0000 0.14753  0.22585  0.92013  Biso   1.000  Zr
  Zr6      1.0000 0.13904  0.73096  0.41890  Biso   1.000  Zr
  Zr7      1.0000 0.14303  0.73137  0.92134  Biso   1.000  Zr
  Zr8      1.0000 0.35666  0.26614  0.17037  Biso   1.000  Zr
  Zr9      1.0000 0.36292  0.27145  0.67139  Biso   1.000  Zr
  Zr10     1.0000 0.35535  0.77758  0.16982  Biso   1.000  Zr
  Zr11     1.0000 0.36181  0.77179  0.66994  Biso   1.000  Zr
  Zr12     1.0000 0.36179  0.48049  0.42028  Biso   1.000  Zr
  Zr13     1.0000 0.36114  0.47768  0.92312  Biso   1.000  Zr
  Zr14     1.0000 0.35688  0.98101  0.41635  Biso   1.000  Zr
  Zr15     1.0000 0.36076  0.97907  0.92271  Biso   1.000  Zr
  Zr16     1.0000 0.63891  0.02170  0.07754  Biso   1.000  Zr
  Zr17     1.0000 0.63491  0.02021  0.58045  Biso   1.000  Zr
  Zr18     1.0000 0.63476  0.52172  0.08009  Biso   1.000  Zr
  Zr19     1.0000 0.63996  0.52047  0.58013  Biso   1.000  Zr
  Zr20     1.0000 0.63567  0.22993  0.32920  Biso   1.000  Zr
  Zr21     1.0000 0.64027  0.22854  0.82940  Biso   1.000  Zr
  Zr22     1.0000 0.63496  0.72723  0.32736  Biso   1.000  Zr
  Zr23     1.0000 0.63850  0.72891  0.82863  Biso   1.000  Zr
  Zr24     1.0000 0.85791  0.27255  0.08121  Biso   1.000  Zr
  Zr25     1.0000 0.86252  0.26979  0.57872  Biso   1.000  Zr
  Zr26     1.0000 0.86124  0.76683  0.07545  Biso   1.000  Zr
  Zr27     1.0000 0.86075  0.76954  0.58021  Biso   1.000  Zr
  Zr28     1.0000 0.86194  0.47899  0.32946  Biso   1.000  Zr
  Zr29     1.0000 0.86561  0.47562  0.83090  Biso   1.000  Zr
  Zr30     1.0000 0.84850  0.97705  0.33566  Biso   1.000  Zr
  Zr31     1.0000 0.86301  0.97915  0.82853  Biso   1.000  Zr
  O1       1.0000 0.04078  0.14903  0.09223  Biso   1.000  O
  O2       1.0000 0.03034  0.15714  0.57299  Biso   1.000  O
  O3       1.0000 0.03305  0.66801  0.08509  Biso   1.000  O
  O4       1.0000 0.03169  0.66390  0.58265  Biso   1.000  O
  O5       1.0000 0.03063  0.08578  0.31974  Biso   1.000  O
  O6       1.0000 0.03358  0.08691  0.83169  Biso   1.000  O
  O7       1.0000 0.03107  0.58662  0.33257  Biso   1.000  O
  O8       1.0000 0.03377  0.58323  0.83427  Biso   1.000  O
  O9       1.0000 0.46629  0.41392  0.08412  Biso   1.000  O
  O10      1.0000 0.46805  0.41597  0.58331  Biso   1.000  O
  O11      1.0000 0.47212  0.91463  0.08219  Biso   1.000  O
  O12      1.0000 0.46531  0.91560  0.58160  Biso   1.000  O
  O13      1.0000 0.46766  0.33649  0.33366  Biso   1.000  O
  O14      1.0000 0.46947  0.33518  0.83297  Biso   1.000  O
  O15      1.0000 0.46820  0.83965  0.32993  Biso   1.000  O
  O16      1.0000 0.46908  0.83545  0.83070  Biso   1.000  O
  O17      1.0000 0.27582  0.13143  0.30081  Biso   1.000  O
  O18      1.0000 0.27590  0.12233  0.78976  Biso   1.000  O
  O19      1.0000 0.27525  0.62568  0.29440  Biso   1.000  O
  O20      1.0000 0.27666  0.62325  0.79449  Biso   1.000  O
  O21      1.0000 0.29277  0.13876  0.03037  Biso   1.000  O
  O22      1.0000 0.27637  0.12696  0.54551  Biso   1.000  O
  O23      1.0000 0.27483  0.62321  0.04565  Biso   1.000  O
  O24      1.0000 0.27510  0.62657  0.54435  Biso   1.000  O
  O25      1.0000 0.22393  0.37767  0.29581  Biso   1.000  O
  O26      1.0000 0.22579  0.37223  0.79597  Biso   1.000  O
  O27      1.0000 0.22147  0.87389  0.29567  Biso   1.000  O
  O28      1.0000 0.22478  0.87317  0.79136  Biso   1.000  O
  O29      1.0000 0.22042  0.37669  0.04615  Biso   1.000  O
  O30      1.0000 0.22487  0.37618  0.54484  Biso   1.000  O
  O31      1.0000 0.23344  0.87002  0.03575  Biso   1.000  O
  O32      1.0000 0.22291  0.87694  0.54317  Biso   1.000  O
  O33      1.0000 0.53426  0.16594  0.16628  Biso   1.000  O
  O34      1.0000 0.53363  0.16612  0.66673  Biso   1.000  O
  O35      1.0000 0.53006  0.66578  0.16687  Biso   1.000  O
  O36      1.0000 0.53411  0.66498  0.66618  Biso   1.000  O
  O37      1.0000 0.53277  0.08467  0.41614  Biso   1.000  O
  O38      1.0000 0.53826  0.08251  0.91427  Biso   1.000  O
  O39      1.0000 0.53260  0.58551  0.41736  Biso   1.000  O
  O40      1.0000 0.53268  0.58426  0.91682  Biso   1.000  O
  O41      1.0000 0.96881  0.41094  0.16905  Biso   1.000  O
  O42      1.0000 0.97155  0.40885  0.67089  Biso   1.000  O
  O43      1.0000 0.96980  0.92767  0.16558  Biso   1.000  O
  O44      1.0000 0.96757  0.91283  0.66788  Biso   1.000  O
  O45      1.0000 0.96842  0.33440  0.41725  Biso   1.000  O
  O46      1.0000 0.97050  0.33050  0.92544  Biso   1.000  O
  O47      1.0000 0.96477  0.83838  0.41584  Biso   1.000  O
  O48      1.0000 0.96871  0.83515  0.91851  Biso   1.000  O
  O49      1.0000 0.78008  0.12435  0.95689  Biso   1.000  O
  O50      1.0000 0.77478  0.12198  0.45633  Biso   1.000  O
  O51      1.0000 0.77683  0.62390  0.95701  Biso   1.000  O
  O52      1.0000 0.77544  0.62365  0.45556  Biso   1.000  O
  O53      1.0000 0.77712  0.12560  0.20699  Biso   1.000  O
  O54      1.0000 0.77609  0.12519  0.70513  Biso   1.000  O
  O55      1.0000 0.77439  0.62496  0.20489  Biso   1.000  O
  O56      1.0000 0.77760  0.62415  0.70682  Biso   1.000  O
  O57      1.0000 0.72629  0.37377  0.95708  Biso   1.000  O
  O58      1.0000 0.72564  0.37317  0.45612  Biso   1.000  O
  O59      1.0000 0.72620  0.87373  0.95504  Biso   1.000  O
  O60      1.0000 0.71983  0.87218  0.45655  Biso   1.000  O
  O61      1.0000 0.72441  0.37577  0.20517  Biso   1.000  O
  O62      1.0000 0.72721  0.37538  0.70616  Biso   1.000  O
  O63      1.0000 0.73109  0.87500  0.20580  Biso   1.000  O
  O64      1.0000 0.72489  0.87508  0.70538  Biso   1.000  O
