data_image0
_cell_length_a       10.3116
_cell_length_b       5.18168
_cell_length_c       10.6015
_cell_angle_alpha    90.5803
_cell_angle_beta     80.1158
_cell_angle_gamma    89.806

_symmetry_space_group_name_H-M    "P 1"
_symmetry_int_tables_number       1

loop_
  _symmetry_equiv_pos_as_xyz
  'x, y, z'

loop_
  _atom_site_label
  _atom_site_occupancy
  _atom_site_fract_x
  _atom_site_fract_y
  _atom_site_fract_z
  _atom_site_thermal_displace_type
  _atom_site_B_iso_or_equiv
  _atom_site_type_symbol
  Zr1      1.0000 0.13303  0.04225  0.14014  Biso   1.000  Zr
  Zr2      1.0000 0.14279  0.45558  0.39965  Biso   1.000  Zr
  Zr3      1.0000 0.36343  0.54746  0.10227  Biso   1.000  Zr
  Zr4      1.0000 0.34389  0.95533  0.34919  Biso   1.000  Zr
  O1       1.0000 0.03061  0.33942  0.07726  Biso   1.000  O
  O2       1.0000 0.03210  0.16775  0.32922  Biso   1.000  O
  O3       1.0000 0.46111  0.87193  0.16795  Biso   1.000  O
  O4       1.0000 0.48182  0.67088  0.41518  Biso   1.000  O
  O5       1.0000 0.26153  0.24831  0.23278  Biso   1.000  O
  O6       1.0000 0.26081  0.20847  0.50766  Biso   1.000  O
  O7       1.0000 0.22379  0.76165  0.00631  Biso   1.000  O
  O8       1.0000 0.20697  0.75203  0.25565  Biso   1.000  O
  Zr5      1.0000 0.13491  0.03357  0.65282  Biso   1.000  Zr
  Zr6      1.0000 0.13743  0.45996  0.89763  Biso   1.000  Zr
  Zr7      1.0000 0.35893  0.53028  0.60896  Biso   1.000  Zr
  Zr8      1.0000 0.36057  0.95808  0.85548  Biso   1.000  Zr
  O9       1.0000 0.03168  0.33137  0.58339  Biso   1.000  O
  O10      1.0000 0.03243  0.16630  0.83246  Biso   1.000  O
  O11      1.0000 0.46589  0.82401  0.67165  Biso   1.000  O
  O12      1.0000 0.46851  0.67771  0.92323  Biso   1.000  O
  O13      1.0000 0.27447  0.25838  0.74377  Biso   1.000  O
  O14      1.0000 0.27375  0.24728  0.98844  Biso   1.000  O
  O15      1.0000 0.22651  0.74155  0.51603  Biso   1.000  O
  O16      1.0000 0.22567  0.74100  0.76167  Biso   1.000  O
  Zr9      1.0000 0.63908  0.04583  0.14402  Biso   1.000  Zr
  Zr10     1.0000 0.66318  0.46078  0.40106  Biso   1.000  Zr
  Zr11     1.0000 0.85937  0.54435  0.10434  Biso   1.000  Zr
  Zr12     1.0000 0.86943  0.95433  0.35538  Biso   1.000  Zr
  O17      1.0000 0.53686  0.33487  0.07282  Biso   1.000  O
  O18      1.0000 0.53183  0.20231  0.32855  Biso   1.000  O
  O19      1.0000 0.96026  0.83780  0.17083  Biso   1.000  O
  O20      1.0000 0.96580  0.66361  0.42576  Biso   1.000  O
  O21      1.0000 0.77628  0.25853  0.24298  Biso   1.000  O
  O22      1.0000 0.78023  0.23528  0.49490  Biso   1.000  O
  O23      1.0000 0.72326  0.76074  0.01144  Biso   1.000  O
  O24      1.0000 0.72463  0.74582  0.26217  Biso   1.000  O
  Zr13     1.0000 0.63601  0.04140  0.64832  Biso   1.000  Zr
  Zr14     1.0000 0.63778  0.45918  0.89526  Biso   1.000  Zr
  Zr15     1.0000 0.86479  0.53919  0.60971  Biso   1.000  Zr
  Zr16     1.0000 0.85975  0.95859  0.85712  Biso   1.000  Zr
  O25      1.0000 0.53562  0.32813  0.57283  Biso   1.000  O
  O26      1.0000 0.53078  0.17495  0.82460  Biso   1.000  O
  O27      1.0000 0.96273  0.83348  0.67559  Biso   1.000  O
  O28      1.0000 0.96354  0.66908  0.92284  Biso   1.000  O
  O29      1.0000 0.77255  0.25652  0.74277  Biso   1.000  O
  O30      1.0000 0.77474  0.24606  0.99151  Biso   1.000  O
  O31      1.0000 0.72731  0.75386  0.51359  Biso   1.000  O
  O32      1.0000 0.72395  0.74507  0.76265  Biso   1.000  O
  P1       1.0000 0.40891  0.45990  0.32514  Biso   1.000  P
