data_image0
_cell_length_a       10.0938
_cell_length_b       10.2634
_cell_length_c       5.25364
_cell_angle_alpha    89.5898
_cell_angle_beta     90.6582
_cell_angle_gamma    89.4237

_symmetry_space_group_name_H-M    "P 1"
_symmetry_int_tables_number       1

loop_
  _symmetry_equiv_pos_as_xyz
  'x, y, z'

loop_
  _atom_site_label
  _atom_site_occupancy
  _atom_site_fract_x
  _atom_site_fract_y
  _atom_site_fract_z
  _atom_site_thermal_displace_type
  _atom_site_B_iso_or_equiv
  _atom_site_type_symbol
  P1       1.0000 0.08800  0.02720  0.37147  Biso   1.000  P
  Zr1      1.0000 0.14030  0.52254  0.34490  Biso   1.000  Zr
  Zr2      1.0000 0.15216  0.22874  0.84203  Biso   1.000  Zr
  Zr3      1.0000 0.14203  0.73418  0.83766  Biso   1.000  Zr
  Zr4      1.0000 0.35839  0.26715  0.34057  Biso   1.000  Zr
  Zr5      1.0000 0.35490  0.77893  0.33450  Biso   1.000  Zr
  Zr6      1.0000 0.36141  0.47980  0.84445  Biso   1.000  Zr
  Zr7      1.0000 0.35640  0.98140  0.83259  Biso   1.000  Zr
  Zr8      1.0000 0.63481  0.02117  0.15787  Biso   1.000  Zr
  Zr9      1.0000 0.63642  0.52102  0.16275  Biso   1.000  Zr
  Zr10     1.0000 0.63771  0.23029  0.66014  Biso   1.000  Zr
  Zr11     1.0000 0.63437  0.72744  0.65421  Biso   1.000  Zr
  Zr12     1.0000 0.86095  0.26992  0.16569  Biso   1.000  Zr
  Zr13     1.0000 0.86031  0.76559  0.15493  Biso   1.000  Zr
  Zr14     1.0000 0.86629  0.47571  0.66453  Biso   1.000  Zr
  Zr15     1.0000 0.84997  0.97725  0.67001  Biso   1.000  Zr
  O1       1.0000 0.04243  0.14178  0.17407  Biso   1.000  O
  O2       1.0000 0.03268  0.66789  0.17122  Biso   1.000  O
  O3       1.0000 0.03306  0.08436  0.63809  Biso   1.000  O
  O4       1.0000 0.03300  0.58352  0.67051  Biso   1.000  O
  O5       1.0000 0.46670  0.41640  0.17000  Biso   1.000  O
  O6       1.0000 0.46926  0.91615  0.16134  Biso   1.000  O
  O7       1.0000 0.46900  0.33572  0.66894  Biso   1.000  O
  O8       1.0000 0.46763  0.83866  0.65607  Biso   1.000  O
  O9       1.0000 0.27315  0.12763  0.58331  Biso   1.000  O
  O10      1.0000 0.27592  0.62611  0.58736  Biso   1.000  O
  O11      1.0000 0.29536  0.13995  0.06060  Biso   1.000  O
  O12      1.0000 0.27439  0.62540  0.08933  Biso   1.000  O
  O13      1.0000 0.22555  0.37582  0.59465  Biso   1.000  O
  O14      1.0000 0.21857  0.87582  0.57995  Biso   1.000  O
  O15      1.0000 0.22098  0.37777  0.09200  Biso   1.000  O
  O16      1.0000 0.23009  0.87442  0.06718  Biso   1.000  O
  O17      1.0000 0.53614  0.16869  0.33012  Biso   1.000  O
  O18      1.0000 0.53190  0.66726  0.32930  Biso   1.000  O
  O19      1.0000 0.53877  0.08145  0.82381  Biso   1.000  O
  O20      1.0000 0.53332  0.58385  0.83210  Biso   1.000  O
  O21      1.0000 0.97233  0.40661  0.34511  Biso   1.000  O
  O22      1.0000 0.97069  0.92470  0.33462  Biso   1.000  O
  O23      1.0000 0.97083  0.32710  0.85055  Biso   1.000  O
  O24      1.0000 0.96485  0.83733  0.83479  Biso   1.000  O
  O25      1.0000 0.78007  0.12181  0.91715  Biso   1.000  O
  O26      1.0000 0.77690  0.62334  0.91555  Biso   1.000  O
  O27      1.0000 0.77773  0.12493  0.41453  Biso   1.000  O
  O28      1.0000 0.77638  0.62334  0.41424  Biso   1.000  O
  O29      1.0000 0.72794  0.37271  0.91748  Biso   1.000  O
  O30      1.0000 0.72110  0.87169  0.91249  Biso   1.000  O
  O31      1.0000 0.72784  0.37502  0.41362  Biso   1.000  O
  O32      1.0000 0.73100  0.87443  0.41164  Biso   1.000  O
