data_image0
_cell_length_a       10.1945
_cell_length_b       5.15637
_cell_length_c       10.6303
_cell_angle_alpha    89.5301
_cell_angle_beta     90.2864
_cell_angle_gamma    89.8679

_symmetry_space_group_name_H-M    "P 1"
_symmetry_int_tables_number       1

loop_
  _symmetry_equiv_pos_as_xyz
  'x, y, z'

loop_
  _atom_site_label
  _atom_site_occupancy
  _atom_site_fract_x
  _atom_site_fract_y
  _atom_site_fract_z
  _atom_site_thermal_displace_type
  _atom_site_B_iso_or_equiv
  _atom_site_type_symbol
  Zr1      1.0000 0.13135  0.04266  0.17171  Biso   1.000  Zr
  Zr2      1.0000 0.13601  0.45488  0.42739  Biso   1.000  Zr
  Zr3      1.0000 0.33883  0.54115  0.18087  Biso   1.000  Zr
  Zr4      1.0000 0.36413  0.95494  0.42387  Biso   1.000  Zr
  Zr5      1.0000 0.65589  0.04252  0.07221  Biso   1.000  Zr
  Zr6      1.0000 0.64276  0.46877  0.33485  Biso   1.000  Zr
  Zr7      1.0000 0.85781  0.54460  0.08081  Biso   1.000  Zr
  Zr8      1.0000 0.86448  0.96481  0.33772  Biso   1.000  Zr
  O1       1.0000 0.03120  0.32539  0.08186  Biso   1.000  O
  O2       1.0000 0.03188  0.18330  0.33079  Biso   1.000  O
  O3       1.0000 0.46803  0.80353  0.08406  Biso   1.000  O
  O4       1.0000 0.46548  0.67068  0.32942  Biso   1.000  O
  O5       1.0000 0.27236  0.24584  0.29778  Biso   1.000  O
  O6       1.0000 0.27497  0.25191  0.04645  Biso   1.000  O
  O7       1.0000 0.21944  0.74990  0.30131  Biso   1.000  O
  O8       1.0000 0.22362  0.75474  0.04939  Biso   1.000  O
  O9       1.0000 0.52117  0.33754  0.16090  Biso   1.000  O
  O10      1.0000 0.53240  0.17583  0.41631  Biso   1.000  O
  O11      1.0000 0.96802  0.82589  0.17402  Biso   1.000  O
  O12      1.0000 0.96941  0.67642  0.42610  Biso   1.000  O
  O13      1.0000 0.77371  0.25046  0.45900  Biso   1.000  O
  O14      1.0000 0.77383  0.25985  0.21301  Biso   1.000  O
  O15      1.0000 0.72486  0.74510  0.46070  Biso   1.000  O
  O16      1.0000 0.73531  0.77659  0.22317  Biso   1.000  O
  Zr9      1.0000 0.14214  0.03836  0.67276  Biso   1.000  Zr
  Zr10     1.0000 0.13675  0.45819  0.92279  Biso   1.000  Zr
  Zr11     1.0000 0.36196  0.53941  0.67265  Biso   1.000  Zr
  Zr12     1.0000 0.36030  0.95894  0.91958  Biso   1.000  Zr
  Zr13     1.0000 0.63881  0.04055  0.58072  Biso   1.000  Zr
  Zr14     1.0000 0.63621  0.45414  0.82697  Biso   1.000  Zr
  Zr15     1.0000 0.86189  0.53997  0.58320  Biso   1.000  Zr
  Zr16     1.0000 0.86851  0.95942  0.82457  Biso   1.000  Zr
  O17      1.0000 0.03077  0.31553  0.58174  Biso   1.000  O
  O18      1.0000 0.03772  0.17679  0.82895  Biso   1.000  O
  O19      1.0000 0.47066  0.82041  0.57906  Biso   1.000  O
  O20      1.0000 0.46568  0.67301  0.82721  Biso   1.000  O
  O21      1.0000 0.27873  0.24463  0.79556  Biso   1.000  O
  O22      1.0000 0.27497  0.24672  0.54634  Biso   1.000  O
  O23      1.0000 0.22547  0.74524  0.79755  Biso   1.000  O
  O24      1.0000 0.22770  0.74778  0.54800  Biso   1.000  O
  O25      1.0000 0.52969  0.31859  0.66904  Biso   1.000  O
  O26      1.0000 0.53754  0.13266  0.91273  Biso   1.000  O
  O27      1.0000 0.97444  0.81643  0.67032  Biso   1.000  O
  O28      1.0000 0.97524  0.68120  0.92366  Biso   1.000  O
  O29      1.0000 0.79158  0.24294  0.95025  Biso   1.000  O
  O30      1.0000 0.77590  0.24602  0.70297  Biso   1.000  O
  O31      1.0000 0.74040  0.76359  0.94462  Biso   1.000  O
  O32      1.0000 0.72710  0.74811  0.70394  Biso   1.000  O
  P1       1.0000 0.59156  0.54442  0.05638  Biso   1.000  P
