data_image0
_cell_length_a       10.1942
_cell_length_b       10.3179
_cell_length_c       10.5288
_cell_angle_alpha    90.0399
_cell_angle_beta     80.4282
_cell_angle_gamma    89.7673

_symmetry_space_group_name_H-M    "P 1"
_symmetry_int_tables_number       1

loop_
  _symmetry_equiv_pos_as_xyz
  'x, y, z'

loop_
  _atom_site_label
  _atom_site_occupancy
  _atom_site_fract_x
  _atom_site_fract_y
  _atom_site_fract_z
  _atom_site_thermal_displace_type
  _atom_site_B_iso_or_equiv
  _atom_site_type_symbol
  P1       1.0000 0.08232  0.03296  0.16521  Biso   1.000  P
  Zr1      1.0000 0.13914  0.02015  0.64385  Biso   1.000  Zr
  Zr2      1.0000 0.13957  0.52158  0.14461  Biso   1.000  Zr
  Zr3      1.0000 0.13996  0.52278  0.64633  Biso   1.000  Zr
  Zr4      1.0000 0.63791  0.02203  0.14510  Biso   1.000  Zr
  Zr5      1.0000 0.63676  0.02100  0.64877  Biso   1.000  Zr
  Zr6      1.0000 0.63388  0.52201  0.14484  Biso   1.000  Zr
  Zr7      1.0000 0.64006  0.52093  0.64631  Biso   1.000  Zr
  Zr8      1.0000 0.14557  0.23141  0.39469  Biso   1.000  Zr
  Zr9      1.0000 0.14631  0.22682  0.89250  Biso   1.000  Zr
  Zr10     1.0000 0.14008  0.72870  0.39374  Biso   1.000  Zr
  Zr11     1.0000 0.14224  0.73288  0.89559  Biso   1.000  Zr
  Zr12     1.0000 0.63721  0.22840  0.39540  Biso   1.000  Zr
  Zr13     1.0000 0.63865  0.22929  0.89529  Biso   1.000  Zr
  Zr14     1.0000 0.63677  0.72642  0.39589  Biso   1.000  Zr
  Zr15     1.0000 0.63727  0.72961  0.89646  Biso   1.000  Zr
  Zr16     1.0000 0.35711  0.26611  0.10478  Biso   1.000  Zr
  Zr17     1.0000 0.36277  0.27140  0.60454  Biso   1.000  Zr
  Zr18     1.0000 0.35539  0.77777  0.10469  Biso   1.000  Zr
  Zr19     1.0000 0.36224  0.77271  0.60383  Biso   1.000  Zr
  Zr20     1.0000 0.85648  0.27294  0.10645  Biso   1.000  Zr
  Zr21     1.0000 0.86281  0.27045  0.60377  Biso   1.000  Zr
  Zr22     1.0000 0.86006  0.76617  0.10115  Biso   1.000  Zr
  Zr23     1.0000 0.86128  0.76993  0.60609  Biso   1.000  Zr
  Zr24     1.0000 0.36049  0.47882  0.35279  Biso   1.000  Zr
  Zr25     1.0000 0.36262  0.47905  0.85570  Biso   1.000  Zr
  Zr26     1.0000 0.35791  0.97913  0.35091  Biso   1.000  Zr
  Zr27     1.0000 0.35851  0.98043  0.85767  Biso   1.000  Zr
  Zr28     1.0000 0.86210  0.47758  0.35415  Biso   1.000  Zr
  Zr29     1.0000 0.86568  0.47642  0.85549  Biso   1.000  Zr
  Zr30     1.0000 0.85031  0.97597  0.36224  Biso   1.000  Zr
  Zr31     1.0000 0.86248  0.97933  0.85424  Biso   1.000  Zr
  O1       1.0000 0.03879  0.15017  0.08338  Biso   1.000  O
  O2       1.0000 0.03163  0.15823  0.56740  Biso   1.000  O
  O3       1.0000 0.03459  0.67026  0.08058  Biso   1.000  O
  O4       1.0000 0.03381  0.66569  0.57836  Biso   1.000  O
  O5       1.0000 0.53677  0.16883  0.07937  Biso   1.000  O
  O6       1.0000 0.53597  0.16849  0.57946  Biso   1.000  O
  O7       1.0000 0.53315  0.66852  0.07845  Biso   1.000  O
  O8       1.0000 0.53518  0.66618  0.57797  Biso   1.000  O
  O9       1.0000 0.03360  0.08380  0.31090  Biso   1.000  O
  O10      1.0000 0.03472  0.08530  0.82625  Biso   1.000  O
  O11      1.0000 0.03285  0.58377  0.32755  Biso   1.000  O
  O12      1.0000 0.03631  0.58173  0.82964  Biso   1.000  O
  O13      1.0000 0.53770  0.08018  0.32966  Biso   1.000  O
  O14      1.0000 0.53664  0.08285  0.82958  Biso   1.000  O
  O15      1.0000 0.53372  0.58137  0.32867  Biso   1.000  O
  O16      1.0000 0.53495  0.58468  0.82760  Biso   1.000  O
  O17      1.0000 0.46389  0.41585  0.17143  Biso   1.000  O
  O18      1.0000 0.46679  0.41758  0.67145  Biso   1.000  O
  O19      1.0000 0.46753  0.91755  0.17153  Biso   1.000  O
  O20      1.0000 0.46549  0.91712  0.67306  Biso   1.000  O
  O21      1.0000 0.96694  0.41268  0.17218  Biso   1.000  O
  O22      1.0000 0.97021  0.41135  0.67428  Biso   1.000  O
  O23      1.0000 0.96737  0.92874  0.16812  Biso   1.000  O
  O24      1.0000 0.96564  0.91518  0.67221  Biso   1.000  O
  O25      1.0000 0.46487  0.33215  0.42115  Biso   1.000  O
  O26      1.0000 0.46941  0.33720  0.92245  Biso   1.000  O
  O27      1.0000 0.46668  0.83317  0.42158  Biso   1.000  O
  O28      1.0000 0.46837  0.83705  0.92317  Biso   1.000  O
  O29      1.0000 0.96670  0.33107  0.42018  Biso   1.000  O
  O30      1.0000 0.96846  0.32972  0.92897  Biso   1.000  O
  O31      1.0000 0.96516  0.83655  0.42065  Biso   1.000  O
  O32      1.0000 0.96514  0.83239  0.92207  Biso   1.000  O
  O33      1.0000 0.27904  0.13463  0.24743  Biso   1.000  O
  O34      1.0000 0.27529  0.12792  0.73597  Biso   1.000  O
  O35      1.0000 0.27511  0.62726  0.23917  Biso   1.000  O
  O36      1.0000 0.27663  0.62951  0.73983  Biso   1.000  O
  O37      1.0000 0.77791  0.12786  0.24109  Biso   1.000  O
  O38      1.0000 0.77702  0.12881  0.73975  Biso   1.000  O
  O39      1.0000 0.77425  0.62689  0.23931  Biso   1.000  O
  O40      1.0000 0.77761  0.62752  0.74110  Biso   1.000  O
  O41      1.0000 0.27648  0.12119  0.49148  Biso   1.000  O
  O42      1.0000 0.28866  0.13401  0.97644  Biso   1.000  O
  O43      1.0000 0.27579  0.62097  0.48990  Biso   1.000  O
  O44      1.0000 0.27564  0.62114  0.99055  Biso   1.000  O
  O45      1.0000 0.77504  0.11936  0.49113  Biso   1.000  O
  O46      1.0000 0.77761  0.12222  0.99088  Biso   1.000  O
  O47      1.0000 0.77628  0.62056  0.49022  Biso   1.000  O
  O48      1.0000 0.77717  0.62208  0.99107  Biso   1.000  O
  O49      1.0000 0.22291  0.37896  0.00951  Biso   1.000  O
  O50      1.0000 0.22374  0.37775  0.50873  Biso   1.000  O
  O51      1.0000 0.22668  0.87745  0.00308  Biso   1.000  O
  O52      1.0000 0.22416  0.87844  0.50923  Biso   1.000  O
  O53      1.0000 0.72624  0.37956  0.01064  Biso   1.000  O
  O54      1.0000 0.72597  0.37744  0.51001  Biso   1.000  O
  O55      1.0000 0.72548  0.87938  0.01060  Biso   1.000  O
  O56      1.0000 0.72158  0.87685  0.51169  Biso   1.000  O
  O57      1.0000 0.22185  0.37404  0.25903  Biso   1.000  O
  O58      1.0000 0.22685  0.37038  0.75945  Biso   1.000  O
  O59      1.0000 0.22707  0.86650  0.26333  Biso   1.000  O
  O60      1.0000 0.22402  0.87206  0.75720  Biso   1.000  O
  O61      1.0000 0.72358  0.37038  0.25946  Biso   1.000  O
  O62      1.0000 0.72720  0.37166  0.76032  Biso   1.000  O
  O63      1.0000 0.73089  0.86958  0.25957  Biso   1.000  O
  O64      1.0000 0.72527  0.87106  0.76049  Biso   1.000  O
