data_image0
_cell_length_a       10.0928
_cell_length_b       5.12509
_cell_length_c       10.5228
_cell_angle_alpha    89.552
_cell_angle_beta     90.6441
_cell_angle_gamma    89.4083

_symmetry_space_group_name_H-M    "P 1"
_symmetry_int_tables_number       1

loop_
  _symmetry_equiv_pos_as_xyz
  'x, y, z'

loop_
  _atom_site_label
  _atom_site_occupancy
  _atom_site_fract_x
  _atom_site_fract_y
  _atom_site_fract_z
  _atom_site_thermal_displace_type
  _atom_site_B_iso_or_equiv
  _atom_site_type_symbol
  P1       1.0000 0.08882  0.05523  0.18795  Biso   1.000  P
  Zr1      1.0000 0.13970  0.04252  0.67037  Biso   1.000  Zr
  Zr2      1.0000 0.14315  0.47077  0.41922  Biso   1.000  Zr
  Zr3      1.0000 0.15175  0.45407  0.92112  Biso   1.000  Zr
  Zr4      1.0000 0.35065  0.54885  0.16833  Biso   1.000  Zr
  Zr5      1.0000 0.36299  0.54485  0.66985  Biso   1.000  Zr
  Zr6      1.0000 0.35666  0.96841  0.41503  Biso   1.000  Zr
  Zr7      1.0000 0.36025  0.95635  0.92456  Biso   1.000  Zr
  Zr8      1.0000 0.63578  0.04431  0.07889  Biso   1.000  Zr
  Zr9      1.0000 0.63577  0.03964  0.58157  Biso   1.000  Zr
  Zr10     1.0000 0.63158  0.45829  0.32729  Biso   1.000  Zr
  Zr11     1.0000 0.64014  0.45730  0.82964  Biso   1.000  Zr
  Zr12     1.0000 0.86116  0.53456  0.07846  Biso   1.000  Zr
  Zr13     1.0000 0.86137  0.53636  0.58039  Biso   1.000  Zr
  Zr14     1.0000 0.84945  0.95557  0.33571  Biso   1.000  Zr
  Zr15     1.0000 0.86762  0.95173  0.83079  Biso   1.000  Zr
  O1       1.0000 0.04120  0.29083  0.09326  Biso   1.000  O
  O2       1.0000 0.02904  0.31230  0.57214  Biso   1.000  O
  O3       1.0000 0.03196  0.16819  0.32057  Biso   1.000  O
  O4       1.0000 0.03422  0.17194  0.83133  Biso   1.000  O
  O5       1.0000 0.47163  0.82543  0.08231  Biso   1.000  O
  O6       1.0000 0.46547  0.83361  0.58121  Biso   1.000  O
  O7       1.0000 0.46646  0.68325  0.32970  Biso   1.000  O
  O8       1.0000 0.47079  0.67165  0.83074  Biso   1.000  O
  O9       1.0000 0.27420  0.27058  0.29888  Biso   1.000  O
  O10      1.0000 0.27708  0.24237  0.78945  Biso   1.000  O
  O11      1.0000 0.29337  0.27318  0.03254  Biso   1.000  O
  O12      1.0000 0.27528  0.25654  0.54459  Biso   1.000  O
  O13      1.0000 0.21688  0.76345  0.29332  Biso   1.000  O
  O14      1.0000 0.22630  0.74215  0.79238  Biso   1.000  O
  O15      1.0000 0.22665  0.74978  0.03823  Biso   1.000  O
  O16      1.0000 0.22303  0.75594  0.54201  Biso   1.000  O
  O17      1.0000 0.53194  0.33262  0.16650  Biso   1.000  O
  O18      1.0000 0.53502  0.33270  0.66631  Biso   1.000  O
  O19      1.0000 0.53170  0.17254  0.41677  Biso   1.000  O
  O20      1.0000 0.53862  0.16406  0.91448  Biso   1.000  O
  O21      1.0000 0.97329  0.84583  0.16928  Biso   1.000  O
  O22      1.0000 0.97159  0.81240  0.67226  Biso   1.000  O
  O23      1.0000 0.96440  0.67343  0.41613  Biso   1.000  O
  O24      1.0000 0.97310  0.66144  0.92892  Biso   1.000  O
  O25      1.0000 0.78182  0.24725  0.95913  Biso   1.000  O
  O26      1.0000 0.77410  0.24382  0.45658  Biso   1.000  O
  O27      1.0000 0.77639  0.24957  0.20680  Biso   1.000  O
  O28      1.0000 0.77801  0.24696  0.70707  Biso   1.000  O
  O29      1.0000 0.72939  0.74480  0.95776  Biso   1.000  O
  O30      1.0000 0.72065  0.74391  0.45739  Biso   1.000  O
  O31      1.0000 0.73210  0.74883  0.20593  Biso   1.000  O
  O32      1.0000 0.72751  0.74986  0.70685  Biso   1.000  O
