data_image0
_cell_length_a       5.11023
_cell_length_b       10.278
_cell_length_c       10.5531
_cell_angle_alpha    90.1185
_cell_angle_beta     80.2991
_cell_angle_gamma    89.5383

_symmetry_space_group_name_H-M    "P 1"
_symmetry_int_tables_number       1

loop_
  _symmetry_equiv_pos_as_xyz
  'x, y, z'

loop_
  _atom_site_label
  _atom_site_occupancy
  _atom_site_fract_x
  _atom_site_fract_y
  _atom_site_fract_z
  _atom_site_thermal_displace_type
  _atom_site_B_iso_or_equiv
  _atom_site_type_symbol
  P1       1.0000 0.16341  0.03261  0.16209  Biso   1.000  P
  Zr1      1.0000 0.27388  0.01982  0.64753  Biso   1.000  Zr
  Zr2      1.0000 0.26847  0.52234  0.14421  Biso   1.000  Zr
  Zr3      1.0000 0.28219  0.52229  0.64722  Biso   1.000  Zr
  Zr4      1.0000 0.29035  0.23105  0.39466  Biso   1.000  Zr
  Zr5      1.0000 0.29118  0.22814  0.89231  Biso   1.000  Zr
  Zr6      1.0000 0.27742  0.72630  0.39470  Biso   1.000  Zr
  Zr7      1.0000 0.28021  0.73371  0.89676  Biso   1.000  Zr
  Zr8      1.0000 0.70478  0.26848  0.10649  Biso   1.000  Zr
  Zr9      1.0000 0.72981  0.27016  0.60343  Biso   1.000  Zr
  Zr10     1.0000 0.70863  0.77218  0.10127  Biso   1.000  Zr
  Zr11     1.0000 0.72521  0.77146  0.60528  Biso   1.000  Zr
  Zr12     1.0000 0.72326  0.47730  0.35209  Biso   1.000  Zr
  Zr13     1.0000 0.73373  0.47685  0.85653  Biso   1.000  Zr
  Zr14     1.0000 0.69878  0.97690  0.35907  Biso   1.000  Zr
  Zr15     1.0000 0.71884  0.98131  0.85770  Biso   1.000  Zr
  O1       1.0000 0.07765  0.15003  0.08128  Biso   1.000  O
  O2       1.0000 0.06323  0.15627  0.56592  Biso   1.000  O
  O3       1.0000 0.06288  0.66955  0.07869  Biso   1.000  O
  O4       1.0000 0.06680  0.66237  0.57610  Biso   1.000  O
  O5       1.0000 0.07881  0.08231  0.30872  Biso   1.000  O
  O6       1.0000 0.07025  0.08799  0.82550  Biso   1.000  O
  O7       1.0000 0.06077  0.58512  0.32608  Biso   1.000  O
  O8       1.0000 0.07067  0.58574  0.82710  Biso   1.000  O
  O9       1.0000 0.93201  0.40949  0.17378  Biso   1.000  O
  O10      1.0000 0.94566  0.40917  0.67608  Biso   1.000  O
  O11      1.0000 0.93615  0.92881  0.16791  Biso   1.000  O
  O12      1.0000 0.93351  0.91269  0.67609  Biso   1.000  O
  O13      1.0000 0.93560  0.33248  0.42157  Biso   1.000  O
  O14      1.0000 0.94485  0.33599  0.93124  Biso   1.000  O
  O15      1.0000 0.93731  0.83943  0.42252  Biso   1.000  O
  O16      1.0000 0.93596  0.83859  0.92568  Biso   1.000  O
  O17      1.0000 0.57112  0.13571  0.25025  Biso   1.000  O
  O18      1.0000 0.55208  0.12783  0.73579  Biso   1.000  O
  O19      1.0000 0.54536  0.62423  0.23785  Biso   1.000  O
  O20      1.0000 0.55570  0.62820  0.74030  Biso   1.000  O
  O21      1.0000 0.54991  0.11908  0.49305  Biso   1.000  O
  O22      1.0000 0.57735  0.13513  0.97738  Biso   1.000  O
  O23      1.0000 0.55219  0.62013  0.48968  Biso   1.000  O
  O24      1.0000 0.55174  0.62241  0.99096  Biso   1.000  O
  O25      1.0000 0.44886  0.37996  0.01036  Biso   1.000  O
  O26      1.0000 0.45189  0.37576  0.50901  Biso   1.000  O
  O27      1.0000 0.45330  0.87856  0.00547  Biso   1.000  O
  O28      1.0000 0.44519  0.87626  0.51186  Biso   1.000  O
  O29      1.0000 0.44086  0.37347  0.25870  Biso   1.000  O
  O30      1.0000 0.45984  0.37123  0.75999  Biso   1.000  O
  O31      1.0000 0.47218  0.86288  0.26485  Biso   1.000  O
  O32      1.0000 0.45022  0.87222  0.75889  Biso   1.000  O
