data_image0
_cell_length_a       5.04118
_cell_length_b       10.1102
_cell_length_c       10.1131
_cell_angle_alpha    90.0035
_cell_angle_beta     89.9955
_cell_angle_gamma    90.0006

_symmetry_space_group_name_H-M    "P 1"
_symmetry_int_tables_number       1

loop_
  _symmetry_equiv_pos_as_xyz
  'x, y, z'

loop_
  _atom_site_label
  _atom_site_occupancy
  _atom_site_fract_x
  _atom_site_fract_y
  _atom_site_fract_z
  _atom_site_thermal_displace_type
  _atom_site_B_iso_or_equiv
  _atom_site_type_symbol
  P1       1.0000 0.25149  0.00116  0.12557  Biso   1.000  P
  Zr1      1.0000 0.25146  0.00119  0.62557  Biso   1.000  Zr
  Zr2      1.0000 0.25147  0.50116  0.12556  Biso   1.000  Zr
  Zr3      1.0000 0.25149  0.50119  0.62557  Biso   1.000  Zr
  Zr4      1.0000 0.27466  0.24952  0.37423  Biso   1.000  Zr
  Zr5      1.0000 0.22823  0.24952  0.87690  Biso   1.000  Zr
  Zr6      1.0000 0.22829  0.75285  0.37423  Biso   1.000  Zr
  Zr7      1.0000 0.27464  0.75286  0.87690  Biso   1.000  Zr
  Zr8      1.0000 0.75143  0.25763  0.12556  Biso   1.000  Zr
  Zr9      1.0000 0.75147  0.25556  0.62556  Biso   1.000  Zr
  Zr10     1.0000 0.75147  0.74471  0.12557  Biso   1.000  Zr
  Zr11     1.0000 0.75147  0.74683  0.62556  Biso   1.000  Zr
  Zr12     1.0000 0.75150  0.00118  0.38209  Biso   1.000  Zr
  Zr13     1.0000 0.75139  0.00118  0.86903  Biso   1.000  Zr
  Zr14     1.0000 0.75148  0.50118  0.37948  Biso   1.000  Zr
  Zr15     1.0000 0.75148  0.50120  0.87164  Biso   1.000  Zr
  O1       1.0000 0.91767  0.15580  0.97083  Biso   1.000  O
  O2       1.0000 0.01085  0.13118  0.47424  Biso   1.000  O
  O3       1.0000 0.00943  0.65214  0.99429  Biso   1.000  O
  O4       1.0000 0.00571  0.63317  0.49239  Biso   1.000  O
  O5       1.0000 0.07529  0.09098  0.21515  Biso   1.000  O
  O6       1.0000 0.99162  0.11889  0.72704  Biso   1.000  O
  O7       1.0000 0.99183  0.60316  0.24217  Biso   1.000  O
  O8       1.0000 0.99381  0.61761  0.74096  Biso   1.000  O
  O9       1.0000 0.00945  0.35019  0.25682  Biso   1.000  O
  O10      1.0000 0.00570  0.36919  0.75874  Biso   1.000  O
  O11      1.0000 0.91767  0.84652  0.28031  Biso   1.000  O
  O12      1.0000 0.01080  0.87118  0.77689  Biso   1.000  O
  O13      1.0000 0.99176  0.39919  0.00896  Biso   1.000  O
  O14      1.0000 0.99381  0.38476  0.51016  Biso   1.000  O
  O15      1.0000 0.07533  0.91132  0.03600  Biso   1.000  O
  O16      1.0000 0.99167  0.88349  0.52409  Biso   1.000  O
  O17      1.0000 0.58527  0.15580  0.28031  Biso   1.000  O
  O18      1.0000 0.49204  0.13117  0.77690  Biso   1.000  O
  O19      1.0000 0.49349  0.65214  0.25683  Biso   1.000  O
  O20      1.0000 0.49725  0.63318  0.75874  Biso   1.000  O
  O21      1.0000 0.42768  0.09098  0.03600  Biso   1.000  O
  O22      1.0000 0.51127  0.11888  0.52410  Biso   1.000  O
  O23      1.0000 0.51108  0.60317  0.00896  Biso   1.000  O
  O24      1.0000 0.50913  0.61761  0.51017  Biso   1.000  O
  O25      1.0000 0.49343  0.35018  0.99431  Biso   1.000  O
  O26      1.0000 0.49724  0.36919  0.49240  Biso   1.000  O
  O27      1.0000 0.58530  0.84652  0.97082  Biso   1.000  O
  O28      1.0000 0.49212  0.87117  0.47423  Biso   1.000  O
  O29      1.0000 0.51110  0.39918  0.24218  Biso   1.000  O
  O30      1.0000 0.50912  0.38477  0.74096  Biso   1.000  O
  O31      1.0000 0.42768  0.91133  0.21514  Biso   1.000  O
  O32      1.0000 0.51123  0.88348  0.72704  Biso   1.000  O
