data_image0
_cell_length_a       10.1927
_cell_length_b       10.3954
_cell_length_c       5.25834
_cell_angle_alpha    90.098
_cell_angle_beta     91.1928
_cell_angle_gamma    89.7182

_symmetry_space_group_name_H-M    "P 1"
_symmetry_int_tables_number       1

loop_
  _symmetry_equiv_pos_as_xyz
  'x, y, z'

loop_
  _atom_site_label
  _atom_site_occupancy
  _atom_site_fract_x
  _atom_site_fract_y
  _atom_site_fract_z
  _atom_site_thermal_displace_type
  _atom_site_B_iso_or_equiv
  _atom_site_type_symbol
  Zr1      1.0000 0.13699  0.02138  0.35397  Biso   1.000  Zr
  Zr2      1.0000 0.14131  0.22873  0.85134  Biso   1.000  Zr
  Zr3      1.0000 0.35524  0.26347  0.35460  Biso   1.000  Zr
  Zr4      1.0000 0.35864  0.48769  0.86159  Biso   1.000  Zr
  Zr5      1.0000 0.64701  0.01453  0.16533  Biso   1.000  Zr
  Zr6      1.0000 0.66437  0.23520  0.63974  Biso   1.000  Zr
  Zr7      1.0000 0.86703  0.27356  0.14735  Biso   1.000  Zr
  Zr8      1.0000 0.86849  0.48377  0.65366  Biso   1.000  Zr
  O1       1.0000 0.03439  0.16848  0.17215  Biso   1.000  O
  O2       1.0000 0.03635  0.08079  0.67797  Biso   1.000  O
  O3       1.0000 0.46889  0.43048  0.19698  Biso   1.000  O
  O4       1.0000 0.47191  0.32422  0.69331  Biso   1.000  O
  O5       1.0000 0.27812  0.12309  0.60794  Biso   1.000  O
  O6       1.0000 0.27045  0.11545  0.10668  Biso   1.000  O
  O7       1.0000 0.23171  0.37717  0.60877  Biso   1.000  O
  O8       1.0000 0.22530  0.37551  0.10422  Biso   1.000  O
  O9       1.0000 0.53544  0.15395  0.36103  Biso   1.000  O
  O10      1.0000 0.51854  0.09169  0.84983  Biso   1.000  O
  O11      1.0000 0.97127  0.41860  0.32992  Biso   1.000  O
  O12      1.0000 0.97037  0.32975  0.82125  Biso   1.000  O
  O13      1.0000 0.77872  0.12174  0.90172  Biso   1.000  O
  O14      1.0000 0.78572  0.12437  0.39740  Biso   1.000  O
  O15      1.0000 0.73932  0.38850  0.89777  Biso   1.000  O
  O16      1.0000 0.73008  0.37706  0.39904  Biso   1.000  O
  Zr9      1.0000 0.14238  0.51952  0.35135  Biso   1.000  Zr
  Zr10     1.0000 0.13935  0.72864  0.85098  Biso   1.000  Zr
  Zr11     1.0000 0.36509  0.77248  0.35366  Biso   1.000  Zr
  Zr12     1.0000 0.35123  0.97037  0.85768  Biso   1.000  Zr
  Zr13     1.0000 0.64317  0.52521  0.15374  Biso   1.000  Zr
  Zr14     1.0000 0.64076  0.73021  0.65754  Biso   1.000  Zr
  Zr15     1.0000 0.86540  0.77000  0.16023  Biso   1.000  Zr
  Zr16     1.0000 0.86614  0.97788  0.66120  Biso   1.000  Zr
  O17      1.0000 0.03641  0.66654  0.17819  Biso   1.000  O
  O18      1.0000 0.03988  0.58074  0.67946  Biso   1.000  O
  O19      1.0000 0.47089  0.91407  0.17007  Biso   1.000  O
  O20      1.0000 0.47069  0.83840  0.67305  Biso   1.000  O
  O21      1.0000 0.27882  0.62677  0.59994  Biso   1.000  O
  O22      1.0000 0.27613  0.62473  0.10144  Biso   1.000  O
  O23      1.0000 0.22260  0.87144  0.60064  Biso   1.000  O
  O24      1.0000 0.22438  0.87129  0.10654  Biso   1.000  O
  O25      1.0000 0.53763  0.67141  0.33085  Biso   1.000  O
  O26      1.0000 0.53322  0.58305  0.82923  Biso   1.000  O
  O27      1.0000 0.96716  0.91739  0.33200  Biso   1.000  O
  O28      1.0000 0.96852  0.83117  0.83481  Biso   1.000  O
  O29      1.0000 0.77748  0.63064  0.90562  Biso   1.000  O
  O30      1.0000 0.77880  0.62675  0.40740  Biso   1.000  O
  O31      1.0000 0.72669  0.87717  0.91130  Biso   1.000  O
  O32      1.0000 0.72797  0.87444  0.41250  Biso   1.000  O
  P1       1.0000 0.50228  0.24069  0.97755  Biso   1.000  P
