data_image0
_cell_length_a       5.18608
_cell_length_b       10.4141
_cell_length_c       10.1695
_cell_angle_alpha    92.1507
_cell_angle_beta     95.3444
_cell_angle_gamma    91.5967

_symmetry_space_group_name_H-M    "P 1"
_symmetry_int_tables_number       1

loop_
  _symmetry_equiv_pos_as_xyz
  'x, y, z'

loop_
  _atom_site_label
  _atom_site_occupancy
  _atom_site_fract_x
  _atom_site_fract_y
  _atom_site_fract_z
  _atom_site_thermal_displace_type
  _atom_site_B_iso_or_equiv
  _atom_site_type_symbol
  Hf1      1.0000 0.30567  0.95993  0.10539  Biso   1.000  Hf
  Hf2      1.0000 0.10185  0.27493  0.39518  Biso   1.000  Hf
  Hf3      1.0000 0.76388  0.18768  0.12721  Biso   1.000  Hf
  Hf4      1.0000 0.71235  0.01339  0.38853  Biso   1.000  Hf
  O1       1.0000 0.04439  0.10843  0.01340  Biso   1.000  O
  O2       1.0000 0.97293  0.10715  0.28598  Biso   1.000  O
  O3       1.0000 0.79285  0.34471  0.27939  Biso   1.000  O
  O4       1.0000 0.17954  0.42200  0.97734  Biso   1.000  O
  O5       1.0000 0.47459  0.10537  0.23963  Biso   1.000  O
  O6       1.0000 0.54013  0.06718  0.98205  Biso   1.000  O
  O7       1.0000 0.71227  0.30902  0.96681  Biso   1.000  O
  O8       1.0000 0.34248  0.45232  0.28510  Biso   1.000  O
  Hf5      1.0000 0.25999  0.00594  0.61583  Biso   1.000  Hf
  Hf6      1.0000 0.33785  0.24980  0.86963  Biso   1.000  Hf
  Hf7      1.0000 0.69891  0.27300  0.61746  Biso   1.000  Hf
  Hf8      1.0000 0.80824  0.01006  0.85196  Biso   1.000  Hf
  O9       1.0000 0.94957  0.15507  0.52718  Biso   1.000  O
  O10      1.0000 0.10720  0.09920  0.77050  Biso   1.000  O
  O11      1.0000 0.02607  0.35007  0.74731  Biso   1.000  O
  O12      1.0000 0.91291  0.41521  0.51201  Biso   1.000  O
  O13      1.0000 0.57811  0.14605  0.74609  Biso   1.000  O
  O14      1.0000 0.45930  0.11864  0.49770  Biso   1.000  O
  O15      1.0000 0.39526  0.35918  0.52174  Biso   1.000  O
  O16      1.0000 0.51752  0.39905  0.75942  Biso   1.000  O
  Hf9      1.0000 0.28383  0.56860  0.12588  Biso   1.000  Hf
  Hf10     1.0000 0.20403  0.74885  0.39139  Biso   1.000  Hf
  Hf11     1.0000 0.78293  0.75068  0.11882  Biso   1.000  Hf
  Hf12     1.0000 0.70300  0.52352  0.36627  Biso   1.000  Hf
  O17      1.0000 0.03674  0.64748  0.98953  Biso   1.000  O
  O18      1.0000 0.97426  0.61345  0.25081  Biso   1.000  O
  O19      1.0000 0.12516  0.83621  0.21754  Biso   1.000  O
  O20      1.0000 0.97138  0.87574  0.97408  Biso   1.000  O
  O21      1.0000 0.51169  0.67657  0.26310  Biso   1.000  O
  O22      1.0000 0.61333  0.56688  0.03660  Biso   1.000  O
  O23      1.0000 0.45400  0.80610  0.00344  Biso   1.000  O
  O24      1.0000 0.64422  0.90116  0.21961  Biso   1.000  O
  Hf13     1.0000 0.22811  0.49381  0.64423  Biso   1.000  Hf
  Hf14     1.0000 0.19776  0.75913  0.84533  Biso   1.000  Hf
  Hf15     1.0000 0.67984  0.73620  0.63212  Biso   1.000  Hf
  Hf16     1.0000 0.82427  0.47796  0.89649  Biso   1.000  Hf
  O25      1.0000 0.92354  0.66661  0.49470  Biso   1.000  O
  O26      1.0000 0.94499  0.60701  0.74392  Biso   1.000  O
  O27      1.0000 0.96899  0.86607  0.71785  Biso   1.000  O
  O28      1.0000 0.03289  0.91217  0.46644  Biso   1.000  O
  O29      1.0000 0.43905  0.64383  0.75153  Biso   1.000  O
  O30      1.0000 0.43345  0.60846  0.50437  Biso   1.000  O
  O31      1.0000 0.51064  0.86307  0.49545  Biso   1.000  O
  O32      1.0000 0.48033  0.89021  0.74906  Biso   1.000  O
  Pb1      1.0000 0.27910  0.27946  0.14515  Biso   1.000  Pb
