data_image0
_cell_length_a       10.1692
_cell_length_b       10.4748
_cell_length_c       5.26898
_cell_angle_alpha    91.5755
_cell_angle_beta     93.2789
_cell_angle_gamma    88.5596

_symmetry_space_group_name_H-M    "P 1"
_symmetry_int_tables_number       1

loop_
  _symmetry_equiv_pos_as_xyz
  'x, y, z'

loop_
  _atom_site_label
  _atom_site_occupancy
  _atom_site_fract_x
  _atom_site_fract_y
  _atom_site_fract_z
  _atom_site_thermal_displace_type
  _atom_site_B_iso_or_equiv
  _atom_site_type_symbol
  Hf1      1.0000 0.13322  0.01599  0.36114  Biso   1.000  Hf
  Hf2      1.0000 0.14219  0.22835  0.87548  Biso   1.000  Hf
  Hf3      1.0000 0.33890  0.25712  0.39928  Biso   1.000  Hf
  Hf4      1.0000 0.37063  0.49434  0.83989  Biso   1.000  Hf
  Hf5      1.0000 0.63504  0.00568  0.17031  Biso   1.000  Hf
  Hf6      1.0000 0.66677  0.24289  0.61094  Biso   1.000  Hf
  Hf7      1.0000 0.86348  0.27166  0.13475  Biso   1.000  Hf
  Hf8      1.0000 0.87245  0.48402  0.64909  Biso   1.000  Hf
  O1       1.0000 0.03239  0.16639  0.17941  Biso   1.000  O
  O2       1.0000 0.03704  0.08228  0.68076  Biso   1.000  O
  O3       1.0000 0.47704  0.45711  0.16411  Biso   1.000  O
  O4       1.0000 0.47955  0.35557  0.61442  Biso   1.000  O
  O5       1.0000 0.27216  0.12000  0.62553  Biso   1.000  O
  O6       1.0000 0.26403  0.10670  0.12673  Biso   1.000  O
  O7       1.0000 0.22437  0.37533  0.63474  Biso   1.000  O
  O8       1.0000 0.21901  0.36826  0.14254  Biso   1.000  O
  O9       1.0000 0.52612  0.14445  0.39580  Biso   1.000  O
  O10      1.0000 0.52862  0.04291  0.84611  Biso   1.000  O
  O11      1.0000 0.96863  0.41773  0.32947  Biso   1.000  O
  O12      1.0000 0.97328  0.33361  0.83081  Biso   1.000  O
  O13      1.0000 0.78665  0.13174  0.86770  Biso   1.000  O
  O14      1.0000 0.78130  0.12468  0.37549  Biso   1.000  O
  O15      1.0000 0.74164  0.39331  0.88349  Biso   1.000  O
  O16      1.0000 0.73350  0.38001  0.38468  Biso   1.000  O
  Hf9      1.0000 0.13782  0.51859  0.34529  Biso   1.000  Hf
  Hf10     1.0000 0.13850  0.72930  0.84824  Biso   1.000  Hf
  Hf11     1.0000 0.36192  0.76535  0.35699  Biso   1.000  Hf
  Hf12     1.0000 0.35575  0.96467  0.87313  Biso   1.000  Hf
  Hf13     1.0000 0.64992  0.53534  0.13710  Biso   1.000  Hf
  Hf14     1.0000 0.64375  0.73467  0.65324  Biso   1.000  Hf
  Hf15     1.0000 0.86717  0.77071  0.16199  Biso   1.000  Hf
  Hf16     1.0000 0.86784  0.98142  0.66494  Biso   1.000  Hf
  O17      1.0000 0.03721  0.66482  0.16855  Biso   1.000  O
  O18      1.0000 0.03935  0.58349  0.67156  Biso   1.000  O
  O19      1.0000 0.46412  0.91054  0.20312  Biso   1.000  O
  O20      1.0000 0.46257  0.82006  0.69060  Biso   1.000  O
  O21      1.0000 0.27560  0.62530  0.58610  Biso   1.000  O
  O22      1.0000 0.27416  0.62209  0.08670  Biso   1.000  O
  O23      1.0000 0.22118  0.87022  0.60661  Biso   1.000  O
  O24      1.0000 0.22280  0.86643  0.11151  Biso   1.000  O
  O25      1.0000 0.54310  0.67996  0.31962  Biso   1.000  O
  O26      1.0000 0.54155  0.58948  0.80710  Biso   1.000  O
  O27      1.0000 0.96632  0.91652  0.33867  Biso   1.000  O
  O28      1.0000 0.96846  0.83519  0.84169  Biso   1.000  O
  O29      1.0000 0.78287  0.63358  0.89872  Biso   1.000  O
  O30      1.0000 0.78449  0.62979  0.40362  Biso   1.000  O
  O31      1.0000 0.73150  0.87792  0.92352  Biso   1.000  O
  O32      1.0000 0.73006  0.87471  0.42412  Biso   1.000  O
  Pb1      1.0000 0.50284  0.25001  0.00512  Biso   1.000  Pb
