data_image0
_cell_length_a       10.0441
_cell_length_b       10.6358
_cell_length_c       5.11429
_cell_angle_alpha    88.5546
_cell_angle_beta     93.0701
_cell_angle_gamma    90.7756

_symmetry_space_group_name_H-M    "P 1"
_symmetry_int_tables_number       1

loop_
  _symmetry_equiv_pos_as_xyz
  'x, y, z'

loop_
  _atom_site_label
  _atom_site_occupancy
  _atom_site_fract_x
  _atom_site_fract_y
  _atom_site_fract_z
  _atom_site_thermal_displace_type
  _atom_site_B_iso_or_equiv
  _atom_site_type_symbol
  Hf1      1.0000 0.11120  0.97470  0.22188  Biso   1.000  Hf
  Hf2      1.0000 0.14455  0.18691  0.64080  Biso   1.000  Hf
  Hf3      1.0000 0.37111  0.26350  0.20836  Biso   1.000  Hf
  Hf4      1.0000 0.37947  0.47386  0.71996  Biso   1.000  Hf
  O1       1.0000 0.01295  0.13630  0.34261  Biso   1.000  O
  O2       1.0000 0.04002  0.06085  0.87165  Biso   1.000  O
  O3       1.0000 0.47109  0.42338  0.38792  Biso   1.000  O
  O4       1.0000 0.48435  0.31863  0.90312  Biso   1.000  O
  O5       1.0000 0.26564  0.09001  0.40431  Biso   1.000  O
  O6       1.0000 0.30963  0.14191  0.88679  Biso   1.000  O
  O7       1.0000 0.27177  0.43477  0.03647  Biso   1.000  O
  O8       1.0000 0.23298  0.34843  0.49841  Biso   1.000  O
  Hf5      1.0000 0.12610  0.53922  0.27346  Biso   1.000  Hf
  Hf6      1.0000 0.13032  0.74743  0.75827  Biso   1.000  Hf
  Hf7      1.0000 0.37555  0.77450  0.24436  Biso   1.000  Hf
  Hf8      1.0000 0.37863  0.98610  0.72249  Biso   1.000  Hf
  O9       1.0000 0.02735  0.68540  0.42572  Biso   1.000  O
  O10      1.0000 0.02591  0.57760  0.90447  Biso   1.000  O
  O11      1.0000 0.47866  0.92894  0.39597  Biso   1.000  O
  O12      1.0000 0.47071  0.81859  0.89922  Biso   1.000  O
  O13      1.0000 0.25994  0.61053  0.56100  Biso   1.000  O
  O14      1.0000 0.23672  0.67019  0.06341  Biso   1.000  O
  O15      1.0000 0.24453  0.90064  0.97221  Biso   1.000  O
  O16      1.0000 0.23826  0.85499  0.48401  Biso   1.000  O
  Hf9      1.0000 0.63821  0.01944  0.26191  Biso   1.000  Hf
  Hf10     1.0000 0.63982  0.22989  0.77398  Biso   1.000  Hf
  Hf11     1.0000 0.85259  0.27399  0.32943  Biso   1.000  Hf
  Hf12     1.0000 0.86751  0.48562  0.75357  Biso   1.000  Hf
  O17      1.0000 0.53034  0.17578  0.40522  Biso   1.000  O
  O18      1.0000 0.54942  0.06161  0.89895  Biso   1.000  O
  O19      1.0000 0.93914  0.46755  0.38930  Biso   1.000  O
  O20      1.0000 0.95640  0.29576  0.69223  Biso   1.000  O
  O21      1.0000 0.76574  0.11376  0.53745  Biso   1.000  O
  O22      1.0000 0.77647  0.14013  0.04122  Biso   1.000  O
  O23      1.0000 0.74628  0.38278  0.02407  Biso   1.000  O
  O24      1.0000 0.71333  0.37141  0.52482  Biso   1.000  O
  Hf13     1.0000 0.63404  0.51407  0.25573  Biso   1.000  Hf
  Hf14     1.0000 0.62851  0.73148  0.76152  Biso   1.000  Hf
  Hf15     1.0000 0.85630  0.76318  0.28710  Biso   1.000  Hf
  Hf16     1.0000 0.86222  0.98043  0.77595  Biso   1.000  Hf
  O25      1.0000 0.52825  0.67303  0.40854  Biso   1.000  O
  O26      1.0000 0.52865  0.57001  0.90745  Biso   1.000  O
  O27      1.0000 0.97212  0.90884  0.47694  Biso   1.000  O
  O28      1.0000 0.98624  0.83404  0.99101  Biso   1.000  O
  O29      1.0000 0.76027  0.61907  0.52797  Biso   1.000  O
  O30      1.0000 0.76289  0.63996  0.02166  Biso   1.000  O
  O31      1.0000 0.73797  0.88562  0.02872  Biso   1.000  O
  O32      1.0000 0.73151  0.86500  0.52678  Biso   1.000  O
  Pb1      1.0000 0.08362  0.30137  0.06507  Biso   1.000  Pb
