data_image0
_cell_length_a       10.2097
_cell_length_b       10.3119
_cell_length_c       10.5313
_cell_angle_alpha    90.0493
_cell_angle_beta     79.3061
_cell_angle_gamma    89.9636

_symmetry_space_group_name_H-M    "P 1"
_symmetry_int_tables_number       1

loop_
  _symmetry_equiv_pos_as_xyz
  'x, y, z'

loop_
  _atom_site_label
  _atom_site_occupancy
  _atom_site_fract_x
  _atom_site_fract_y
  _atom_site_fract_z
  _atom_site_thermal_displace_type
  _atom_site_B_iso_or_equiv
  _atom_site_type_symbol
  Hf1      1.0000 0.12982  0.01912  0.14459  Biso   1.000  Hf
  Hf2      1.0000 0.14058  0.22668  0.39115  Biso   1.000  Hf
  Hf3      1.0000 0.33511  0.26751  0.08844  Biso   1.000  Hf
  Hf4      1.0000 0.35546  0.48485  0.35099  Biso   1.000  Hf
  O1       1.0000 0.03043  0.16847  0.07796  Biso   1.000  O
  O2       1.0000 0.03064  0.08038  0.33162  Biso   1.000  O
  O3       1.0000 0.45413  0.44579  0.15316  Biso   1.000  O
  O4       1.0000 0.48179  0.35743  0.44367  Biso   1.000  O
  O5       1.0000 0.26171  0.12089  0.23165  Biso   1.000  O
  O6       1.0000 0.28053  0.12216  0.48456  Biso   1.000  O
  O7       1.0000 0.21169  0.38431  0.00126  Biso   1.000  O
  O8       1.0000 0.21254  0.37373  0.25322  Biso   1.000  O
  Hf5      1.0000 0.13879  0.02108  0.64454  Biso   1.000  Hf
  Hf6      1.0000 0.12966  0.22940  0.89043  Biso   1.000  Hf
  Hf7      1.0000 0.36284  0.27466  0.60455  Biso   1.000  Hf
  Hf8      1.0000 0.35939  0.47977  0.85478  Biso   1.000  Hf
  O9       1.0000 0.03973  0.16770  0.57843  Biso   1.000  O
  O10      1.0000 0.02992  0.08366  0.82637  Biso   1.000  O
  O11      1.0000 0.46732  0.41443  0.68104  Biso   1.000  O
  O12      1.0000 0.45947  0.33162  0.92214  Biso   1.000  O
  O13      1.0000 0.27288  0.12809  0.73600  Biso   1.000  O
  O14      1.0000 0.26405  0.12178  0.98135  Biso   1.000  O
  O15      1.0000 0.22686  0.37770  0.50525  Biso   1.000  O
  O16      1.0000 0.22310  0.37129  0.75615  Biso   1.000  O
  Hf9      1.0000 0.13769  0.52449  0.14520  Biso   1.000  Hf
  Hf10     1.0000 0.13784  0.73014  0.39741  Biso   1.000  Hf
  Hf11     1.0000 0.35948  0.77472  0.10459  Biso   1.000  Hf
  Hf12     1.0000 0.36170  0.97113  0.35702  Biso   1.000  Hf
  O17      1.0000 0.03231  0.66816  0.07764  Biso   1.000  O
  O18      1.0000 0.03566  0.58751  0.32699  Biso   1.000  O
  O19      1.0000 0.46509  0.91664  0.17505  Biso   1.000  O
  O20      1.0000 0.45911  0.82070  0.42218  Biso   1.000  O
  O21      1.0000 0.27480  0.63159  0.24213  Biso   1.000  O
  O22      1.0000 0.27269  0.62064  0.49119  Biso   1.000  O
  O23      1.0000 0.22315  0.87964  0.00978  Biso   1.000  O
  O24      1.0000 0.22171  0.86967  0.26006  Biso   1.000  O
  Hf13     1.0000 0.13814  0.52148  0.64643  Biso   1.000  Hf
  Hf14     1.0000 0.13659  0.72847  0.89687  Biso   1.000  Hf
  Hf15     1.0000 0.36098  0.76910  0.60554  Biso   1.000  Hf
  Hf16     1.0000 0.35910  0.97841  0.85140  Biso   1.000  Hf
  O25      1.0000 0.03186  0.66496  0.57970  Biso   1.000  O
  O26      1.0000 0.03278  0.58354  0.82915  Biso   1.000  O
  O27      1.0000 0.46473  0.91516  0.66990  Biso   1.000  O
  O28      1.0000 0.46457  0.83666  0.92137  Biso   1.000  O
  O29      1.0000 0.27431  0.62716  0.74079  Biso   1.000  O
  O30      1.0000 0.27576  0.62453  0.99138  Biso   1.000  O
  O31      1.0000 0.22289  0.87782  0.51164  Biso   1.000  O
  O32      1.0000 0.22289  0.87072  0.76033  Biso   1.000  O
  Hf17     1.0000 0.64168  0.01516  0.15159  Biso   1.000  Hf
  Hf18     1.0000 0.66203  0.23248  0.41413  Biso   1.000  Hf
  Hf19     1.0000 0.85656  0.27332  0.11142  Biso   1.000  Hf
  Hf20     1.0000 0.86731  0.48088  0.35799  Biso   1.000  Hf
  O33      1.0000 0.51534  0.14257  0.05890  Biso   1.000  O
  O34      1.0000 0.54302  0.05422  0.34943  Biso   1.000  O
  O35      1.0000 0.96649  0.41962  0.17096  Biso   1.000  O
  O36      1.0000 0.96671  0.33153  0.42461  Biso   1.000  O
  O37      1.0000 0.78461  0.12627  0.24935  Biso   1.000  O
  O38      1.0000 0.78544  0.11569  0.50131  Biso   1.000  O
  O39      1.0000 0.71661  0.37784  0.01801  Biso   1.000  O
  O40      1.0000 0.73543  0.37911  0.27093  Biso   1.000  O
  Hf21     1.0000 0.63775  0.02023  0.64780  Biso   1.000  Hf
  Hf22     1.0000 0.63430  0.22534  0.89802  Biso   1.000  Hf
  Hf23     1.0000 0.86748  0.27060  0.61214  Biso   1.000  Hf
  Hf24     1.0000 0.85835  0.47892  0.85803  Biso   1.000  Hf
  O41      1.0000 0.53767  0.16839  0.58044  Biso   1.000  O
  O42      1.0000 0.52981  0.08557  0.82153  Biso   1.000  O
  O43      1.0000 0.96722  0.41634  0.67620  Biso   1.000  O
  O44      1.0000 0.95741  0.33230  0.92415  Biso   1.000  O
  O45      1.0000 0.77403  0.12871  0.74642  Biso   1.000  O
  O46      1.0000 0.77028  0.12229  0.99733  Biso   1.000  O
  O47      1.0000 0.73309  0.37822  0.52123  Biso   1.000  O
  O48      1.0000 0.72426  0.37191  0.76658  Biso   1.000  O
  Hf25     1.0000 0.63545  0.52887  0.14555  Biso   1.000  Hf
  Hf26     1.0000 0.63766  0.72528  0.39799  Biso   1.000  Hf
  Hf27     1.0000 0.85930  0.76986  0.10516  Biso   1.000  Hf
  Hf28     1.0000 0.85945  0.97551  0.35738  Biso   1.000  Hf
  O49      1.0000 0.53803  0.67930  0.08040  Biso   1.000  O
  O50      1.0000 0.53205  0.58336  0.32754  Biso   1.000  O
  O51      1.0000 0.96148  0.91249  0.17559  Biso   1.000  O
  O52      1.0000 0.96483  0.83183  0.42493  Biso   1.000  O
  O53      1.0000 0.77543  0.63033  0.24252  Biso   1.000  O
  O54      1.0000 0.77399  0.62036  0.49280  Biso   1.000  O
  O55      1.0000 0.72445  0.87936  0.01139  Biso   1.000  O
  O56      1.0000 0.72234  0.86841  0.26044  Biso   1.000  O
  Hf29     1.0000 0.63804  0.52158  0.65118  Biso   1.000  Hf
  Hf30     1.0000 0.63616  0.73090  0.89704  Biso   1.000  Hf
  Hf31     1.0000 0.86055  0.77153  0.60571  Biso   1.000  Hf
  Hf32     1.0000 0.85900  0.97852  0.85615  Biso   1.000  Hf
  O57      1.0000 0.53258  0.66335  0.58121  Biso   1.000  O
  O58      1.0000 0.53241  0.58484  0.83268  Biso   1.000  O
  O59      1.0000 0.96436  0.91646  0.67343  Biso   1.000  O
  O60      1.0000 0.96529  0.83504  0.92287  Biso   1.000  O
  O61      1.0000 0.77425  0.62927  0.74225  Biso   1.000  O
  O62      1.0000 0.77425  0.62218  0.99094  Biso   1.000  O
  O63      1.0000 0.72138  0.87546  0.51119  Biso   1.000  O
  O64      1.0000 0.72283  0.87284  0.76179  Biso   1.000  O
  Pb1      1.0000 0.49857  0.25000  0.25129  Biso   1.000  Pb
