data_image0
_cell_length_a       10.118
_cell_length_b       5.17655
_cell_length_c       10.6419
_cell_angle_alpha    89.4889
_cell_angle_beta     92.6806
_cell_angle_gamma    90.1311

_symmetry_space_group_name_H-M    "P 1"
_symmetry_int_tables_number       1

loop_
  _symmetry_equiv_pos_as_xyz
  'x, y, z'

loop_
  _atom_site_label
  _atom_site_occupancy
  _atom_site_fract_x
  _atom_site_fract_y
  _atom_site_fract_z
  _atom_site_thermal_displace_type
  _atom_site_B_iso_or_equiv
  _atom_site_type_symbol
  Hf1      1.0000 0.12960  0.03502  0.17577  Biso   1.000  Hf
  Hf2      1.0000 0.13245  0.45428  0.42940  Biso   1.000  Hf
  Hf3      1.0000 0.34061  0.53741  0.19998  Biso   1.000  Hf
  Hf4      1.0000 0.36089  0.96127  0.43211  Biso   1.000  Hf
  Hf5      1.0000 0.65780  0.03703  0.06674  Biso   1.000  Hf
  Hf6      1.0000 0.63534  0.46258  0.33214  Biso   1.000  Hf
  Hf7      1.0000 0.86212  0.53675  0.07673  Biso   1.000  Hf
  Hf8      1.0000 0.85768  0.96047  0.32825  Biso   1.000  Hf
  O1       1.0000 0.03140  0.33161  0.08718  Biso   1.000  O
  O2       1.0000 0.02585  0.17370  0.33562  Biso   1.000  O
  O3       1.0000 0.47522  0.89923  0.09085  Biso   1.000  O
  O4       1.0000 0.46500  0.69255  0.33703  Biso   1.000  O
  O5       1.0000 0.26316  0.25067  0.30461  Biso   1.000  O
  O6       1.0000 0.26052  0.21664  0.05162  Biso   1.000  O
  O7       1.0000 0.21479  0.75426  0.31157  Biso   1.000  O
  O8       1.0000 0.21715  0.74192  0.06456  Biso   1.000  O
  O9       1.0000 0.51137  0.31285  0.20353  Biso   1.000  O
  O10      1.0000 0.52740  0.18694  0.42957  Biso   1.000  O
  O11      1.0000 0.95873  0.83146  0.16950  Biso   1.000  O
  O12      1.0000 0.96595  0.67375  0.42010  Biso   1.000  O
  O13      1.0000 0.77536  0.25208  0.45075  Biso   1.000  O
  O14      1.0000 0.77218  0.25489  0.20049  Biso   1.000  O
  O15      1.0000 0.72635  0.75674  0.45546  Biso   1.000  O
  O16      1.0000 0.72130  0.74739  0.20429  Biso   1.000  O
  Hf9      1.0000 0.14598  0.04123  0.67716  Biso   1.000  Hf
  Hf10     1.0000 0.14620  0.46058  0.93013  Biso   1.000  Hf
  Hf11     1.0000 0.36876  0.53954  0.67380  Biso   1.000  Hf
  Hf12     1.0000 0.36222  0.96524  0.92683  Biso   1.000  Hf
  Hf13     1.0000 0.64296  0.04231  0.57560  Biso   1.000  Hf
  Hf14     1.0000 0.66028  0.45243  0.81062  Biso   1.000  Hf
  Hf15     1.0000 0.86772  0.54545  0.57694  Biso   1.000  Hf
  Hf16     1.0000 0.87744  0.95773  0.82716  Biso   1.000  Hf
  O17      1.0000 0.03538  0.32568  0.58553  Biso   1.000  O
  O18      1.0000 0.04621  0.17011  0.83459  Biso   1.000  O
  O19      1.0000 0.47482  0.82163  0.58124  Biso   1.000  O
  O20      1.0000 0.48760  0.67875  0.81512  Biso   1.000  O
  O21      1.0000 0.28513  0.25372  0.79922  Biso   1.000  O
  O22      1.0000 0.27593  0.24798  0.55073  Biso   1.000  O
  O23      1.0000 0.23429  0.74684  0.80482  Biso   1.000  O
  O24      1.0000 0.22817  0.74994  0.55498  Biso   1.000  O
  O25      1.0000 0.54036  0.32719  0.66292  Biso   1.000  O
  O26      1.0000 0.54437  0.11821  0.89040  Biso   1.000  O
  O27      1.0000 0.97844  0.82419  0.66933  Biso   1.000  O
  O28      1.0000 0.97704  0.66878  0.92037  Biso   1.000  O
  O29      1.0000 0.79454  0.24978  0.94238  Biso   1.000  O
  O30      1.0000 0.78797  0.24395  0.69584  Biso   1.000  O
  O31      1.0000 0.74514  0.77101  0.94992  Biso   1.000  O
  O32      1.0000 0.73906  0.74548  0.70159  Biso   1.000  O
  Pb1      1.0000 0.50460  0.49135  0.01024  Biso   1.000  Pb
