data_image0
_cell_length_a       10.0002
_cell_length_b       10.4237
_cell_length_c       10.1122
_cell_angle_alpha    89.0745
_cell_angle_beta     91.0946
_cell_angle_gamma    91.0604

_symmetry_space_group_name_H-M    "P 1"
_symmetry_int_tables_number       1

loop_
  _symmetry_equiv_pos_as_xyz
  'x, y, z'

loop_
  _atom_site_label
  _atom_site_occupancy
  _atom_site_fract_x
  _atom_site_fract_y
  _atom_site_fract_z
  _atom_site_thermal_displace_type
  _atom_site_B_iso_or_equiv
  _atom_site_type_symbol
  Hf1      1.0000 0.15083  0.00117  0.10916  Biso   1.000  Hf
  Hf2      1.0000 0.12647  0.23417  0.39609  Biso   1.000  Hf
  Hf3      1.0000 0.36256  0.26316  0.12027  Biso   1.000  Hf
  Hf4      1.0000 0.36975  0.48685  0.37257  Biso   1.000  Hf
  O1       1.0000 0.96378  0.18557  0.27041  Biso   1.000  O
  O2       1.0000 0.04842  0.05512  0.45005  Biso   1.000  O
  O3       1.0000 0.45114  0.43594  0.18983  Biso   1.000  O
  O4       1.0000 0.46244  0.31858  0.44317  Biso   1.000  O
  O5       1.0000 0.25958  0.11305  0.24589  Biso   1.000  O
  O6       1.0000 0.27855  0.13238  0.49640  Biso   1.000  O
  O7       1.0000 0.23601  0.38733  0.49539  Biso   1.000  O
  O8       1.0000 0.20734  0.35770  0.24272  Biso   1.000  O
  Hf5      1.0000 0.14283  0.00524  0.62258  Biso   1.000  Hf
  Hf6      1.0000 0.15094  0.21918  0.84313  Biso   1.000  Hf
  Hf7      1.0000 0.37571  0.26706  0.62153  Biso   1.000  Hf
  Hf8      1.0000 0.36856  0.48269  0.87378  Biso   1.000  Hf
  O9       1.0000 0.05700  0.17875  0.66537  Biso   1.000  O
  O10      1.0000 0.05184  0.05066  0.92148  Biso   1.000  O
  O11      1.0000 0.46771  0.43416  0.69562  Biso   1.000  O
  O12      1.0000 0.46679  0.31346  0.94062  Biso   1.000  O
  O13      1.0000 0.28483  0.11015  0.74014  Biso   1.000  O
  O14      1.0000 0.29412  0.11720  0.98802  Biso   1.000  O
  O15      1.0000 0.23262  0.38459  0.99244  Biso   1.000  O
  O16      1.0000 0.23576  0.36593  0.73911  Biso   1.000  O
  Hf9      1.0000 0.12268  0.52237  0.12911  Biso   1.000  Hf
  Hf10     1.0000 0.13392  0.73679  0.37559  Biso   1.000  Hf
  Hf11     1.0000 0.36604  0.76022  0.12570  Biso   1.000  Hf
  Hf12     1.0000 0.36604  0.98553  0.37302  Biso   1.000  Hf
  O17      1.0000 0.03653  0.68825  0.19324  Biso   1.000  O
  O18      1.0000 0.03637  0.57501  0.44342  Biso   1.000  O
  O19      1.0000 0.46187  0.93369  0.19497  Biso   1.000  O
  O20      1.0000 0.46833  0.81786  0.44419  Biso   1.000  O
  O21      1.0000 0.26611  0.61508  0.25010  Biso   1.000  O
  O22      1.0000 0.27223  0.63479  0.49763  Biso   1.000  O
  O23      1.0000 0.23669  0.88106  0.49592  Biso   1.000  O
  O24      1.0000 0.23388  0.86234  0.24503  Biso   1.000  O
  Hf13     1.0000 0.13447  0.51686  0.61833  Biso   1.000  Hf
  Hf14     1.0000 0.13437  0.72968  0.87099  Biso   1.000  Hf
  Hf15     1.0000 0.37361  0.76316  0.62302  Biso   1.000  Hf
  Hf16     1.0000 0.37819  0.97491  0.87084  Biso   1.000  Hf
  O25      1.0000 0.04294  0.68908  0.68934  Biso   1.000  O
  O26      1.0000 0.03377  0.56199  0.94687  Biso   1.000  O
  O27      1.0000 0.47594  0.92860  0.69534  Biso   1.000  O
  O28      1.0000 0.47418  0.81418  0.95280  Biso   1.000  O
  O29      1.0000 0.27076  0.61317  0.74852  Biso   1.000  O
  O30      1.0000 0.26818  0.63056  0.99986  Biso   1.000  O
  O31      1.0000 0.23826  0.87284  0.99265  Biso   1.000  O
  O32      1.0000 0.24075  0.86040  0.74684  Biso   1.000  O
  Hf17     1.0000 0.62895  0.01073  0.12283  Biso   1.000  Hf
  Hf18     1.0000 0.62923  0.23044  0.39658  Biso   1.000  Hf
  Hf19     1.0000 0.80833  0.27146  0.16060  Biso   1.000  Hf
  Hf20     1.0000 0.86305  0.48832  0.39079  Biso   1.000  Hf
  O33      1.0000 0.53196  0.18662  0.18849  Biso   1.000  O
  O34      1.0000 0.53313  0.06598  0.45381  Biso   1.000  O
  O35      1.0000 0.94203  0.44717  0.21529  Biso   1.000  O
  O36      1.0000 0.97451  0.33195  0.47094  Biso   1.000  O
  O37      1.0000 0.73633  0.11051  0.26593  Biso   1.000  O
  O38      1.0000 0.78041  0.13764  0.50884  Biso   1.000  O
  O39      1.0000 0.73027  0.37916  0.51359  Biso   1.000  O
  O40      1.0000 0.69935  0.38342  0.27316  Biso   1.000  O
  Hf21     1.0000 0.64559  0.01565  0.62796  Biso   1.000  Hf
  Hf22     1.0000 0.63683  0.23281  0.87791  Biso   1.000  Hf
  Hf23     1.0000 0.87791  0.27392  0.64491  Biso   1.000  Hf
  Hf24     1.0000 0.86669  0.47910  0.87415  Biso   1.000  Hf
  O41      1.0000 0.54537  0.18492  0.69027  Biso   1.000  O
  O42      1.0000 0.54782  0.06124  0.93688  Biso   1.000  O
  O43      1.0000 0.95420  0.45869  0.68124  Biso   1.000  O
  O44      1.0000 0.96341  0.30093  0.85336  Biso   1.000  O
  O45      1.0000 0.77604  0.11697  0.75870  Biso   1.000  O
  O46      1.0000 0.77412  0.13753  0.01350  Biso   1.000  O
  O47      1.0000 0.73100  0.38472  0.00911  Biso   1.000  O
  O48      1.0000 0.72521  0.37169  0.75733  Biso   1.000  O
  Hf25     1.0000 0.62886  0.52491  0.13185  Biso   1.000  Hf
  Hf26     1.0000 0.63888  0.74020  0.37897  Biso   1.000  Hf
  Hf27     1.0000 0.86542  0.76883  0.12812  Biso   1.000  Hf
  Hf28     1.0000 0.87730  0.99763  0.36640  Biso   1.000  Hf
  O49      1.0000 0.53345  0.68360  0.20186  Biso   1.000  O
  O50      1.0000 0.53528  0.56852  0.44883  Biso   1.000  O
  O51      1.0000 0.96984  0.94524  0.18360  Biso   1.000  O
  O52      1.0000 0.96593  0.82008  0.43993  Biso   1.000  O
  O53      1.0000 0.76815  0.62551  0.25762  Biso   1.000  O
  O54      1.0000 0.76858  0.63678  0.50591  Biso   1.000  O
  O55      1.0000 0.73684  0.88952  0.49784  Biso   1.000  O
  O56      1.0000 0.73433  0.86975  0.24758  Biso   1.000  O
  Hf29     1.0000 0.63771  0.51704  0.63061  Biso   1.000  Hf
  Hf30     1.0000 0.63932  0.73323  0.87714  Biso   1.000  Hf
  Hf31     1.0000 0.87193  0.77049  0.62394  Biso   1.000  Hf
  Hf32     1.0000 0.87172  0.97982  0.87594  Biso   1.000  Hf
  O57      1.0000 0.53892  0.68124  0.69939  Biso   1.000  O
  O58      1.0000 0.53460  0.56809  0.94961  Biso   1.000  O
  O59      1.0000 0.96986  0.93348  0.69637  Biso   1.000  O
  O60      1.0000 0.96818  0.81004  0.94554  Biso   1.000  O
  O61      1.0000 0.77408  0.61933  0.75698  Biso   1.000  O
  O62      1.0000 0.76820  0.63412  0.00714  Biso   1.000  O
  O63      1.0000 0.73487  0.88330  0.99966  Biso   1.000  O
  O64      1.0000 0.73762  0.86578  0.74940  Biso   1.000  O
  Pb1      1.0000 0.05333  0.25557  0.08200  Biso   1.000  Pb
