data_image0
_cell_length_a       10.3078
_cell_length_b       5.18068
_cell_length_c       10.64
_cell_angle_alpha    90.1632
_cell_angle_beta     78.1028
_cell_angle_gamma    89.9207

_symmetry_space_group_name_H-M    "P 1"
_symmetry_int_tables_number       1

loop_
  _symmetry_equiv_pos_as_xyz
  'x, y, z'

loop_
  _atom_site_label
  _atom_site_occupancy
  _atom_site_fract_x
  _atom_site_fract_y
  _atom_site_fract_z
  _atom_site_thermal_displace_type
  _atom_site_B_iso_or_equiv
  _atom_site_type_symbol
  Hf1      1.0000 0.12877  0.04640  0.14221  Biso   1.000  Hf
  Hf2      1.0000 0.13987  0.45850  0.39297  Biso   1.000  Hf
  Hf3      1.0000 0.33984  0.54648  0.08941  Biso   1.000  Hf
  Hf4      1.0000 0.34376  0.95691  0.34655  Biso   1.000  Hf
  O1       1.0000 0.02540  0.33431  0.07544  Biso   1.000  O
  O2       1.0000 0.03094  0.17722  0.32708  Biso   1.000  O
  O3       1.0000 0.45286  0.87695  0.14631  Biso   1.000  O
  O4       1.0000 0.48390  0.69315  0.45542  Biso   1.000  O
  O5       1.0000 0.26252  0.24010  0.23320  Biso   1.000  O
  O6       1.0000 0.27567  0.24189  0.48555  Biso   1.000  O
  O7       1.0000 0.21338  0.76813  0.00125  Biso   1.000  O
  O8       1.0000 0.20576  0.74296  0.25032  Biso   1.000  O
  Hf5      1.0000 0.13968  0.04288  0.64491  Biso   1.000  Hf
  Hf6      1.0000 0.12878  0.45884  0.89296  Biso   1.000  Hf
  Hf7      1.0000 0.36403  0.54450  0.60800  Biso   1.000  Hf
  Hf8      1.0000 0.35732  0.95894  0.85222  Biso   1.000  Hf
  O9       1.0000 0.03643  0.32743  0.57786  Biso   1.000  O
  O10      1.0000 0.02816  0.17397  0.82565  Biso   1.000  O
  O11      1.0000 0.46960  0.81897  0.68386  Biso   1.000  O
  O12      1.0000 0.45930  0.66831  0.91869  Biso   1.000  O
  O13      1.0000 0.27182  0.25017  0.73768  Biso   1.000  O
  O14      1.0000 0.26436  0.25299  0.98418  Biso   1.000  O
  O15      1.0000 0.22591  0.75200  0.50613  Biso   1.000  O
  O16      1.0000 0.22273  0.74191  0.75655  Biso   1.000  O
  Hf9      1.0000 0.63477  0.03949  0.14861  Biso   1.000  Hf
  Hf10     1.0000 0.66186  0.46696  0.41923  Biso   1.000  Hf
  Hf11     1.0000 0.85385  0.54343  0.11371  Biso   1.000  Hf
  Hf12     1.0000 0.86602  0.95953  0.35973  Biso   1.000  Hf
  O17      1.0000 0.51765  0.32040  0.06374  Biso   1.000  O
  O18      1.0000 0.52744  0.09585  0.33309  Biso   1.000  O
  O19      1.0000 0.96381  0.82872  0.17508  Biso   1.000  O
  O20      1.0000 0.96801  0.66852  0.42953  Biso   1.000  O
  O21      1.0000 0.78016  0.25854  0.25431  Biso   1.000  O
  O22      1.0000 0.78408  0.23330  0.50446  Biso   1.000  O
  O23      1.0000 0.71821  0.75245  0.01929  Biso   1.000  O
  O24      1.0000 0.73405  0.75824  0.27244  Biso   1.000  O
  Hf13     1.0000 0.63843  0.04088  0.65530  Biso   1.000  Hf
  Hf14     1.0000 0.63278  0.45786  0.89842  Biso   1.000  Hf
  Hf15     1.0000 0.86870  0.54299  0.61354  Biso   1.000  Hf
  Hf16     1.0000 0.85802  0.95829  0.86065  Biso   1.000  Hf
  O25      1.0000 0.53517  0.31385  0.58057  Biso   1.000  O
  O26      1.0000 0.52827  0.17476  0.82760  Biso   1.000  O
  O27      1.0000 0.96878  0.82893  0.67960  Biso   1.000  O
  O28      1.0000 0.95934  0.67365  0.92775  Biso   1.000  O
  O29      1.0000 0.77297  0.25939  0.74865  Biso   1.000  O
  O30      1.0000 0.76779  0.24444  0.99863  Biso   1.000  O
  O31      1.0000 0.73231  0.75173  0.52314  Biso   1.000  O
  O32      1.0000 0.72581  0.74819  0.76909  Biso   1.000  O
  Pb1      1.0000 0.49226  0.50562  0.26444  Biso   1.000  Pb
