data_image0
_cell_length_a       10.0715
_cell_length_b       10.2911
_cell_length_c       10.5208
_cell_angle_alpha    89.9034
_cell_angle_beta     91.2526
_cell_angle_gamma    89.999

_symmetry_space_group_name_H-M    "P 1"
_symmetry_int_tables_number       1

loop_
  _symmetry_equiv_pos_as_xyz
  'x, y, z'

loop_
  _atom_site_label
  _atom_site_occupancy
  _atom_site_fract_x
  _atom_site_fract_y
  _atom_site_fract_z
  _atom_site_thermal_displace_type
  _atom_site_B_iso_or_equiv
  _atom_site_type_symbol
  Hf1      1.0000 0.13347  0.01782  0.17455  Biso   1.000  Hf
  Hf2      1.0000 0.13652  0.22714  0.42840  Biso   1.000  Hf
  Hf3      1.0000 0.34002  0.26862  0.19243  Biso   1.000  Hf
  Hf4      1.0000 0.36176  0.48062  0.42349  Biso   1.000  Hf
  Hf5      1.0000 0.64394  0.01413  0.07385  Biso   1.000  Hf
  Hf6      1.0000 0.63597  0.22610  0.32939  Biso   1.000  Hf
  Hf7      1.0000 0.85977  0.27145  0.07526  Biso   1.000  Hf
  Hf8      1.0000 0.86013  0.47858  0.32731  Biso   1.000  Hf
  O1       1.0000 0.03153  0.16787  0.08752  Biso   1.000  O
  O2       1.0000 0.02929  0.08558  0.33552  Biso   1.000  O
  O3       1.0000 0.46117  0.44544  0.10674  Biso   1.000  O
  O4       1.0000 0.46300  0.33341  0.33653  Biso   1.000  O
  O5       1.0000 0.26727  0.12372  0.30439  Biso   1.000  O
  O6       1.0000 0.26437  0.11224  0.05302  Biso   1.000  O
  O7       1.0000 0.21479  0.37754  0.30562  Biso   1.000  O
  O8       1.0000 0.21514  0.37920  0.05581  Biso   1.000  O
  O9       1.0000 0.51564  0.14291  0.19116  Biso   1.000  O
  O10      1.0000 0.53046  0.08683  0.42645  Biso   1.000  O
  O11      1.0000 0.96223  0.41711  0.16746  Biso   1.000  O
  O12      1.0000 0.96819  0.33595  0.41749  Biso   1.000  O
  O13      1.0000 0.77550  0.12467  0.45178  Biso   1.000  O
  O14      1.0000 0.77117  0.12686  0.20121  Biso   1.000  O
  O15      1.0000 0.72516  0.37526  0.45255  Biso   1.000  O
  O16      1.0000 0.71912  0.37477  0.20361  Biso   1.000  O
  Hf9      1.0000 0.14273  0.02143  0.67527  Biso   1.000  Hf
  Hf10     1.0000 0.14309  0.22855  0.92733  Biso   1.000  Hf
  Hf11     1.0000 0.36690  0.27391  0.67319  Biso   1.000  Hf
  Hf12     1.0000 0.35892  0.48587  0.92873  Biso   1.000  Hf
  Hf13     1.0000 0.64110  0.01939  0.57910  Biso   1.000  Hf
  Hf14     1.0000 0.66286  0.23140  0.81014  Biso   1.000  Hf
  Hf15     1.0000 0.86636  0.27286  0.57418  Biso   1.000  Hf
  Hf16     1.0000 0.86939  0.48219  0.82804  Biso   1.000  Hf
  O17      1.0000 0.03468  0.16406  0.58508  Biso   1.000  O
  O18      1.0000 0.04063  0.08290  0.83512  Biso   1.000  O
  O19      1.0000 0.47241  0.41317  0.57613  Biso   1.000  O
  O20      1.0000 0.48723  0.35712  0.81141  Biso   1.000  O
  O21      1.0000 0.28374  0.12523  0.79897  Biso   1.000  O
  O22      1.0000 0.27771  0.12475  0.55003  Biso   1.000  O
  O23      1.0000 0.23169  0.37314  0.80136  Biso   1.000  O
  O24      1.0000 0.22736  0.37534  0.55080  Biso   1.000  O
  O25      1.0000 0.53986  0.16660  0.66607  Biso   1.000  O
  O26      1.0000 0.54169  0.05453  0.89585  Biso   1.000  O
  O27      1.0000 0.97358  0.41442  0.66706  Biso   1.000  O
  O28      1.0000 0.97133  0.33213  0.91506  Biso   1.000  O
  O29      1.0000 0.78771  0.12081  0.94677  Biso   1.000  O
  O30      1.0000 0.78807  0.12246  0.69696  Biso   1.000  O
  O31      1.0000 0.73849  0.38776  0.94956  Biso   1.000  O
  O32      1.0000 0.73560  0.37629  0.69819  Biso   1.000  O
  Hf17     1.0000 0.13503  0.52302  0.17371  Biso   1.000  Hf
  Hf18     1.0000 0.13802  0.72914  0.42277  Biso   1.000  Hf
  Hf19     1.0000 0.36212  0.77292  0.17495  Biso   1.000  Hf
  Hf20     1.0000 0.36197  0.97781  0.42765  Biso   1.000  Hf
  Hf21     1.0000 0.64077  0.52799  0.08081  Biso   1.000  Hf
  Hf22     1.0000 0.63941  0.73187  0.32944  Biso   1.000  Hf
  Hf23     1.0000 0.86243  0.76959  0.07940  Biso   1.000  Hf
  Hf24     1.0000 0.86041  0.98015  0.32937  Biso   1.000  Hf
  O33      1.0000 0.03320  0.66568  0.08346  Biso   1.000  O
  O34      1.0000 0.03086  0.58603  0.33497  Biso   1.000  O
  O35      1.0000 0.46893  0.91437  0.08306  Biso   1.000  O
  O36      1.0000 0.46831  0.83755  0.33657  Biso   1.000  O
  O37      1.0000 0.27467  0.62602  0.29547  Biso   1.000  O
  O38      1.0000 0.27469  0.62711  0.04596  Biso   1.000  O
  O39      1.0000 0.22417  0.87465  0.29888  Biso   1.000  O
  O40      1.0000 0.22378  0.87131  0.04944  Biso   1.000  O
  O41      1.0000 0.53825  0.67690  0.16613  Biso   1.000  O
  O42      1.0000 0.53261  0.58728  0.41498  Biso   1.000  O
  O43      1.0000 0.96347  0.91593  0.16746  Biso   1.000  O
  O44      1.0000 0.96671  0.83492  0.41764  Biso   1.000  O
  O45      1.0000 0.77698  0.62479  0.45455  Biso   1.000  O
  O46      1.0000 0.77763  0.62752  0.20575  Biso   1.000  O
  O47      1.0000 0.72592  0.87562  0.45673  Biso   1.000  O
  O48      1.0000 0.72480  0.87609  0.20596  Biso   1.000  O
  Hf25     1.0000 0.14246  0.51986  0.67321  Biso   1.000  Hf
  Hf26     1.0000 0.14043  0.73041  0.92318  Biso   1.000  Hf
  Hf27     1.0000 0.36345  0.76814  0.67314  Biso   1.000  Hf
  Hf28     1.0000 0.36208  0.97200  0.92177  Biso   1.000  Hf
  Hf29     1.0000 0.64090  0.52221  0.57493  Biso   1.000  Hf
  Hf30     1.0000 0.64073  0.72708  0.82763  Biso   1.000  Hf
  Hf31     1.0000 0.86484  0.77087  0.57982  Biso   1.000  Hf
  Hf32     1.0000 0.86784  0.97698  0.82887  Biso   1.000  Hf
  O49      1.0000 0.03615  0.66509  0.58494  Biso   1.000  O
  O50      1.0000 0.03939  0.58408  0.83512  Biso   1.000  O
  O51      1.0000 0.47025  0.91274  0.58761  Biso   1.000  O
  O52      1.0000 0.46460  0.82309  0.83647  Biso   1.000  O
  O53      1.0000 0.27806  0.62391  0.79662  Biso   1.000  O
  O54      1.0000 0.27695  0.62439  0.54585  Biso   1.000  O
  O55      1.0000 0.22523  0.87248  0.79683  Biso   1.000  O
  O56      1.0000 0.22588  0.87522  0.54803  Biso   1.000  O
  O57      1.0000 0.53455  0.66245  0.66602  Biso   1.000  O
  O58      1.0000 0.53393  0.58564  0.91954  Biso   1.000  O
  O59      1.0000 0.97200  0.91398  0.66761  Biso   1.000  O
  O60      1.0000 0.96966  0.83433  0.91913  Biso   1.000  O
  O61      1.0000 0.77908  0.62869  0.95315  Biso   1.000  O
  O62      1.0000 0.77869  0.62536  0.70370  Biso   1.000  O
  O63      1.0000 0.72817  0.87289  0.95663  Biso   1.000  O
  O64      1.0000 0.72818  0.87399  0.70711  Biso   1.000  O
  Pb1      1.0000 0.50141  0.24999  0.00127  Biso   1.000  Pb
