data_image0
_cell_length_a       10.1695
_cell_length_b       10.4141
_cell_length_c       5.18608
_cell_angle_alpha    91.5977
_cell_angle_beta     95.3459
_cell_angle_gamma    92.151

_symmetry_space_group_name_H-M    "P 1"
_symmetry_int_tables_number       1

loop_
  _symmetry_equiv_pos_as_xyz
  'x, y, z'

loop_
  _atom_site_label
  _atom_site_occupancy
  _atom_site_fract_x
  _atom_site_fract_y
  _atom_site_fract_z
  _atom_site_thermal_displace_type
  _atom_site_B_iso_or_equiv
  _atom_site_type_symbol
  Hf1      1.0000 0.10545  0.95974  0.30574  Biso   1.000  Hf
  Hf2      1.0000 0.12728  0.18751  0.76393  Biso   1.000  Hf
  Hf3      1.0000 0.39525  0.27477  0.10195  Biso   1.000  Hf
  Hf4      1.0000 0.38860  0.01323  0.71244  Biso   1.000  Hf
  O1       1.0000 0.01351  0.10822  0.04442  Biso   1.000  O
  O2       1.0000 0.98211  0.06702  0.54018  Biso   1.000  O
  O3       1.0000 0.96688  0.30885  0.71239  Biso   1.000  O
  O4       1.0000 0.97740  0.42184  0.17965  Biso   1.000  O
  O5       1.0000 0.23970  0.10520  0.47464  Biso   1.000  O
  O6       1.0000 0.28607  0.10700  0.97298  Biso   1.000  O
  O7       1.0000 0.27946  0.34456  0.79295  Biso   1.000  O
  O8       1.0000 0.28517  0.45214  0.34256  Biso   1.000  O
  Hf5      1.0000 0.12596  0.56843  0.28391  Biso   1.000  Hf
  Hf6      1.0000 0.11890  0.75050  0.78301  Biso   1.000  Hf
  Hf7      1.0000 0.39148  0.74869  0.20409  Biso   1.000  Hf
  Hf8      1.0000 0.36634  0.52336  0.70308  Biso   1.000  Hf
  O9       1.0000 0.98961  0.64731  0.03682  Biso   1.000  O
  O10      1.0000 0.03670  0.56669  0.61343  Biso   1.000  O
  O11      1.0000 0.00352  0.80591  0.45409  Biso   1.000  O
  O12      1.0000 0.97414  0.87557  0.97150  Biso   1.000  O
  O13      1.0000 0.26318  0.67640  0.51179  Biso   1.000  O
  O14      1.0000 0.25090  0.61328  0.97436  Biso   1.000  O
  O15      1.0000 0.21762  0.83604  0.12524  Biso   1.000  O
  O16      1.0000 0.21968  0.90100  0.64432  Biso   1.000  O
  Hf9      1.0000 0.61592  0.00580  0.26010  Biso   1.000  Hf
  Hf10     1.0000 0.61752  0.27283  0.69902  Biso   1.000  Hf
  Hf11     1.0000 0.86969  0.24966  0.33797  Biso   1.000  Hf
  Hf12     1.0000 0.85205  0.00989  0.80832  Biso   1.000  Hf
  O17      1.0000 0.52726  0.15491  0.94970  Biso   1.000  O
  O18      1.0000 0.49777  0.11849  0.45939  Biso   1.000  O
  O19      1.0000 0.52181  0.35902  0.39538  Biso   1.000  O
  O20      1.0000 0.51208  0.41505  0.91303  Biso   1.000  O
  O21      1.0000 0.74614  0.14587  0.57817  Biso   1.000  O
  O22      1.0000 0.77060  0.09905  0.10728  Biso   1.000  O
  O23      1.0000 0.74739  0.34992  0.02618  Biso   1.000  O
  O24      1.0000 0.75949  0.39888  0.51763  Biso   1.000  O
  Hf13     1.0000 0.64431  0.49365  0.22823  Biso   1.000  Hf
  Hf14     1.0000 0.63220  0.73605  0.67992  Biso   1.000  Hf
  Hf15     1.0000 0.84540  0.75897  0.19786  Biso   1.000  Hf
  Hf16     1.0000 0.89657  0.47781  0.82437  Biso   1.000  Hf
  O25      1.0000 0.49477  0.66646  0.92357  Biso   1.000  O
  O26      1.0000 0.50445  0.60830  0.43348  Biso   1.000  O
  O27      1.0000 0.49554  0.86291  0.51072  Biso   1.000  O
  O28      1.0000 0.46652  0.91201  0.03299  Biso   1.000  O
  O29      1.0000 0.75163  0.64365  0.43919  Biso   1.000  O
  O30      1.0000 0.74399  0.60685  0.94511  Biso   1.000  O
  O31      1.0000 0.71793  0.86592  0.96905  Biso   1.000  O
  O32      1.0000 0.74915  0.89004  0.48038  Biso   1.000  O
  Pb1      1.0000 0.14520  0.27928  0.27913  Biso   1.000  Pb
