data_image0
_cell_length_a       10.0744
_cell_length_b       10.4857
_cell_length_c       10.1758
_cell_angle_alpha    89.1812
_cell_angle_beta     91.1027
_cell_angle_gamma    91.0593

_symmetry_space_group_name_H-M    "P 1"
_symmetry_int_tables_number       1

loop_
  _symmetry_equiv_pos_as_xyz
  'x, y, z'

loop_
  _atom_site_label
  _atom_site_occupancy
  _atom_site_fract_x
  _atom_site_fract_y
  _atom_site_fract_z
  _atom_site_thermal_displace_type
  _atom_site_B_iso_or_equiv
  _atom_site_type_symbol
  Zr1      1.0000 0.14968  0.00011  0.10838  Biso   1.000  Zr
  Zr2      1.0000 0.12677  0.23411  0.39520  Biso   1.000  Zr
  Zr3      1.0000 0.36339  0.26241  0.11939  Biso   1.000  Zr
  Zr4      1.0000 0.37003  0.48769  0.37121  Biso   1.000  Zr
  O1       1.0000 0.96552  0.18486  0.26736  Biso   1.000  O
  O2       1.0000 0.04787  0.05531  0.44875  Biso   1.000  O
  O3       1.0000 0.45114  0.43582  0.18856  Biso   1.000  O
  O4       1.0000 0.46366  0.31899  0.44230  Biso   1.000  O
  O5       1.0000 0.25899  0.11218  0.24428  Biso   1.000  O
  O6       1.0000 0.27791  0.13267  0.49473  Biso   1.000  O
  O7       1.0000 0.23760  0.38750  0.49338  Biso   1.000  O
  O8       1.0000 0.20726  0.35748  0.24054  Biso   1.000  O
  Zr5      1.0000 0.14232  0.00427  0.62137  Biso   1.000  Zr
  Zr6      1.0000 0.15113  0.21978  0.84209  Biso   1.000  Zr
  Zr7      1.0000 0.37634  0.26615  0.62026  Biso   1.000  Zr
  Zr8      1.0000 0.36837  0.48302  0.87253  Biso   1.000  Zr
  O9       1.0000 0.05677  0.17830  0.66429  Biso   1.000  O
  O10      1.0000 0.05100  0.05147  0.92204  Biso   1.000  O
  O11      1.0000 0.46870  0.43362  0.69497  Biso   1.000  O
  O12      1.0000 0.46766  0.31365  0.93954  Biso   1.000  O
  O13      1.0000 0.28404  0.10936  0.73840  Biso   1.000  O
  O14      1.0000 0.29322  0.11772  0.98614  Biso   1.000  O
  O15      1.0000 0.23292  0.38406  0.99016  Biso   1.000  O
  O16      1.0000 0.23683  0.36491  0.73706  Biso   1.000  O
  Zr9      1.0000 0.12349  0.52294  0.12735  Biso   1.000  Zr
  Zr10     1.0000 0.13380  0.73736  0.37477  Biso   1.000  Zr
  Zr11     1.0000 0.36629  0.75954  0.12450  Biso   1.000  Zr
  Zr12     1.0000 0.36603  0.98605  0.37167  Biso   1.000  Zr
  O17      1.0000 0.03565  0.68757  0.19293  Biso   1.000  O
  O18      1.0000 0.03593  0.57517  0.44205  Biso   1.000  O
  O19      1.0000 0.46281  0.93315  0.19467  Biso   1.000  O
  O20      1.0000 0.46912  0.81806  0.44388  Biso   1.000  O
  O21      1.0000 0.26583  0.61497  0.24868  Biso   1.000  O
  O22      1.0000 0.27111  0.63513  0.49621  Biso   1.000  O
  O23      1.0000 0.23783  0.88154  0.49449  Biso   1.000  O
  O24      1.0000 0.23482  0.86158  0.24377  Biso   1.000  O
  Zr13     1.0000 0.13405  0.51531  0.61632  Biso   1.000  Zr
  Zr14     1.0000 0.13397  0.73057  0.86936  Biso   1.000  Zr
  Zr15     1.0000 0.37384  0.76205  0.62186  Biso   1.000  Zr
  Zr16     1.0000 0.37809  0.97548  0.86995  Biso   1.000  Zr
  O25      1.0000 0.04258  0.68879  0.68844  Biso   1.000  O
  O26      1.0000 0.03310  0.56220  0.94625  Biso   1.000  O
  O27      1.0000 0.47711  0.92777  0.69533  Biso   1.000  O
  O28      1.0000 0.47537  0.81518  0.95294  Biso   1.000  O
  O29      1.0000 0.26969  0.61194  0.74675  Biso   1.000  O
  O30      1.0000 0.26702  0.63121  0.99815  Biso   1.000  O
  O31      1.0000 0.23924  0.87326  0.99141  Biso   1.000  O
  O32      1.0000 0.24193  0.85971  0.74535  Biso   1.000  O
  Zr17     1.0000 0.62878  0.00955  0.12163  Biso   1.000  Zr
  Zr18     1.0000 0.62930  0.23020  0.39614  Biso   1.000  Zr
  Zr19     1.0000 0.80899  0.27075  0.15905  Biso   1.000  Zr
  Zr20     1.0000 0.86307  0.48858  0.38835  Biso   1.000  Zr
  O33      1.0000 0.53124  0.18578  0.18788  Biso   1.000  O
  O34      1.0000 0.53290  0.06608  0.45304  Biso   1.000  O
  O35      1.0000 0.94110  0.44615  0.21337  Biso   1.000  O
  O36      1.0000 0.97639  0.33238  0.47056  Biso   1.000  O
  O37      1.0000 0.73673  0.11020  0.26439  Biso   1.000  O
  O38      1.0000 0.78010  0.13754  0.50752  Biso   1.000  O
  O39      1.0000 0.73198  0.37979  0.51159  Biso   1.000  O
  O40      1.0000 0.69935  0.38238  0.27115  Biso   1.000  O
  Zr21     1.0000 0.64583  0.01463  0.62750  Biso   1.000  Zr
  Zr22     1.0000 0.63703  0.23331  0.87697  Biso   1.000  Zr
  Zr23     1.0000 0.87838  0.27376  0.64383  Biso   1.000  Zr
  Zr24     1.0000 0.86644  0.47985  0.87345  Biso   1.000  Zr
  O41      1.0000 0.54538  0.18455  0.68890  Biso   1.000  O
  O42      1.0000 0.54762  0.06169  0.93625  Biso   1.000  O
  O43      1.0000 0.95483  0.45850  0.68063  Biso   1.000  O
  O44      1.0000 0.96365  0.30130  0.85338  Biso   1.000  O
  O45      1.0000 0.77588  0.11658  0.75721  Biso   1.000  O
  O46      1.0000 0.77380  0.13698  0.01176  Biso   1.000  O
  O47      1.0000 0.73177  0.38449  0.00774  Biso   1.000  O
  O48      1.0000 0.72611  0.37110  0.75579  Biso   1.000  O
  Zr25     1.0000 0.62852  0.52431  0.13067  Biso   1.000  Zr
  Zr26     1.0000 0.63875  0.74081  0.37817  Biso   1.000  Zr
  Zr27     1.0000 0.86531  0.76796  0.12732  Biso   1.000  Zr
  Zr28     1.0000 0.87693  0.99782  0.36597  Biso   1.000  Zr
  O49      1.0000 0.53262  0.68297  0.20165  Biso   1.000  O
  O50      1.0000 0.53437  0.56889  0.44853  Biso   1.000  O
  O51      1.0000 0.96984  0.94405  0.18329  Biso   1.000  O
  O52      1.0000 0.96697  0.82049  0.44010  Biso   1.000  O
  O53      1.0000 0.76687  0.62498  0.25589  Biso   1.000  O
  O54      1.0000 0.76785  0.63717  0.50433  Biso   1.000  O
  O55      1.0000 0.73778  0.88968  0.49704  Biso   1.000  O
  O56      1.0000 0.73507  0.86922  0.24683  Biso   1.000  O
  Zr29     1.0000 0.63779  0.51622  0.62941  Biso   1.000  Zr
  Zr30     1.0000 0.63909  0.73395  0.87607  Biso   1.000  Zr
  Zr31     1.0000 0.87211  0.76979  0.62351  Biso   1.000  Zr
  Zr32     1.0000 0.87170  0.98124  0.87625  Biso   1.000  Zr
  O57      1.0000 0.53821  0.68059  0.69920  Biso   1.000  O
  O58      1.0000 0.53340  0.56874  0.94940  Biso   1.000  O
  O59      1.0000 0.97082  0.93292  0.69648  Biso   1.000  O
  O60      1.0000 0.96916  0.81044  0.94542  Biso   1.000  O
  O61      1.0000 0.77325  0.61874  0.75534  Biso   1.000  O
  O62      1.0000 0.76724  0.63421  0.00527  Biso   1.000  O
  O63      1.0000 0.73582  0.88312  0.99877  Biso   1.000  O
  O64      1.0000 0.73874  0.86550  0.74873  Biso   1.000  O
  Pb1      1.0000 0.05613  0.25724  0.08228  Biso   1.000  Pb
