data_image0
_cell_length_a       10.1203
_cell_length_b       10.6622
_cell_length_c       5.14766
_cell_angle_alpha    88.0794
_cell_angle_beta     92.992
_cell_angle_gamma    90.9137

_symmetry_space_group_name_H-M    "P 1"
_symmetry_int_tables_number       1

loop_
  _symmetry_equiv_pos_as_xyz
  'x, y, z'

loop_
  _atom_site_label
  _atom_site_occupancy
  _atom_site_fract_x
  _atom_site_fract_y
  _atom_site_fract_z
  _atom_site_thermal_displace_type
  _atom_site_B_iso_or_equiv
  _atom_site_type_symbol
  Zr1      1.0000 0.11210  0.97413  0.22255  Biso   1.000  Zr
  Zr2      1.0000 0.14493  0.18840  0.63562  Biso   1.000  Zr
  Zr3      1.0000 0.37132  0.26329  0.20590  Biso   1.000  Zr
  Zr4      1.0000 0.38112  0.47804  0.71509  Biso   1.000  Zr
  O1       1.0000 0.01148  0.13436  0.34391  Biso   1.000  O
  O2       1.0000 0.03987  0.06256  0.87319  Biso   1.000  O
  O3       1.0000 0.47084  0.42202  0.38688  Biso   1.000  O
  O4       1.0000 0.48523  0.31991  0.90172  Biso   1.000  O
  O5       1.0000 0.26620  0.09120  0.40192  Biso   1.000  O
  O6       1.0000 0.30904  0.14354  0.88198  Biso   1.000  O
  O7       1.0000 0.27097  0.43312  0.02447  Biso   1.000  O
  O8       1.0000 0.22985  0.35258  0.49003  Biso   1.000  O
  Zr5      1.0000 0.12740  0.53780  0.26769  Biso   1.000  Zr
  Zr6      1.0000 0.12562  0.75118  0.75284  Biso   1.000  Zr
  Zr7      1.0000 0.37166  0.76838  0.25262  Biso   1.000  Zr
  Zr8      1.0000 0.37902  0.98616  0.72424  Biso   1.000  Zr
  O9       1.0000 0.02846  0.68282  0.42280  Biso   1.000  O
  O10      1.0000 0.02556  0.57766  0.90062  Biso   1.000  O
  O11      1.0000 0.47994  0.92337  0.40437  Biso   1.000  O
  O12      1.0000 0.47150  0.81815  0.90751  Biso   1.000  O
  O13      1.0000 0.26549  0.61539  0.53920  Biso   1.000  O
  O14      1.0000 0.23719  0.66942  0.04691  Biso   1.000  O
  O15      1.0000 0.24427  0.90105  0.97427  Biso   1.000  O
  O16      1.0000 0.23859  0.85619  0.48525  Biso   1.000  O
  Zr9      1.0000 0.63670  0.01768  0.26530  Biso   1.000  Zr
  Zr10     1.0000 0.63939  0.22989  0.77572  Biso   1.000  Zr
  Zr11     1.0000 0.85160  0.27347  0.32797  Biso   1.000  Zr
  Zr12     1.0000 0.86835  0.48518  0.75028  Biso   1.000  Zr
  O17      1.0000 0.52843  0.17321  0.40794  Biso   1.000  O
  O18      1.0000 0.54785  0.06201  0.90488  Biso   1.000  O
  O19      1.0000 0.93852  0.46650  0.38247  Biso   1.000  O
  O20      1.0000 0.95699  0.29624  0.69183  Biso   1.000  O
  O21      1.0000 0.76414  0.11361  0.53781  Biso   1.000  O
  O22      1.0000 0.77579  0.13943  0.04113  Biso   1.000  O
  O23      1.0000 0.74701  0.38272  0.02123  Biso   1.000  O
  O24      1.0000 0.71336  0.37107  0.52286  Biso   1.000  O
  Zr13     1.0000 0.63492  0.51411  0.25572  Biso   1.000  Zr
  Zr14     1.0000 0.62725  0.73396  0.76280  Biso   1.000  Zr
  Zr15     1.0000 0.85673  0.76242  0.28801  Biso   1.000  Zr
  Zr16     1.0000 0.86311  0.98184  0.77744  Biso   1.000  Zr
  O25      1.0000 0.52792  0.66997  0.41528  Biso   1.000  O
  O26      1.0000 0.52784  0.57111  0.91284  Biso   1.000  O
  O27      1.0000 0.97847  0.90341  0.49046  Biso   1.000  O
  O28      1.0000 0.98704  0.83563  0.99741  Biso   1.000  O
  O29      1.0000 0.76052  0.61923  0.52714  Biso   1.000  O
  O30      1.0000 0.76171  0.64123  0.02132  Biso   1.000  O
  O31      1.0000 0.73920  0.88607  0.02826  Biso   1.000  O
  O32      1.0000 0.73455  0.86582  0.52570  Biso   1.000  O
  Pb1      1.0000 0.08334  0.29911  0.06305  Biso   1.000  Pb
