data_image0
_cell_length_a       10.1773
_cell_length_b       10.2826
_cell_length_c       10.1945
_cell_angle_alpha    88.9321
_cell_angle_beta     88.3465
_cell_angle_gamma    89.7333

_symmetry_space_group_name_H-M    "P 1"
_symmetry_int_tables_number       1

loop_
  _symmetry_equiv_pos_as_xyz
  'x, y, z'

loop_
  _atom_site_label
  _atom_site_occupancy
  _atom_site_fract_x
  _atom_site_fract_y
  _atom_site_fract_z
  _atom_site_thermal_displace_type
  _atom_site_B_iso_or_equiv
  _atom_site_type_symbol
  Zr1      1.0000 0.12695  0.90329  0.12293  Biso   1.000  Zr
  Zr2      1.0000 0.13683  0.24234  0.39390  Biso   1.000  Zr
  Zr3      1.0000 0.39601  0.26434  0.14013  Biso   1.000  Zr
  Zr4      1.0000 0.38679  0.00831  0.37318  Biso   1.000  Zr
  O1       1.0000 0.92944  0.20347  0.93413  Biso   1.000  O
  O2       1.0000 0.07070  0.05982  0.29002  Biso   1.000  O
  O3       1.0000 0.00708  0.35172  0.26028  Biso   1.000  O
  O4       1.0000 0.98732  0.44102  0.01133  Biso   1.000  O
  O5       1.0000 0.32716  0.19513  0.32246  Biso   1.000  O
  O6       1.0000 0.18417  0.05266  0.96890  Biso   1.000  O
  O7       1.0000 0.26934  0.32016  0.97697  Biso   1.000  O
  O8       1.0000 0.26539  0.43179  0.22635  Biso   1.000  O
  Zr5      1.0000 0.12669  0.99860  0.63336  Biso   1.000  Zr
  Zr6      1.0000 0.11818  0.24897  0.85638  Biso   1.000  Zr
  Zr7      1.0000 0.38339  0.23691  0.62243  Biso   1.000  Zr
  Zr8      1.0000 0.36076  0.99860  0.88187  Biso   1.000  Zr
  O9       1.0000 0.00405  0.13649  0.50604  Biso   1.000  O
  O10      1.0000 0.99938  0.10552  0.74122  Biso   1.000  O
  O11      1.0000 0.99143  0.36511  0.74233  Biso   1.000  O
  O12      1.0000 0.00706  0.38155  0.50147  Biso   1.000  O
  O13      1.0000 0.25203  0.13909  0.75179  Biso   1.000  O
  O14      1.0000 0.26040  0.09203  0.51814  Biso   1.000  O
  O15      1.0000 0.25543  0.35223  0.51150  Biso   1.000  O
  O16      1.0000 0.23918  0.39212  0.74985  Biso   1.000  O
  Zr9      1.0000 0.11565  0.53053  0.13262  Biso   1.000  Zr
  Zr10     1.0000 0.11162  0.73955  0.39980  Biso   1.000  Zr
  Zr11     1.0000 0.39489  0.75938  0.13241  Biso   1.000  Zr
  Zr12     1.0000 0.38419  0.48652  0.37994  Biso   1.000  Zr
  O17      1.0000 0.03389  0.72341  0.03306  Biso   1.000  O
  O18      1.0000 0.98024  0.60476  0.25971  Biso   1.000  O
  O19      1.0000 0.98865  0.83932  0.27350  Biso   1.000  O
  O20      1.0000 0.94995  0.95829  0.05469  Biso   1.000  O
  O21      1.0000 0.21055  0.71375  0.21383  Biso   1.000  O
  O22      1.0000 0.23336  0.58192  0.97000  Biso   1.000  O
  O23      1.0000 0.26641  0.82912  0.98169  Biso   1.000  O
  O24      1.0000 0.29969  0.95002  0.20606  Biso   1.000  O
  Zr13     1.0000 0.12316  0.49344  0.62197  Biso   1.000  Zr
  Zr14     1.0000 0.14504  0.73478  0.85365  Biso   1.000  Zr
  Zr15     1.0000 0.38914  0.75804  0.62077  Biso   1.000  Zr
  Zr16     1.0000 0.37179  0.47868  0.87224  Biso   1.000  Zr
  O25      1.0000 0.98277  0.63182  0.52028  Biso   1.000  O
  O26      1.0000 0.00214  0.61210  0.76965  Biso   1.000  O
  O27      1.0000 0.00311  0.86327  0.78060  Biso   1.000  O
  O28      1.0000 0.01092  0.88240  0.52200  Biso   1.000  O
  O29      1.0000 0.24676  0.63857  0.70752  Biso   1.000  O
  O30      1.0000 0.22237  0.58290  0.45585  Biso   1.000  O
  O31      1.0000 0.26571  0.84296  0.47534  Biso   1.000  O
  O32      1.0000 0.25672  0.88421  0.73924  Biso   1.000  O
  Zr17     1.0000 0.61866  0.98923  0.12143  Biso   1.000  Zr
  Zr18     1.0000 0.64247  0.24375  0.37526  Biso   1.000  Zr
  Zr19     1.0000 0.86413  0.27677  0.11431  Biso   1.000  Zr
  Zr20     1.0000 0.89300  0.00180  0.37397  Biso   1.000  Zr
  O33      1.0000 0.46939  0.13861  0.99945  Biso   1.000  O
  O34      1.0000 0.53904  0.11345  0.25216  Biso   1.000  O
  O35      1.0000 0.52298  0.36688  0.25637  Biso   1.000  O
  O36      1.0000 0.49851  0.39647  0.00510  Biso   1.000  O
  O37      1.0000 0.80291  0.15931  0.26991  Biso   1.000  O
  O38      1.0000 0.72298  0.12088  0.01305  Biso   1.000  O
  O39      1.0000 0.73333  0.37314  0.99390  Biso   1.000  O
  O40      1.0000 0.75981  0.40882  0.24357  Biso   1.000  O
  Zr21     1.0000 0.62966  0.99758  0.63141  Biso   1.000  Zr
  Zr22     1.0000 0.61418  0.24555  0.88051  Biso   1.000  Zr
  Zr23     1.0000 0.87340  0.24077  0.62863  Biso   1.000  Zr
  Zr24     1.0000 0.86887  0.01956  0.88690  Biso   1.000  Zr
  O41      1.0000 0.51725  0.13862  0.50539  Biso   1.000  O
  O42      1.0000 0.49657  0.09627  0.75285  Biso   1.000  O
  O43      1.0000 0.49066  0.34518  0.75362  Biso   1.000  O
  O44      1.0000 0.50595  0.38371  0.50416  Biso   1.000  O
  O45      1.0000 0.74016  0.14107  0.75453  Biso   1.000  O
  O46      1.0000 0.76184  0.09557  0.50880  Biso   1.000  O
  O47      1.0000 0.75870  0.34531  0.49987  Biso   1.000  O
  O48      1.0000 0.73876  0.38676  0.74591  Biso   1.000  O
  Zr25     1.0000 0.62409  0.51287  0.12538  Biso   1.000  Zr
  Zr26     1.0000 0.63570  0.75475  0.38936  Biso   1.000  Zr
  Zr27     1.0000 0.85745  0.76528  0.12913  Biso   1.000  Zr
  Zr28     1.0000 0.88109  0.48400  0.38572  Biso   1.000  Zr
  O49      1.0000 0.50796  0.64498  0.99928  Biso   1.000  O
  O50      1.0000 0.46991  0.60482  0.23983  Biso   1.000  O
  O51      1.0000 0.51127  0.85451  0.25768  Biso   1.000  O
  O52      1.0000 0.49846  0.89277  0.99953  Biso   1.000  O
  O53      1.0000 0.71697  0.66092  0.23235  Biso   1.000  O
  O54      1.0000 0.76811  0.61885  0.99500  Biso   1.000  O
  O55      1.0000 0.73900  0.86233  0.99752  Biso   1.000  O
  O56      1.0000 0.75237  0.90629  0.25463  Biso   1.000  O
  Zr29     1.0000 0.61949  0.49644  0.62243  Biso   1.000  Zr
  Zr30     1.0000 0.62847  0.74849  0.87399  Biso   1.000  Zr
  Zr31     1.0000 0.88606  0.76302  0.65219  Biso   1.000  Zr
  Zr32     1.0000 0.85921  0.49245  0.86281  Biso   1.000  Zr
  O57      1.0000 0.48721  0.63756  0.49256  Biso   1.000  O
  O58      1.0000 0.49627  0.59906  0.74688  Biso   1.000  O
  O59      1.0000 0.50723  0.84909  0.74894  Biso   1.000  O
  O60      1.0000 0.51204  0.89370  0.50301  Biso   1.000  O
  O61      1.0000 0.74756  0.63778  0.74191  Biso   1.000  O
  O62      1.0000 0.72981  0.58935  0.47957  Biso   1.000  O
  O63      1.0000 0.76356  0.84368  0.50748  Biso   1.000  O
  O64      1.0000 0.75696  0.89435  0.75487  Biso   1.000  O
  Pb1      1.0000 0.12996  0.20158  0.12544  Biso   1.000  Pb
