data_image0
_cell_length_a       10.0923
_cell_length_b       5.13271
_cell_length_c       10.0923
_cell_angle_alpha    89.9995
_cell_angle_beta     90.0007
_cell_angle_gamma    89.9995

_symmetry_space_group_name_H-M    "P 1"
_symmetry_int_tables_number       1

loop_
  _symmetry_equiv_pos_as_xyz
  'x, y, z'

loop_
  _atom_site_label
  _atom_site_occupancy
  _atom_site_fract_x
  _atom_site_fract_y
  _atom_site_fract_z
  _atom_site_thermal_displace_type
  _atom_site_B_iso_or_equiv
  _atom_site_type_symbol
  Pb1      1.0000 0.12519  0.00064  0.12519  Biso   1.000  Pb
  Zr1      1.0000 0.12519  0.00064  0.62520  Biso   1.000  Zr
  Zr2      1.0000 0.62520  0.00064  0.12519  Biso   1.000  Zr
  Zr3      1.0000 0.62520  0.00065  0.62520  Biso   1.000  Zr
  Zr4      1.0000 0.12519  0.50065  0.37720  Biso   1.000  Zr
  Zr5      1.0000 0.12519  0.50064  0.87318  Biso   1.000  Zr
  Zr6      1.0000 0.62519  0.50064  0.37466  Biso   1.000  Zr
  Zr7      1.0000 0.62519  0.50064  0.87573  Biso   1.000  Zr
  Zr8      1.0000 0.37720  0.50065  0.12519  Biso   1.000  Zr
  Zr9      1.0000 0.37466  0.50065  0.62519  Biso   1.000  Zr
  Zr10     1.0000 0.87318  0.50064  0.12519  Biso   1.000  Zr
  Zr11     1.0000 0.87573  0.50064  0.62519  Biso   1.000  Zr
  Zr12     1.0000 0.37695  0.00523  0.37695  Biso   1.000  Zr
  Zr13     1.0000 0.37695  0.99606  0.87344  Biso   1.000  Zr
  Zr14     1.0000 0.87344  0.99606  0.37695  Biso   1.000  Zr
  Zr15     1.0000 0.87344  0.00522  0.87344  Biso   1.000  Zr
  O1       1.0000 0.99110  0.30376  0.99110  Biso   1.000  O
  O2       1.0000 0.99680  0.29283  0.49728  Biso   1.000  O
  O3       1.0000 0.49728  0.29283  0.99680  Biso   1.000  O
  O4       1.0000 0.49733  0.29514  0.49733  Biso   1.000  O
  O5       1.0000 0.00015  0.20955  0.25026  Biso   1.000  O
  O6       1.0000 0.00133  0.20780  0.74661  Biso   1.000  O
  O7       1.0000 0.50380  0.20782  0.24905  Biso   1.000  O
  O8       1.0000 0.50226  0.20685  0.74812  Biso   1.000  O
  O9       1.0000 0.99109  0.69753  0.25929  Biso   1.000  O
  O10      1.0000 0.99681  0.70845  0.75310  Biso   1.000  O
  O11      1.0000 0.49727  0.70846  0.25360  Biso   1.000  O
  O12      1.0000 0.49734  0.70614  0.75306  Biso   1.000  O
  O13      1.0000 0.00013  0.79173  0.00013  Biso   1.000  O
  O14      1.0000 0.00135  0.79347  0.50377  Biso   1.000  O
  O15      1.0000 0.50377  0.79347  0.00135  Biso   1.000  O
  O16      1.0000 0.50227  0.79444  0.50227  Biso   1.000  O
  O17      1.0000 0.25931  0.30377  0.25931  Biso   1.000  O
  O18      1.0000 0.25358  0.29283  0.75312  Biso   1.000  O
  O19      1.0000 0.75312  0.29283  0.25358  Biso   1.000  O
  O20      1.0000 0.75304  0.29515  0.75304  Biso   1.000  O
  O21      1.0000 0.25026  0.20956  0.00015  Biso   1.000  O
  O22      1.0000 0.24905  0.20782  0.50379  Biso   1.000  O
  O23      1.0000 0.74661  0.20780  0.00133  Biso   1.000  O
  O24      1.0000 0.74812  0.20685  0.50226  Biso   1.000  O
  O25      1.0000 0.25929  0.69753  0.99109  Biso   1.000  O
  O26      1.0000 0.25360  0.70846  0.49727  Biso   1.000  O
  O27      1.0000 0.75310  0.70844  0.99681  Biso   1.000  O
  O28      1.0000 0.75306  0.70615  0.49734  Biso   1.000  O
  O29      1.0000 0.25024  0.79174  0.25024  Biso   1.000  O
  O30      1.0000 0.24906  0.79347  0.74660  Biso   1.000  O
  O31      1.0000 0.74660  0.79347  0.24906  Biso   1.000  O
  O32      1.0000 0.74813  0.79445  0.74813  Biso   1.000  O
