data_image0
_cell_length_a       10.1872
_cell_length_b       5.21545
_cell_length_c       10.6917
_cell_angle_alpha    89.438
_cell_angle_beta     92.6897
_cell_angle_gamma    90.204

_symmetry_space_group_name_H-M    "P 1"
_symmetry_int_tables_number       1

loop_
  _symmetry_equiv_pos_as_xyz
  'x, y, z'

loop_
  _atom_site_label
  _atom_site_occupancy
  _atom_site_fract_x
  _atom_site_fract_y
  _atom_site_fract_z
  _atom_site_thermal_displace_type
  _atom_site_B_iso_or_equiv
  _atom_site_type_symbol
  Zr1      1.0000 0.12937  0.03957  0.17639  Biso   1.000  Zr
  Zr2      1.0000 0.13519  0.45449  0.42866  Biso   1.000  Zr
  Zr3      1.0000 0.34329  0.54417  0.19723  Biso   1.000  Zr
  Zr4      1.0000 0.36160  0.95961  0.43109  Biso   1.000  Zr
  Zr5      1.0000 0.65068  0.03572  0.07178  Biso   1.000  Zr
  Zr6      1.0000 0.63629  0.46143  0.33156  Biso   1.000  Zr
  Zr7      1.0000 0.86103  0.53785  0.07656  Biso   1.000  Zr
  Zr8      1.0000 0.85881  0.95980  0.32809  Biso   1.000  Zr
  O1       1.0000 0.02995  0.33204  0.08612  Biso   1.000  O
  O2       1.0000 0.02616  0.17516  0.33535  Biso   1.000  O
  O3       1.0000 0.46864  0.88973  0.10223  Biso   1.000  O
  O4       1.0000 0.46575  0.68444  0.33936  Biso   1.000  O
  O5       1.0000 0.26463  0.25445  0.30423  Biso   1.000  O
  O6       1.0000 0.26074  0.22502  0.05341  Biso   1.000  O
  O7       1.0000 0.21691  0.75688  0.31051  Biso   1.000  O
  O8       1.0000 0.21542  0.74735  0.06283  Biso   1.000  O
  O9       1.0000 0.51527  0.31850  0.19619  Biso   1.000  O
  O10      1.0000 0.52845  0.18385  0.42716  Biso   1.000  O
  O11      1.0000 0.96000  0.83089  0.16979  Biso   1.000  O
  O12      1.0000 0.96872  0.67436  0.42007  Biso   1.000  O
  O13      1.0000 0.77571  0.25197  0.45012  Biso   1.000  O
  O14      1.0000 0.77125  0.25293  0.20018  Biso   1.000  O
  O15      1.0000 0.72894  0.75514  0.45455  Biso   1.000  O
  O16      1.0000 0.72215  0.74613  0.20465  Biso   1.000  O
  Zr9      1.0000 0.14680  0.04027  0.67703  Biso   1.000  Zr
  Zr10     1.0000 0.14471  0.46209  0.92860  Biso   1.000  Zr
  Zr11     1.0000 0.36933  0.53864  0.67358  Biso   1.000  Zr
  Zr12     1.0000 0.35538  0.96434  0.93300  Biso   1.000  Zr
  Zr13     1.0000 0.64402  0.04049  0.57410  Biso   1.000  Zr
  Zr14     1.0000 0.66224  0.45557  0.80803  Biso   1.000  Zr
  Zr15     1.0000 0.87032  0.54552  0.57648  Biso   1.000  Zr
  Zr16     1.0000 0.87633  0.96025  0.82866  Biso   1.000  Zr
  O17      1.0000 0.03683  0.32566  0.58505  Biso   1.000  O
  O18      1.0000 0.04564  0.16918  0.83529  Biso   1.000  O
  O19      1.0000 0.47712  0.81638  0.57814  Biso   1.000  O
  O20      1.0000 0.49020  0.68124  0.80934  Biso   1.000  O
  O21      1.0000 0.28353  0.25392  0.80043  Biso   1.000  O
  O22      1.0000 0.27664  0.24502  0.55061  Biso   1.000  O
  O23      1.0000 0.23444  0.74713  0.80492  Biso   1.000  O
  O24      1.0000 0.22990  0.74812  0.55500  Biso   1.000  O
  O25      1.0000 0.53991  0.31615  0.66561  Biso   1.000  O
  O26      1.0000 0.53739  0.11075  0.90219  Biso   1.000  O
  O27      1.0000 0.97946  0.82480  0.66975  Biso   1.000  O
  O28      1.0000 0.97579  0.66799  0.91906  Biso   1.000  O
  O29      1.0000 0.79041  0.25245  0.94232  Biso   1.000  O
  O30      1.0000 0.78867  0.24308  0.69466  Biso   1.000  O
  O31      1.0000 0.74492  0.77468  0.95161  Biso   1.000  O
  O32      1.0000 0.74094  0.74548  0.70092  Biso   1.000  O
  Pb1      1.0000 0.50288  0.49971  0.00277  Biso   1.000  Pb
