data_image0
_cell_length_a       5.19147
_cell_length_b       10.4805
_cell_length_c       10.6263
_cell_angle_alpha    89.3822
_cell_angle_beta     78.1913
_cell_angle_gamma    89.6225

_symmetry_space_group_name_H-M    "P 1"
_symmetry_int_tables_number       1

loop_
  _symmetry_equiv_pos_as_xyz
  'x, y, z'

loop_
  _atom_site_label
  _atom_site_occupancy
  _atom_site_fract_x
  _atom_site_fract_y
  _atom_site_fract_z
  _atom_site_thermal_displace_type
  _atom_site_B_iso_or_equiv
  _atom_site_type_symbol
  Zr1      1.0000 0.26284  0.00991  0.14792  Biso   1.000  Zr
  Zr2      1.0000 0.35589  0.24143  0.40818  Biso   1.000  Zr
  Zr3      1.0000 0.67299  0.26850  0.09811  Biso   1.000  Zr
  Zr4      1.0000 0.71998  0.49154  0.35503  Biso   1.000  Zr
  O1       1.0000 0.02965  0.15572  0.07083  Biso   1.000  O
  O2       1.0000 0.06128  0.03732  0.33816  Biso   1.000  O
  O3       1.0000 0.92517  0.43288  0.16340  Biso   1.000  O
  O4       1.0000 0.97814  0.37083  0.45221  Biso   1.000  O
  O5       1.0000 0.52763  0.11361  0.24048  Biso   1.000  O
  O6       1.0000 0.58518  0.11477  0.49523  Biso   1.000  O
  O7       1.0000 0.42188  0.38048  0.00982  Biso   1.000  O
  O8       1.0000 0.44458  0.38756  0.26003  Biso   1.000  O
  Zr5      1.0000 0.27889  0.02241  0.64499  Biso   1.000  Zr
  Zr6      1.0000 0.25661  0.22727  0.89464  Biso   1.000  Zr
  Zr7      1.0000 0.74937  0.27800  0.61368  Biso   1.000  Zr
  Zr8      1.0000 0.71340  0.47945  0.85967  Biso   1.000  Zr
  O9       1.0000 0.09246  0.16938  0.57214  Biso   1.000  O
  O10      1.0000 0.05102  0.08912  0.82183  Biso   1.000  O
  O11      1.0000 0.94958  0.40906  0.69120  Biso   1.000  O
  O12      1.0000 0.91210  0.33417  0.92866  Biso   1.000  O
  O13      1.0000 0.54081  0.12984  0.74237  Biso   1.000  O
  O14      1.0000 0.52141  0.12349  0.99039  Biso   1.000  O
  O15      1.0000 0.48164  0.38149  0.51845  Biso   1.000  O
  O16      1.0000 0.45590  0.37329  0.76388  Biso   1.000  O
  Zr9      1.0000 0.27151  0.52752  0.14588  Biso   1.000  Zr
  Zr10     1.0000 0.26527  0.72638  0.39861  Biso   1.000  Zr
  Zr11     1.0000 0.71360  0.77041  0.10198  Biso   1.000  Zr
  Zr12     1.0000 0.70450  0.96430  0.35445  Biso   1.000  Zr
  O17      1.0000 0.06304  0.67271  0.07598  Biso   1.000  O
  O18      1.0000 0.05972  0.59234  0.32330  Biso   1.000  O
  O19      1.0000 0.91573  0.91047  0.16853  Biso   1.000  O
  O20      1.0000 0.90814  0.81744  0.42412  Biso   1.000  O
  O21      1.0000 0.54592  0.63109  0.24343  Biso   1.000  O
  O22      1.0000 0.53379  0.62304  0.49393  Biso   1.000  O
  O23      1.0000 0.44513  0.87829  0.00780  Biso   1.000  O
  O24      1.0000 0.43521  0.86304  0.25690  Biso   1.000  O
  Zr13     1.0000 0.27508  0.52413  0.65204  Biso   1.000  Zr
  Zr14     1.0000 0.26663  0.73003  0.89610  Biso   1.000  Zr
  Zr15     1.0000 0.71873  0.77213  0.60725  Biso   1.000  Zr
  Zr16     1.0000 0.71478  0.97947  0.85165  Biso   1.000  Zr
  O25      1.0000 0.05259  0.66099  0.58280  Biso   1.000  O
  O26      1.0000 0.05806  0.58691  0.83136  Biso   1.000  O
  O27      1.0000 0.92920  0.91764  0.67031  Biso   1.000  O
  O28      1.0000 0.92811  0.83690  0.91823  Biso   1.000  O
  O29      1.0000 0.54170  0.62820  0.74242  Biso   1.000  O
  O30      1.0000 0.54367  0.62327  0.99143  Biso   1.000  O
  O31      1.0000 0.43338  0.87547  0.51204  Biso   1.000  O
  O32      1.0000 0.44622  0.87398  0.76040  Biso   1.000  O
  Pb1      1.0000 0.96451  0.24239  0.28276  Biso   1.000  Pb
