data_image0
_cell_length_a       10.1087
_cell_length_b       10.3255
_cell_length_c       10.5107
_cell_angle_alpha    89.9515
_cell_angle_beta     90.0802
_cell_angle_gamma    89.9873

_symmetry_space_group_name_H-M    "P 1"
_symmetry_int_tables_number       1

loop_
  _symmetry_equiv_pos_as_xyz
  'x, y, z'

loop_
  _atom_site_label
  _atom_site_occupancy
  _atom_site_fract_x
  _atom_site_fract_y
  _atom_site_fract_z
  _atom_site_thermal_displace_type
  _atom_site_B_iso_or_equiv
  _atom_site_type_symbol
  Pb1      1.0000 0.13625  0.01783  0.17085  Biso   1.000  Pb
  Zr1      1.0000 0.13892  0.02086  0.67062  Biso   1.000  Zr
  Zr2      1.0000 0.13860  0.52104  0.17060  Biso   1.000  Zr
  Zr3      1.0000 0.13880  0.52095  0.67076  Biso   1.000  Zr
  Zr4      1.0000 0.13876  0.22968  0.42213  Biso   1.000  Zr
  Zr5      1.0000 0.13956  0.22998  0.91881  Biso   1.000  Zr
  Zr6      1.0000 0.13775  0.72852  0.42109  Biso   1.000  Zr
  Zr7      1.0000 0.13871  0.72854  0.92005  Biso   1.000  Zr
  Zr8      1.0000 0.36094  0.27137  0.17053  Biso   1.000  Zr
  Zr9      1.0000 0.36184  0.27118  0.67072  Biso   1.000  Zr
  Zr10     1.0000 0.36349  0.76969  0.17009  Biso   1.000  Zr
  Zr11     1.0000 0.36113  0.77059  0.67042  Biso   1.000  Zr
  Zr12     1.0000 0.36101  0.47911  0.42064  Biso   1.000  Zr
  Zr13     1.0000 0.36159  0.47911  0.92080  Biso   1.000  Zr
  Zr14     1.0000 0.36274  0.97913  0.42184  Biso   1.000  Zr
  Zr15     1.0000 0.36292  0.97910  0.91903  Biso   1.000  Zr
  Zr16     1.0000 0.63897  0.02097  0.07947  Biso   1.000  Zr
  Zr17     1.0000 0.63877  0.02124  0.58069  Biso   1.000  Zr
  Zr18     1.0000 0.63885  0.52028  0.07872  Biso   1.000  Zr
  Zr19     1.0000 0.63875  0.52088  0.57870  Biso   1.000  Zr
  Zr20     1.0000 0.63799  0.22958  0.32916  Biso   1.000  Zr
  Zr21     1.0000 0.63917  0.22921  0.82925  Biso   1.000  Zr
  Zr22     1.0000 0.63893  0.72840  0.32947  Biso   1.000  Zr
  Zr23     1.0000 0.63888  0.72875  0.82850  Biso   1.000  Zr
  Zr24     1.0000 0.86049  0.27122  0.07927  Biso   1.000  Zr
  Zr25     1.0000 0.86147  0.27140  0.57939  Biso   1.000  Zr
  Zr26     1.0000 0.85989  0.76909  0.07815  Biso   1.000  Zr
  Zr27     1.0000 0.86146  0.77101  0.57947  Biso   1.000  Zr
  Zr28     1.0000 0.86141  0.47896  0.32897  Biso   1.000  Zr
  Zr29     1.0000 0.86152  0.47866  0.82868  Biso   1.000  Zr
  Zr30     1.0000 0.85681  0.97956  0.33213  Biso   1.000  Zr
  Zr31     1.0000 0.86200  0.97909  0.82977  Biso   1.000  Zr
  O1       1.0000 0.03410  0.17251  0.08239  Biso   1.000  O
  O2       1.0000 0.03400  0.16849  0.58665  Biso   1.000  O
  O3       1.0000 0.03365  0.66731  0.08428  Biso   1.000  O
  O4       1.0000 0.03326  0.66673  0.58470  Biso   1.000  O
  O5       1.0000 0.02897  0.08420  0.34128  Biso   1.000  O
  O6       1.0000 0.03435  0.08263  0.83474  Biso   1.000  O
  O7       1.0000 0.03323  0.58340  0.33430  Biso   1.000  O
  O8       1.0000 0.03340  0.58277  0.83425  Biso   1.000  O
  O9       1.0000 0.46730  0.41585  0.08383  Biso   1.000  O
  O10      1.0000 0.46723  0.41599  0.58366  Biso   1.000  O
  O11      1.0000 0.46777  0.91592  0.08349  Biso   1.000  O
  O12      1.0000 0.46718  0.91653  0.58542  Biso   1.000  O
  O13      1.0000 0.46671  0.33427  0.33378  Biso   1.000  O
  O14      1.0000 0.46735  0.33403  0.83389  Biso   1.000  O
  O15      1.0000 0.46703  0.83304  0.33464  Biso   1.000  O
  O16      1.0000 0.46734  0.83328  0.83347  Biso   1.000  O
  O17      1.0000 0.27886  0.12572  0.29810  Biso   1.000  O
  O18      1.0000 0.27633  0.12430  0.79349  Biso   1.000  O
  O19      1.0000 0.27560  0.62390  0.29438  Biso   1.000  O
  O20      1.0000 0.27566  0.62426  0.79419  Biso   1.000  O
  O21      1.0000 0.27889  0.12816  0.04074  Biso   1.000  O
  O22      1.0000 0.27601  0.12571  0.54515  Biso   1.000  O
  O23      1.0000 0.27588  0.62517  0.04422  Biso   1.000  O
  O24      1.0000 0.27527  0.62547  0.54437  Biso   1.000  O
  O25      1.0000 0.22393  0.37419  0.29437  Biso   1.000  O
  O26      1.0000 0.22506  0.37468  0.79394  Biso   1.000  O
  O27      1.0000 0.22677  0.87139  0.29484  Biso   1.000  O
  O28      1.0000 0.22479  0.87398  0.79332  Biso   1.000  O
  O29      1.0000 0.22462  0.37674  0.04390  Biso   1.000  O
  O30      1.0000 0.22466  0.37612  0.54469  Biso   1.000  O
  O31      1.0000 0.22796  0.87227  0.04120  Biso   1.000  O
  O32      1.0000 0.22475  0.87549  0.54400  Biso   1.000  O
  O33      1.0000 0.53316  0.16637  0.16579  Biso   1.000  O
  O34      1.0000 0.53348  0.16648  0.66608  Biso   1.000  O
  O35      1.0000 0.53380  0.66508  0.16622  Biso   1.000  O
  O36      1.0000 0.53313  0.66584  0.66556  Biso   1.000  O
  O37      1.0000 0.53401  0.08359  0.41656  Biso   1.000  O
  O38      1.0000 0.53412  0.08368  0.91535  Biso   1.000  O
  O39      1.0000 0.53286  0.58360  0.41586  Biso   1.000  O
  O40      1.0000 0.53294  0.58423  0.91614  Biso   1.000  O
  O41      1.0000 0.96578  0.41790  0.16504  Biso   1.000  O
  O42      1.0000 0.96675  0.41708  0.66544  Biso   1.000  O
  O43      1.0000 0.95595  0.91744  0.16447  Biso   1.000  O
  O44      1.0000 0.96660  0.91698  0.66525  Biso   1.000  O
  O45      1.0000 0.96670  0.33446  0.41645  Biso   1.000  O
  O46      1.0000 0.96615  0.33301  0.91493  Biso   1.000  O
  O47      1.0000 0.96578  0.83311  0.41516  Biso   1.000  O
  O48      1.0000 0.96687  0.83283  0.91519  Biso   1.000  O
  O49      1.0000 0.77579  0.12422  0.95600  Biso   1.000  O
  O50      1.0000 0.77492  0.12464  0.45693  Biso   1.000  O
  O51      1.0000 0.77536  0.62331  0.95461  Biso   1.000  O
  O52      1.0000 0.77570  0.62427  0.45531  Biso   1.000  O
  O53      1.0000 0.77487  0.12632  0.20653  Biso   1.000  O
  O54      1.0000 0.77602  0.12592  0.70626  Biso   1.000  O
  O55      1.0000 0.77541  0.62541  0.20515  Biso   1.000  O
  O56      1.0000 0.77570  0.62571  0.70505  Biso   1.000  O
  O57      1.0000 0.72425  0.37420  0.95530  Biso   1.000  O
  O58      1.0000 0.72425  0.37448  0.45523  Biso   1.000  O
  O59      1.0000 0.72420  0.87386  0.95544  Biso   1.000  O
  O60      1.0000 0.72320  0.87394  0.45692  Biso   1.000  O
  O61      1.0000 0.72411  0.37575  0.20543  Biso   1.000  O
  O62      1.0000 0.72462  0.37568  0.70523  Biso   1.000  O
  O63      1.0000 0.72233  0.87532  0.20664  Biso   1.000  O
  O64      1.0000 0.72495  0.87577  0.70602  Biso   1.000  O
