data_image0
_cell_length_a       5.04567
_cell_length_b       10.2683
_cell_length_c       10.0923
_cell_angle_alpha    90.0005
_cell_angle_beta     90.0001
_cell_angle_gamma    89.9964

_symmetry_space_group_name_H-M    "P 1"
_symmetry_int_tables_number       1

loop_
  _symmetry_equiv_pos_as_xyz
  'x, y, z'

loop_
  _atom_site_label
  _atom_site_occupancy
  _atom_site_fract_x
  _atom_site_fract_y
  _atom_site_fract_z
  _atom_site_thermal_displace_type
  _atom_site_B_iso_or_equiv
  _atom_site_type_symbol
  Pb1      1.0000 0.25185  0.99978  0.12546  Biso   1.000  Pb
  Zr1      1.0000 0.25185  0.99977  0.62547  Biso   1.000  Zr
  Zr2      1.0000 0.25187  0.49976  0.12548  Biso   1.000  Zr
  Zr3      1.0000 0.25187  0.49977  0.62548  Biso   1.000  Zr
  Zr4      1.0000 0.25386  0.25142  0.37616  Biso   1.000  Zr
  Zr5      1.0000 0.24988  0.25143  0.87482  Biso   1.000  Zr
  Zr6      1.0000 0.24985  0.74811  0.37615  Biso   1.000  Zr
  Zr7      1.0000 0.25384  0.74810  0.87482  Biso   1.000  Zr
  Zr8      1.0000 0.75187  0.25277  0.12549  Biso   1.000  Zr
  Zr9      1.0000 0.75187  0.24933  0.62549  Biso   1.000  Zr
  Zr10     1.0000 0.75184  0.74675  0.12549  Biso   1.000  Zr
  Zr11     1.0000 0.75185  0.75020  0.62548  Biso   1.000  Zr
  Zr12     1.0000 0.75185  0.99976  0.37846  Biso   1.000  Zr
  Zr13     1.0000 0.75186  0.99976  0.87248  Biso   1.000  Zr
  Zr14     1.0000 0.75187  0.49976  0.37624  Biso   1.000  Zr
  Zr15     1.0000 0.75187  0.49976  0.87472  Biso   1.000  Zr
  O1       1.0000 0.98032  0.15134  0.99017  Biso   1.000  O
  O2       1.0000 0.99519  0.14707  0.49590  Biso   1.000  O
  O3       1.0000 0.00159  0.64612  0.99878  Biso   1.000  O
  O4       1.0000 0.99695  0.64588  0.49959  Biso   1.000  O
  O5       1.0000 0.00709  0.10618  0.25046  Biso   1.000  O
  O6       1.0000 0.00420  0.10305  0.74569  Biso   1.000  O
  O7       1.0000 0.00200  0.60142  0.24936  Biso   1.000  O
  O8       1.0000 0.00510  0.60300  0.74971  Biso   1.000  O
  O9       1.0000 0.00161  0.35340  0.25218  Biso   1.000  O
  O10      1.0000 0.99696  0.35365  0.75137  Biso   1.000  O
  O11      1.0000 0.98020  0.84818  0.26082  Biso   1.000  O
  O12      1.0000 0.99518  0.85246  0.75507  Biso   1.000  O
  O13      1.0000 0.00202  0.39811  0.00160  Biso   1.000  O
  O14      1.0000 0.00512  0.39652  0.50125  Biso   1.000  O
  O15      1.0000 0.00705  0.89333  0.00052  Biso   1.000  O
  O16      1.0000 0.00418  0.89648  0.50529  Biso   1.000  O
  O17      1.0000 0.52349  0.15134  0.26082  Biso   1.000  O
  O18      1.0000 0.50855  0.14707  0.75508  Biso   1.000  O
  O19      1.0000 0.50208  0.64613  0.25216  Biso   1.000  O
  O20      1.0000 0.50675  0.64588  0.75136  Biso   1.000  O
  O21      1.0000 0.49671  0.10619  0.00053  Biso   1.000  O
  O22      1.0000 0.49952  0.10305  0.50529  Biso   1.000  O
  O23      1.0000 0.50169  0.60141  0.00159  Biso   1.000  O
  O24      1.0000 0.49860  0.60301  0.50124  Biso   1.000  O
  O25      1.0000 0.50213  0.35340  0.99879  Biso   1.000  O
  O26      1.0000 0.50677  0.35365  0.49960  Biso   1.000  O
  O27      1.0000 0.52346  0.84818  0.99014  Biso   1.000  O
  O28      1.0000 0.50853  0.85246  0.49588  Biso   1.000  O
  O29      1.0000 0.50170  0.39811  0.24938  Biso   1.000  O
  O30      1.0000 0.49860  0.39652  0.74972  Biso   1.000  O
  O31      1.0000 0.49661  0.89334  0.25044  Biso   1.000  O
  O32      1.0000 0.49954  0.89648  0.74567  Biso   1.000  O
