data_image0
_cell_length_a       5.15798
_cell_length_b       10.4142
_cell_length_c       10.2367
_cell_angle_alpha    89.9959
_cell_angle_beta     95.5764
_cell_angle_gamma    89.9944

_symmetry_space_group_name_H-M    "P 1"
_symmetry_int_tables_number       1

loop_
  _symmetry_equiv_pos_as_xyz
  'x, y, z'

loop_
  _atom_site_label
  _atom_site_occupancy
  _atom_site_fract_x
  _atom_site_fract_y
  _atom_site_fract_z
  _atom_site_thermal_displace_type
  _atom_site_B_iso_or_equiv
  _atom_site_type_symbol
  Zr1      1.0000 0.25067  0.97948  0.12541  Biso   1.000  Zr
  Zr2      1.0000 0.17309  0.25219  0.38670  Biso   1.000  Zr
  Zr3      1.0000 0.75071  0.19580  0.12540  Biso   1.000  Zr
  Zr4      1.0000 0.70715  0.00935  0.39022  Biso   1.000  Zr
  O1       1.0000 0.03435  0.13016  0.99357  Biso   1.000  O
  O2       1.0000 0.98315  0.08266  0.26323  Biso   1.000  O
  O3       1.0000 0.81333  0.33210  0.28237  Biso   1.000  O
  O4       1.0000 0.15763  0.44111  0.97112  Biso   1.000  O
  O5       1.0000 0.46712  0.13022  0.25727  Biso   1.000  O
  O6       1.0000 0.51833  0.08273  0.98754  Biso   1.000  O
  O7       1.0000 0.68831  0.33218  0.96847  Biso   1.000  O
  O8       1.0000 0.34407  0.44106  0.27963  Biso   1.000  O
  Zr5      1.0000 0.25074  0.99768  0.62544  Biso   1.000  Zr
  Zr6      1.0000 0.32865  0.25230  0.86410  Biso   1.000  Zr
  Zr7      1.0000 0.75091  0.25976  0.62544  Biso   1.000  Zr
  Zr8      1.0000 0.79436  0.00938  0.86059  Biso   1.000  Zr
  O9       1.0000 0.95208  0.14379  0.50532  Biso   1.000  O
  O10      1.0000 0.05500  0.10491  0.75018  Biso   1.000  O
  O11      1.0000 0.02730  0.35225  0.74757  Biso   1.000  O
  O12      1.0000 0.97957  0.39417  0.50467  Biso   1.000  O
  O13      1.0000 0.54941  0.14381  0.74544  Biso   1.000  O
  O14      1.0000 0.44639  0.10480  0.50059  Biso   1.000  O
  O15      1.0000 0.47431  0.35216  0.50325  Biso   1.000  O
  O16      1.0000 0.52210  0.39420  0.74613  Biso   1.000  O
  Zr9      1.0000 0.25075  0.57600  0.12539  Biso   1.000  Zr
  Zr10     1.0000 0.22191  0.74005  0.39588  Biso   1.000  Zr
  Zr11     1.0000 0.75071  0.76103  0.12539  Biso   1.000  Zr
  Zr12     1.0000 0.70638  0.49807  0.36921  Biso   1.000  Zr
  O17      1.0000 0.00624  0.66742  0.98725  Biso   1.000  O
  O18      1.0000 0.95083  0.60445  0.24428  Biso   1.000  O
  O19      1.0000 0.09332  0.83381  0.23371  Biso   1.000  O
  O20      1.0000 0.91249  0.90445  0.01642  Biso   1.000  O
  O21      1.0000 0.49526  0.66739  0.26351  Biso   1.000  O
  O22      1.0000 0.55056  0.60458  0.00638  Biso   1.000  O
  O23      1.0000 0.40806  0.83388  0.01710  Biso   1.000  O
  O24      1.0000 0.58884  0.90443  0.23444  Biso   1.000  O
  Zr13     1.0000 0.25085  0.49235  0.62534  Biso   1.000  Zr
  Zr14     1.0000 0.27993  0.74001  0.85493  Biso   1.000  Zr
  Zr15     1.0000 0.75098  0.74153  0.62539  Biso   1.000  Zr
  Zr16     1.0000 0.79530  0.49813  0.88153  Biso   1.000  Zr
  O25      1.0000 0.96448  0.63987  0.49775  Biso   1.000  O
  O26      1.0000 0.02895  0.60343  0.74373  Biso   1.000  O
  O27      1.0000 0.99682  0.85589  0.75253  Biso   1.000  O
  O28      1.0000 0.00444  0.88846  0.49661  Biso   1.000  O
  O29      1.0000 0.53742  0.63991  0.75301  Biso   1.000  O
  O30      1.0000 0.47293  0.60338  0.50703  Biso   1.000  O
  O31      1.0000 0.50483  0.85584  0.49831  Biso   1.000  O
  O32      1.0000 0.49715  0.88849  0.75425  Biso   1.000  O
  Pb1      1.0000 0.25064  0.29259  0.12537  Biso   1.000  Pb
