data_image0
_cell_length_a       5.08763
_cell_length_b       10.5266
_cell_length_c       10.2457
_cell_angle_alpha    87.7511
_cell_angle_beta     92.9578
_cell_angle_gamma    92.5651

_symmetry_space_group_name_H-M    "P 1"
_symmetry_int_tables_number       1

loop_
  _symmetry_equiv_pos_as_xyz
  'x, y, z'

loop_
  _atom_site_label
  _atom_site_occupancy
  _atom_site_fract_x
  _atom_site_fract_y
  _atom_site_fract_z
  _atom_site_thermal_displace_type
  _atom_site_B_iso_or_equiv
  _atom_site_type_symbol
  Zr1      1.0000 0.28889  0.99427  0.10322  Biso   1.000  Zr
  Zr2      1.0000 0.23533  0.23077  0.41228  Biso   1.000  Zr
  Zr3      1.0000 0.60079  0.26721  0.16277  Biso   1.000  Zr
  Zr4      1.0000 0.73365  0.49572  0.38727  Biso   1.000  Zr
  O1       1.0000 0.89964  0.18416  0.27612  Biso   1.000  O
  O2       1.0000 0.08148  0.05346  0.45982  Biso   1.000  O
  O3       1.0000 0.85143  0.44666  0.21171  Biso   1.000  O
  O4       1.0000 0.95535  0.34018  0.46990  Biso   1.000  O
  O5       1.0000 0.42380  0.10806  0.25949  Biso   1.000  O
  O6       1.0000 0.56993  0.14002  0.50278  Biso   1.000  O
  O7       1.0000 0.47968  0.38734  0.50320  Biso   1.000  O
  O8       1.0000 0.35085  0.37063  0.25945  Biso   1.000  O
  Zr5      1.0000 0.31057  0.00587  0.62309  Biso   1.000  Zr
  Zr6      1.0000 0.33187  0.21829  0.84895  Biso   1.000  Zr
  Zr7      1.0000 0.78066  0.27345  0.63650  Biso   1.000  Zr
  Zr8      1.0000 0.74020  0.47530  0.86950  Biso   1.000  Zr
  O9       1.0000 0.14050  0.18300  0.65865  Biso   1.000  O
  O10      1.0000 0.13219  0.04744  0.91256  Biso   1.000  O
  O11      1.0000 0.92542  0.45814  0.68281  Biso   1.000  O
  O12      1.0000 0.94921  0.29527  0.84926  Biso   1.000  O
  O13      1.0000 0.58680  0.10905  0.74985  Biso   1.000  O
  O14      1.0000 0.60742  0.12144  0.00908  Biso   1.000  O
  O15      1.0000 0.47151  0.37472  0.99191  Biso   1.000  O
  O16      1.0000 0.47538  0.36785  0.74085  Biso   1.000  O
  Zr9      1.0000 0.22853  0.52980  0.13972  Biso   1.000  Zr
  Zr10     1.0000 0.27674  0.74671  0.38019  Biso   1.000  Zr
  Zr11     1.0000 0.72865  0.76285  0.12965  Biso   1.000  Zr
  Zr12     1.0000 0.74768  0.00406  0.35960  Biso   1.000  Zr
  O17      1.0000 0.06382  0.68753  0.20239  Biso   1.000  O
  O18      1.0000 0.07555  0.58082  0.44739  Biso   1.000  O
  O19      1.0000 0.94080  0.94550  0.18273  Biso   1.000  O
  O20      1.0000 0.94133  0.82175  0.44030  Biso   1.000  O
  O21      1.0000 0.52061  0.62456  0.26000  Biso   1.000  O
  O22      1.0000 0.54127  0.64114  0.50508  Biso   1.000  O
  O23      1.0000 0.48926  0.89087  0.49361  Biso   1.000  O
  O24      1.0000 0.48284  0.86706  0.24243  Biso   1.000  O
  Zr13     1.0000 0.28013  0.51589  0.62115  Biso   1.000  Zr
  Zr14     1.0000 0.28079  0.72917  0.87269  Biso   1.000  Zr
  Zr15     1.0000 0.76476  0.76918  0.62068  Biso   1.000  Zr
  Zr16     1.0000 0.77219  0.97061  0.87206  Biso   1.000  Zr
  O25      1.0000 0.09343  0.68607  0.69466  Biso   1.000  O
  O26      1.0000 0.06017  0.56220  0.95384  Biso   1.000  O
  O27      1.0000 0.96970  0.92788  0.69966  Biso   1.000  O
  O28      1.0000 0.96579  0.80975  0.95712  Biso   1.000  O
  O29      1.0000 0.54743  0.61250  0.75805  Biso   1.000  O
  O30      1.0000 0.52277  0.63142  0.01141  Biso   1.000  O
  O31      1.0000 0.49282  0.87393  0.99126  Biso   1.000  O
  O32      1.0000 0.50361  0.85822  0.74647  Biso   1.000  O
  Pb1      1.0000 0.05468  0.25133  0.06460  Biso   1.000  Pb
