data_image0
_cell_length_a       10.0922
_cell_length_b       10.2683
_cell_length_c       5.04567
_cell_angle_alpha    89.9982
_cell_angle_beta     89.9988
_cell_angle_gamma    90.0024

_symmetry_space_group_name_H-M    "P 1"
_symmetry_int_tables_number       1

loop_
  _symmetry_equiv_pos_as_xyz
  'x, y, z'

loop_
  _atom_site_label
  _atom_site_occupancy
  _atom_site_fract_x
  _atom_site_fract_y
  _atom_site_fract_z
  _atom_site_thermal_displace_type
  _atom_site_B_iso_or_equiv
  _atom_site_type_symbol
  Pb1      1.0000 0.12545  0.99978  0.25186  Biso   1.000  Pb
  Zr1      1.0000 0.12547  0.49978  0.25187  Biso   1.000  Zr
  Zr2      1.0000 0.62546  0.99978  0.25184  Biso   1.000  Zr
  Zr3      1.0000 0.62547  0.49979  0.25185  Biso   1.000  Zr
  Zr4      1.0000 0.12547  0.25279  0.75186  Biso   1.000  Zr
  Zr5      1.0000 0.12547  0.74677  0.75182  Biso   1.000  Zr
  Zr6      1.0000 0.62547  0.24935  0.75184  Biso   1.000  Zr
  Zr7      1.0000 0.62547  0.75021  0.75182  Biso   1.000  Zr
  Zr8      1.0000 0.37614  0.25143  0.25384  Biso   1.000  Zr
  Zr9      1.0000 0.37613  0.74812  0.24983  Biso   1.000  Zr
  Zr10     1.0000 0.87481  0.25145  0.24987  Biso   1.000  Zr
  Zr11     1.0000 0.87481  0.74811  0.25382  Biso   1.000  Zr
  Zr12     1.0000 0.37845  0.99978  0.75184  Biso   1.000  Zr
  Zr13     1.0000 0.37622  0.49977  0.75186  Biso   1.000  Zr
  Zr14     1.0000 0.87247  0.99978  0.75186  Biso   1.000  Zr
  Zr15     1.0000 0.87471  0.49977  0.75186  Biso   1.000  Zr
  O1       1.0000 0.99015  0.15135  0.98030  Biso   1.000  O
  O2       1.0000 0.99878  0.64614  0.00158  Biso   1.000  O
  O3       1.0000 0.49588  0.14708  0.99516  Biso   1.000  O
  O4       1.0000 0.49959  0.64589  0.99695  Biso   1.000  O
  O5       1.0000 0.00051  0.10621  0.49669  Biso   1.000  O
  O6       1.0000 0.00157  0.60143  0.50168  Biso   1.000  O
  O7       1.0000 0.50527  0.10306  0.49949  Biso   1.000  O
  O8       1.0000 0.50122  0.60302  0.49859  Biso   1.000  O
  O9       1.0000 0.99877  0.35341  0.50213  Biso   1.000  O
  O10      1.0000 0.99013  0.84820  0.52343  Biso   1.000  O
  O11      1.0000 0.49958  0.35366  0.50675  Biso   1.000  O
  O12      1.0000 0.49587  0.85247  0.50852  Biso   1.000  O
  O13      1.0000 0.00158  0.39813  0.00202  Biso   1.000  O
  O14      1.0000 0.00051  0.89335  0.00703  Biso   1.000  O
  O15      1.0000 0.50124  0.39653  0.00510  Biso   1.000  O
  O16      1.0000 0.50527  0.89650  0.00417  Biso   1.000  O
  O17      1.0000 0.26080  0.15136  0.52347  Biso   1.000  O
  O18      1.0000 0.25214  0.64614  0.50205  Biso   1.000  O
  O19      1.0000 0.75506  0.14708  0.50854  Biso   1.000  O
  O20      1.0000 0.75134  0.64589  0.50672  Biso   1.000  O
  O21      1.0000 0.25044  0.10620  0.00707  Biso   1.000  O
  O22      1.0000 0.24936  0.60143  0.00197  Biso   1.000  O
  O23      1.0000 0.74568  0.10307  0.00420  Biso   1.000  O
  O24      1.0000 0.74970  0.60302  0.00507  Biso   1.000  O
  O25      1.0000 0.25216  0.35341  0.00160  Biso   1.000  O
  O26      1.0000 0.26080  0.84819  0.98021  Biso   1.000  O
  O27      1.0000 0.75135  0.35366  0.99696  Biso   1.000  O
  O28      1.0000 0.75505  0.85247  0.99517  Biso   1.000  O
  O29      1.0000 0.24935  0.39813  0.50169  Biso   1.000  O
  O30      1.0000 0.25043  0.89336  0.49661  Biso   1.000  O
  O31      1.0000 0.74970  0.39654  0.49860  Biso   1.000  O
  O32      1.0000 0.74566  0.89650  0.49952  Biso   1.000  O
