data_image0
_cell_length_a       10.1228
_cell_length_b       5.17023
_cell_length_c       10.5181
_cell_angle_alpha    89.9022
_cell_angle_beta     90.1876
_cell_angle_gamma    89.9759

_symmetry_space_group_name_H-M    "P 1"
_symmetry_int_tables_number       1

loop_
  _symmetry_equiv_pos_as_xyz
  'x, y, z'

loop_
  _atom_site_label
  _atom_site_occupancy
  _atom_site_fract_x
  _atom_site_fract_y
  _atom_site_fract_z
  _atom_site_thermal_displace_type
  _atom_site_B_iso_or_equiv
  _atom_site_type_symbol
  Pb1      1.0000 0.13586  0.03559  0.17022  Biso   1.000  Pb
  Zr1      1.0000 0.13896  0.04148  0.67030  Biso   1.000  Zr
  Zr2      1.0000 0.13769  0.45827  0.42204  Biso   1.000  Zr
  Zr3      1.0000 0.13966  0.45925  0.91780  Biso   1.000  Zr
  Zr4      1.0000 0.36312  0.53998  0.16945  Biso   1.000  Zr
  Zr5      1.0000 0.36169  0.54136  0.67001  Biso   1.000  Zr
  Zr6      1.0000 0.36242  0.95842  0.42139  Biso   1.000  Zr
  Zr7      1.0000 0.36339  0.95848  0.91864  Biso   1.000  Zr
  Zr8      1.0000 0.63914  0.04043  0.07926  Biso   1.000  Zr
  Zr9      1.0000 0.63874  0.04211  0.58049  Biso   1.000  Zr
  Zr10     1.0000 0.63810  0.45802  0.32974  Biso   1.000  Zr
  Zr11     1.0000 0.63940  0.45799  0.82879  Biso   1.000  Zr
  Zr12     1.0000 0.85906  0.53851  0.07861  Biso   1.000  Zr
  Zr13     1.0000 0.86170  0.54269  0.57999  Biso   1.000  Zr
  Zr14     1.0000 0.85688  0.95918  0.33234  Biso   1.000  Zr
  Zr15     1.0000 0.86237  0.95750  0.82961  Biso   1.000  Zr
  O1       1.0000 0.03520  0.34952  0.08331  Biso   1.000  O
  O2       1.0000 0.03438  0.33875  0.58749  Biso   1.000  O
  O3       1.0000 0.02913  0.16674  0.34177  Biso   1.000  O
  O4       1.0000 0.03497  0.16237  0.83528  Biso   1.000  O
  O5       1.0000 0.46820  0.83149  0.08322  Biso   1.000  O
  O6       1.0000 0.46737  0.83299  0.58501  Biso   1.000  O
  O7       1.0000 0.46660  0.66647  0.33437  Biso   1.000  O
  O8       1.0000 0.46776  0.66659  0.83322  Biso   1.000  O
  O9       1.0000 0.27872  0.25042  0.29759  Biso   1.000  O
  O10      1.0000 0.27634  0.24850  0.79280  Biso   1.000  O
  O11      1.0000 0.27915  0.25511  0.04001  Biso   1.000  O
  O12      1.0000 0.27554  0.25079  0.54466  Biso   1.000  O
  O13      1.0000 0.22622  0.74238  0.29433  Biso   1.000  O
  O14      1.0000 0.22554  0.74855  0.79243  Biso   1.000  O
  O15      1.0000 0.22851  0.74670  0.04008  Biso   1.000  O
  O16      1.0000 0.22504  0.75168  0.54386  Biso   1.000  O
  O17      1.0000 0.53393  0.33092  0.16604  Biso   1.000  O
  O18      1.0000 0.53363  0.33258  0.66567  Biso   1.000  O
  O19      1.0000 0.53383  0.16630  0.41646  Biso   1.000  O
  O20      1.0000 0.53420  0.16789  0.91553  Biso   1.000  O
  O21      1.0000 0.95420  0.83976  0.16320  Biso   1.000  O
  O22      1.0000 0.96627  0.83648  0.66467  Biso   1.000  O
  O23      1.0000 0.96530  0.66677  0.41556  Biso   1.000  O
  O24      1.0000 0.96592  0.66317  0.91403  Biso   1.000  O
  O25      1.0000 0.77565  0.24646  0.95547  Biso   1.000  O
  O26      1.0000 0.77487  0.24925  0.45705  Biso   1.000  O
  O27      1.0000 0.77455  0.25233  0.20658  Biso   1.000  O
  O28      1.0000 0.77607  0.25175  0.70612  Biso   1.000  O
  O29      1.0000 0.72415  0.74754  0.95555  Biso   1.000  O
  O30      1.0000 0.72309  0.74830  0.45698  Biso   1.000  O
  O31      1.0000 0.72219  0.75081  0.20690  Biso   1.000  O
  O32      1.0000 0.72531  0.75138  0.70605  Biso   1.000  O
