data_image0
_cell_length_a       10.1779
_cell_length_b       10.3356
_cell_length_c       5.25175
_cell_angle_alpha    90.5269
_cell_angle_beta     79.8449
_cell_angle_gamma    90.0708

_symmetry_space_group_name_H-M    "P 1"
_symmetry_int_tables_number       1

loop_
  _symmetry_equiv_pos_as_xyz
  'x, y, z'

loop_
  _atom_site_label
  _atom_site_occupancy
  _atom_site_fract_x
  _atom_site_fract_y
  _atom_site_fract_z
  _atom_site_thermal_displace_type
  _atom_site_B_iso_or_equiv
  _atom_site_type_symbol
  Hf1      1.0000 0.13394  0.02103  0.29538  Biso   1.000  Hf
  Hf2      1.0000 0.13682  0.22957  0.78814  Biso   1.000  Hf
  Hf3      1.0000 0.35641  0.27891  0.19405  Biso   1.000  Hf
  Hf4      1.0000 0.35733  0.48120  0.69957  Biso   1.000  Hf
  O1       1.0000 0.03416  0.16956  0.15908  Biso   1.000  O
  O2       1.0000 0.03093  0.08212  0.65981  Biso   1.000  O
  O3       1.0000 0.46134  0.42673  0.33589  Biso   1.000  O
  O4       1.0000 0.48083  0.35940  0.86881  Biso   1.000  O
  O5       1.0000 0.27011  0.13014  0.47649  Biso   1.000  O
  O6       1.0000 0.26730  0.11427  0.98721  Biso   1.000  O
  O7       1.0000 0.22106  0.38101  0.00771  Biso   1.000  O
  O8       1.0000 0.21383  0.37635  0.50453  Biso   1.000  O
  Hf5      1.0000 0.13619  0.52385  0.28947  Biso   1.000  Hf
  Hf6      1.0000 0.13548  0.72939  0.79593  Biso   1.000  Hf
  Hf7      1.0000 0.35966  0.76983  0.21285  Biso   1.000  Hf
  Hf8      1.0000 0.36029  0.96962  0.71966  Biso   1.000  Hf
  O9       1.0000 0.03107  0.66956  0.15866  Biso   1.000  O
  O10      1.0000 0.03291  0.58459  0.65733  Biso   1.000  O
  O11      1.0000 0.46191  0.91950  0.34570  Biso   1.000  O
  O12      1.0000 0.46046  0.82509  0.84609  Biso   1.000  O
  O13      1.0000 0.27343  0.63034  0.48268  Biso   1.000  O
  O14      1.0000 0.27270  0.62147  0.98270  Biso   1.000  O
  O15      1.0000 0.22175  0.87565  0.02717  Biso   1.000  O
  O16      1.0000 0.22191  0.87085  0.52604  Biso   1.000  O
  Hf9      1.0000 0.63700  0.02034  0.29663  Biso   1.000  Hf
  Hf10     1.0000 0.64978  0.23098  0.80728  Biso   1.000  Hf
  Hf11     1.0000 0.86252  0.27239  0.21541  Biso   1.000  Hf
  Hf12     1.0000 0.86185  0.47958  0.71034  Biso   1.000  Hf
  O17      1.0000 0.53123  0.16800  0.15757  Biso   1.000  O
  O18      1.0000 0.55155  0.05690  0.68777  Biso   1.000  O
  O19      1.0000 0.96340  0.42129  0.34024  Biso   1.000  O
  O20      1.0000 0.96316  0.33205  0.84081  Biso   1.000  O
  O21      1.0000 0.77629  0.13097  0.48556  Biso   1.000  O
  O22      1.0000 0.77801  0.12038  0.99074  Biso   1.000  O
  O23      1.0000 0.72657  0.37862  0.02903  Biso   1.000  O
  O24      1.0000 0.72495  0.37265  0.52693  Biso   1.000  O
  Hf13     1.0000 0.63718  0.52361  0.29464  Biso   1.000  Hf
  Hf14     1.0000 0.63766  0.72750  0.79269  Biso   1.000  Hf
  Hf15     1.0000 0.85804  0.77146  0.20935  Biso   1.000  Hf
  Hf16     1.0000 0.85840  0.97779  0.71058  Biso   1.000  Hf
  O25      1.0000 0.53504  0.66984  0.15942  Biso   1.000  O
  O26      1.0000 0.53174  0.58739  0.65237  Biso   1.000  O
  O27      1.0000 0.96154  0.91816  0.34283  Biso   1.000  O
  O28      1.0000 0.96212  0.83309  0.84347  Biso   1.000  O
  O29      1.0000 0.77530  0.62891  0.48246  Biso   1.000  O
  O30      1.0000 0.77375  0.62110  0.98156  Biso   1.000  O
  O31      1.0000 0.72101  0.87965  0.02272  Biso   1.000  O
  O32      1.0000 0.72319  0.86896  0.51914  Biso   1.000  O
  Pd1      1.0000 0.42818  0.21834  0.62948  Biso   1.000  Pd
