data_image0
_cell_length_a       10.0274
_cell_length_b       10.1932
_cell_length_c       5.21656
_cell_angle_alpha    90.0417
_cell_angle_beta     90.5351
_cell_angle_gamma    89.425

_symmetry_space_group_name_H-M    "P 1"
_symmetry_int_tables_number       1

loop_
  _symmetry_equiv_pos_as_xyz
  'x, y, z'

loop_
  _atom_site_label
  _atom_site_occupancy
  _atom_site_fract_x
  _atom_site_fract_y
  _atom_site_fract_z
  _atom_site_thermal_displace_type
  _atom_site_B_iso_or_equiv
  _atom_site_type_symbol
  Pd1      1.0000 0.12456  0.00906  0.37725  Biso   1.000  Pd
  Hf1      1.0000 0.13932  0.52261  0.34653  Biso   1.000  Hf
  Hf2      1.0000 0.14559  0.22829  0.83810  Biso   1.000  Hf
  Hf3      1.0000 0.13619  0.73070  0.84853  Biso   1.000  Hf
  Hf4      1.0000 0.35993  0.27105  0.33300  Biso   1.000  Hf
  Hf5      1.0000 0.35928  0.77608  0.34001  Biso   1.000  Hf
  Hf6      1.0000 0.36112  0.47980  0.84229  Biso   1.000  Hf
  Hf7      1.0000 0.36038  0.98349  0.84261  Biso   1.000  Hf
  Hf8      1.0000 0.63806  0.02195  0.15640  Biso   1.000  Hf
  Hf9      1.0000 0.63916  0.51899  0.15952  Biso   1.000  Hf
  Hf10     1.0000 0.63874  0.22995  0.65805  Biso   1.000  Hf
  Hf11     1.0000 0.63572  0.72721  0.65677  Biso   1.000  Hf
  Hf12     1.0000 0.86816  0.26550  0.16623  Biso   1.000  Hf
  Hf13     1.0000 0.85802  0.76826  0.15750  Biso   1.000  Hf
  Hf14     1.0000 0.86334  0.47613  0.66417  Biso   1.000  Hf
  Hf15     1.0000 0.85496  0.97714  0.66210  Biso   1.000  Hf
  O1       1.0000 0.04442  0.15501  0.16615  Biso   1.000  O
  O2       1.0000 0.03245  0.66699  0.17301  Biso   1.000  O
  O3       1.0000 0.03089  0.08575  0.66270  Biso   1.000  O
  O4       1.0000 0.03375  0.58350  0.67599  Biso   1.000  O
  O5       1.0000 0.46600  0.41862  0.16975  Biso   1.000  O
  O6       1.0000 0.46670  0.91810  0.16694  Biso   1.000  O
  O7       1.0000 0.46651  0.33303  0.66877  Biso   1.000  O
  O8       1.0000 0.46201  0.83256  0.66904  Biso   1.000  O
  O9       1.0000 0.27189  0.11609  0.55480  Biso   1.000  O
  O10      1.0000 0.27538  0.62642  0.59098  Biso   1.000  O
  O11      1.0000 0.30134  0.14822  0.04017  Biso   1.000  O
  O12      1.0000 0.27671  0.63181  0.09067  Biso   1.000  O
  O13      1.0000 0.22538  0.37327  0.58952  Biso   1.000  O
  O14      1.0000 0.21613  0.87337  0.59069  Biso   1.000  O
  O15      1.0000 0.22028  0.38325  0.08822  Biso   1.000  O
  O16      1.0000 0.21986  0.88868  0.09446  Biso   1.000  O
  O17      1.0000 0.53633  0.16986  0.32540  Biso   1.000  O
  O18      1.0000 0.53267  0.66803  0.32716  Biso   1.000  O
  O19      1.0000 0.53846  0.07896  0.81952  Biso   1.000  O
  O20      1.0000 0.53426  0.58163  0.82893  Biso   1.000  O
  O21      1.0000 0.97000  0.41234  0.34266  Biso   1.000  O
  O22      1.0000 0.95788  0.91736  0.32932  Biso   1.000  O
  O23      1.0000 0.96984  0.33079  0.84561  Biso   1.000  O
  O24      1.0000 0.96339  0.83368  0.83351  Biso   1.000  O
  O25      1.0000 0.77881  0.12224  0.91389  Biso   1.000  O
  O26      1.0000 0.77624  0.62201  0.91307  Biso   1.000  O
  O27      1.0000 0.77721  0.12507  0.41255  Biso   1.000  O
  O28      1.0000 0.77604  0.62421  0.41400  Biso   1.000  O
  O29      1.0000 0.72698  0.37151  0.91658  Biso   1.000  O
  O30      1.0000 0.72021  0.87149  0.91060  Biso   1.000  O
  O31      1.0000 0.72697  0.37456  0.41422  Biso   1.000  O
  O32      1.0000 0.72246  0.87537  0.41206  Biso   1.000  O
