data_image0
_cell_length_a       9.94131
_cell_length_b       5.19443
_cell_length_c       10.0083
_cell_angle_alpha    90.6596
_cell_angle_beta     89.1936
_cell_angle_gamma    90.3875

_symmetry_space_group_name_H-M    "P 1"
_symmetry_int_tables_number       1

loop_
  _symmetry_equiv_pos_as_xyz
  'x, y, z'

loop_
  _atom_site_label
  _atom_site_occupancy
  _atom_site_fract_x
  _atom_site_fract_y
  _atom_site_fract_z
  _atom_site_thermal_displace_type
  _atom_site_B_iso_or_equiv
  _atom_site_type_symbol
  Pd1      1.0000 0.12503  0.07754  0.10303  Biso   1.000  Pd
  Hf1      1.0000 0.13523  0.03580  0.62939  Biso   1.000  Hf
  Hf2      1.0000 0.63705  0.03763  0.12843  Biso   1.000  Hf
  Hf3      1.0000 0.63076  0.03036  0.62065  Biso   1.000  Hf
  Hf4      1.0000 0.13654  0.45277  0.37717  Biso   1.000  Hf
  Hf5      1.0000 0.13016  0.48242  0.87625  Biso   1.000  Hf
  Hf6      1.0000 0.63679  0.46826  0.37776  Biso   1.000  Hf
  Hf7      1.0000 0.63167  0.46608  0.87369  Biso   1.000  Hf
  Hf8      1.0000 0.37199  0.52906  0.12596  Biso   1.000  Hf
  Hf9      1.0000 0.36604  0.53501  0.62852  Biso   1.000  Hf
  Hf10     1.0000 0.86766  0.54186  0.12187  Biso   1.000  Hf
  Hf11     1.0000 0.86774  0.53263  0.62142  Biso   1.000  Hf
  Hf12     1.0000 0.36450  0.95368  0.37507  Biso   1.000  Hf
  Hf13     1.0000 0.36335  0.97253  0.87965  Biso   1.000  Hf
  Hf14     1.0000 0.87191  0.97093  0.37261  Biso   1.000  Hf
  Hf15     1.0000 0.85835  0.96667  0.87040  Biso   1.000  Hf
  O1       1.0000 0.03839  0.37781  0.18767  Biso   1.000  O
  O2       1.0000 0.03628  0.37475  0.69572  Biso   1.000  O
  O3       1.0000 0.53474  0.36524  0.20145  Biso   1.000  O
  O4       1.0000 0.53447  0.36617  0.69530  Biso   1.000  O
  O5       1.0000 0.03516  0.12851  0.45255  Biso   1.000  O
  O6       1.0000 0.03330  0.12942  0.93003  Biso   1.000  O
  O7       1.0000 0.53751  0.13093  0.44243  Biso   1.000  O
  O8       1.0000 0.53075  0.14090  0.95187  Biso   1.000  O
  O9       1.0000 0.47084  0.86288  0.19466  Biso   1.000  O
  O10      1.0000 0.46286  0.87052  0.69946  Biso   1.000  O
  O11      1.0000 0.97273  0.87814  0.18908  Biso   1.000  O
  O12      1.0000 0.96278  0.86883  0.69180  Biso   1.000  O
  O13      1.0000 0.47077  0.63627  0.45440  Biso   1.000  O
  O14      1.0000 0.45678  0.63287  0.94039  Biso   1.000  O
  O15      1.0000 0.96453  0.62760  0.43825  Biso   1.000  O
  O16      1.0000 0.95798  0.63604  0.93959  Biso   1.000  O
  O17      1.0000 0.25185  0.17897  0.25067  Biso   1.000  O
  O18      1.0000 0.27050  0.24229  0.75381  Biso   1.000  O
  O19      1.0000 0.77405  0.24048  0.24852  Biso   1.000  O
  O20      1.0000 0.76676  0.23266  0.74690  Biso   1.000  O
  O21      1.0000 0.27474  0.26102  0.50004  Biso   1.000  O
  O22      1.0000 0.26243  0.27535  0.00217  Biso   1.000  O
  O23      1.0000 0.77041  0.26612  0.49800  Biso   1.000  O
  O24      1.0000 0.76964  0.26839  0.99748  Biso   1.000  O
  O25      1.0000 0.22804  0.76014  0.50622  Biso   1.000  O
  O26      1.0000 0.22563  0.78345  0.01148  Biso   1.000  O
  O27      1.0000 0.73458  0.76782  0.49750  Biso   1.000  O
  O28      1.0000 0.72384  0.76548  0.99763  Biso   1.000  O
  O29      1.0000 0.25563  0.67616  0.26618  Biso   1.000  O
  O30      1.0000 0.22795  0.74216  0.75531  Biso   1.000  O
  O31      1.0000 0.73494  0.73919  0.24763  Biso   1.000  O
  O32      1.0000 0.72766  0.73136  0.74643  Biso   1.000  O
