data_image0
_cell_length_a       10.043
_cell_length_b       10.2188
_cell_length_c       5.03642
_cell_angle_alpha    88.3824
_cell_angle_beta     86.972
_cell_angle_gamma    89.8366

_symmetry_space_group_name_H-M    "P 1"
_symmetry_int_tables_number       1

loop_
  _symmetry_equiv_pos_as_xyz
  'x, y, z'

loop_
  _atom_site_label
  _atom_site_occupancy
  _atom_site_fract_x
  _atom_site_fract_y
  _atom_site_fract_z
  _atom_site_thermal_displace_type
  _atom_site_B_iso_or_equiv
  _atom_site_type_symbol
  Pd1      1.0000 0.11389  0.95978  0.24862  Biso   1.000  Pd
  Hf1      1.0000 0.12233  0.49811  0.25624  Biso   1.000  Hf
  Hf2      1.0000 0.60594  0.00462  0.24452  Biso   1.000  Hf
  Hf3      1.0000 0.62741  0.48456  0.22168  Biso   1.000  Hf
  Hf4      1.0000 0.12432  0.25904  0.77718  Biso   1.000  Hf
  Hf5      1.0000 0.12244  0.75690  0.74695  Biso   1.000  Hf
  Hf6      1.0000 0.62016  0.24226  0.74148  Biso   1.000  Hf
  Hf7      1.0000 0.62382  0.76047  0.70583  Biso   1.000  Hf
  Hf8      1.0000 0.36895  0.25526  0.27634  Biso   1.000  Hf
  Hf9      1.0000 0.39416  0.73792  0.23126  Biso   1.000  Hf
  Hf10     1.0000 0.88357  0.24951  0.24019  Biso   1.000  Hf
  Hf11     1.0000 0.86668  0.75171  0.21831  Biso   1.000  Hf
  Hf12     1.0000 0.35690  0.00808  0.78028  Biso   1.000  Hf
  Hf13     1.0000 0.38312  0.50604  0.74283  Biso   1.000  Hf
  Hf14     1.0000 0.86764  0.00217  0.71289  Biso   1.000  Hf
  Hf15     1.0000 0.87087  0.48866  0.73209  Biso   1.000  Hf
  O1       1.0000 0.95828  0.16115  0.90583  Biso   1.000  O
  O2       1.0000 0.03538  0.66246  0.07590  Biso   1.000  O
  O3       1.0000 0.47644  0.14508  0.01158  Biso   1.000  O
  O4       1.0000 0.52811  0.63987  0.98271  Biso   1.000  O
  O5       1.0000 0.99270  0.08819  0.41406  Biso   1.000  O
  O6       1.0000 0.03215  0.59117  0.57893  Biso   1.000  O
  O7       1.0000 0.49778  0.10568  0.51767  Biso   1.000  O
  O8       1.0000 0.51946  0.60551  0.48021  Biso   1.000  O
  O9       1.0000 0.00178  0.34683  0.49535  Biso   1.000  O
  O10      1.0000 0.99375  0.84133  0.48162  Biso   1.000  O
  O11      1.0000 0.49911  0.35667  0.48977  Biso   1.000  O
  O12      1.0000 0.48979  0.85923  0.48543  Biso   1.000  O
  O13      1.0000 0.99959  0.40352  0.00742  Biso   1.000  O
  O14      1.0000 0.99565  0.90862  0.96680  Biso   1.000  O
  O15      1.0000 0.50209  0.39134  0.98507  Biso   1.000  O
  O16      1.0000 0.49914  0.89037  0.98469  Biso   1.000  O
  O17      1.0000 0.26336  0.16419  0.56878  Biso   1.000  O
  O18      1.0000 0.28371  0.67244  0.56845  Biso   1.000  O
  O19      1.0000 0.74230  0.14570  0.45347  Biso   1.000  O
  O20      1.0000 0.77412  0.64845  0.53445  Biso   1.000  O
  O21      1.0000 0.22031  0.09552  0.04784  Biso   1.000  O
  O22      1.0000 0.28485  0.58735  0.06715  Biso   1.000  O
  O23      1.0000 0.71558  0.08521  0.93510  Biso   1.000  O
  O24      1.0000 0.78431  0.58593  0.04427  Biso   1.000  O
  O25      1.0000 0.24195  0.34777  0.03416  Biso   1.000  O
  O26      1.0000 0.24586  0.84510  0.04303  Biso   1.000  O
  O27      1.0000 0.74731  0.34022  0.98683  Biso   1.000  O
  O28      1.0000 0.76105  0.83918  0.93530  Biso   1.000  O
  O29      1.0000 0.24888  0.41174  0.52949  Biso   1.000  O
  O30      1.0000 0.22304  0.92392  0.55868  Biso   1.000  O
  O31      1.0000 0.75008  0.39196  0.48936  Biso   1.000  O
  O32      1.0000 0.74410  0.89631  0.44168  Biso   1.000  O
