data_image0
_cell_length_a       10.142
_cell_length_b       10.3037
_cell_length_c       10.4761
_cell_angle_alpha    90.2697
_cell_angle_beta     80.1085
_cell_angle_gamma    90.0409

_symmetry_space_group_name_H-M    "P 1"
_symmetry_int_tables_number       1

loop_
  _symmetry_equiv_pos_as_xyz
  'x, y, z'

loop_
  _atom_site_label
  _atom_site_occupancy
  _atom_site_fract_x
  _atom_site_fract_y
  _atom_site_fract_z
  _atom_site_thermal_displace_type
  _atom_site_B_iso_or_equiv
  _atom_site_type_symbol
  Hf1      1.0000 0.13547  0.02266  0.14617  Biso   1.000  Hf
  Hf2      1.0000 0.13900  0.22930  0.39565  Biso   1.000  Hf
  Hf3      1.0000 0.35613  0.27663  0.09694  Biso   1.000  Hf
  Hf4      1.0000 0.35888  0.47953  0.34965  Biso   1.000  Hf
  O1       1.0000 0.03427  0.16992  0.07885  Biso   1.000  O
  O2       1.0000 0.03351  0.08128  0.33013  Biso   1.000  O
  O3       1.0000 0.45949  0.42961  0.16050  Biso   1.000  O
  O4       1.0000 0.48204  0.35842  0.43618  Biso   1.000  O
  O5       1.0000 0.27179  0.12981  0.23782  Biso   1.000  O
  O6       1.0000 0.27048  0.11199  0.49470  Biso   1.000  O
  O7       1.0000 0.21994  0.38271  0.00502  Biso   1.000  O
  O8       1.0000 0.21326  0.37635  0.25485  Biso   1.000  O
  Hf5      1.0000 0.13715  0.01961  0.64738  Biso   1.000  Hf
  Hf6      1.0000 0.13651  0.22897  0.89425  Biso   1.000  Hf
  Hf7      1.0000 0.36102  0.27363  0.60549  Biso   1.000  Hf
  Hf8      1.0000 0.35983  0.48014  0.85425  Biso   1.000  Hf
  O9       1.0000 0.03615  0.16915  0.58096  Biso   1.000  O
  O10      1.0000 0.03348  0.08126  0.83000  Biso   1.000  O
  O11      1.0000 0.46532  0.41645  0.67638  Biso   1.000  O
  O12      1.0000 0.46384  0.33227  0.91892  Biso   1.000  O
  O13      1.0000 0.27542  0.12978  0.74058  Biso   1.000  O
  O14      1.0000 0.27380  0.12315  0.98876  Biso   1.000  O
  O15      1.0000 0.22508  0.37681  0.50884  Biso   1.000  O
  O16      1.0000 0.22299  0.37134  0.75792  Biso   1.000  O
  Hf9      1.0000 0.13728  0.52371  0.14492  Biso   1.000  Hf
  Hf10     1.0000 0.13745  0.72817  0.39693  Biso   1.000  Hf
  Hf11     1.0000 0.35995  0.77303  0.10437  Biso   1.000  Hf
  Hf12     1.0000 0.36179  0.96847  0.35952  Biso   1.000  Hf
  O17      1.0000 0.03388  0.67129  0.07952  Biso   1.000  O
  O18      1.0000 0.03373  0.58340  0.32879  Biso   1.000  O
  O19      1.0000 0.46289  0.92063  0.17295  Biso   1.000  O
  O20      1.0000 0.46121  0.82214  0.42192  Biso   1.000  O
  O21      1.0000 0.27483  0.63133  0.24075  Biso   1.000  O
  O22      1.0000 0.27365  0.61832  0.49083  Biso   1.000  O
  O23      1.0000 0.22259  0.88092  0.01067  Biso   1.000  O
  O24      1.0000 0.22251  0.87108  0.26150  Biso   1.000  O
  Hf13     1.0000 0.13795  0.52152  0.64555  Biso   1.000  Hf
  Hf14     1.0000 0.13688  0.72975  0.89682  Biso   1.000  Hf
  Hf15     1.0000 0.36086  0.76826  0.60618  Biso   1.000  Hf
  Hf16     1.0000 0.35979  0.97974  0.85428  Biso   1.000  Hf
  O25      1.0000 0.03311  0.66767  0.58003  Biso   1.000  O
  O26      1.0000 0.03492  0.58203  0.82990  Biso   1.000  O
  O27      1.0000 0.46321  0.91800  0.66985  Biso   1.000  O
  O28      1.0000 0.46338  0.83370  0.92084  Biso   1.000  O
  O29      1.0000 0.27532  0.62816  0.74106  Biso   1.000  O
  O30      1.0000 0.27556  0.62381  0.99085  Biso   1.000  O
  O31      1.0000 0.22253  0.87377  0.51243  Biso   1.000  O
  O32      1.0000 0.22273  0.87084  0.76101  Biso   1.000  O
  Hf17     1.0000 0.63870  0.02061  0.14805  Biso   1.000  Hf
  Hf18     1.0000 0.65109  0.23090  0.40245  Biso   1.000  Hf
  Hf19     1.0000 0.85995  0.27293  0.10459  Biso   1.000  Hf
  Hf20     1.0000 0.86267  0.47890  0.35392  Biso   1.000  Hf
  O33      1.0000 0.53144  0.16690  0.07931  Biso   1.000  O
  O34      1.0000 0.55341  0.05611  0.34485  Biso   1.000  O
  O35      1.0000 0.96305  0.42118  0.16849  Biso   1.000  O
  O36      1.0000 0.96465  0.33119  0.42080  Biso   1.000  O
  O37      1.0000 0.77803  0.13081  0.24112  Biso   1.000  O
  O38      1.0000 0.78042  0.11932  0.49406  Biso   1.000  O
  O39      1.0000 0.72214  0.37958  0.01088  Biso   1.000  O
  O40      1.0000 0.72442  0.37240  0.26101  Biso   1.000  O
  Hf21     1.0000 0.63703  0.02142  0.64603  Biso   1.000  Hf
  Hf22     1.0000 0.63796  0.22857  0.89711  Biso   1.000  Hf
  Hf23     1.0000 0.86376  0.27085  0.60746  Biso   1.000  Hf
  Hf24     1.0000 0.86031  0.47933  0.85527  Biso   1.000  Hf
  O41      1.0000 0.53532  0.16957  0.57938  Biso   1.000  O
  O42      1.0000 0.53384  0.08243  0.82880  Biso   1.000  O
  O43      1.0000 0.96457  0.41947  0.67136  Biso   1.000  O
  O44      1.0000 0.96246  0.33146  0.91951  Biso   1.000  O
  O45      1.0000 0.77486  0.12918  0.74225  Biso   1.000  O
  O46      1.0000 0.77455  0.12186  0.99198  Biso   1.000  O
  O47      1.0000 0.72813  0.37812  0.51328  Biso   1.000  O
  O48      1.0000 0.72377  0.37114  0.76193  Biso   1.000  O
  Hf25     1.0000 0.63710  0.52388  0.14500  Biso   1.000  Hf
  Hf26     1.0000 0.63943  0.72596  0.39569  Biso   1.000  Hf
  Hf27     1.0000 0.85949  0.77133  0.10422  Biso   1.000  Hf
  Hf28     1.0000 0.86026  0.97722  0.35455  Biso   1.000  Hf
  O49      1.0000 0.53597  0.67374  0.07952  Biso   1.000  O
  O50      1.0000 0.53325  0.58503  0.32504  Biso   1.000  O
  O51      1.0000 0.96317  0.91917  0.17027  Biso   1.000  O
  O52      1.0000 0.96339  0.83142  0.42118  Biso   1.000  O
  O53      1.0000 0.77653  0.62848  0.24056  Biso   1.000  O
  O54      1.0000 0.77528  0.61975  0.49065  Biso   1.000  O
  O55      1.0000 0.72234  0.88075  0.01067  Biso   1.000  O
  O56      1.0000 0.72469  0.86805  0.25886  Biso   1.000  O
  Hf29     1.0000 0.63854  0.52085  0.64780  Biso   1.000  Hf
  Hf30     1.0000 0.63707  0.73015  0.89622  Biso   1.000  Hf
  Hf31     1.0000 0.85953  0.77142  0.60449  Biso   1.000  Hf
  Hf32     1.0000 0.85915  0.97904  0.85495  Biso   1.000  Hf
  O57      1.0000 0.53491  0.66544  0.58013  Biso   1.000  O
  O58      1.0000 0.53415  0.58307  0.83073  Biso   1.000  O
  O59      1.0000 0.96229  0.91843  0.67080  Biso   1.000  O
  O60      1.0000 0.96275  0.83219  0.92024  Biso   1.000  O
  O61      1.0000 0.77526  0.62934  0.74085  Biso   1.000  O
  O62      1.0000 0.77492  0.62217  0.99037  Biso   1.000  O
  O63      1.0000 0.72195  0.87795  0.51004  Biso   1.000  O
  O64      1.0000 0.72175  0.87178  0.76014  Biso   1.000  O
  Pd1      1.0000 0.42875  0.21855  0.31645  Biso   1.000  Pd
