data_image0
_cell_length_a       10.1741
_cell_length_b       5.16986
_cell_length_c       10.5151
_cell_angle_alpha    90.5463
_cell_angle_beta     79.9039
_cell_angle_gamma    90.091

_symmetry_space_group_name_H-M    "P 1"
_symmetry_int_tables_number       1

loop_
  _symmetry_equiv_pos_as_xyz
  'x, y, z'

loop_
  _atom_site_label
  _atom_site_occupancy
  _atom_site_fract_x
  _atom_site_fract_y
  _atom_site_fract_z
  _atom_site_thermal_displace_type
  _atom_site_B_iso_or_equiv
  _atom_site_type_symbol
  Hf1      1.0000 0.13385  0.04946  0.14525  Biso   1.000  Hf
  Hf2      1.0000 0.13772  0.45813  0.39647  Biso   1.000  Hf
  Hf3      1.0000 0.35540  0.55793  0.09729  Biso   1.000  Hf
  Hf4      1.0000 0.35849  0.93789  0.35507  Biso   1.000  Hf
  O1       1.0000 0.03227  0.34280  0.07767  Biso   1.000  O
  O2       1.0000 0.03106  0.16929  0.32839  Biso   1.000  O
  O3       1.0000 0.45831  0.86295  0.16440  Biso   1.000  O
  O4       1.0000 0.47907  0.69848  0.43995  Biso   1.000  O
  O5       1.0000 0.26942  0.26392  0.23715  Biso   1.000  O
  O6       1.0000 0.26753  0.21895  0.49436  Biso   1.000  O
  O7       1.0000 0.21950  0.76928  0.00636  Biso   1.000  O
  O8       1.0000 0.21204  0.75534  0.25694  Biso   1.000  O
  Hf5      1.0000 0.13597  0.03973  0.64717  Biso   1.000  Hf
  Hf6      1.0000 0.13460  0.46013  0.89543  Biso   1.000  Hf
  Hf7      1.0000 0.36047  0.54154  0.60873  Biso   1.000  Hf
  Hf8      1.0000 0.35859  0.96300  0.85459  Biso   1.000  Hf
  O9       1.0000 0.03318  0.33434  0.58022  Biso   1.000  O
  O10      1.0000 0.03233  0.16640  0.82927  Biso   1.000  O
  O11      1.0000 0.46482  0.82962  0.67726  Biso   1.000  O
  O12      1.0000 0.46361  0.67221  0.92061  Biso   1.000  O
  O13      1.0000 0.27399  0.25725  0.74108  Biso   1.000  O
  O14      1.0000 0.27297  0.25272  0.98889  Biso   1.000  O
  O15      1.0000 0.22404  0.74294  0.51257  Biso   1.000  O
  O16      1.0000 0.22253  0.74274  0.75995  Biso   1.000  O
  Hf9      1.0000 0.63747  0.04572  0.14635  Biso   1.000  Hf
  Hf10     1.0000 0.65052  0.45574  0.40196  Biso   1.000  Hf
  Hf11     1.0000 0.85854  0.54533  0.10479  Biso   1.000  Hf
  Hf12     1.0000 0.86187  0.95500  0.35430  Biso   1.000  Hf
  O17      1.0000 0.53214  0.34355  0.07850  Biso   1.000  O
  O18      1.0000 0.55260  0.11928  0.33873  Biso   1.000  O
  O19      1.0000 0.96234  0.84077  0.16952  Biso   1.000  O
  O20      1.0000 0.96431  0.66550  0.42274  Biso   1.000  O
  O21      1.0000 0.77860  0.26029  0.24046  Biso   1.000  O
  O22      1.0000 0.77875  0.23698  0.49387  Biso   1.000  O
  O23      1.0000 0.72160  0.76204  0.01199  Biso   1.000  O
  O24      1.0000 0.72569  0.73852  0.26081  Biso   1.000  O
  Hf13     1.0000 0.63700  0.04198  0.64812  Biso   1.000  Hf
  Hf14     1.0000 0.63642  0.46035  0.89733  Biso   1.000  Hf
  Hf15     1.0000 0.86210  0.54188  0.60743  Biso   1.000  Hf
  Hf16     1.0000 0.85861  0.95927  0.85601  Biso   1.000  Hf
  O25      1.0000 0.53385  0.32928  0.57906  Biso   1.000  O
  O26      1.0000 0.53208  0.17084  0.82911  Biso   1.000  O
  O27      1.0000 0.96294  0.83615  0.67280  Biso   1.000  O
  O28      1.0000 0.96165  0.66719  0.92047  Biso   1.000  O
  O29      1.0000 0.77359  0.25885  0.74226  Biso   1.000  O
  O30      1.0000 0.77313  0.24631  0.99129  Biso   1.000  O
  O31      1.0000 0.72626  0.75384  0.51367  Biso   1.000  O
  O32      1.0000 0.72241  0.74408  0.76263  Biso   1.000  O
  Pd1      1.0000 0.42509  0.43419  0.31572  Biso   1.000  Pd
