data_image0
_cell_length_a       5.08828
_cell_length_b       10.3275
_cell_length_c       10.511
_cell_angle_alpha    90.5307
_cell_angle_beta     79.8463
_cell_angle_gamma    90.1029

_symmetry_space_group_name_H-M    "P 1"
_symmetry_int_tables_number       1

loop_
  _symmetry_equiv_pos_as_xyz
  'x, y, z'

loop_
  _atom_site_label
  _atom_site_occupancy
  _atom_site_fract_x
  _atom_site_fract_y
  _atom_site_fract_z
  _atom_site_thermal_displace_type
  _atom_site_B_iso_or_equiv
  _atom_site_type_symbol
  Hf1      1.0000 0.27093  0.02157  0.14799  Biso   1.000  Hf
  Hf2      1.0000 0.30279  0.23176  0.40266  Biso   1.000  Hf
  Hf3      1.0000 0.70961  0.27837  0.09741  Biso   1.000  Hf
  Hf4      1.0000 0.72018  0.47967  0.34901  Biso   1.000  Hf
  O1       1.0000 0.05993  0.16766  0.07813  Biso   1.000  O
  O2       1.0000 0.10143  0.05707  0.34401  Biso   1.000  O
  O3       1.0000 0.91725  0.43114  0.15922  Biso   1.000  O
  O4       1.0000 0.96524  0.35733  0.43655  Biso   1.000  O
  O5       1.0000 0.54581  0.13159  0.23775  Biso   1.000  O
  O6       1.0000 0.54868  0.11079  0.49875  Biso   1.000  O
  O7       1.0000 0.43767  0.38315  0.00605  Biso   1.000  O
  O8       1.0000 0.42713  0.37859  0.25555  Biso   1.000  O
  Hf5      1.0000 0.27108  0.01962  0.64788  Biso   1.000  Hf
  Hf6      1.0000 0.27124  0.22903  0.89559  Biso   1.000  Hf
  Hf7      1.0000 0.72733  0.27272  0.60882  Biso   1.000  Hf
  Hf8      1.0000 0.71789  0.48086  0.85516  Biso   1.000  Hf
  O9       1.0000 0.07185  0.16919  0.58021  Biso   1.000  O
  O10      1.0000 0.06294  0.08309  0.82869  Biso   1.000  O
  O11      1.0000 0.93177  0.41653  0.67757  Biso   1.000  O
  O12      1.0000 0.92427  0.33311  0.91868  Biso   1.000  O
  O13      1.0000 0.54758  0.12977  0.74261  Biso   1.000  O
  O14      1.0000 0.54337  0.12408  0.99010  Biso   1.000  O
  O15      1.0000 0.46042  0.37629  0.51270  Biso   1.000  O
  O16      1.0000 0.44698  0.37154  0.76019  Biso   1.000  O
  Hf9      1.0000 0.27135  0.52560  0.14441  Biso   1.000  Hf
  Hf10     1.0000 0.27560  0.72533  0.39689  Biso   1.000  Hf
  Hf11     1.0000 0.71688  0.77284  0.10466  Biso   1.000  Hf
  Hf12     1.0000 0.72163  0.96752  0.36024  Biso   1.000  Hf
  O17      1.0000 0.06787  0.67552  0.07914  Biso   1.000  O
  O18      1.0000 0.06174  0.58722  0.32422  Biso   1.000  O
  O19      1.0000 0.92362  0.92060  0.17354  Biso   1.000  O
  O20      1.0000 0.92115  0.82342  0.42353  Biso   1.000  O
  O21      1.0000 0.54935  0.63056  0.24099  Biso   1.000  O
  O22      1.0000 0.54438  0.61732  0.49085  Biso   1.000  O
  O23      1.0000 0.44339  0.88234  0.01202  Biso   1.000  O
  O24      1.0000 0.44788  0.86827  0.26122  Biso   1.000  O
  Hf13     1.0000 0.27538  0.52105  0.64737  Biso   1.000  Hf
  Hf14     1.0000 0.27005  0.73110  0.89743  Biso   1.000  Hf
  Hf15     1.0000 0.71843  0.76834  0.60656  Biso   1.000  Hf
  Hf16     1.0000 0.71586  0.98009  0.85521  Biso   1.000  Hf
  O25      1.0000 0.06405  0.66380  0.57996  Biso   1.000  O
  O26      1.0000 0.06622  0.58454  0.83021  Biso   1.000  O
  O27      1.0000 0.92305  0.91687  0.67120  Biso   1.000  O
  O28      1.0000 0.92438  0.83530  0.92168  Biso   1.000  O
  O29      1.0000 0.54799  0.62831  0.74136  Biso   1.000  O
  O30      1.0000 0.54775  0.62494  0.99079  Biso   1.000  O
  O31      1.0000 0.44199  0.87284  0.51292  Biso   1.000  O
  O32      1.0000 0.44236  0.87167  0.76183  Biso   1.000  O
  Pd1      1.0000 0.85693  0.22003  0.31546  Biso   1.000  Pd
