data_image0
_cell_length_a       5.03641
_cell_length_b       10.2188
_cell_length_c       10.043
_cell_angle_alpha    89.8334
_cell_angle_beta     86.9711
_cell_angle_gamma    88.3814

_symmetry_space_group_name_H-M    "P 1"
_symmetry_int_tables_number       1

loop_
  _symmetry_equiv_pos_as_xyz
  'x, y, z'

loop_
  _atom_site_label
  _atom_site_occupancy
  _atom_site_fract_x
  _atom_site_fract_y
  _atom_site_fract_z
  _atom_site_thermal_displace_type
  _atom_site_B_iso_or_equiv
  _atom_site_type_symbol
  Pd1      1.0000 0.24944  0.96070  0.11418  Biso   1.000  Pd
  Hf1      1.0000 0.24535  0.00554  0.60624  Biso   1.000  Hf
  Hf2      1.0000 0.25710  0.49902  0.12264  Biso   1.000  Hf
  Hf3      1.0000 0.22255  0.48550  0.62773  Biso   1.000  Hf
  Hf4      1.0000 0.27721  0.25621  0.36928  Biso   1.000  Hf
  Hf5      1.0000 0.24105  0.25043  0.88387  Biso   1.000  Hf
  Hf6      1.0000 0.23214  0.73885  0.39446  Biso   1.000  Hf
  Hf7      1.0000 0.21915  0.75263  0.86699  Biso   1.000  Hf
  Hf8      1.0000 0.77805  0.25995  0.12463  Biso   1.000  Hf
  Hf9      1.0000 0.74236  0.24318  0.62046  Biso   1.000  Hf
  Hf10     1.0000 0.74779  0.75782  0.12273  Biso   1.000  Hf
  Hf11     1.0000 0.70669  0.76140  0.62412  Biso   1.000  Hf
  Hf12     1.0000 0.78109  0.00900  0.35720  Biso   1.000  Hf
  Hf13     1.0000 0.71373  0.00309  0.86793  Biso   1.000  Hf
  Hf14     1.0000 0.74370  0.50696  0.38342  Biso   1.000  Hf
  Hf15     1.0000 0.73294  0.48957  0.87118  Biso   1.000  Hf
  O1       1.0000 0.90666  0.16207  0.95858  Biso   1.000  O
  O2       1.0000 0.01241  0.14600  0.47673  Biso   1.000  O
  O3       1.0000 0.07675  0.66338  0.03569  Biso   1.000  O
  O4       1.0000 0.98361  0.64080  0.52842  Biso   1.000  O
  O5       1.0000 0.04862  0.09643  0.22059  Biso   1.000  O
  O6       1.0000 0.93599  0.08614  0.71589  Biso   1.000  O
  O7       1.0000 0.06807  0.58826  0.28517  Biso   1.000  O
  O8       1.0000 0.04512  0.58686  0.78462  Biso   1.000  O
  O9       1.0000 0.03503  0.34869  0.24225  Biso   1.000  O
  O10      1.0000 0.98769  0.34115  0.74761  Biso   1.000  O
  O11      1.0000 0.04385  0.84601  0.24616  Biso   1.000  O
  O12      1.0000 0.93616  0.84011  0.76135  Biso   1.000  O
  O13      1.0000 0.00827  0.40444  0.99989  Biso   1.000  O
  O14      1.0000 0.98596  0.39227  0.50239  Biso   1.000  O
  O15      1.0000 0.96764  0.90954  0.99594  Biso   1.000  O
  O16      1.0000 0.98557  0.89130  0.49944  Biso   1.000  O
  O17      1.0000 0.56958  0.16510  0.26366  Biso   1.000  O
  O18      1.0000 0.45436  0.14662  0.74261  Biso   1.000  O
  O19      1.0000 0.56935  0.67336  0.28402  Biso   1.000  O
  O20      1.0000 0.53530  0.64937  0.77442  Biso   1.000  O
  O21      1.0000 0.41489  0.08910  0.99300  Biso   1.000  O
  O22      1.0000 0.51851  0.10661  0.49809  Biso   1.000  O
  O23      1.0000 0.57977  0.59209  0.03245  Biso   1.000  O
  O24      1.0000 0.48110  0.60644  0.51977  Biso   1.000  O
  O25      1.0000 0.49620  0.34774  0.00209  Biso   1.000  O
  O26      1.0000 0.49065  0.35760  0.49942  Biso   1.000  O
  O27      1.0000 0.48246  0.84226  0.99404  Biso   1.000  O
  O28      1.0000 0.48632  0.86016  0.49008  Biso   1.000  O
  O29      1.0000 0.53036  0.41265  0.24920  Biso   1.000  O
  O30      1.0000 0.49022  0.39289  0.75040  Biso   1.000  O
  O31      1.0000 0.55949  0.92484  0.22335  Biso   1.000  O
  O32      1.0000 0.44254  0.89723  0.74439  Biso   1.000  O
