data_image0
_cell_length_a       10.0161
_cell_length_b       5.22272
_cell_length_c       10.0696
_cell_angle_alpha    90.672
_cell_angle_beta     89.099
_cell_angle_gamma    90.4248

_symmetry_space_group_name_H-M    "P 1"
_symmetry_int_tables_number       1

loop_
  _symmetry_equiv_pos_as_xyz
  'x, y, z'

loop_
  _atom_site_label
  _atom_site_occupancy
  _atom_site_fract_x
  _atom_site_fract_y
  _atom_site_fract_z
  _atom_site_thermal_displace_type
  _atom_site_B_iso_or_equiv
  _atom_site_type_symbol
  Pd1      1.0000 0.12496  0.07765  0.10249  Biso   1.000  Pd
  Zr1      1.0000 0.13542  0.03465  0.62923  Biso   1.000  Zr
  Zr2      1.0000 0.63703  0.03662  0.12827  Biso   1.000  Zr
  Zr3      1.0000 0.63015  0.02791  0.61968  Biso   1.000  Zr
  Zr4      1.0000 0.13671  0.45427  0.37650  Biso   1.000  Zr
  Zr5      1.0000 0.12962  0.48410  0.87648  Biso   1.000  Zr
  Zr6      1.0000 0.63698  0.47052  0.37752  Biso   1.000  Zr
  Zr7      1.0000 0.63116  0.46739  0.87311  Biso   1.000  Zr
  Zr8      1.0000 0.37231  0.52561  0.12577  Biso   1.000  Zr
  Zr9      1.0000 0.36620  0.53394  0.62856  Biso   1.000  Zr
  Zr10     1.0000 0.86814  0.54073  0.12100  Biso   1.000  Zr
  Zr11     1.0000 0.86815  0.53059  0.62076  Biso   1.000  Zr
  Zr12     1.0000 0.36483  0.95598  0.37440  Biso   1.000  Zr
  Zr13     1.0000 0.36293  0.97390  0.88019  Biso   1.000  Zr
  Zr14     1.0000 0.87283  0.97286  0.37148  Biso   1.000  Zr
  Zr15     1.0000 0.85831  0.96855  0.86943  Biso   1.000  Zr
  O1       1.0000 0.03854  0.37584  0.18643  Biso   1.000  O
  O2       1.0000 0.03505  0.37277  0.69675  Biso   1.000  O
  O3       1.0000 0.53393  0.36349  0.20273  Biso   1.000  O
  O4       1.0000 0.53330  0.36474  0.69603  Biso   1.000  O
  O5       1.0000 0.03445  0.13032  0.45285  Biso   1.000  O
  O6       1.0000 0.03230  0.12837  0.93225  Biso   1.000  O
  O7       1.0000 0.53666  0.13319  0.44315  Biso   1.000  O
  O8       1.0000 0.52865  0.14355  0.95346  Biso   1.000  O
  O9       1.0000 0.47239  0.86051  0.19561  Biso   1.000  O
  O10      1.0000 0.46362  0.86933  0.70081  Biso   1.000  O
  O11      1.0000 0.97476  0.87750  0.18821  Biso   1.000  O
  O12      1.0000 0.96365  0.86748  0.69171  Biso   1.000  O
  O13      1.0000 0.47221  0.63924  0.45559  Biso   1.000  O
  O14      1.0000 0.45655  0.63393  0.94108  Biso   1.000  O
  O15      1.0000 0.96565  0.62842  0.43796  Biso   1.000  O
  O16      1.0000 0.95763  0.63558  0.93876  Biso   1.000  O
  O17      1.0000 0.25100  0.17624  0.24950  Biso   1.000  O
  O18      1.0000 0.26924  0.24118  0.75340  Biso   1.000  O
  O19      1.0000 0.77346  0.23987  0.24749  Biso   1.000  O
  O20      1.0000 0.76511  0.23044  0.74571  Biso   1.000  O
  O21      1.0000 0.27380  0.26261  0.49935  Biso   1.000  O
  O22      1.0000 0.26064  0.27588  0.00189  Biso   1.000  O
  O23      1.0000 0.76948  0.26778  0.49690  Biso   1.000  O
  O24      1.0000 0.76805  0.27003  0.99633  Biso   1.000  O
  O25      1.0000 0.22932  0.76160  0.50547  Biso   1.000  O
  O26      1.0000 0.22511  0.78510  0.01177  Biso   1.000  O
  O27      1.0000 0.73621  0.76964  0.49626  Biso   1.000  O
  O28      1.0000 0.72446  0.76730  0.99634  Biso   1.000  O
  O29      1.0000 0.25702  0.67495  0.26551  Biso   1.000  O
  O30      1.0000 0.22863  0.74078  0.75491  Biso   1.000  O
  O31      1.0000 0.73662  0.73847  0.24651  Biso   1.000  O
  O32      1.0000 0.72869  0.72918  0.74517  Biso   1.000  O
