data_image0
_cell_length_a       5.09487
_cell_length_b       10.2843
_cell_length_c       10.5152
_cell_angle_alpha    90.0369
_cell_angle_beta     80.8408
_cell_angle_gamma    89.2745

_symmetry_space_group_name_H-M    "P 1"
_symmetry_int_tables_number       1

loop_
  _symmetry_equiv_pos_as_xyz
  'x, y, z'

loop_
  _atom_site_label
  _atom_site_occupancy
  _atom_site_fract_x
  _atom_site_fract_y
  _atom_site_fract_z
  _atom_site_thermal_displace_type
  _atom_site_B_iso_or_equiv
  _atom_site_type_symbol
  Pd1      1.0000 0.24700  0.00919  0.16870  Biso   1.000  Pd
  Zr1      1.0000 0.27423  0.02116  0.64368  Biso   1.000  Zr
  Zr2      1.0000 0.27531  0.52119  0.14408  Biso   1.000  Zr
  Zr3      1.0000 0.28056  0.52035  0.64808  Biso   1.000  Zr
  Zr4      1.0000 0.27921  0.23146  0.39140  Biso   1.000  Zr
  Zr5      1.0000 0.29011  0.22526  0.89671  Biso   1.000  Zr
  Zr6      1.0000 0.26957  0.72513  0.39771  Biso   1.000  Zr
  Zr7      1.0000 0.27365  0.73295  0.89608  Biso   1.000  Zr
  Zr8      1.0000 0.73223  0.26405  0.10334  Biso   1.000  Zr
  Zr9      1.0000 0.72429  0.27176  0.60442  Biso   1.000  Zr
  Zr10     1.0000 0.71329  0.77339  0.10185  Biso   1.000  Zr
  Zr11     1.0000 0.71991  0.77113  0.60739  Biso   1.000  Zr
  Zr12     1.0000 0.72254  0.47897  0.35336  Biso   1.000  Zr
  Zr13     1.0000 0.72967  0.47774  0.85775  Biso   1.000  Zr
  Zr14     1.0000 0.70728  0.97613  0.35521  Biso   1.000  Zr
  Zr15     1.0000 0.72456  0.98489  0.85499  Biso   1.000  Zr
  O1       1.0000 0.08985  0.15560  0.08059  Biso   1.000  O
  O2       1.0000 0.06805  0.16403  0.57085  Biso   1.000  O
  O3       1.0000 0.06725  0.66961  0.07886  Biso   1.000  O
  O4       1.0000 0.06588  0.66438  0.57870  Biso   1.000  O
  O5       1.0000 0.05472  0.08595  0.32574  Biso   1.000  O
  O6       1.0000 0.07654  0.08432  0.82429  Biso   1.000  O
  O7       1.0000 0.06944  0.58056  0.32899  Biso   1.000  O
  O8       1.0000 0.07090  0.58587  0.82896  Biso   1.000  O
  O9       1.0000 0.93633  0.41499  0.17307  Biso   1.000  O
  O10      1.0000 0.93856  0.41279  0.67593  Biso   1.000  O
  O11      1.0000 0.91661  0.91651  0.17221  Biso   1.000  O
  O12      1.0000 0.93112  0.91627  0.67106  Biso   1.000  O
  O13      1.0000 0.93225  0.33443  0.42269  Biso   1.000  O
  O14      1.0000 0.95129  0.33764  0.92982  Biso   1.000  O
  O15      1.0000 0.92539  0.83302  0.42210  Biso   1.000  O
  O16      1.0000 0.91968  0.83228  0.92130  Biso   1.000  O
  O17      1.0000 0.53495  0.11971  0.23191  Biso   1.000  O
  O18      1.0000 0.55207  0.12747  0.73241  Biso   1.000  O
  O19      1.0000 0.54869  0.63029  0.24088  Biso   1.000  O
  O20      1.0000 0.55217  0.62849  0.74176  Biso   1.000  O
  O21      1.0000 0.55298  0.12210  0.48410  Biso   1.000  O
  O22      1.0000 0.59507  0.13857  0.97183  Biso   1.000  O
  O23      1.0000 0.55040  0.62016  0.49198  Biso   1.000  O
  O24      1.0000 0.54982  0.62603  0.99025  Biso   1.000  O
  O25      1.0000 0.46021  0.38193  0.01104  Biso   1.000  O
  O26      1.0000 0.44766  0.37761  0.50921  Biso   1.000  O
  O27      1.0000 0.44087  0.89532  0.01458  Biso   1.000  O
  O28      1.0000 0.44382  0.87720  0.50922  Biso   1.000  O
  O29      1.0000 0.45790  0.36844  0.25868  Biso   1.000  O
  O30      1.0000 0.45777  0.37122  0.76126  Biso   1.000  O
  O31      1.0000 0.42928  0.87048  0.25988  Biso   1.000  O
  O32      1.0000 0.44907  0.87199  0.76110  Biso   1.000  O
