data_image0
_cell_length_a       10.0854
_cell_length_b       5.12481
_cell_length_c       10.0854
_cell_angle_alpha    90.8359
_cell_angle_beta     92.12
_cell_angle_gamma    89.163

_symmetry_space_group_name_H-M    "P 1"
_symmetry_int_tables_number       1

loop_
  _symmetry_equiv_pos_as_xyz
  'x, y, z'

loop_
  _atom_site_label
  _atom_site_occupancy
  _atom_site_fract_x
  _atom_site_fract_y
  _atom_site_fract_z
  _atom_site_thermal_displace_type
  _atom_site_B_iso_or_equiv
  _atom_site_type_symbol
  Pd1      1.0000 0.12847  0.08917  0.12177  Biso   1.000  Pd
  Zr1      1.0000 0.11816  0.01358  0.63108  Biso   1.000  Zr
  Zr2      1.0000 0.61915  0.01359  0.13207  Biso   1.000  Zr
  Zr3      1.0000 0.62408  0.99498  0.62612  Biso   1.000  Zr
  Zr4      1.0000 0.10833  0.48179  0.38637  Biso   1.000  Zr
  Zr5      1.0000 0.12911  0.50994  0.87777  Biso   1.000  Zr
  Zr6      1.0000 0.61430  0.49497  0.38105  Biso   1.000  Zr
  Zr7      1.0000 0.62799  0.49828  0.87887  Biso   1.000  Zr
  Zr8      1.0000 0.37245  0.50991  0.12114  Biso   1.000  Zr
  Zr9      1.0000 0.37135  0.49828  0.62224  Biso   1.000  Zr
  Zr10     1.0000 0.86385  0.48178  0.14189  Biso   1.000  Zr
  Zr11     1.0000 0.86918  0.49495  0.63593  Biso   1.000  Zr
  Zr12     1.0000 0.36599  0.99496  0.37029  Biso   1.000  Zr
  Zr13     1.0000 0.38222  0.99307  0.86801  Biso   1.000  Zr
  Zr14     1.0000 0.86936  0.97651  0.38087  Biso   1.000  Zr
  Zr15     1.0000 0.87993  0.99494  0.88421  Biso   1.000  Zr
  O1       1.0000 0.00797  0.32832  0.01395  Biso   1.000  O
  O2       1.0000 0.98706  0.27799  0.50584  Biso   1.000  O
  O3       1.0000 0.50174  0.29709  0.99743  Biso   1.000  O
  O4       1.0000 0.48897  0.28537  0.49389  Biso   1.000  O
  O5       1.0000 0.99295  0.17048  0.25728  Biso   1.000  O
  O6       1.0000 0.00349  0.21596  0.75975  Biso   1.000  O
  O7       1.0000 0.49047  0.21596  0.24676  Biso   1.000  O
  O8       1.0000 0.50401  0.20859  0.74624  Biso   1.000  O
  O9       1.0000 0.97971  0.67947  0.27051  Biso   1.000  O
  O10      1.0000 0.99688  0.71451  0.75965  Biso   1.000  O
  O11      1.0000 0.49058  0.71454  0.25333  Biso   1.000  O
  O12      1.0000 0.50099  0.70279  0.74922  Biso   1.000  O
  O13      1.0000 0.03454  0.84015  0.00178  Biso   1.000  O
  O14      1.0000 0.00166  0.77574  0.51224  Biso   1.000  O
  O15      1.0000 0.52075  0.79521  0.99607  Biso   1.000  O
  O16      1.0000 0.49983  0.78806  0.49954  Biso   1.000  O
  O17      1.0000 0.23630  0.32822  0.24230  Biso   1.000  O
  O18      1.0000 0.25282  0.29706  0.74850  Biso   1.000  O
  O19      1.0000 0.74438  0.27799  0.26316  Biso   1.000  O
  O20      1.0000 0.75635  0.28536  0.76125  Biso   1.000  O
  O21      1.0000 0.25600  0.19002  0.99426  Biso   1.000  O
  O22      1.0000 0.23809  0.19395  0.49771  Biso   1.000  O
  O23      1.0000 0.75254  0.19394  0.01214  Biso   1.000  O
  O24      1.0000 0.74204  0.20074  0.50818  Biso   1.000  O
  O25      1.0000 0.28551  0.68108  0.96474  Biso   1.000  O
  O26      1.0000 0.25887  0.68984  0.47284  Biso   1.000  O
  O27      1.0000 0.77741  0.68982  0.99135  Biso   1.000  O
  O28      1.0000 0.75068  0.69858  0.49954  Biso   1.000  O
  O29      1.0000 0.24840  0.84006  0.21572  Biso   1.000  O
  O30      1.0000 0.25412  0.79517  0.72952  Biso   1.000  O
  O31      1.0000 0.73799  0.77573  0.24857  Biso   1.000  O
  O32      1.0000 0.75068  0.78806  0.75038  Biso   1.000  O
