data_image0
_cell_length_a       10.2165
_cell_length_b       10.3803
_cell_length_c       10.5297
_cell_angle_alpha    90.2686
_cell_angle_beta     80.141
_cell_angle_gamma    90.0525

_symmetry_space_group_name_H-M    "P 1"
_symmetry_int_tables_number       1

loop_
  _symmetry_equiv_pos_as_xyz
  'x, y, z'

loop_
  _atom_site_label
  _atom_site_occupancy
  _atom_site_fract_x
  _atom_site_fract_y
  _atom_site_fract_z
  _atom_site_thermal_displace_type
  _atom_site_B_iso_or_equiv
  _atom_site_type_symbol
  Zr1      1.0000 0.13580  0.02273  0.14604  Biso   1.000  Zr
  Zr2      1.0000 0.13887  0.22952  0.39568  Biso   1.000  Zr
  Zr3      1.0000 0.35637  0.27659  0.09743  Biso   1.000  Zr
  Zr4      1.0000 0.35855  0.47936  0.34997  Biso   1.000  Zr
  O1       1.0000 0.03400  0.16979  0.07912  Biso   1.000  O
  O2       1.0000 0.03369  0.08145  0.33005  Biso   1.000  O
  O3       1.0000 0.45990  0.42923  0.16117  Biso   1.000  O
  O4       1.0000 0.48224  0.35724  0.43477  Biso   1.000  O
  O5       1.0000 0.27309  0.12977  0.23876  Biso   1.000  O
  O6       1.0000 0.26935  0.11193  0.49530  Biso   1.000  O
  O7       1.0000 0.22067  0.38240  0.00488  Biso   1.000  O
  O8       1.0000 0.21339  0.37677  0.25467  Biso   1.000  O
  Zr5      1.0000 0.13699  0.01940  0.64720  Biso   1.000  Zr
  Zr6      1.0000 0.13644  0.22899  0.89399  Biso   1.000  Zr
  Zr7      1.0000 0.36087  0.27330  0.60610  Biso   1.000  Zr
  Zr8      1.0000 0.35969  0.48013  0.85451  Biso   1.000  Zr
  O9       1.0000 0.03548  0.16918  0.58127  Biso   1.000  O
  O10      1.0000 0.03304  0.08132  0.83016  Biso   1.000  O
  O11      1.0000 0.46562  0.41612  0.67614  Biso   1.000  O
  O12      1.0000 0.46420  0.33263  0.91917  Biso   1.000  O
  O13      1.0000 0.27474  0.12962  0.74097  Biso   1.000  O
  O14      1.0000 0.27311  0.12330  0.98924  Biso   1.000  O
  O15      1.0000 0.22566  0.37668  0.50918  Biso   1.000  O
  O16      1.0000 0.22356  0.37152  0.75794  Biso   1.000  O
  Zr9      1.0000 0.13721  0.52357  0.14443  Biso   1.000  Zr
  Zr10     1.0000 0.13731  0.72803  0.39662  Biso   1.000  Zr
  Zr11     1.0000 0.35990  0.77281  0.10475  Biso   1.000  Zr
  Zr12     1.0000 0.36140  0.96821  0.35994  Biso   1.000  Zr
  O17      1.0000 0.03337  0.67126  0.07958  Biso   1.000  O
  O18      1.0000 0.03313  0.58359  0.32878  Biso   1.000  O
  O19      1.0000 0.46322  0.92022  0.17299  Biso   1.000  O
  O20      1.0000 0.46169  0.82265  0.42217  Biso   1.000  O
  O21      1.0000 0.27397  0.63103  0.24073  Biso   1.000  O
  O22      1.0000 0.27277  0.61857  0.49100  Biso   1.000  O
  O23      1.0000 0.22321  0.88074  0.01079  Biso   1.000  O
  O24      1.0000 0.22302  0.87105  0.26148  Biso   1.000  O
  Zr13     1.0000 0.13778  0.52147  0.64520  Biso   1.000  Zr
  Zr14     1.0000 0.13672  0.72981  0.89645  Biso   1.000  Zr
  Zr15     1.0000 0.36082  0.76821  0.60674  Biso   1.000  Zr
  Zr16     1.0000 0.35978  0.97976  0.85494  Biso   1.000  Zr
  O25      1.0000 0.03248  0.66744  0.58010  Biso   1.000  O
  O26      1.0000 0.03438  0.58217  0.83008  Biso   1.000  O
  O27      1.0000 0.46359  0.91782  0.67006  Biso   1.000  O
  O28      1.0000 0.46369  0.83379  0.92089  Biso   1.000  O
  O29      1.0000 0.27447  0.62800  0.74108  Biso   1.000  O
  O30      1.0000 0.27465  0.62388  0.99078  Biso   1.000  O
  O31      1.0000 0.22309  0.87337  0.51249  Biso   1.000  O
  O32      1.0000 0.22338  0.87105  0.76111  Biso   1.000  O
  Zr17     1.0000 0.63862  0.02066  0.14750  Biso   1.000  Zr
  Zr18     1.0000 0.65117  0.23079  0.40205  Biso   1.000  Zr
  Zr19     1.0000 0.86001  0.27279  0.10518  Biso   1.000  Zr
  Zr20     1.0000 0.86261  0.47894  0.35451  Biso   1.000  Zr
  O33      1.0000 0.53127  0.16709  0.07958  Biso   1.000  O
  O34      1.0000 0.55206  0.05770  0.34391  Biso   1.000  O
  O35      1.0000 0.96317  0.42110  0.16856  Biso   1.000  O
  O36      1.0000 0.96499  0.33149  0.42093  Biso   1.000  O
  O37      1.0000 0.77763  0.13040  0.24113  Biso   1.000  O
  O38      1.0000 0.77972  0.11951  0.49419  Biso   1.000  O
  O39      1.0000 0.72284  0.37940  0.01105  Biso   1.000  O
  O40      1.0000 0.72506  0.37233  0.26110  Biso   1.000  O
  Zr21     1.0000 0.63697  0.02135  0.64577  Biso   1.000  Zr
  Zr22     1.0000 0.63786  0.22861  0.89694  Biso   1.000  Zr
  Zr23     1.0000 0.86369  0.27085  0.60821  Biso   1.000  Zr
  Zr24     1.0000 0.86021  0.47937  0.85601  Biso   1.000  Zr
  O41      1.0000 0.53488  0.16929  0.57927  Biso   1.000  O
  O42      1.0000 0.53329  0.08268  0.82887  Biso   1.000  O
  O43      1.0000 0.96477  0.41943  0.67156  Biso   1.000  O
  O44      1.0000 0.96277  0.33144  0.91954  Biso   1.000  O
  O45      1.0000 0.77402  0.12894  0.74249  Biso   1.000  O
  O46      1.0000 0.77382  0.12196  0.99208  Biso   1.000  O
  O47      1.0000 0.72857  0.37787  0.51331  Biso   1.000  O
  O48      1.0000 0.72433  0.37140  0.76210  Biso   1.000  O
  Zr25     1.0000 0.63696  0.52369  0.14492  Biso   1.000  Zr
  Zr26     1.0000 0.63936  0.72600  0.39538  Biso   1.000  Zr
  Zr27     1.0000 0.85952  0.77136  0.10479  Biso   1.000  Zr
  Zr28     1.0000 0.86059  0.97724  0.35504  Biso   1.000  Zr
  O49      1.0000 0.53526  0.67323  0.07934  Biso   1.000  O
  O50      1.0000 0.53283  0.58526  0.32525  Biso   1.000  O
  O51      1.0000 0.96394  0.91917  0.17032  Biso   1.000  O
  O52      1.0000 0.96376  0.83160  0.42133  Biso   1.000  O
  O53      1.0000 0.77566  0.62842  0.24076  Biso   1.000  O
  O54      1.0000 0.77452  0.61998  0.49084  Biso   1.000  O
  O55      1.0000 0.72289  0.88041  0.01079  Biso   1.000  O
  O56      1.0000 0.72538  0.86867  0.25913  Biso   1.000  O
  Zr29     1.0000 0.63847  0.52081  0.64736  Biso   1.000  Zr
  Zr30     1.0000 0.63691  0.73001  0.89589  Biso   1.000  Zr
  Zr31     1.0000 0.85942  0.77137  0.60512  Biso   1.000  Zr
  Zr32     1.0000 0.85902  0.97905  0.85555  Biso   1.000  Zr
  O57      1.0000 0.53442  0.66521  0.58017  Biso   1.000  O
  O58      1.0000 0.53353  0.58329  0.83049  Biso   1.000  O
  O59      1.0000 0.96251  0.91830  0.67092  Biso   1.000  O
  O60      1.0000 0.96302  0.83233  0.92035  Biso   1.000  O
  O61      1.0000 0.77442  0.62910  0.74104  Biso   1.000  O
  O62      1.0000 0.77412  0.62236  0.99063  Biso   1.000  O
  O63      1.0000 0.72267  0.87782  0.51017  Biso   1.000  O
  O64      1.0000 0.72232  0.87193  0.76030  Biso   1.000  O
  Pd1      1.0000 0.42635  0.21804  0.31906  Biso   1.000  Pd
