data_image0
_cell_length_a       10.1745
_cell_length_b       10.3291
_cell_length_c       5.08648
_cell_angle_alpha    90.9555
_cell_angle_beta     90.3226
_cell_angle_gamma    90.8761

_symmetry_space_group_name_H-M    "P 1"
_symmetry_int_tables_number       1

loop_
  _symmetry_equiv_pos_as_xyz
  'x, y, z'

loop_
  _atom_site_label
  _atom_site_occupancy
  _atom_site_fract_x
  _atom_site_fract_y
  _atom_site_fract_z
  _atom_site_thermal_displace_type
  _atom_site_B_iso_or_equiv
  _atom_site_type_symbol
  Zr1      1.0000 0.14495  0.97725  0.31439  Biso   1.000  Zr
  Zr2      1.0000 0.11248  0.27246  0.66698  Biso   1.000  Zr
  Zr3      1.0000 0.37624  0.24004  0.25055  Biso   1.000  Zr
  Zr4      1.0000 0.39193  0.00745  0.76002  Biso   1.000  Zr
  O1       1.0000 0.95161  0.18639  0.89483  Biso   1.000  O
  O2       1.0000 0.00330  0.11572  0.44779  Biso   1.000  O
  O3       1.0000 0.98097  0.37933  0.43973  Biso   1.000  O
  O4       1.0000 0.02827  0.42712  0.91779  Biso   1.000  O
  O5       1.0000 0.25734  0.13458  0.56159  Biso   1.000  O
  O6       1.0000 0.28622  0.06421  0.08225  Biso   1.000  O
  O7       1.0000 0.26898  0.32449  0.94530  Biso   1.000  O
  O8       1.0000 0.24498  0.39860  0.46290  Biso   1.000  O
  Zr5      1.0000 0.11390  0.51628  0.24663  Biso   1.000  Zr
  Zr6      1.0000 0.13561  0.73972  0.76463  Biso   1.000  Zr
  Zr7      1.0000 0.38341  0.73851  0.26489  Biso   1.000  Zr
  Zr8      1.0000 0.37593  0.48657  0.74819  Biso   1.000  Zr
  O9       1.0000 0.99717  0.66171  0.01800  Biso   1.000  O
  O10      1.0000 0.00117  0.62047  0.50880  Biso   1.000  O
  O11      1.0000 0.00455  0.86151  0.55025  Biso   1.000  O
  O12      1.0000 0.99029  0.92534  0.05679  Biso   1.000  O
  O13      1.0000 0.25199  0.63813  0.50536  Biso   1.000  O
  O14      1.0000 0.25236  0.58936  0.99464  Biso   1.000  O
  O15      1.0000 0.22648  0.82313  0.09227  Biso   1.000  O
  O16      1.0000 0.25743  0.88190  0.58600  Biso   1.000  O
  Zr9      1.0000 0.62560  0.99471  0.25630  Biso   1.000  Zr
  Zr10     1.0000 0.62400  0.25464  0.74930  Biso   1.000  Zr
  Zr11     1.0000 0.85419  0.24660  0.24393  Biso   1.000  Zr
  Zr12     1.0000 0.87772  0.00683  0.76479  Biso   1.000  Zr
  O17      1.0000 0.50712  0.14702  0.99433  Biso   1.000  O
  O18      1.0000 0.50529  0.10440  0.49367  Biso   1.000  O
  O19      1.0000 0.48999  0.34769  0.52265  Biso   1.000  O
  O20      1.0000 0.50332  0.39432  0.01630  Biso   1.000  O
  O21      1.0000 0.74912  0.14649  0.51404  Biso   1.000  O
  O22      1.0000 0.74203  0.10184  0.01576  Biso   1.000  O
  O23      1.0000 0.75456  0.36410  0.99336  Biso   1.000  O
  O24      1.0000 0.73901  0.39743  0.49905  Biso   1.000  O
  Zr13     1.0000 0.62854  0.50554  0.24076  Biso   1.000  Zr
  Zr14     1.0000 0.62634  0.74742  0.75819  Biso   1.000  Zr
  Zr15     1.0000 0.87946  0.76838  0.26635  Biso   1.000  Zr
  Zr16     1.0000 0.87125  0.50903  0.73654  Biso   1.000  Zr
  O25      1.0000 0.50041  0.64163  0.99921  Biso   1.000  O
  O26      1.0000 0.50147  0.59896  0.50103  Biso   1.000  O
  O27      1.0000 0.50572  0.85239  0.50868  Biso   1.000  O
  O28      1.0000 0.49769  0.88709  0.01301  Biso   1.000  O
  O29      1.0000 0.75233  0.65164  0.49709  Biso   1.000  O
  O30      1.0000 0.74759  0.60879  0.99361  Biso   1.000  O
  O31      1.0000 0.75180  0.85645  0.99514  Biso   1.000  O
  O32      1.0000 0.75552  0.90137  0.49676  Biso   1.000  O
  Pd1      1.0000 0.11632  0.21342  0.14105  Biso   1.000  Pd
