data_image0
_cell_length_a       10.1181
_cell_length_b       10.3388
_cell_length_c       10.5326
_cell_angle_alpha    89.7749
_cell_angle_beta     90.2694
_cell_angle_gamma    90.02

_symmetry_space_group_name_H-M    "P 1"
_symmetry_int_tables_number       1

loop_
  _symmetry_equiv_pos_as_xyz
  'x, y, z'

loop_
  _atom_site_label
  _atom_site_occupancy
  _atom_site_fract_x
  _atom_site_fract_y
  _atom_site_fract_z
  _atom_site_thermal_displace_type
  _atom_site_B_iso_or_equiv
  _atom_site_type_symbol
  Zr1      1.0000 0.13762  0.02034  0.17140  Biso   1.000  Zr
  Zr2      1.0000 0.13723  0.22803  0.42451  Biso   1.000  Zr
  Zr3      1.0000 0.35038  0.26949  0.17906  Biso   1.000  Zr
  Zr4      1.0000 0.36306  0.47874  0.42136  Biso   1.000  Zr
  Zr5      1.0000 0.64130  0.01945  0.07419  Biso   1.000  Zr
  Zr6      1.0000 0.63939  0.22720  0.32955  Biso   1.000  Zr
  Zr7      1.0000 0.86164  0.27074  0.07890  Biso   1.000  Zr
  Zr8      1.0000 0.86346  0.48002  0.33104  Biso   1.000  Zr
  O1       1.0000 0.03292  0.16472  0.08359  Biso   1.000  O
  O2       1.0000 0.03125  0.08557  0.33345  Biso   1.000  O
  O3       1.0000 0.45019  0.44206  0.10221  Biso   1.000  O
  O4       1.0000 0.46707  0.33212  0.33391  Biso   1.000  O
  O5       1.0000 0.27108  0.12500  0.29843  Biso   1.000  O
  O6       1.0000 0.27482  0.12400  0.04589  Biso   1.000  O
  O7       1.0000 0.22168  0.37533  0.29865  Biso   1.000  O
  O8       1.0000 0.22240  0.37433  0.04558  Biso   1.000  O
  O9       1.0000 0.51793  0.14228  0.18142  Biso   1.000  O
  O10      1.0000 0.53226  0.08600  0.42140  Biso   1.000  O
  O11      1.0000 0.96892  0.41450  0.16802  Biso   1.000  O
  O12      1.0000 0.96839  0.33597  0.41936  Biso   1.000  O
  O13      1.0000 0.77568  0.12443  0.45393  Biso   1.000  O
  O14      1.0000 0.77455  0.12636  0.20518  Biso   1.000  O
  O15      1.0000 0.72494  0.37338  0.45690  Biso   1.000  O
  O16      1.0000 0.72955  0.38231  0.21129  Biso   1.000  O
  Zr9      1.0000 0.14062  0.02015  0.67216  Biso   1.000  Zr
  Zr10     1.0000 0.13942  0.22775  0.92153  Biso   1.000  Zr
  Zr11     1.0000 0.36230  0.27120  0.67294  Biso   1.000  Zr
  Zr12     1.0000 0.36085  0.48087  0.92300  Biso   1.000  Zr
  Zr13     1.0000 0.63996  0.01960  0.57849  Biso   1.000  Zr
  Zr14     1.0000 0.64297  0.22348  0.82167  Biso   1.000  Zr
  Zr15     1.0000 0.86219  0.27103  0.57908  Biso   1.000  Zr
  Zr16     1.0000 0.86376  0.47926  0.82923  Biso   1.000  Zr
  O17      1.0000 0.03266  0.16382  0.58419  Biso   1.000  O
  O18      1.0000 0.03538  0.08316  0.83280  Biso   1.000  O
  O19      1.0000 0.46889  0.41475  0.58307  Biso   1.000  O
  O20      1.0000 0.47068  0.33533  0.83390  Biso   1.000  O
  O21      1.0000 0.27738  0.12401  0.79557  Biso   1.000  O
  O22      1.0000 0.27599  0.12512  0.54673  Biso   1.000  O
  O23      1.0000 0.22626  0.37369  0.79640  Biso   1.000  O
  O24      1.0000 0.22605  0.37490  0.54678  Biso   1.000  O
  O25      1.0000 0.53355  0.16486  0.66513  Biso   1.000  O
  O26      1.0000 0.53701  0.07232  0.90610  Biso   1.000  O
  O27      1.0000 0.96884  0.41454  0.66774  Biso   1.000  O
  O28      1.0000 0.96878  0.33451  0.91689  Biso   1.000  O
  O29      1.0000 0.78502  0.11978  0.94929  Biso   1.000  O
  O30      1.0000 0.77832  0.12232  0.70101  Biso   1.000  O
  O31      1.0000 0.72751  0.37648  0.95547  Biso   1.000  O
  O32      1.0000 0.72721  0.37398  0.70525  Biso   1.000  O
  Zr17     1.0000 0.13895  0.52164  0.17100  Biso   1.000  Zr
  Zr18     1.0000 0.13998  0.72881  0.42117  Biso   1.000  Zr
  Zr19     1.0000 0.36106  0.77308  0.17182  Biso   1.000  Zr
  Zr20     1.0000 0.36207  0.97887  0.42334  Biso   1.000  Zr
  Zr21     1.0000 0.63910  0.53043  0.08370  Biso   1.000  Zr
  Zr22     1.0000 0.63978  0.73192  0.33045  Biso   1.000  Zr
  Zr23     1.0000 0.86260  0.77160  0.07967  Biso   1.000  Zr
  Zr24     1.0000 0.86180  0.97927  0.32905  Biso   1.000  Zr
  O33      1.0000 0.03276  0.66462  0.08299  Biso   1.000  O
  O34      1.0000 0.03438  0.58625  0.33235  Biso   1.000  O
  O35      1.0000 0.46829  0.91268  0.08018  Biso   1.000  O
  O36      1.0000 0.46788  0.83659  0.33461  Biso   1.000  O
  O37      1.0000 0.27683  0.62486  0.29475  Biso   1.000  O
  O38      1.0000 0.27447  0.62779  0.04390  Biso   1.000  O
  O39      1.0000 0.22544  0.87525  0.29589  Biso   1.000  O
  O40      1.0000 0.22364  0.87554  0.04597  Biso   1.000  O
  O41      1.0000 0.53670  0.67489  0.16665  Biso   1.000  O
  O42      1.0000 0.53400  0.58441  0.41534  Biso   1.000  O
  O43      1.0000 0.96788  0.91526  0.16729  Biso   1.000  O
  O44      1.0000 0.96812  0.83424  0.41677  Biso   1.000  O
  O45      1.0000 0.77625  0.62450  0.45603  Biso   1.000  O
  O46      1.0000 0.77730  0.62915  0.20705  Biso   1.000  O
  O47      1.0000 0.72599  0.87486  0.45596  Biso   1.000  O
  O48      1.0000 0.72626  0.87706  0.20568  Biso   1.000  O
  Zr25     1.0000 0.14009  0.51984  0.67134  Biso   1.000  Zr
  Zr26     1.0000 0.13942  0.72893  0.92127  Biso   1.000  Zr
  Zr27     1.0000 0.36276  0.76925  0.67152  Biso   1.000  Zr
  Zr28     1.0000 0.36231  0.97683  0.92087  Biso   1.000  Zr
  Zr29     1.0000 0.64005  0.52016  0.57857  Biso   1.000  Zr
  Zr30     1.0000 0.63977  0.72788  0.82835  Biso   1.000  Zr
  Zr31     1.0000 0.86354  0.77018  0.57924  Biso   1.000  Zr
  Zr32     1.0000 0.86410  0.97653  0.82830  Biso   1.000  Zr
  O49      1.0000 0.03415  0.66382  0.58284  Biso   1.000  O
  O50      1.0000 0.03387  0.58486  0.83288  Biso   1.000  O
  O51      1.0000 0.46882  0.91374  0.58452  Biso   1.000  O
  O52      1.0000 0.46684  0.82934  0.83369  Biso   1.000  O
  O53      1.0000 0.27641  0.62278  0.79533  Biso   1.000  O
  O54      1.0000 0.27660  0.62436  0.54476  Biso   1.000  O
  O55      1.0000 0.22597  0.87311  0.79520  Biso   1.000  O
  O56      1.0000 0.22610  0.87484  0.54549  Biso   1.000  O
  O57      1.0000 0.53381  0.66360  0.66624  Biso   1.000  O
  O58      1.0000 0.53473  0.58235  0.91784  Biso   1.000  O
  O59      1.0000 0.97033  0.91319  0.66621  Biso   1.000  O
  O60      1.0000 0.96905  0.83447  0.91780  Biso   1.000  O
  O61      1.0000 0.77682  0.62532  0.95601  Biso   1.000  O
  O62      1.0000 0.77669  0.62413  0.70530  Biso   1.000  O
  O63      1.0000 0.72604  0.87210  0.95524  Biso   1.000  O
  O64      1.0000 0.72655  0.87338  0.70531  Biso   1.000  O
  Pd1      1.0000 0.57271  0.28102  0.05364  Biso   1.000  Pd
