data_image0
_cell_length_a       10.137
_cell_length_b       5.18811
_cell_length_c       10.569
_cell_angle_alpha    89.5282
_cell_angle_beta     90.5381
_cell_angle_gamma    90.0589

_symmetry_space_group_name_H-M    "P 1"
_symmetry_int_tables_number       1

loop_
  _symmetry_equiv_pos_as_xyz
  'x, y, z'

loop_
  _atom_site_label
  _atom_site_occupancy
  _atom_site_fract_x
  _atom_site_fract_y
  _atom_site_fract_z
  _atom_site_thermal_displace_type
  _atom_site_B_iso_or_equiv
  _atom_site_type_symbol
  Zr1      1.0000 0.13757  0.04197  0.17128  Biso   1.000  Zr
  Zr2      1.0000 0.13859  0.45540  0.42440  Biso   1.000  Zr
  Zr3      1.0000 0.35113  0.54359  0.17979  Biso   1.000  Zr
  Zr4      1.0000 0.36361  0.95708  0.42392  Biso   1.000  Zr
  Zr5      1.0000 0.64268  0.05815  0.07893  Biso   1.000  Zr
  Zr6      1.0000 0.64085  0.46025  0.33210  Biso   1.000  Zr
  Zr7      1.0000 0.86234  0.54248  0.07953  Biso   1.000  Zr
  Zr8      1.0000 0.86404  0.96026  0.33136  Biso   1.000  Zr
  O1       1.0000 0.03243  0.32702  0.08276  Biso   1.000  O
  O2       1.0000 0.03291  0.17441  0.33216  Biso   1.000  O
  O3       1.0000 0.45084  0.87793  0.09764  Biso   1.000  O
  O4       1.0000 0.46830  0.67138  0.33455  Biso   1.000  O
  O5       1.0000 0.27253  0.25124  0.29823  Biso   1.000  O
  O6       1.0000 0.27370  0.25236  0.04531  Biso   1.000  O
  O7       1.0000 0.22298  0.75215  0.29955  Biso   1.000  O
  O8       1.0000 0.22115  0.74838  0.04676  Biso   1.000  O
  O9       1.0000 0.52157  0.30276  0.18451  Biso   1.000  O
  O10      1.0000 0.53302  0.17339  0.42168  Biso   1.000  O
  O11      1.0000 0.96914  0.82796  0.16921  Biso   1.000  O
  O12      1.0000 0.96938  0.67115  0.41987  Biso   1.000  O
  O13      1.0000 0.77633  0.24918  0.45507  Biso   1.000  O
  O14      1.0000 0.77652  0.25945  0.20747  Biso   1.000  O
  O15      1.0000 0.72680  0.74809  0.45791  Biso   1.000  O
  O16      1.0000 0.73055  0.76644  0.21195  Biso   1.000  O
  Zr9      1.0000 0.14193  0.03813  0.67244  Biso   1.000  Zr
  Zr10     1.0000 0.13989  0.45599  0.92207  Biso   1.000  Zr
  Zr11     1.0000 0.36362  0.53890  0.67350  Biso   1.000  Zr
  Zr12     1.0000 0.36147  0.95875  0.92247  Biso   1.000  Zr
  Zr13     1.0000 0.64120  0.03715  0.57831  Biso   1.000  Zr
  Zr14     1.0000 0.64397  0.44384  0.82088  Biso   1.000  Zr
  Zr15     1.0000 0.86471  0.54028  0.57962  Biso   1.000  Zr
  Zr16     1.0000 0.86677  0.95398  0.82859  Biso   1.000  Zr
  O17      1.0000 0.03395  0.32385  0.58312  Biso   1.000  O
  O18      1.0000 0.03641  0.16777  0.83177  Biso   1.000  O
  O19      1.0000 0.47074  0.82421  0.58353  Biso   1.000  O
  O20      1.0000 0.47038  0.66094  0.83319  Biso   1.000  O
  O21      1.0000 0.27789  0.24564  0.79615  Biso   1.000  O
  O22      1.0000 0.27679  0.24739  0.54678  Biso   1.000  O
  O23      1.0000 0.22775  0.74539  0.79675  Biso   1.000  O
  O24      1.0000 0.22767  0.74795  0.54742  Biso   1.000  O
  O25      1.0000 0.53401  0.32361  0.66595  Biso   1.000  O
  O26      1.0000 0.53843  0.14120  0.90888  Biso   1.000  O
  O27      1.0000 0.97212  0.82408  0.66767  Biso   1.000  O
  O28      1.0000 0.97062  0.66943  0.91846  Biso   1.000  O
  O29      1.0000 0.78643  0.24119  0.94986  Biso   1.000  O
  O30      1.0000 0.77924  0.24110  0.70110  Biso   1.000  O
  O31      1.0000 0.72985  0.75090  0.95519  Biso   1.000  O
  O32      1.0000 0.72954  0.74258  0.70543  Biso   1.000  O
  Pd1      1.0000 0.57440  0.56364  0.05022  Biso   1.000  Pd
