data_image0
_cell_length_a       5.12653
_cell_length_b       10.4021
_cell_length_c       10.5646
_cell_angle_alpha    90.5293
_cell_angle_beta     79.8523
_cell_angle_gamma    90.1251

_symmetry_space_group_name_H-M    "P 1"
_symmetry_int_tables_number       1

loop_
  _symmetry_equiv_pos_as_xyz
  'x, y, z'

loop_
  _atom_site_label
  _atom_site_occupancy
  _atom_site_fract_x
  _atom_site_fract_y
  _atom_site_fract_z
  _atom_site_thermal_displace_type
  _atom_site_B_iso_or_equiv
  _atom_site_type_symbol
  Zr1      1.0000 0.27170  0.02174  0.14757  Biso   1.000  Zr
  Zr2      1.0000 0.30288  0.23175  0.40250  Biso   1.000  Zr
  Zr3      1.0000 0.71017  0.27826  0.09771  Biso   1.000  Zr
  Zr4      1.0000 0.71963  0.47953  0.34920  Biso   1.000  Zr
  O1       1.0000 0.06000  0.16792  0.07840  Biso   1.000  O
  O2       1.0000 0.10063  0.05875  0.34293  Biso   1.000  O
  O3       1.0000 0.91807  0.43073  0.15976  Biso   1.000  O
  O4       1.0000 0.96549  0.35624  0.43506  Biso   1.000  O
  O5       1.0000 0.54962  0.13131  0.23852  Biso   1.000  O
  O6       1.0000 0.54695  0.11087  0.49927  Biso   1.000  O
  O7       1.0000 0.43927  0.38294  0.00582  Biso   1.000  O
  O8       1.0000 0.42792  0.37869  0.25526  Biso   1.000  O
  Zr5      1.0000 0.27106  0.01949  0.64770  Biso   1.000  Zr
  Zr6      1.0000 0.27120  0.22911  0.89540  Biso   1.000  Zr
  Zr7      1.0000 0.72716  0.27246  0.60936  Biso   1.000  Zr
  Zr8      1.0000 0.71764  0.48092  0.85536  Biso   1.000  Zr
  O9       1.0000 0.07072  0.16912  0.58027  Biso   1.000  O
  O10      1.0000 0.06200  0.08332  0.82871  Biso   1.000  O
  O11      1.0000 0.93238  0.41635  0.67719  Biso   1.000  O
  O12      1.0000 0.92508  0.33340  0.91869  Biso   1.000  O
  O13      1.0000 0.54627  0.12963  0.74304  Biso   1.000  O
  O14      1.0000 0.54220  0.12416  0.99050  Biso   1.000  O
  O15      1.0000 0.46142  0.37622  0.51270  Biso   1.000  O
  O16      1.0000 0.44814  0.37180  0.76007  Biso   1.000  O
  Zr9      1.0000 0.27134  0.52536  0.14414  Biso   1.000  Zr
  Zr10     1.0000 0.27553  0.72528  0.39651  Biso   1.000  Zr
  Zr11     1.0000 0.71713  0.77276  0.10487  Biso   1.000  Zr
  Zr12     1.0000 0.72153  0.96750  0.36042  Biso   1.000  Zr
  O17      1.0000 0.06651  0.67509  0.07878  Biso   1.000  O
  O18      1.0000 0.06078  0.58752  0.32422  Biso   1.000  O
  O19      1.0000 0.92545  0.92038  0.17342  Biso   1.000  O
  O20      1.0000 0.92247  0.82419  0.42364  Biso   1.000  O
  O21      1.0000 0.54765  0.63042  0.24091  Biso   1.000  O
  O22      1.0000 0.54290  0.61772  0.49094  Biso   1.000  O
  O23      1.0000 0.44460  0.88208  0.01202  Biso   1.000  O
  O24      1.0000 0.44933  0.86867  0.26116  Biso   1.000  O
  Zr13     1.0000 0.27529  0.52106  0.64678  Biso   1.000  Zr
  Zr14     1.0000 0.26984  0.73099  0.89695  Biso   1.000  Zr
  Zr15     1.0000 0.71840  0.76839  0.60694  Biso   1.000  Zr
  Zr16     1.0000 0.71583  0.98010  0.85573  Biso   1.000  Zr
  O25      1.0000 0.06289  0.66357  0.57979  Biso   1.000  O
  O26      1.0000 0.06496  0.58483  0.82987  Biso   1.000  O
  O27      1.0000 0.92386  0.91673  0.67131  Biso   1.000  O
  O28      1.0000 0.92514  0.83547  0.92163  Biso   1.000  O
  O29      1.0000 0.54635  0.62820  0.74131  Biso   1.000  O
  O30      1.0000 0.54608  0.62504  0.99074  Biso   1.000  O
  O31      1.0000 0.44349  0.87265  0.51282  Biso   1.000  O
  O32      1.0000 0.44368  0.87188  0.76183  Biso   1.000  O
  Pd1      1.0000 0.85405  0.21951  0.31727  Biso   1.000  Pd
