data_image0
_cell_length_a       10.1929
_cell_length_b       5.13898
_cell_length_c       10.5337
_cell_angle_alpha    90.0024
_cell_angle_beta     80.7617
_cell_angle_gamma    89.2489

_symmetry_space_group_name_H-M    "P 1"
_symmetry_int_tables_number       1

loop_
  _symmetry_equiv_pos_as_xyz
  'x, y, z'

loop_
  _atom_site_label
  _atom_site_occupancy
  _atom_site_fract_x
  _atom_site_fract_y
  _atom_site_fract_z
  _atom_site_thermal_displace_type
  _atom_site_B_iso_or_equiv
  _atom_site_type_symbol
  Pd1      1.0000 0.12577  0.02120  0.16836  Biso   1.000  Pd
  Zr1      1.0000 0.13834  0.03922  0.64381  Biso   1.000  Zr
  Zr2      1.0000 0.63640  0.03948  0.14360  Biso   1.000  Zr
  Zr3      1.0000 0.63843  0.04322  0.64740  Biso   1.000  Zr
  Zr4      1.0000 0.13780  0.45771  0.39420  Biso   1.000  Zr
  Zr5      1.0000 0.14166  0.45400  0.89416  Biso   1.000  Zr
  Zr6      1.0000 0.63688  0.45455  0.39501  Biso   1.000  Zr
  Zr7      1.0000 0.63907  0.46177  0.89702  Biso   1.000  Zr
  Zr8      1.0000 0.35663  0.54910  0.09949  Biso   1.000  Zr
  Zr9      1.0000 0.36177  0.54553  0.60524  Biso   1.000  Zr
  Zr10     1.0000 0.86654  0.52640  0.10601  Biso   1.000  Zr
  Zr11     1.0000 0.86039  0.54036  0.60666  Biso   1.000  Zr
  Zr12     1.0000 0.36132  0.95910  0.35190  Biso   1.000  Zr
  Zr13     1.0000 0.36167  0.97242  0.85585  Biso   1.000  Zr
  Zr14     1.0000 0.85446  0.95129  0.35700  Biso   1.000  Zr
  Zr15     1.0000 0.86465  0.95358  0.85734  Biso   1.000  Zr
  O1       1.0000 0.04326  0.30929  0.07956  Biso   1.000  O
  O2       1.0000 0.03114  0.31872  0.57077  Biso   1.000  O
  O3       1.0000 0.53362  0.33307  0.07657  Biso   1.000  O
  O4       1.0000 0.53403  0.33199  0.57615  Biso   1.000  O
  O5       1.0000 0.02893  0.17113  0.32573  Biso   1.000  O
  O6       1.0000 0.03459  0.16997  0.82499  Biso   1.000  O
  O7       1.0000 0.53247  0.16634  0.32712  Biso   1.000  O
  O8       1.0000 0.53630  0.17709  0.82501  Biso   1.000  O
  O9       1.0000 0.46538  0.82801  0.17453  Biso   1.000  O
  O10      1.0000 0.46688  0.83378  0.67257  Biso   1.000  O
  O11      1.0000 0.96273  0.82775  0.17432  Biso   1.000  O
  O12      1.0000 0.96920  0.81790  0.67715  Biso   1.000  O
  O13      1.0000 0.46459  0.66770  0.42199  Biso   1.000  O
  O14      1.0000 0.47024  0.68774  0.92501  Biso   1.000  O
  O15      1.0000 0.96566  0.67205  0.42559  Biso   1.000  O
  O16      1.0000 0.96814  0.66230  0.92956  Biso   1.000  O
  O17      1.0000 0.26953  0.24943  0.23171  Biso   1.000  O
  O18      1.0000 0.27342  0.25462  0.73235  Biso   1.000  O
  O19      1.0000 0.77295  0.24943  0.24075  Biso   1.000  O
  O20      1.0000 0.77777  0.25635  0.74087  Biso   1.000  O
  O21      1.0000 0.27565  0.24484  0.48528  Biso   1.000  O
  O22      1.0000 0.29445  0.29129  0.96946  Biso   1.000  O
  O23      1.0000 0.77528  0.23995  0.49062  Biso   1.000  O
  O24      1.0000 0.77692  0.24062  0.99110  Biso   1.000  O
  O25      1.0000 0.22397  0.80084  0.01479  Biso   1.000  O
  O26      1.0000 0.22354  0.75548  0.50796  Biso   1.000  O
  O27      1.0000 0.72758  0.75332  0.01199  Biso   1.000  O
  O28      1.0000 0.72243  0.75296  0.51115  Biso   1.000  O
  O29      1.0000 0.21713  0.74356  0.25884  Biso   1.000  O
  O30      1.0000 0.22716  0.74263  0.76151  Biso   1.000  O
  O31      1.0000 0.72674  0.73566  0.26028  Biso   1.000  O
  O32      1.0000 0.72656  0.74529  0.76169  Biso   1.000  O
