data_image0
_cell_length_a       10.1622
_cell_length_b       5.1837
_cell_length_c       10.5181
_cell_angle_alpha    90.697
_cell_angle_beta     80.2461
_cell_angle_gamma    90.2248

_symmetry_space_group_name_H-M    "P 1"
_symmetry_int_tables_number       1

loop_
  _symmetry_equiv_pos_as_xyz
  'x, y, z'

loop_
  _atom_site_label
  _atom_site_occupancy
  _atom_site_fract_x
  _atom_site_fract_y
  _atom_site_fract_z
  _atom_site_thermal_displace_type
  _atom_site_B_iso_or_equiv
  _atom_site_type_symbol
  Hf1      1.0000 0.13451  0.04916  0.14467  Biso   1.000  Hf
  Hf2      1.0000 0.13707  0.45918  0.39942  Biso   1.000  Hf
  Hf3      1.0000 0.35926  0.56036  0.09733  Biso   1.000  Hf
  Hf4      1.0000 0.35491  0.93423  0.35355  Biso   1.000  Hf
  O1       1.0000 0.03317  0.34639  0.07890  Biso   1.000  O
  O2       1.0000 0.03308  0.17037  0.32725  Biso   1.000  O
  O3       1.0000 0.45536  0.87601  0.15914  Biso   1.000  O
  O4       1.0000 0.48319  0.69921  0.43963  Biso   1.000  O
  O5       1.0000 0.27594  0.26151  0.23898  Biso   1.000  O
  O6       1.0000 0.26236  0.20716  0.49722  Biso   1.000  O
  O7       1.0000 0.22072  0.76925  0.00664  Biso   1.000  O
  O8       1.0000 0.20726  0.75727  0.25645  Biso   1.000  O
  Hf5      1.0000 0.13483  0.03732  0.64941  Biso   1.000  Hf
  Hf6      1.0000 0.13509  0.46083  0.89675  Biso   1.000  Hf
  Hf7      1.0000 0.36001  0.53891  0.61017  Biso   1.000  Hf
  Hf8      1.0000 0.35886  0.96298  0.85542  Biso   1.000  Hf
  O9       1.0000 0.03208  0.33515  0.58184  Biso   1.000  O
  O10      1.0000 0.03268  0.16491  0.83128  Biso   1.000  O
  O11      1.0000 0.46410  0.82896  0.67659  Biso   1.000  O
  O12      1.0000 0.46397  0.67032  0.91902  Biso   1.000  O
  O13      1.0000 0.27444  0.25805  0.74251  Biso   1.000  O
  O14      1.0000 0.27331  0.25219  0.99029  Biso   1.000  O
  O15      1.0000 0.22302  0.73980  0.51647  Biso   1.000  O
  O16      1.0000 0.22260  0.74223  0.76138  Biso   1.000  O
  Hf9      1.0000 0.63698  0.04675  0.14413  Biso   1.000  Hf
  Hf10     1.0000 0.65283  0.45333  0.40010  Biso   1.000  Hf
  Hf11     1.0000 0.85887  0.54537  0.10408  Biso   1.000  Hf
  Hf12     1.0000 0.86332  0.95493  0.35330  Biso   1.000  Hf
  O17      1.0000 0.53511  0.34667  0.07587  Biso   1.000  O
  O18      1.0000 0.55175  0.11811  0.33587  Biso   1.000  O
  O19      1.0000 0.96219  0.84520  0.16740  Biso   1.000  O
  O20      1.0000 0.96427  0.66634  0.42311  Biso   1.000  O
  O21      1.0000 0.77879  0.26021  0.23952  Biso   1.000  O
  O22      1.0000 0.77950  0.23537  0.49265  Biso   1.000  O
  O23      1.0000 0.72185  0.76294  0.01114  Biso   1.000  O
  O24      1.0000 0.72687  0.73788  0.26007  Biso   1.000  O
  Hf13     1.0000 0.63685  0.04047  0.64697  Biso   1.000  Hf
  Hf14     1.0000 0.63714  0.46005  0.89559  Biso   1.000  Hf
  Hf15     1.0000 0.86150  0.54142  0.60770  Biso   1.000  Hf
  Hf16     1.0000 0.85864  0.95894  0.85627  Biso   1.000  Hf
  O25      1.0000 0.53428  0.32730  0.57733  Biso   1.000  O
  O26      1.0000 0.53272  0.16935  0.82792  Biso   1.000  O
  O27      1.0000 0.96163  0.83681  0.67319  Biso   1.000  O
  O28      1.0000 0.96147  0.66577  0.91995  Biso   1.000  O
  O29      1.0000 0.77356  0.25824  0.74137  Biso   1.000  O
  O30      1.0000 0.77406  0.24668  0.99021  Biso   1.000  O
  O31      1.0000 0.72670  0.75302  0.51289  Biso   1.000  O
  O32      1.0000 0.72209  0.74367  0.76189  Biso   1.000  O
  Pt1      1.0000 0.41652  0.44335  0.32615  Biso   1.000  Pt
