data_image0
_cell_length_a       9.96238
_cell_length_b       5.16012
_cell_length_c       10.0003
_cell_angle_alpha    89.5874
_cell_angle_beta     89.6056
_cell_angle_gamma    89.4549

_symmetry_space_group_name_H-M    "P 1"
_symmetry_int_tables_number       1

loop_
  _symmetry_equiv_pos_as_xyz
  'x, y, z'

loop_
  _atom_site_label
  _atom_site_occupancy
  _atom_site_fract_x
  _atom_site_fract_y
  _atom_site_fract_z
  _atom_site_thermal_displace_type
  _atom_site_B_iso_or_equiv
  _atom_site_type_symbol
  Pt1      1.0000 0.12336  0.01700  0.10724  Biso   1.000  Pt
  Hf1      1.0000 0.13764  0.46722  0.37393  Biso   1.000  Hf
  Hf2      1.0000 0.36644  0.54483  0.13199  Biso   1.000  Hf
  Hf3      1.0000 0.36320  0.97980  0.37765  Biso   1.000  Hf
  O1       1.0000 0.04252  0.33943  0.19336  Biso   1.000  O
  O2       1.0000 0.03697  0.13832  0.44774  Biso   1.000  O
  O3       1.0000 0.46550  0.87281  0.19763  Biso   1.000  O
  O4       1.0000 0.46664  0.64176  0.44751  Biso   1.000  O
  O5       1.0000 0.29783  0.29883  0.26958  Biso   1.000  O
  O6       1.0000 0.26709  0.26474  0.50852  Biso   1.000  O
  O7       1.0000 0.22965  0.76449  0.50039  Biso   1.000  O
  O8       1.0000 0.22158  0.78534  0.24925  Biso   1.000  O
  Hf4      1.0000 0.13323  0.03336  0.62910  Biso   1.000  Hf
  Hf5      1.0000 0.13448  0.46250  0.87844  Biso   1.000  Hf
  Hf6      1.0000 0.36561  0.53635  0.62666  Biso   1.000  Hf
  Hf7      1.0000 0.36634  0.96378  0.87780  Biso   1.000  Hf
  O9       1.0000 0.03386  0.36506  0.70022  Biso   1.000  O
  O10      1.0000 0.03126  0.13426  0.94316  Biso   1.000  O
  O11      1.0000 0.46181  0.87245  0.69449  Biso   1.000  O
  O12      1.0000 0.45445  0.61658  0.94045  Biso   1.000  O
  O13      1.0000 0.27005  0.23668  0.75622  Biso   1.000  O
  O14      1.0000 0.26676  0.23870  0.01252  Biso   1.000  O
  O15      1.0000 0.22278  0.74955  0.00347  Biso   1.000  O
  O16      1.0000 0.22783  0.73626  0.75244  Biso   1.000  O
  Hf8      1.0000 0.63624  0.03229  0.12683  Biso   1.000  Hf
  Hf9      1.0000 0.63437  0.47369  0.37271  Biso   1.000  Hf
  Hf10     1.0000 0.86840  0.52072  0.12251  Biso   1.000  Hf
  Hf11     1.0000 0.87145  0.96939  0.37497  Biso   1.000  Hf
  O17      1.0000 0.54668  0.38049  0.18494  Biso   1.000  O
  O18      1.0000 0.53637  0.14064  0.44193  Biso   1.000  O
  O19      1.0000 0.96684  0.84707  0.18940  Biso   1.000  O
  O20      1.0000 0.96586  0.63374  0.44432  Biso   1.000  O
  O21      1.0000 0.77402  0.23220  0.24779  Biso   1.000  O
  O22      1.0000 0.77044  0.26844  0.49685  Biso   1.000  O
  O23      1.0000 0.73128  0.76954  0.49686  Biso   1.000  O
  O24      1.0000 0.73734  0.73576  0.24770  Biso   1.000  O
  Hf12     1.0000 0.63193  0.03355  0.62220  Biso   1.000  Hf
  Hf13     1.0000 0.63138  0.46076  0.87533  Biso   1.000  Hf
  Hf14     1.0000 0.86578  0.53025  0.62355  Biso   1.000  Hf
  Hf15     1.0000 0.86008  0.95779  0.87257  Biso   1.000  Hf
  O25      1.0000 0.53509  0.36886  0.69424  Biso   1.000  O
  O26      1.0000 0.53703  0.12046  0.94283  Biso   1.000  O
  O27      1.0000 0.96108  0.86654  0.69226  Biso   1.000  O
  O28      1.0000 0.96164  0.62888  0.94103  Biso   1.000  O
  O29      1.0000 0.76735  0.23169  0.74700  Biso   1.000  O
  O30      1.0000 0.77104  0.25485  0.99672  Biso   1.000  O
  O31      1.0000 0.72571  0.75327  0.99851  Biso   1.000  O
  O32      1.0000 0.72701  0.73115  0.74797  Biso   1.000  O
