data_image0
_cell_length_a       10.0438
_cell_length_b       10.2741
_cell_length_c       10.4811
_cell_angle_alpha    89.6557
_cell_angle_beta     90.0844
_cell_angle_gamma    90.067

_symmetry_space_group_name_H-M    "P 1"
_symmetry_int_tables_number       1

loop_
  _symmetry_equiv_pos_as_xyz
  'x, y, z'

loop_
  _atom_site_label
  _atom_site_occupancy
  _atom_site_fract_x
  _atom_site_fract_y
  _atom_site_fract_z
  _atom_site_thermal_displace_type
  _atom_site_B_iso_or_equiv
  _atom_site_type_symbol
  Hf1      1.0000 0.13807  0.02035  0.17154  Biso   1.000  Hf
  Hf2      1.0000 0.13672  0.22812  0.42458  Biso   1.000  Hf
  Hf3      1.0000 0.34848  0.27106  0.17832  Biso   1.000  Hf
  Hf4      1.0000 0.36345  0.47920  0.42075  Biso   1.000  Hf
  Hf5      1.0000 0.64293  0.01893  0.07137  Biso   1.000  Hf
  Hf6      1.0000 0.64069  0.22865  0.33083  Biso   1.000  Hf
  Hf7      1.0000 0.86180  0.26968  0.08056  Biso   1.000  Hf
  Hf8      1.0000 0.86513  0.48138  0.33281  Biso   1.000  Hf
  O1       1.0000 0.03364  0.16546  0.08465  Biso   1.000  O
  O2       1.0000 0.03201  0.08502  0.33424  Biso   1.000  O
  O3       1.0000 0.44848  0.44414  0.10282  Biso   1.000  O
  O4       1.0000 0.46642  0.33199  0.33350  Biso   1.000  O
  O5       1.0000 0.27150  0.12527  0.29797  Biso   1.000  O
  O6       1.0000 0.27537  0.12478  0.04449  Biso   1.000  O
  O7       1.0000 0.22054  0.37553  0.29825  Biso   1.000  O
  O8       1.0000 0.22130  0.37520  0.04462  Biso   1.000  O
  O9       1.0000 0.51421  0.14199  0.18129  Biso   1.000  O
  O10      1.0000 0.53369  0.08523  0.41975  Biso   1.000  O
  O11      1.0000 0.96933  0.41471  0.16839  Biso   1.000  O
  O12      1.0000 0.96765  0.33587  0.41997  Biso   1.000  O
  O13      1.0000 0.77679  0.12431  0.45531  Biso   1.000  O
  O14      1.0000 0.77614  0.12598  0.20820  Biso   1.000  O
  O15      1.0000 0.72375  0.37245  0.45876  Biso   1.000  O
  O16      1.0000 0.73184  0.38674  0.21548  Biso   1.000  O
  Hf9      1.0000 0.14090  0.02021  0.67190  Biso   1.000  Hf
  Hf10     1.0000 0.13855  0.22758  0.92122  Biso   1.000  Hf
  Hf11     1.0000 0.36134  0.27171  0.67190  Biso   1.000  Hf
  Hf12     1.0000 0.36098  0.48087  0.92242  Biso   1.000  Hf
  Hf13     1.0000 0.63962  0.01985  0.57893  Biso   1.000  Hf
  Hf14     1.0000 0.63976  0.22147  0.82193  Biso   1.000  Hf
  Hf15     1.0000 0.86167  0.27078  0.58034  Biso   1.000  Hf
  Hf16     1.0000 0.86319  0.47940  0.82919  Biso   1.000  Hf
  O17      1.0000 0.03325  0.16472  0.58520  Biso   1.000  O
  O18      1.0000 0.03638  0.08257  0.83269  Biso   1.000  O
  O19      1.0000 0.46770  0.41592  0.58255  Biso   1.000  O
  O20      1.0000 0.46856  0.33617  0.83136  Biso   1.000  O
  O21      1.0000 0.27854  0.12356  0.79489  Biso   1.000  O
  O22      1.0000 0.27654  0.12577  0.54583  Biso   1.000  O
  O23      1.0000 0.22384  0.37286  0.79590  Biso   1.000  O
  O24      1.0000 0.22482  0.37572  0.54598  Biso   1.000  O
  O25      1.0000 0.53340  0.16670  0.66252  Biso   1.000  O
  O26      1.0000 0.54103  0.06302  0.89730  Biso   1.000  O
  O27      1.0000 0.96769  0.41522  0.66791  Biso   1.000  O
  O28      1.0000 0.96566  0.33383  0.91741  Biso   1.000  O
  O29      1.0000 0.79023  0.11735  0.94891  Biso   1.000  O
  O30      1.0000 0.77799  0.12241  0.70155  Biso   1.000  O
  O31      1.0000 0.72150  0.37596  0.95704  Biso   1.000  O
  O32      1.0000 0.72604  0.37422  0.70674  Biso   1.000  O
  Hf17     1.0000 0.13919  0.52231  0.17095  Biso   1.000  Hf
  Hf18     1.0000 0.14060  0.72947  0.42148  Biso   1.000  Hf
  Hf19     1.0000 0.36113  0.77397  0.17140  Biso   1.000  Hf
  Hf20     1.0000 0.36228  0.97954  0.42314  Biso   1.000  Hf
  Hf21     1.0000 0.63915  0.53215  0.08582  Biso   1.000  Hf
  Hf22     1.0000 0.63993  0.73295  0.33069  Biso   1.000  Hf
  Hf23     1.0000 0.86312  0.77211  0.07975  Biso   1.000  Hf
  Hf24     1.0000 0.86164  0.97938  0.32933  Biso   1.000  Hf
  O33      1.0000 0.03331  0.66511  0.08309  Biso   1.000  O
  O34      1.0000 0.03618  0.58685  0.33237  Biso   1.000  O
  O35      1.0000 0.46769  0.91487  0.07992  Biso   1.000  O
  O36      1.0000 0.46715  0.83654  0.33480  Biso   1.000  O
  O37      1.0000 0.27842  0.62509  0.29425  Biso   1.000  O
  O38      1.0000 0.27560  0.62894  0.04328  Biso   1.000  O
  O39      1.0000 0.22507  0.87551  0.29548  Biso   1.000  O
  O40      1.0000 0.22271  0.87601  0.04552  Biso   1.000  O
  O41      1.0000 0.53755  0.67695  0.16615  Biso   1.000  O
  O42      1.0000 0.53533  0.58420  0.41466  Biso   1.000  O
  O43      1.0000 0.96770  0.91571  0.16734  Biso   1.000  O
  O44      1.0000 0.96771  0.83346  0.41645  Biso   1.000  O
  O45      1.0000 0.77712  0.62429  0.45700  Biso   1.000  O
  O46      1.0000 0.77861  0.63140  0.20821  Biso   1.000  O
  O47      1.0000 0.72502  0.87468  0.45627  Biso   1.000  O
  O48      1.0000 0.72544  0.87856  0.20537  Biso   1.000  O
  Hf25     1.0000 0.13980  0.51977  0.67138  Biso   1.000  Hf
  Hf26     1.0000 0.13944  0.72885  0.92123  Biso   1.000  Hf
  Hf27     1.0000 0.36273  0.76870  0.67128  Biso   1.000  Hf
  Hf28     1.0000 0.36255  0.97628  0.91937  Biso   1.000  Hf
  Hf29     1.0000 0.63991  0.51990  0.57897  Biso   1.000  Hf
  Hf30     1.0000 0.63932  0.72736  0.82857  Biso   1.000  Hf
  Hf31     1.0000 0.86357  0.77030  0.57912  Biso   1.000  Hf
  Hf32     1.0000 0.86423  0.97613  0.82740  Biso   1.000  Hf
  O49      1.0000 0.03464  0.66418  0.58313  Biso   1.000  O
  O50      1.0000 0.03373  0.58453  0.83305  Biso   1.000  O
  O51      1.0000 0.46765  0.91482  0.58530  Biso   1.000  O
  O52      1.0000 0.46411  0.82514  0.83511  Biso   1.000  O
  O53      1.0000 0.27672  0.62158  0.79481  Biso   1.000  O
  O54      1.0000 0.27757  0.62494  0.54437  Biso   1.000  O
  O55      1.0000 0.22505  0.87257  0.79443  Biso   1.000  O
  O56      1.0000 0.22541  0.87539  0.54498  Biso   1.000  O
  O57      1.0000 0.53450  0.66404  0.66577  Biso   1.000  O
  O58      1.0000 0.53588  0.58120  0.91838  Biso   1.000  O
  O59      1.0000 0.97007  0.91382  0.66498  Biso   1.000  O
  O60      1.0000 0.96884  0.83407  0.91728  Biso   1.000  O
  O61      1.0000 0.77773  0.62389  0.95723  Biso   1.000  O
  O62      1.0000 0.77725  0.62439  0.70600  Biso   1.000  O
  O63      1.0000 0.72549  0.87026  0.95527  Biso   1.000  O
  O64      1.0000 0.72540  0.87342  0.70522  Biso   1.000  O
  Pt1      1.0000 0.58055  0.27482  0.05982  Biso   1.000  Pt
