data_image0
_cell_length_a       10.0368
_cell_length_b       5.09667
_cell_length_c       10.447
_cell_angle_alpha    90.0125
_cell_angle_beta     90.4717
_cell_angle_gamma    89.4069

_symmetry_space_group_name_H-M    "P 1"
_symmetry_int_tables_number       1

loop_
  _symmetry_equiv_pos_as_xyz
  'x, y, z'

loop_
  _atom_site_label
  _atom_site_occupancy
  _atom_site_fract_x
  _atom_site_fract_y
  _atom_site_fract_z
  _atom_site_thermal_displace_type
  _atom_site_B_iso_or_equiv
  _atom_site_type_symbol
  Pt1      1.0000 0.12502  0.02120  0.19087  Biso   1.000  Pt
  Hf1      1.0000 0.13782  0.45910  0.42102  Biso   1.000  Hf
  Hf2      1.0000 0.35829  0.54949  0.16560  Biso   1.000  Hf
  Hf3      1.0000 0.36130  0.95917  0.42069  Biso   1.000  Hf
  Hf4      1.0000 0.63957  0.04064  0.07720  Biso   1.000  Hf
  Hf5      1.0000 0.63489  0.45508  0.32755  Biso   1.000  Hf
  Hf6      1.0000 0.86573  0.52784  0.08079  Biso   1.000  Hf
  Hf7      1.0000 0.85303  0.95286  0.33132  Biso   1.000  Hf
  O1       1.0000 0.04369  0.31782  0.08833  Biso   1.000  O
  O2       1.0000 0.02763  0.17365  0.33450  Biso   1.000  O
  O3       1.0000 0.46820  0.83608  0.08356  Biso   1.000  O
  O4       1.0000 0.45993  0.65791  0.33635  Biso   1.000  O
  O5       1.0000 0.27307  0.23735  0.28373  Biso   1.000  O
  O6       1.0000 0.30086  0.30655  0.02353  Biso   1.000  O
  O7       1.0000 0.21639  0.74435  0.29468  Biso   1.000  O
  O8       1.0000 0.21864  0.79455  0.04967  Biso   1.000  O
  O9       1.0000 0.53470  0.33753  0.16331  Biso   1.000  O
  O10      1.0000 0.53325  0.16028  0.41324  Biso   1.000  O
  O11      1.0000 0.95874  0.83348  0.16557  Biso   1.000  O
  O12      1.0000 0.96575  0.67321  0.41898  Biso   1.000  O
  O13      1.0000 0.77462  0.24477  0.45616  Biso   1.000  O
  O14      1.0000 0.77547  0.24773  0.20646  Biso   1.000  O
  O15      1.0000 0.72059  0.74342  0.45651  Biso   1.000  O
  O16      1.0000 0.72384  0.74684  0.20682  Biso   1.000  O
  Hf8      1.0000 0.13846  0.04000  0.67051  Biso   1.000  Hf
  Hf9      1.0000 0.14256  0.45660  0.92209  Biso   1.000  Hf
  Hf10     1.0000 0.36186  0.54424  0.67225  Biso   1.000  Hf
  Hf11     1.0000 0.36123  0.96743  0.92264  Biso   1.000  Hf
  Hf12     1.0000 0.63780  0.04134  0.58076  Biso   1.000  Hf
  Hf13     1.0000 0.63982  0.45955  0.82962  Biso   1.000  Hf
  Hf14     1.0000 0.86009  0.53983  0.58044  Biso   1.000  Hf
  Hf15     1.0000 0.86491  0.95426  0.83178  Biso   1.000  Hf
  O17      1.0000 0.03137  0.32315  0.57950  Biso   1.000  O
  O18      1.0000 0.03502  0.17078  0.83304  Biso   1.000  O
  O19      1.0000 0.46531  0.83744  0.58491  Biso   1.000  O
  O20      1.0000 0.46839  0.67166  0.83290  Biso   1.000  O
  O21      1.0000 0.27592  0.24405  0.78687  Biso   1.000  O
  O22      1.0000 0.27618  0.25460  0.53974  Biso   1.000  O
  O23      1.0000 0.22512  0.74662  0.79735  Biso   1.000  O
  O24      1.0000 0.22327  0.75187  0.54437  Biso   1.000  O
  O25      1.0000 0.53495  0.33759  0.66357  Biso   1.000  O
  O26      1.0000 0.53905  0.16204  0.91169  Biso   1.000  O
  O27      1.0000 0.96899  0.82114  0.67051  Biso   1.000  O
  O28      1.0000 0.96904  0.66400  0.92262  Biso   1.000  O
  O29      1.0000 0.77992  0.24394  0.95659  Biso   1.000  O
  O30      1.0000 0.77790  0.25100  0.70628  Biso   1.000  O
  O31      1.0000 0.72656  0.74235  0.95699  Biso   1.000  O
  O32      1.0000 0.72527  0.75360  0.70655  Biso   1.000  O
