data_image0
_cell_length_a       10.1294
_cell_length_b       5.1072
_cell_length_c       10.4829
_cell_angle_alpha    89.9655
_cell_angle_beta     80.7203
_cell_angle_gamma    89.2947

_symmetry_space_group_name_H-M    "P 1"
_symmetry_int_tables_number       1

loop_
  _symmetry_equiv_pos_as_xyz
  'x, y, z'

loop_
  _atom_site_label
  _atom_site_occupancy
  _atom_site_fract_x
  _atom_site_fract_y
  _atom_site_fract_z
  _atom_site_thermal_displace_type
  _atom_site_B_iso_or_equiv
  _atom_site_type_symbol
  Pt1      1.0000 0.12594  0.02044  0.16863  Biso   1.000  Pt
  Hf1      1.0000 0.13756  0.45759  0.39595  Biso   1.000  Hf
  Hf2      1.0000 0.35825  0.54711  0.09855  Biso   1.000  Hf
  Hf3      1.0000 0.36202  0.95821  0.35172  Biso   1.000  Hf
  O1       1.0000 0.04311  0.31350  0.07964  Biso   1.000  O
  O2       1.0000 0.02725  0.17495  0.32751  Biso   1.000  O
  O3       1.0000 0.46470  0.83020  0.17367  Biso   1.000  O
  O4       1.0000 0.46371  0.66472  0.42141  Biso   1.000  O
  O5       1.0000 0.27175  0.24833  0.23157  Biso   1.000  O
  O6       1.0000 0.27635  0.24350  0.48536  Biso   1.000  O
  O7       1.0000 0.22452  0.80007  0.01435  Biso   1.000  O
  O8       1.0000 0.21769  0.73879  0.25918  Biso   1.000  O
  Hf4      1.0000 0.13846  0.03918  0.64460  Biso   1.000  Hf
  Hf5      1.0000 0.14137  0.45372  0.89458  Biso   1.000  Hf
  Hf6      1.0000 0.36169  0.54540  0.60490  Biso   1.000  Hf
  Hf7      1.0000 0.36194  0.97222  0.85512  Biso   1.000  Hf
  O9       1.0000 0.03243  0.32361  0.57326  Biso   1.000  O
  O10      1.0000 0.03574  0.16747  0.82619  Biso   1.000  O
  O11      1.0000 0.46621  0.83520  0.67186  Biso   1.000  O
  O12      1.0000 0.47042  0.68644  0.92416  Biso   1.000  O
  O13      1.0000 0.27417  0.25512  0.73225  Biso   1.000  O
  O14      1.0000 0.29560  0.29099  0.96867  Biso   1.000  O
  O15      1.0000 0.22292  0.75606  0.50841  Biso   1.000  O
  O16      1.0000 0.22652  0.74213  0.76165  Biso   1.000  O
  Hf8      1.0000 0.63671  0.03833  0.14413  Biso   1.000  Hf
  Hf9      1.0000 0.63682  0.45400  0.39559  Biso   1.000  Hf
  Hf10     1.0000 0.86524  0.52628  0.10506  Biso   1.000  Hf
  Hf11     1.0000 0.85352  0.95129  0.35683  Biso   1.000  Hf
  O17      1.0000 0.53488  0.33437  0.07698  Biso   1.000  O
  O18      1.0000 0.53356  0.16356  0.32788  Biso   1.000  O
  O19      1.0000 0.95957  0.82850  0.17348  Biso   1.000  O
  O20      1.0000 0.96545  0.67319  0.42537  Biso   1.000  O
  O21      1.0000 0.77335  0.24971  0.24074  Biso   1.000  O
  O22      1.0000 0.77591  0.24011  0.49079  Biso   1.000  O
  O23      1.0000 0.72650  0.75350  0.01163  Biso   1.000  O
  O24      1.0000 0.72460  0.73479  0.26048  Biso   1.000  O
  Hf12     1.0000 0.63847  0.04342  0.64775  Biso   1.000  Hf
  Hf13     1.0000 0.63927  0.46152  0.89697  Biso   1.000  Hf
  Hf14     1.0000 0.86043  0.54126  0.60615  Biso   1.000  Hf
  Hf15     1.0000 0.86454  0.95377  0.85662  Biso   1.000  Hf
  O25      1.0000 0.53466  0.33353  0.57689  Biso   1.000  O
  O26      1.0000 0.53722  0.17501  0.82532  Biso   1.000  O
  O27      1.0000 0.96802  0.82187  0.67624  Biso   1.000  O
  O28      1.0000 0.96742  0.66188  0.92847  Biso   1.000  O
  O29      1.0000 0.77860  0.25719  0.74062  Biso   1.000  O
  O30      1.0000 0.77743  0.23939  0.99072  Biso   1.000  O
  O31      1.0000 0.72158  0.75398  0.51085  Biso   1.000  O
  O32      1.0000 0.72593  0.74462  0.76127  Biso   1.000  O
