data_image0
_cell_length_a       10.021
_cell_length_b       10.2247
_cell_length_c       10.021
_cell_angle_alpha    89.9945
_cell_angle_beta     90.8573
_cell_angle_gamma    89.9948

_symmetry_space_group_name_H-M    "P 1"
_symmetry_int_tables_number       1

loop_
  _symmetry_equiv_pos_as_xyz
  'x, y, z'

loop_
  _atom_site_label
  _atom_site_occupancy
  _atom_site_fract_x
  _atom_site_fract_y
  _atom_site_fract_z
  _atom_site_thermal_displace_type
  _atom_site_B_iso_or_equiv
  _atom_site_type_symbol
  Pt1      1.0000 0.12488  0.03711  0.12487  Biso   1.000  Pt
  Hf1      1.0000 0.12133  0.25088  0.38168  Biso   1.000  Hf
  Hf2      1.0000 0.38168  0.25088  0.12133  Biso   1.000  Hf
  Hf3      1.0000 0.36776  0.99584  0.36777  Biso   1.000  Hf
  O1       1.0000 0.01074  0.15466  0.01074  Biso   1.000  O
  O2       1.0000 0.99067  0.08863  0.25901  Biso   1.000  O
  O3       1.0000 0.00451  0.34537  0.24531  Biso   1.000  O
  O4       1.0000 0.99638  0.39885  0.99637  Biso   1.000  O
  O5       1.0000 0.23899  0.15467  0.23899  Biso   1.000  O
  O6       1.0000 0.25900  0.08863  0.99066  Biso   1.000  O
  O7       1.0000 0.24531  0.34537  0.00451  Biso   1.000  O
  O8       1.0000 0.25345  0.39887  0.25345  Biso   1.000  O
  Hf4      1.0000 0.12492  0.00747  0.62485  Biso   1.000  Hf
  Hf5      1.0000 0.12858  0.25080  0.86816  Biso   1.000  Hf
  Hf6      1.0000 0.37916  0.24988  0.62284  Biso   1.000  Hf
  Hf7      1.0000 0.38163  0.99181  0.86812  Biso   1.000  Hf
  O9       1.0000 0.99549  0.14982  0.50460  Biso   1.000  O
  O10      1.0000 0.00681  0.10240  0.75861  Biso   1.000  O
  O11      1.0000 0.00066  0.35282  0.74565  Biso   1.000  O
  O12      1.0000 0.00221  0.39854  0.49499  Biso   1.000  O
  O13      1.0000 0.25440  0.14978  0.74516  Biso   1.000  O
  O14      1.0000 0.24307  0.10243  0.49113  Biso   1.000  O
  O15      1.0000 0.24925  0.35283  0.50417  Biso   1.000  O
  O16      1.0000 0.24769  0.39851  0.75482  Biso   1.000  O
  Hf8      1.0000 0.12489  0.49157  0.12489  Biso   1.000  Hf
  Hf9      1.0000 0.12149  0.74733  0.37098  Biso   1.000  Hf
  Hf10     1.0000 0.37097  0.74733  0.12149  Biso   1.000  Hf
  Hf11     1.0000 0.37585  0.50265  0.37585  Biso   1.000  Hf
  O17      1.0000 0.00003  0.65037  0.00003  Biso   1.000  O
  O18      1.0000 0.00134  0.59532  0.24853  Biso   1.000  O
  O19      1.0000 0.97105  0.83828  0.27877  Biso   1.000  O
  O20      1.0000 0.01771  0.90638  0.01772  Biso   1.000  O
  O21      1.0000 0.24984  0.65039  0.24984  Biso   1.000  O
  O22      1.0000 0.24853  0.59532  0.00134  Biso   1.000  O
  O23      1.0000 0.27877  0.83828  0.97105  Biso   1.000  O
  O24      1.0000 0.23208  0.90637  0.23207  Biso   1.000  O
  Hf12     1.0000 0.12490  0.50084  0.62494  Biso   1.000  Hf
  Hf13     1.0000 0.12831  0.74737  0.87886  Biso   1.000  Hf
  Hf14     1.0000 0.37152  0.75127  0.62091  Biso   1.000  Hf
  Hf15     1.0000 0.37619  0.50279  0.87364  Biso   1.000  Hf
  O25      1.0000 0.00068  0.64843  0.50157  Biso   1.000  O
  O26      1.0000 0.99908  0.60175  0.74927  Biso   1.000  O
  O27      1.0000 0.99728  0.85163  0.76594  Biso   1.000  O
  O28      1.0000 0.99412  0.89936  0.51779  Biso   1.000  O
  O29      1.0000 0.24910  0.64842  0.74828  Biso   1.000  O
  O30      1.0000 0.25071  0.60174  0.50058  Biso   1.000  O
  O31      1.0000 0.25245  0.85165  0.48390  Biso   1.000  O
  O32      1.0000 0.25562  0.89932  0.73204  Biso   1.000  O
  Hf16     1.0000 0.62484  0.00747  0.12492  Biso   1.000  Hf
  Hf17     1.0000 0.62284  0.24988  0.37916  Biso   1.000  Hf
  Hf18     1.0000 0.86815  0.25080  0.12858  Biso   1.000  Hf
  Hf19     1.0000 0.86812  0.99181  0.38164  Biso   1.000  Hf
  O33      1.0000 0.50459  0.14982  0.99549  Biso   1.000  O
  O34      1.0000 0.49113  0.10243  0.24307  Biso   1.000  O
  O35      1.0000 0.50416  0.35283  0.24925  Biso   1.000  O
  O36      1.0000 0.49499  0.39854  0.00221  Biso   1.000  O
  O37      1.0000 0.74516  0.14978  0.25440  Biso   1.000  O
  O38      1.0000 0.75861  0.10240  0.00681  Biso   1.000  O
  O39      1.0000 0.74565  0.35282  0.00066  Biso   1.000  O
  O40      1.0000 0.75482  0.39851  0.24769  Biso   1.000  O
  Hf20     1.0000 0.62484  0.99438  0.62484  Biso   1.000  Hf
  Hf21     1.0000 0.62704  0.24983  0.87076  Biso   1.000  Hf
  Hf22     1.0000 0.87076  0.24983  0.62704  Biso   1.000  Hf
  Hf23     1.0000 0.88196  0.99587  0.88196  Biso   1.000  Hf
  O41      1.0000 0.49231  0.14725  0.49231  Biso   1.000  O
  O42      1.0000 0.50520  0.10309  0.74472  Biso   1.000  O
  O43      1.0000 0.49928  0.35371  0.75061  Biso   1.000  O
  O44      1.0000 0.50066  0.39771  0.50066  Biso   1.000  O
  O45      1.0000 0.75766  0.14728  0.75766  Biso   1.000  O
  O46      1.0000 0.74472  0.10309  0.50520  Biso   1.000  O
  O47      1.0000 0.75061  0.35371  0.49928  Biso   1.000  O
  O48      1.0000 0.74921  0.39770  0.74921  Biso   1.000  O
  Hf24     1.0000 0.62493  0.50084  0.12490  Biso   1.000  Hf
  Hf25     1.0000 0.62092  0.75127  0.37152  Biso   1.000  Hf
  Hf26     1.0000 0.87886  0.74737  0.12831  Biso   1.000  Hf
  Hf27     1.0000 0.87364  0.50279  0.37619  Biso   1.000  Hf
  O49      1.0000 0.50157  0.64844  0.00068  Biso   1.000  O
  O50      1.0000 0.50057  0.60174  0.25071  Biso   1.000  O
  O51      1.0000 0.48391  0.85166  0.25244  Biso   1.000  O
  O52      1.0000 0.51779  0.89936  0.99412  Biso   1.000  O
  O53      1.0000 0.74828  0.64842  0.24910  Biso   1.000  O
  O54      1.0000 0.74927  0.60175  0.99908  Biso   1.000  O
  O55      1.0000 0.76594  0.85163  0.99728  Biso   1.000  O
  O56      1.0000 0.73204  0.89933  0.25562  Biso   1.000  O
  Hf28     1.0000 0.62493  0.50501  0.62493  Biso   1.000  Hf
  Hf29     1.0000 0.62891  0.75131  0.87825  Biso   1.000  Hf
  Hf30     1.0000 0.87825  0.75131  0.62891  Biso   1.000  Hf
  Hf31     1.0000 0.87398  0.50263  0.87398  Biso   1.000  Hf
  O57      1.0000 0.50042  0.64866  0.50042  Biso   1.000  O
  O58      1.0000 0.49955  0.60242  0.75021  Biso   1.000  O
  O59      1.0000 0.50335  0.84917  0.74640  Biso   1.000  O
  O60      1.0000 0.49738  0.89912  0.49738  Biso   1.000  O
  O61      1.0000 0.74934  0.64866  0.74934  Biso   1.000  O
  O62      1.0000 0.75021  0.60242  0.49955  Biso   1.000  O
  O63      1.0000 0.74640  0.84917  0.50335  Biso   1.000  O
  O64      1.0000 0.75236  0.89915  0.75236  Biso   1.000  O
