data_image0
_cell_length_a       10.0375
_cell_length_b       10.1913
_cell_length_c       5.2219
_cell_angle_alpha    90.0301
_cell_angle_beta     90.4973
_cell_angle_gamma    89.4217

_symmetry_space_group_name_H-M    "P 1"
_symmetry_int_tables_number       1

loop_
  _symmetry_equiv_pos_as_xyz
  'x, y, z'

loop_
  _atom_site_label
  _atom_site_occupancy
  _atom_site_fract_x
  _atom_site_fract_y
  _atom_site_fract_z
  _atom_site_thermal_displace_type
  _atom_site_B_iso_or_equiv
  _atom_site_type_symbol
  Pt1      1.0000 0.12481  0.00824  0.37713  Biso   1.000  Pt
  Hf1      1.0000 0.14487  0.22879  0.83870  Biso   1.000  Hf
  Hf2      1.0000 0.36008  0.27109  0.33282  Biso   1.000  Hf
  Hf3      1.0000 0.36123  0.47949  0.84247  Biso   1.000  Hf
  Hf4      1.0000 0.63839  0.02199  0.15692  Biso   1.000  Hf
  Hf5      1.0000 0.63877  0.23001  0.65779  Biso   1.000  Hf
  Hf6      1.0000 0.86846  0.26564  0.16623  Biso   1.000  Hf
  Hf7      1.0000 0.86321  0.47613  0.66388  Biso   1.000  Hf
  O1       1.0000 0.04415  0.15507  0.16658  Biso   1.000  O
  O2       1.0000 0.02961  0.08778  0.66214  Biso   1.000  O
  O3       1.0000 0.46636  0.41801  0.16863  Biso   1.000  O
  O4       1.0000 0.46687  0.33359  0.66738  Biso   1.000  O
  O5       1.0000 0.27293  0.11478  0.55237  Biso   1.000  O
  O6       1.0000 0.30220  0.14967  0.03708  Biso   1.000  O
  O7       1.0000 0.22544  0.37276  0.58972  Biso   1.000  O
  O8       1.0000 0.22030  0.38378  0.08893  Biso   1.000  O
  O9       1.0000 0.53627  0.16944  0.32600  Biso   1.000  O
  O10      1.0000 0.53878  0.07915  0.82035  Biso   1.000  O
  O11      1.0000 0.97024  0.41208  0.34410  Biso   1.000  O
  O12      1.0000 0.97009  0.33239  0.84780  Biso   1.000  O
  O13      1.0000 0.77878  0.12222  0.91403  Biso   1.000  O
  O14      1.0000 0.77708  0.12498  0.41260  Biso   1.000  O
  O15      1.0000 0.72690  0.37140  0.91601  Biso   1.000  O
  O16      1.0000 0.72715  0.37448  0.41376  Biso   1.000  O
  Hf8      1.0000 0.13924  0.52270  0.34707  Biso   1.000  Hf
  Hf9      1.0000 0.13594  0.73005  0.84916  Biso   1.000  Hf
  Hf10     1.0000 0.36009  0.77554  0.34110  Biso   1.000  Hf
  Hf11     1.0000 0.36138  0.98364  0.84367  Biso   1.000  Hf
  Hf12     1.0000 0.63920  0.51871  0.15887  Biso   1.000  Hf
  Hf13     1.0000 0.63587  0.72701  0.65669  Biso   1.000  Hf
  Hf14     1.0000 0.85743  0.76812  0.15716  Biso   1.000  Hf
  Hf15     1.0000 0.85444  0.97709  0.66227  Biso   1.000  Hf
  O17      1.0000 0.03210  0.66672  0.17270  Biso   1.000  O
  O18      1.0000 0.03346  0.58401  0.67545  Biso   1.000  O
  O19      1.0000 0.46687  0.91768  0.16676  Biso   1.000  O
  O20      1.0000 0.46246  0.83274  0.66880  Biso   1.000  O
  O21      1.0000 0.27542  0.62580  0.59153  Biso   1.000  O
  O22      1.0000 0.27674  0.63227  0.09114  Biso   1.000  O
  O23      1.0000 0.21642  0.87224  0.59231  Biso   1.000  O
  O24      1.0000 0.21963  0.88983  0.09601  Biso   1.000  O
  O25      1.0000 0.53247  0.66716  0.32836  Biso   1.000  O
  O26      1.0000 0.53388  0.58208  0.83006  Biso   1.000  O
  O27      1.0000 0.95664  0.91686  0.32634  Biso   1.000  O
  O28      1.0000 0.96372  0.83414  0.83276  Biso   1.000  O
  O29      1.0000 0.77600  0.62182  0.91219  Biso   1.000  O
  O30      1.0000 0.77580  0.62418  0.41325  Biso   1.000  O
  O31      1.0000 0.72017  0.87141  0.91052  Biso   1.000  O
  O32      1.0000 0.72167  0.87528  0.41243  Biso   1.000  O
