data_image0
_cell_length_a       10.1356
_cell_length_b       10.315
_cell_length_c       10.4773
_cell_angle_alpha    90.3865
_cell_angle_beta     80.2814
_cell_angle_gamma    90.1407

_symmetry_space_group_name_H-M    "P 1"
_symmetry_int_tables_number       1

loop_
  _symmetry_equiv_pos_as_xyz
  'x, y, z'

loop_
  _atom_site_label
  _atom_site_occupancy
  _atom_site_fract_x
  _atom_site_fract_y
  _atom_site_fract_z
  _atom_site_thermal_displace_type
  _atom_site_B_iso_or_equiv
  _atom_site_type_symbol
  Hf1      1.0000 0.13663  0.02313  0.14674  Biso   1.000  Hf
  Hf2      1.0000 0.13892  0.23084  0.39834  Biso   1.000  Hf
  Hf3      1.0000 0.35916  0.27834  0.09645  Biso   1.000  Hf
  Hf4      1.0000 0.35696  0.48012  0.34673  Biso   1.000  Hf
  O1       1.0000 0.03517  0.17077  0.08005  Biso   1.000  O
  O2       1.0000 0.03645  0.08172  0.32965  Biso   1.000  O
  O3       1.0000 0.45599  0.43781  0.15346  Biso   1.000  O
  O4       1.0000 0.48615  0.35800  0.43507  Biso   1.000  O
  O5       1.0000 0.27981  0.12883  0.23957  Biso   1.000  O
  O6       1.0000 0.26635  0.10711  0.49912  Biso   1.000  O
  O7       1.0000 0.22078  0.38274  0.00436  Biso   1.000  O
  O8       1.0000 0.20773  0.37703  0.25341  Biso   1.000  O
  Hf5      1.0000 0.13602  0.01803  0.64926  Biso   1.000  Hf
  Hf6      1.0000 0.13686  0.22915  0.89524  Biso   1.000  Hf
  Hf7      1.0000 0.36001  0.27226  0.60677  Biso   1.000  Hf
  Hf8      1.0000 0.35993  0.47996  0.85433  Biso   1.000  Hf
  O9       1.0000 0.03569  0.16981  0.58257  Biso   1.000  O
  O10      1.0000 0.03359  0.08057  0.83129  Biso   1.000  O
  O11      1.0000 0.46466  0.41655  0.67516  Biso   1.000  O
  O12      1.0000 0.46424  0.33114  0.91694  Biso   1.000  O
  O13      1.0000 0.27574  0.12996  0.74231  Biso   1.000  O
  O14      1.0000 0.27411  0.12308  0.99038  Biso   1.000  O
  O15      1.0000 0.22461  0.37787  0.51140  Biso   1.000  O
  O16      1.0000 0.22278  0.37094  0.75848  Biso   1.000  O
  Hf9      1.0000 0.13686  0.52341  0.14399  Biso   1.000  Hf
  Hf10     1.0000 0.13713  0.72784  0.39723  Biso   1.000  Hf
  Hf11     1.0000 0.36033  0.77310  0.10448  Biso   1.000  Hf
  Hf12     1.0000 0.36154  0.96700  0.36142  Biso   1.000  Hf
  O17      1.0000 0.03387  0.67245  0.07975  Biso   1.000  O
  O18      1.0000 0.03312  0.58354  0.32837  Biso   1.000  O
  O19      1.0000 0.46267  0.92089  0.17355  Biso   1.000  O
  O20      1.0000 0.46145  0.82100  0.42180  Biso   1.000  O
  O21      1.0000 0.27399  0.63194  0.24082  Biso   1.000  O
  O22      1.0000 0.27325  0.61744  0.49053  Biso   1.000  O
  O23      1.0000 0.22283  0.88126  0.01136  Biso   1.000  O
  O24      1.0000 0.22269  0.87135  0.26224  Biso   1.000  O
  Hf13     1.0000 0.13780  0.52176  0.64591  Biso   1.000  Hf
  Hf14     1.0000 0.13679  0.72993  0.89729  Biso   1.000  Hf
  Hf15     1.0000 0.36104  0.76720  0.60650  Biso   1.000  Hf
  Hf16     1.0000 0.35987  0.97991  0.85489  Biso   1.000  Hf
  O25      1.0000 0.03268  0.66749  0.58010  Biso   1.000  O
  O26      1.0000 0.03514  0.58173  0.83072  Biso   1.000  O
  O27      1.0000 0.46273  0.91777  0.66972  Biso   1.000  O
  O28      1.0000 0.46302  0.83333  0.92064  Biso   1.000  O
  O29      1.0000 0.27549  0.62811  0.74130  Biso   1.000  O
  O30      1.0000 0.27555  0.62389  0.99071  Biso   1.000  O
  O31      1.0000 0.22247  0.87136  0.51351  Biso   1.000  O
  O32      1.0000 0.22271  0.87063  0.76169  Biso   1.000  O
  Hf17     1.0000 0.63860  0.02060  0.14720  Biso   1.000  Hf
  Hf18     1.0000 0.65320  0.22932  0.40125  Biso   1.000  Hf
  Hf19     1.0000 0.86003  0.27276  0.10405  Biso   1.000  Hf
  Hf20     1.0000 0.86257  0.47879  0.35326  Biso   1.000  Hf
  O33      1.0000 0.53311  0.16649  0.07699  Biso   1.000  O
  O34      1.0000 0.55366  0.05594  0.34378  Biso   1.000  O
  O35      1.0000 0.96143  0.42269  0.16708  Biso   1.000  O
  O36      1.0000 0.96448  0.33150  0.42117  Biso   1.000  O
  O37      1.0000 0.77890  0.13028  0.24056  Biso   1.000  O
  O38      1.0000 0.78139  0.11865  0.49345  Biso   1.000  O
  O39      1.0000 0.72199  0.37970  0.01037  Biso   1.000  O
  O40      1.0000 0.72420  0.37146  0.26013  Biso   1.000  O
  Hf21     1.0000 0.63683  0.02085  0.64544  Biso   1.000  Hf
  Hf22     1.0000 0.63857  0.22815  0.89602  Biso   1.000  Hf
  Hf23     1.0000 0.86366  0.27099  0.60783  Biso   1.000  Hf
  Hf24     1.0000 0.86043  0.47924  0.85540  Biso   1.000  Hf
  O41      1.0000 0.53561  0.16910  0.57861  Biso   1.000  O
  O42      1.0000 0.53430  0.08162  0.82809  Biso   1.000  O
  O43      1.0000 0.96415  0.41998  0.67168  Biso   1.000  O
  O44      1.0000 0.96234  0.33086  0.91918  Biso   1.000  O
  O45      1.0000 0.77487  0.12891  0.74177  Biso   1.000  O
  O46      1.0000 0.77534  0.12184  0.99136  Biso   1.000  O
  O47      1.0000 0.72834  0.37768  0.51290  Biso   1.000  O
  O48      1.0000 0.72376  0.37104  0.76146  Biso   1.000  O
  Hf25     1.0000 0.63667  0.52429  0.14374  Biso   1.000  Hf
  Hf26     1.0000 0.63964  0.72536  0.39505  Biso   1.000  Hf
  Hf27     1.0000 0.85960  0.77144  0.10401  Biso   1.000  Hf
  Hf28     1.0000 0.86181  0.97702  0.35410  Biso   1.000  Hf
  O49      1.0000 0.53771  0.67676  0.07995  Biso   1.000  O
  O50      1.0000 0.53316  0.58341  0.32465  Biso   1.000  O
  O51      1.0000 0.96456  0.92018  0.16939  Biso   1.000  O
  O52      1.0000 0.96351  0.83145  0.42114  Biso   1.000  O
  O53      1.0000 0.77611  0.62875  0.24024  Biso   1.000  O
  O54      1.0000 0.77513  0.61926  0.49012  Biso   1.000  O
  O55      1.0000 0.72259  0.88114  0.01035  Biso   1.000  O
  O56      1.0000 0.72587  0.86821  0.25872  Biso   1.000  O
  Hf29     1.0000 0.63861  0.52024  0.64736  Biso   1.000  Hf
  Hf30     1.0000 0.63698  0.73037  0.89584  Biso   1.000  Hf
  Hf31     1.0000 0.85892  0.77075  0.60433  Biso   1.000  Hf
  Hf32     1.0000 0.85889  0.97890  0.85510  Biso   1.000  Hf
  O57      1.0000 0.53546  0.66507  0.57977  Biso   1.000  O
  O58      1.0000 0.53456  0.58246  0.83071  Biso   1.000  O
  O59      1.0000 0.96116  0.91828  0.67070  Biso   1.000  O
  O60      1.0000 0.96241  0.83190  0.91993  Biso   1.000  O
  O61      1.0000 0.77532  0.62915  0.74059  Biso   1.000  O
  O62      1.0000 0.77491  0.62231  0.99004  Biso   1.000  O
  O63      1.0000 0.72214  0.87766  0.50945  Biso   1.000  O
  O64      1.0000 0.72125  0.87138  0.75982  Biso   1.000  O
  Pt1      1.0000 0.41922  0.22570  0.32531  Biso   1.000  Pt
