data_image0
_cell_length_a       5.06408
_cell_length_b       10.2174
_cell_length_c       10.4708
_cell_angle_alpha    89.9967
_cell_angle_beta     80.7603
_cell_angle_gamma    89.318

_symmetry_space_group_name_H-M    "P 1"
_symmetry_int_tables_number       1

loop_
  _symmetry_equiv_pos_as_xyz
  'x, y, z'

loop_
  _atom_site_label
  _atom_site_occupancy
  _atom_site_fract_x
  _atom_site_fract_y
  _atom_site_fract_z
  _atom_site_thermal_displace_type
  _atom_site_B_iso_or_equiv
  _atom_site_type_symbol
  Pt1      1.0000 0.24721  0.00858  0.16877  Biso   1.000  Pt
  Hf1      1.0000 0.27860  0.23189  0.39309  Biso   1.000  Hf
  Hf2      1.0000 0.73192  0.26449  0.10229  Biso   1.000  Hf
  Hf3      1.0000 0.72242  0.47868  0.35279  Biso   1.000  Hf
  O1       1.0000 0.08865  0.15684  0.07998  Biso   1.000  O
  O2       1.0000 0.05236  0.08804  0.32716  Biso   1.000  O
  O3       1.0000 0.93489  0.41532  0.17302  Biso   1.000  O
  O4       1.0000 0.93119  0.33483  0.42339  Biso   1.000  O
  O5       1.0000 0.53875  0.11983  0.23195  Biso   1.000  O
  O6       1.0000 0.55341  0.12200  0.48451  Biso   1.000  O
  O7       1.0000 0.45818  0.38210  0.01098  Biso   1.000  O
  O8       1.0000 0.45575  0.36803  0.25886  Biso   1.000  O
  Hf4      1.0000 0.27471  0.02125  0.64428  Biso   1.000  Hf
  Hf5      1.0000 0.28939  0.22534  0.89685  Biso   1.000  Hf
  Hf6      1.0000 0.72418  0.27206  0.60424  Biso   1.000  Hf
  Hf7      1.0000 0.72934  0.47773  0.85708  Biso   1.000  Hf
  O9       1.0000 0.06936  0.16533  0.57271  Biso   1.000  O
  O10      1.0000 0.07828  0.08342  0.82485  Biso   1.000  O
  O11      1.0000 0.93695  0.41363  0.67574  Biso   1.000  O
  O12      1.0000 0.95059  0.33813  0.92918  Biso   1.000  O
  O13      1.0000 0.55353  0.12758  0.73221  Biso   1.000  O
  O14      1.0000 0.59672  0.13884  0.97085  Biso   1.000  O
  O15      1.0000 0.44584  0.37808  0.50949  Biso   1.000  O
  O16      1.0000 0.45612  0.37102  0.76128  Biso   1.000  O
  Hf8      1.0000 0.27538  0.52075  0.14465  Biso   1.000  Hf
  Hf9      1.0000 0.27012  0.72431  0.39835  Biso   1.000  Hf
  Hf10     1.0000 0.71383  0.77180  0.10098  Biso   1.000  Hf
  Hf11     1.0000 0.70766  0.97599  0.35554  Biso   1.000  Hf
  O17      1.0000 0.06886  0.66969  0.07874  Biso   1.000  O
  O18      1.0000 0.06967  0.58047  0.32884  Biso   1.000  O
  O19      1.0000 0.91113  0.91606  0.17187  Biso   1.000  O
  O20      1.0000 0.92655  0.83327  0.42202  Biso   1.000  O
  O21      1.0000 0.54996  0.62948  0.24057  Biso   1.000  O
  O22      1.0000 0.55221  0.61998  0.49173  Biso   1.000  O
  O23      1.0000 0.44122  0.89485  0.01405  Biso   1.000  O
  O24      1.0000 0.42940  0.86833  0.26052  Biso   1.000  O
  Hf12     1.0000 0.28036  0.52040  0.64856  Biso   1.000  Hf
  Hf13     1.0000 0.27379  0.73264  0.89610  Biso   1.000  Hf
  Hf14     1.0000 0.72038  0.77128  0.60679  Biso   1.000  Hf
  Hf15     1.0000 0.72507  0.98483  0.85425  Biso   1.000  Hf
  O25      1.0000 0.06692  0.66472  0.57885  Biso   1.000  O
  O26      1.0000 0.07152  0.58578  0.82880  Biso   1.000  O
  O27      1.0000 0.93076  0.91667  0.67087  Biso   1.000  O
  O28      1.0000 0.92034  0.83234  0.92120  Biso   1.000  O
  O29      1.0000 0.55344  0.62878  0.74131  Biso   1.000  O
  O30      1.0000 0.55081  0.62537  0.98965  Biso   1.000  O
  O31      1.0000 0.44361  0.87748  0.50926  Biso   1.000  O
  O32      1.0000 0.44866  0.87170  0.76095  Biso   1.000  O
