data_image0
_cell_length_a       10.127
_cell_length_b       10.2168
_cell_length_c       5.23403
_cell_angle_alpha    89.9838
_cell_angle_beta     80.7523
_cell_angle_gamma    89.3207

_symmetry_space_group_name_H-M    "P 1"
_symmetry_int_tables_number       1

loop_
  _symmetry_equiv_pos_as_xyz
  'x, y, z'

loop_
  _atom_site_label
  _atom_site_occupancy
  _atom_site_fract_x
  _atom_site_fract_y
  _atom_site_fract_z
  _atom_site_thermal_displace_type
  _atom_site_B_iso_or_equiv
  _atom_site_type_symbol
  Pt1      1.0000 0.12415  0.00800  0.33274  Biso   1.000  Pt
  Hf1      1.0000 0.14320  0.22705  0.78563  Biso   1.000  Hf
  Hf2      1.0000 0.35961  0.26999  0.19890  Biso   1.000  Hf
  Hf3      1.0000 0.36175  0.48006  0.70703  Biso   1.000  Hf
  O1       1.0000 0.04328  0.15416  0.15036  Biso   1.000  O
  O2       1.0000 0.02808  0.08761  0.64967  Biso   1.000  O
  O3       1.0000 0.46514  0.41644  0.34383  Biso   1.000  O
  O4       1.0000 0.47168  0.34069  0.84722  Biso   1.000  O
  O5       1.0000 0.26996  0.11961  0.44797  Biso   1.000  O
  O6       1.0000 0.29781  0.14217  0.92653  Biso   1.000  O
  O7       1.0000 0.22351  0.38391  0.01607  Biso   1.000  O
  O8       1.0000 0.22752  0.36884  0.51740  Biso   1.000  O
  Hf4      1.0000 0.14034  0.52244  0.29449  Biso   1.000  Hf
  Hf5      1.0000 0.13624  0.72966  0.79749  Biso   1.000  Hf
  Hf6      1.0000 0.36014  0.77583  0.20715  Biso   1.000  Hf
  Hf7      1.0000 0.36236  0.98472  0.70586  Biso   1.000  Hf
  O9       1.0000 0.03363  0.66708  0.15980  Biso   1.000  O
  O10      1.0000 0.03608  0.58276  0.66176  Biso   1.000  O
  O11      1.0000 0.46469  0.91828  0.34366  Biso   1.000  O
  O12      1.0000 0.46024  0.83172  0.84043  Biso   1.000  O
  O13      1.0000 0.27576  0.63197  0.48238  Biso   1.000  O
  O14      1.0000 0.27591  0.62573  0.98294  Biso   1.000  O
  O15      1.0000 0.22303  0.89479  0.02595  Biso   1.000  O
  O16      1.0000 0.21639  0.87094  0.52149  Biso   1.000  O
  Hf8      1.0000 0.63815  0.02198  0.29187  Biso   1.000  Hf
  Hf9      1.0000 0.64037  0.23039  0.79423  Biso   1.000  Hf
  Hf10     1.0000 0.86852  0.26639  0.21494  Biso   1.000  Hf
  Hf11     1.0000 0.86372  0.47625  0.71305  Biso   1.000  Hf
  O17      1.0000 0.53595  0.16834  0.15637  Biso   1.000  O
  O18      1.0000 0.53878  0.08231  0.65700  Biso   1.000  O
  O19      1.0000 0.97043  0.41253  0.35367  Biso   1.000  O
  O20      1.0000 0.96923  0.33226  0.85860  Biso   1.000  O
  O21      1.0000 0.77639  0.12750  0.48185  Biso   1.000  O
  O22      1.0000 0.77789  0.11987  0.98323  Biso   1.000  O
  O23      1.0000 0.72843  0.37621  0.02479  Biso   1.000  O
  O24      1.0000 0.72811  0.37010  0.52249  Biso   1.000  O
  Hf12     1.0000 0.63753  0.51864  0.29186  Biso   1.000  Hf
  Hf13     1.0000 0.63572  0.72709  0.79095  Biso   1.000  Hf
  Hf14     1.0000 0.85697  0.76749  0.20769  Biso   1.000  Hf
  Hf15     1.0000 0.85421  0.97633  0.71339  Biso   1.000  Hf
  O25      1.0000 0.53416  0.66751  0.15560  Biso   1.000  O
  O26      1.0000 0.53439  0.58318  0.65365  Biso   1.000  O
  O27      1.0000 0.95561  0.91538  0.34197  Biso   1.000  O
  O28      1.0000 0.96246  0.83294  0.84504  Biso   1.000  O
  O29      1.0000 0.77592  0.62630  0.48154  Biso   1.000  O
  O30      1.0000 0.77540  0.61961  0.98038  Biso   1.000  O
  O31      1.0000 0.71926  0.87777  0.01892  Biso   1.000  O
  O32      1.0000 0.72190  0.86914  0.52017  Biso   1.000  O
