data_image0
_cell_length_a       10.0267
_cell_length_b       10.2144
_cell_length_c       10.4461
_cell_angle_alpha    90.0308
_cell_angle_beta     90.2452
_cell_angle_gamma    89.7197

_symmetry_space_group_name_H-M    "P 1"
_symmetry_int_tables_number       1

loop_
  _symmetry_equiv_pos_as_xyz
  'x, y, z'

loop_
  _atom_site_label
  _atom_site_occupancy
  _atom_site_fract_x
  _atom_site_fract_y
  _atom_site_fract_z
  _atom_site_thermal_displace_type
  _atom_site_B_iso_or_equiv
  _atom_site_type_symbol
  Pt1      1.0000 0.12526  0.00889  0.19069  Biso   1.000  Pt
  Hf1      1.0000 0.14034  0.23227  0.41848  Biso   1.000  Hf
  Hf2      1.0000 0.35936  0.27046  0.16683  Biso   1.000  Hf
  Hf3      1.0000 0.36123  0.47911  0.42099  Biso   1.000  Hf
  Hf4      1.0000 0.63939  0.02183  0.07726  Biso   1.000  Hf
  Hf5      1.0000 0.63733  0.22930  0.32808  Biso   1.000  Hf
  Hf6      1.0000 0.86792  0.26627  0.08230  Biso   1.000  Hf
  Hf7      1.0000 0.86051  0.47849  0.32905  Biso   1.000  Hf
  O1       1.0000 0.04356  0.15706  0.08810  Biso   1.000  O
  O2       1.0000 0.02934  0.08640  0.33394  Biso   1.000  O
  O3       1.0000 0.46632  0.41744  0.08467  Biso   1.000  O
  O4       1.0000 0.46420  0.33073  0.33599  Biso   1.000  O
  O5       1.0000 0.27358  0.11664  0.28365  Biso   1.000  O
  O6       1.0000 0.30017  0.14639  0.02508  Biso   1.000  O
  O7       1.0000 0.22340  0.37374  0.29426  Biso   1.000  O
  O8       1.0000 0.22076  0.38345  0.04467  Biso   1.000  O
  O9       1.0000 0.53570  0.16829  0.16388  Biso   1.000  O
  O10      1.0000 0.53342  0.08168  0.41400  Biso   1.000  O
  O11      1.0000 0.96777  0.41566  0.16787  Biso   1.000  O
  O12      1.0000 0.96673  0.33464  0.41737  Biso   1.000  O
  O13      1.0000 0.77580  0.12263  0.45582  Biso   1.000  O
  O14      1.0000 0.77682  0.12473  0.20636  Biso   1.000  O
  O15      1.0000 0.72360  0.37314  0.45607  Biso   1.000  O
  O16      1.0000 0.72517  0.37431  0.20586  Biso   1.000  O
  Hf8      1.0000 0.13777  0.02086  0.66859  Biso   1.000  Hf
  Hf9      1.0000 0.14412  0.22529  0.92201  Biso   1.000  Hf
  Hf10     1.0000 0.36184  0.27161  0.67056  Biso   1.000  Hf
  Hf11     1.0000 0.36126  0.47941  0.92157  Biso   1.000  Hf
  Hf12     1.0000 0.63766  0.02121  0.57988  Biso   1.000  Hf
  Hf13     1.0000 0.64020  0.22968  0.82943  Biso   1.000  Hf
  Hf14     1.0000 0.86162  0.27068  0.57925  Biso   1.000  Hf
  Hf15     1.0000 0.86411  0.47654  0.83154  Biso   1.000  Hf
  O17      1.0000 0.03332  0.16402  0.57903  Biso   1.000  O
  O18      1.0000 0.03421  0.08482  0.83162  Biso   1.000  O
  O19      1.0000 0.46622  0.41787  0.58473  Biso   1.000  O
  O20      1.0000 0.46795  0.33472  0.83352  Biso   1.000  O
  O21      1.0000 0.27612  0.12191  0.78653  Biso   1.000  O
  O22      1.0000 0.27717  0.12827  0.53860  Biso   1.000  O
  O23      1.0000 0.22527  0.37305  0.79523  Biso   1.000  O
  O24      1.0000 0.22292  0.37650  0.54432  Biso   1.000  O
  O25      1.0000 0.53472  0.16837  0.66405  Biso   1.000  O
  O26      1.0000 0.53874  0.08071  0.91128  Biso   1.000  O
  O27      1.0000 0.96892  0.41263  0.66976  Biso   1.000  O
  O28      1.0000 0.97015  0.33173  0.92212  Biso   1.000  O
  O29      1.0000 0.77932  0.12351  0.95628  Biso   1.000  O
  O30      1.0000 0.77721  0.12646  0.70518  Biso   1.000  O
  O31      1.0000 0.72665  0.37211  0.95715  Biso   1.000  O
  O32      1.0000 0.72516  0.37656  0.70635  Biso   1.000  O
  Hf16     1.0000 0.13867  0.52323  0.17133  Biso   1.000  Hf
  Hf17     1.0000 0.13623  0.72653  0.42371  Biso   1.000  Hf
  Hf18     1.0000 0.36019  0.77507  0.16957  Biso   1.000  Hf
  Hf19     1.0000 0.36127  0.97944  0.42125  Biso   1.000  Hf
  Hf20     1.0000 0.63885  0.51934  0.07841  Biso   1.000  Hf
  Hf21     1.0000 0.63628  0.72703  0.32814  Biso   1.000  Hf
  Hf22     1.0000 0.85904  0.76877  0.07729  Biso   1.000  Hf
  Hf23     1.0000 0.85358  0.97666  0.33081  Biso   1.000  Hf
  O33      1.0000 0.03388  0.66865  0.08540  Biso   1.000  O
  O34      1.0000 0.03208  0.58370  0.33515  Biso   1.000  O
  O35      1.0000 0.46758  0.91697  0.08313  Biso   1.000  O
  O36      1.0000 0.46248  0.83211  0.33470  Biso   1.000  O
  O37      1.0000 0.27564  0.62532  0.29524  Biso   1.000  O
  O38      1.0000 0.27766  0.63297  0.04415  Biso   1.000  O
  O39      1.0000 0.21649  0.87173  0.29527  Biso   1.000  O
  O40      1.0000 0.21936  0.89018  0.04882  Biso   1.000  O
  O41      1.0000 0.53231  0.66695  0.16461  Biso   1.000  O
  O42      1.0000 0.53339  0.58202  0.41479  Biso   1.000  O
  O43      1.0000 0.95741  0.91776  0.16343  Biso   1.000  O
  O44      1.0000 0.96518  0.83516  0.41690  Biso   1.000  O
  O45      1.0000 0.77556  0.62347  0.45556  Biso   1.000  O
  O46      1.0000 0.77502  0.62515  0.20538  Biso   1.000  O
  O47      1.0000 0.72026  0.87229  0.45562  Biso   1.000  O
  O48      1.0000 0.72197  0.87519  0.20599  Biso   1.000  O
  Hf24     1.0000 0.13940  0.52070  0.67340  Biso   1.000  Hf
  Hf25     1.0000 0.13848  0.73260  0.92222  Biso   1.000  Hf
  Hf26     1.0000 0.36128  0.77154  0.67264  Biso   1.000  Hf
  Hf27     1.0000 0.36120  0.98326  0.92174  Biso   1.000  Hf
  Hf28     1.0000 0.63913  0.52056  0.57967  Biso   1.000  Hf
  Hf29     1.0000 0.63853  0.72892  0.82883  Biso   1.000  Hf
  Hf30     1.0000 0.85964  0.77035  0.57998  Biso   1.000  Hf
  Hf31     1.0000 0.86247  0.97964  0.82919  Biso   1.000  Hf
  O49      1.0000 0.03161  0.66424  0.58514  Biso   1.000  O
  O50      1.0000 0.03482  0.58444  0.83656  Biso   1.000  O
  O51      1.0000 0.46550  0.91761  0.58507  Biso   1.000  O
  O52      1.0000 0.46651  0.83361  0.83446  Biso   1.000  O
  O53      1.0000 0.27651  0.62416  0.79520  Biso   1.000  O
  O54      1.0000 0.27562  0.62559  0.54601  Biso   1.000  O
  O55      1.0000 0.22342  0.87404  0.79638  Biso   1.000  O
  O56      1.0000 0.22372  0.87594  0.54466  Biso   1.000  O
  O57      1.0000 0.53409  0.66723  0.66463  Biso   1.000  O
  O58      1.0000 0.53449  0.58295  0.91515  Biso   1.000  O
  O59      1.0000 0.96643  0.91480  0.66622  Biso   1.000  O
  O60      1.0000 0.96507  0.83308  0.91569  Biso   1.000  O
  O61      1.0000 0.77721  0.62227  0.95574  Biso   1.000  O
  O62      1.0000 0.77747  0.62525  0.70641  Biso   1.000  O
  O63      1.0000 0.72317  0.87292  0.95501  Biso   1.000  O
  O64      1.0000 0.72351  0.87651  0.70550  Biso   1.000  O
