data_image0
_cell_length_a       10.168
_cell_length_b       10.3588
_cell_length_c       5.25408
_cell_angle_alpha    90.7154
_cell_angle_beta     80.1376
_cell_angle_gamma    90.2535

_symmetry_space_group_name_H-M    "P 1"
_symmetry_int_tables_number       1

loop_
  _symmetry_equiv_pos_as_xyz
  'x, y, z'

loop_
  _atom_site_label
  _atom_site_occupancy
  _atom_site_fract_x
  _atom_site_fract_y
  _atom_site_fract_z
  _atom_site_thermal_displace_type
  _atom_site_B_iso_or_equiv
  _atom_site_type_symbol
  Hf1      1.0000 0.13391  0.01959  0.29930  Biso   1.000  Hf
  Hf2      1.0000 0.13714  0.23092  0.79476  Biso   1.000  Hf
  Hf3      1.0000 0.35852  0.28038  0.19598  Biso   1.000  Hf
  Hf4      1.0000 0.35536  0.48122  0.69441  Biso   1.000  Hf
  O1       1.0000 0.03444  0.17092  0.16390  Biso   1.000  O
  O2       1.0000 0.03373  0.08189  0.66068  Biso   1.000  O
  O3       1.0000 0.45722  0.43536  0.32083  Biso   1.000  O
  O4       1.0000 0.48625  0.35809  0.86309  Biso   1.000  O
  O5       1.0000 0.27783  0.12873  0.48154  Biso   1.000  O
  O6       1.0000 0.26331  0.10934  0.99796  Biso   1.000  O
  O7       1.0000 0.22133  0.38260  0.01101  Biso   1.000  O
  O8       1.0000 0.20813  0.37675  0.50253  Biso   1.000  O
  Hf5      1.0000 0.13559  0.52390  0.28869  Biso   1.000  Hf
  Hf6      1.0000 0.13514  0.72911  0.79739  Biso   1.000  Hf
  Hf7      1.0000 0.36026  0.76885  0.21363  Biso   1.000  Hf
  Hf8      1.0000 0.36002  0.96823  0.72415  Biso   1.000  Hf
  O9       1.0000 0.03054  0.67039  0.15903  Biso   1.000  O
  O10      1.0000 0.03244  0.58442  0.65827  Biso   1.000  O
  O11      1.0000 0.46135  0.91944  0.34656  Biso   1.000  O
  O12      1.0000 0.46049  0.82388  0.84558  Biso   1.000  O
  O13      1.0000 0.27271  0.63085  0.48343  Biso   1.000  O
  O14      1.0000 0.27249  0.62075  0.98190  Biso   1.000  O
  O15      1.0000 0.22199  0.87342  0.03010  Biso   1.000  O
  O16      1.0000 0.22195  0.87080  0.52841  Biso   1.000  O
  Hf9      1.0000 0.63672  0.01986  0.29389  Biso   1.000  Hf
  Hf10     1.0000 0.65274  0.22879  0.80318  Biso   1.000  Hf
  Hf11     1.0000 0.86268  0.27245  0.21513  Biso   1.000  Hf
  Hf12     1.0000 0.86186  0.47928  0.70957  Biso   1.000  Hf
  O17      1.0000 0.53313  0.16740  0.15227  Biso   1.000  O
  O18      1.0000 0.55217  0.05637  0.68409  Biso   1.000  O
  O19      1.0000 0.96142  0.42317  0.33852  Biso   1.000  O
  O20      1.0000 0.96302  0.33178  0.84097  Biso   1.000  O
  O21      1.0000 0.77721  0.13007  0.48338  Biso   1.000  O
  O22      1.0000 0.77972  0.11965  0.98837  Biso   1.000  O
  O23      1.0000 0.72677  0.37837  0.02759  Biso   1.000  O
  O24      1.0000 0.72473  0.37153  0.52461  Biso   1.000  O
  Hf13     1.0000 0.63710  0.52362  0.29184  Biso   1.000  Hf
  Hf14     1.0000 0.63775  0.72708  0.79088  Biso   1.000  Hf
  Hf15     1.0000 0.85751  0.77095  0.20857  Biso   1.000  Hf
  Hf16     1.0000 0.85963  0.97730  0.70992  Biso   1.000  Hf
  O25      1.0000 0.53736  0.67257  0.15990  Biso   1.000  O
  O26      1.0000 0.53192  0.58533  0.65213  Biso   1.000  O
  O27      1.0000 0.96172  0.91872  0.34084  Biso   1.000  O
  O28      1.0000 0.96201  0.83285  0.84273  Biso   1.000  O
  O29      1.0000 0.77496  0.62899  0.48149  Biso   1.000  O
  O30      1.0000 0.77363  0.62075  0.98000  Biso   1.000  O
  O31      1.0000 0.72147  0.87978  0.02102  Biso   1.000  O
  O32      1.0000 0.72384  0.86864  0.51836  Biso   1.000  O
  Pt1      1.0000 0.41814  0.22481  0.64759  Biso   1.000  Pt
