data_image0
_cell_length_a       10.2332
_cell_length_b       5.22225
_cell_length_c       10.5709
_cell_angle_alpha    90.6785
_cell_angle_beta     80.2577
_cell_angle_gamma    90.2387

_symmetry_space_group_name_H-M    "P 1"
_symmetry_int_tables_number       1

loop_
  _symmetry_equiv_pos_as_xyz
  'x, y, z'

loop_
  _atom_site_label
  _atom_site_occupancy
  _atom_site_fract_x
  _atom_site_fract_y
  _atom_site_fract_z
  _atom_site_thermal_displace_type
  _atom_site_B_iso_or_equiv
  _atom_site_type_symbol
  Zr1      1.0000 0.13484  0.04913  0.14430  Biso   1.000  Zr
  Zr2      1.0000 0.13718  0.45926  0.39922  Biso   1.000  Zr
  Zr3      1.0000 0.35923  0.55982  0.09741  Biso   1.000  Zr
  Zr4      1.0000 0.35454  0.93422  0.35374  Biso   1.000  Zr
  O1       1.0000 0.03289  0.34652  0.07911  Biso   1.000  O
  O2       1.0000 0.03330  0.17028  0.32714  Biso   1.000  O
  O3       1.0000 0.45586  0.87447  0.15947  Biso   1.000  O
  O4       1.0000 0.48336  0.69732  0.43804  Biso   1.000  O
  O5       1.0000 0.27720  0.26153  0.23975  Biso   1.000  O
  O6       1.0000 0.26193  0.20872  0.49777  Biso   1.000  O
  O7       1.0000 0.22126  0.76873  0.00637  Biso   1.000  O
  O8       1.0000 0.20778  0.75764  0.25613  Biso   1.000  O
  Zr5      1.0000 0.13488  0.03714  0.64902  Biso   1.000  Zr
  Zr6      1.0000 0.13504  0.46091  0.89626  Biso   1.000  Zr
  Zr7      1.0000 0.36004  0.53861  0.61051  Biso   1.000  Zr
  Zr8      1.0000 0.35882  0.96298  0.85563  Biso   1.000  Zr
  O9       1.0000 0.03154  0.33572  0.58205  Biso   1.000  O
  O10      1.0000 0.03236  0.16466  0.83143  Biso   1.000  O
  O11      1.0000 0.46449  0.82873  0.67609  Biso   1.000  O
  O12      1.0000 0.46422  0.67062  0.91885  Biso   1.000  O
  O13      1.0000 0.27384  0.25810  0.74274  Biso   1.000  O
  O14      1.0000 0.27248  0.25203  0.99051  Biso   1.000  O
  O15      1.0000 0.22366  0.73999  0.51629  Biso   1.000  O
  O16      1.0000 0.22318  0.74266  0.76120  Biso   1.000  O
  Zr9      1.0000 0.63693  0.04629  0.14391  Biso   1.000  Zr
  Zr10     1.0000 0.65297  0.45373  0.39978  Biso   1.000  Zr
  Zr11     1.0000 0.85898  0.54517  0.10457  Biso   1.000  Zr
  Zr12     1.0000 0.86364  0.95503  0.35379  Biso   1.000  Zr
  O17      1.0000 0.53457  0.34602  0.07570  Biso   1.000  O
  O18      1.0000 0.55031  0.12093  0.33556  Biso   1.000  O
  O19      1.0000 0.96271  0.84554  0.16721  Biso   1.000  O
  O20      1.0000 0.96473  0.66671  0.42288  Biso   1.000  O
  O21      1.0000 0.77821  0.25988  0.23967  Biso   1.000  O
  O22      1.0000 0.77896  0.23586  0.49281  Biso   1.000  O
  O23      1.0000 0.72239  0.76229  0.01124  Biso   1.000  O
  O24      1.0000 0.72752  0.73875  0.26020  Biso   1.000  O
  Zr13     1.0000 0.63692  0.04058  0.64649  Biso   1.000  Zr
  Zr14     1.0000 0.63702  0.45970  0.89536  Biso   1.000  Zr
  Zr15     1.0000 0.86153  0.54150  0.60836  Biso   1.000  Zr
  Zr16     1.0000 0.85850  0.95896  0.85686  Biso   1.000  Zr
  O25      1.0000 0.53404  0.32736  0.57739  Biso   1.000  O
  O26      1.0000 0.53212  0.16970  0.82766  Biso   1.000  O
  O27      1.0000 0.96181  0.83734  0.67306  Biso   1.000  O
  O28      1.0000 0.96167  0.66532  0.91971  Biso   1.000  O
  O29      1.0000 0.77283  0.25781  0.74163  Biso   1.000  O
  O30      1.0000 0.77338  0.24659  0.99048  Biso   1.000  O
  O31      1.0000 0.72728  0.75282  0.51282  Biso   1.000  O
  O32      1.0000 0.72262  0.74403  0.76198  Biso   1.000  O
  Pt1      1.0000 0.41578  0.44251  0.32685  Biso   1.000  Pt
