data_image0
_cell_length_a       10.1065
_cell_length_b       5.13284
_cell_length_c       10.4981
_cell_angle_alpha    90.0345
_cell_angle_beta     90.4992
_cell_angle_gamma    89.3674

_symmetry_space_group_name_H-M    "P 1"
_symmetry_int_tables_number       1

loop_
  _symmetry_equiv_pos_as_xyz
  'x, y, z'

loop_
  _atom_site_label
  _atom_site_occupancy
  _atom_site_fract_x
  _atom_site_fract_y
  _atom_site_fract_z
  _atom_site_thermal_displace_type
  _atom_site_B_iso_or_equiv
  _atom_site_type_symbol
  Pt1      1.0000 0.12516  0.02139  0.19106  Biso   1.000  Pt
  Zr1      1.0000 0.13765  0.45933  0.42030  Biso   1.000  Zr
  Zr2      1.0000 0.35777  0.55059  0.16536  Biso   1.000  Zr
  Zr3      1.0000 0.36103  0.95968  0.42040  Biso   1.000  Zr
  Zr4      1.0000 0.63978  0.04084  0.07741  Biso   1.000  Zr
  Zr5      1.0000 0.63471  0.45499  0.32775  Biso   1.000  Zr
  Zr6      1.0000 0.86663  0.52767  0.08167  Biso   1.000  Zr
  Zr7      1.0000 0.85297  0.95259  0.33162  Biso   1.000  Zr
  O1       1.0000 0.04397  0.31468  0.08853  Biso   1.000  O
  O2       1.0000 0.02799  0.17250  0.33383  Biso   1.000  O
  O3       1.0000 0.46874  0.83589  0.08326  Biso   1.000  O
  O4       1.0000 0.45931  0.65698  0.33664  Biso   1.000  O
  O5       1.0000 0.27175  0.23745  0.28258  Biso   1.000  O
  O6       1.0000 0.30037  0.30801  0.02335  Biso   1.000  O
  O7       1.0000 0.21601  0.74661  0.29456  Biso   1.000  O
  O8       1.0000 0.21865  0.79773  0.05026  Biso   1.000  O
  O9       1.0000 0.53451  0.33813  0.16323  Biso   1.000  O
  O10      1.0000 0.53275  0.15996  0.41306  Biso   1.000  O
  O11      1.0000 0.96078  0.83190  0.16564  Biso   1.000  O
  O12      1.0000 0.96597  0.67345  0.41932  Biso   1.000  O
  O13      1.0000 0.77376  0.24493  0.45608  Biso   1.000  O
  O14      1.0000 0.77488  0.24645  0.20657  Biso   1.000  O
  O15      1.0000 0.72112  0.74365  0.45674  Biso   1.000  O
  O16      1.0000 0.72514  0.74572  0.20704  Biso   1.000  O
  Zr8      1.0000 0.13832  0.04003  0.66998  Biso   1.000  Zr
  Zr9      1.0000 0.14248  0.45681  0.92167  Biso   1.000  Zr
  Zr10     1.0000 0.36183  0.54428  0.67196  Biso   1.000  Zr
  Zr11     1.0000 0.36126  0.96769  0.92239  Biso   1.000  Zr
  Zr12     1.0000 0.63762  0.04107  0.58123  Biso   1.000  Zr
  Zr13     1.0000 0.64002  0.45997  0.83021  Biso   1.000  Zr
  Zr14     1.0000 0.85996  0.53930  0.58085  Biso   1.000  Zr
  Zr15     1.0000 0.86500  0.95415  0.83228  Biso   1.000  Zr
  O17      1.0000 0.03059  0.32140  0.57851  Biso   1.000  O
  O18      1.0000 0.03433  0.17178  0.83236  Biso   1.000  O
  O19      1.0000 0.46550  0.83767  0.58492  Biso   1.000  O
  O20      1.0000 0.46898  0.67230  0.83271  Biso   1.000  O
  O21      1.0000 0.27494  0.24512  0.78677  Biso   1.000  O
  O22      1.0000 0.27514  0.25379  0.53942  Biso   1.000  O
  O23      1.0000 0.22607  0.74772  0.79739  Biso   1.000  O
  O24      1.0000 0.22403  0.75083  0.54432  Biso   1.000  O
  O25      1.0000 0.53458  0.33763  0.66354  Biso   1.000  O
  O26      1.0000 0.53861  0.16284  0.91182  Biso   1.000  O
  O27      1.0000 0.96965  0.81932  0.67112  Biso   1.000  O
  O28      1.0000 0.96952  0.66380  0.92313  Biso   1.000  O
  O29      1.0000 0.77926  0.24517  0.95681  Biso   1.000  O
  O30      1.0000 0.77706  0.24993  0.70643  Biso   1.000  O
  O31      1.0000 0.72769  0.74357  0.95716  Biso   1.000  O
  O32      1.0000 0.72611  0.75272  0.70677  Biso   1.000  O
