data_image0
_cell_length_a       10.1443
_cell_length_b       10.3919
_cell_length_c       5.2843
_cell_angle_alpha    89.3959
_cell_angle_beta     90.2934
_cell_angle_gamma    90.1183

_symmetry_space_group_name_H-M    "P 1"
_symmetry_int_tables_number       1

loop_
  _symmetry_equiv_pos_as_xyz
  'x, y, z'

loop_
  _atom_site_label
  _atom_site_occupancy
  _atom_site_fract_x
  _atom_site_fract_y
  _atom_site_fract_z
  _atom_site_thermal_displace_type
  _atom_site_B_iso_or_equiv
  _atom_site_type_symbol
  Zr1      1.0000 0.13993  0.01963  0.34435  Biso   1.000  Zr
  Zr2      1.0000 0.13629  0.22684  0.84882  Biso   1.000  Zr
  Zr3      1.0000 0.34861  0.27174  0.35877  Biso   1.000  Zr
  Zr4      1.0000 0.36267  0.48160  0.84345  Biso   1.000  Zr
  Zr5      1.0000 0.64432  0.01817  0.14336  Biso   1.000  Zr
  Zr6      1.0000 0.64147  0.22046  0.64592  Biso   1.000  Zr
  Zr7      1.0000 0.86198  0.26960  0.16483  Biso   1.000  Zr
  Zr8      1.0000 0.86712  0.48179  0.66675  Biso   1.000  Zr
  O1       1.0000 0.03243  0.16307  0.16940  Biso   1.000  O
  O2       1.0000 0.03428  0.08437  0.66439  Biso   1.000  O
  O3       1.0000 0.45116  0.44240  0.20010  Biso   1.000  O
  O4       1.0000 0.46879  0.33361  0.66242  Biso   1.000  O
  O5       1.0000 0.27257  0.12546  0.59671  Biso   1.000  O
  O6       1.0000 0.27413  0.12409  0.09208  Biso   1.000  O
  O7       1.0000 0.22209  0.37520  0.59899  Biso   1.000  O
  O8       1.0000 0.22312  0.37438  0.09222  Biso   1.000  O
  O9       1.0000 0.51368  0.14318  0.35359  Biso   1.000  O
  O10      1.0000 0.53918  0.06623  0.80850  Biso   1.000  O
  O11      1.0000 0.97156  0.41338  0.34135  Biso   1.000  O
  O12      1.0000 0.96716  0.33649  0.84429  Biso   1.000  O
  O13      1.0000 0.78866  0.11884  0.89434  Biso   1.000  O
  O14      1.0000 0.77756  0.12024  0.40621  Biso   1.000  O
  O15      1.0000 0.72233  0.37615  0.92165  Biso   1.000  O
  O16      1.0000 0.73675  0.38255  0.43442  Biso   1.000  O
  Zr9      1.0000 0.13987  0.52111  0.34115  Biso   1.000  Zr
  Zr10     1.0000 0.14107  0.72932  0.84243  Biso   1.000  Zr
  Zr11     1.0000 0.36277  0.77185  0.34341  Biso   1.000  Zr
  Zr12     1.0000 0.36292  0.97663  0.84440  Biso   1.000  Zr
  Zr13     1.0000 0.64058  0.53106  0.17137  Biso   1.000  Zr
  Zr14     1.0000 0.64056  0.73147  0.66109  Biso   1.000  Zr
  Zr15     1.0000 0.86539  0.77117  0.16092  Biso   1.000  Zr
  Zr16     1.0000 0.86471  0.97654  0.65681  Biso   1.000  Zr
  O17      1.0000 0.03375  0.66242  0.16252  Biso   1.000  O
  O18      1.0000 0.03570  0.58821  0.66086  Biso   1.000  O
  O19      1.0000 0.46941  0.91286  0.16293  Biso   1.000  O
  O20      1.0000 0.46581  0.82884  0.67099  Biso   1.000  O
  O21      1.0000 0.27780  0.62336  0.58908  Biso   1.000  O
  O22      1.0000 0.27571  0.62702  0.08624  Biso   1.000  O
  O23      1.0000 0.22740  0.87469  0.59149  Biso   1.000  O
  O24      1.0000 0.22549  0.87455  0.09265  Biso   1.000  O
  O25      1.0000 0.53792  0.67396  0.33301  Biso   1.000  O
  O26      1.0000 0.53681  0.58215  0.83470  Biso   1.000  O
  O27      1.0000 0.97203  0.91231  0.33463  Biso   1.000  O
  O28      1.0000 0.97077  0.83432  0.83739  Biso   1.000  O
  O29      1.0000 0.77744  0.62542  0.91671  Biso   1.000  O
  O30      1.0000 0.77836  0.62857  0.41687  Biso   1.000  O
  O31      1.0000 0.72818  0.87190  0.91222  Biso   1.000  O
  O32      1.0000 0.72835  0.87478  0.41089  Biso   1.000  O
  Pt1      1.0000 0.58207  0.27618  0.11889  Biso   1.000  Pt
