data_image0
_cell_length_a       10.21
_cell_length_b       10.391
_cell_length_c       10.5312
_cell_angle_alpha    90.3771
_cell_angle_beta     80.3061
_cell_angle_gamma    90.1431

_symmetry_space_group_name_H-M    "P 1"
_symmetry_int_tables_number       1

loop_
  _symmetry_equiv_pos_as_xyz
  'x, y, z'

loop_
  _atom_site_label
  _atom_site_occupancy
  _atom_site_fract_x
  _atom_site_fract_y
  _atom_site_fract_z
  _atom_site_thermal_displace_type
  _atom_site_B_iso_or_equiv
  _atom_site_type_symbol
  Zr1      1.0000 0.13681  0.02309  0.14644  Biso   1.000  Zr
  Zr2      1.0000 0.13896  0.23095  0.39807  Biso   1.000  Zr
  Zr3      1.0000 0.35921  0.27817  0.09671  Biso   1.000  Zr
  Zr4      1.0000 0.35679  0.47983  0.34714  Biso   1.000  Zr
  O1       1.0000 0.03494  0.17066  0.08015  Biso   1.000  O
  O2       1.0000 0.03666  0.08173  0.32948  Biso   1.000  O
  O3       1.0000 0.45648  0.43720  0.15427  Biso   1.000  O
  O4       1.0000 0.48619  0.35657  0.43357  Biso   1.000  O
  O5       1.0000 0.28086  0.12896  0.24033  Biso   1.000  O
  O6       1.0000 0.26567  0.10761  0.49945  Biso   1.000  O
  O7       1.0000 0.22148  0.38245  0.00412  Biso   1.000  O
  O8       1.0000 0.20814  0.37756  0.25328  Biso   1.000  O
  Zr5      1.0000 0.13604  0.01795  0.64888  Biso   1.000  Zr
  Zr6      1.0000 0.13684  0.22918  0.89480  Biso   1.000  Zr
  Zr7      1.0000 0.36006  0.27202  0.60731  Biso   1.000  Zr
  Zr8      1.0000 0.35985  0.48004  0.85451  Biso   1.000  Zr
  O9       1.0000 0.03516  0.16995  0.58267  Biso   1.000  O
  O10      1.0000 0.03327  0.08058  0.83127  Biso   1.000  O
  O11      1.0000 0.46503  0.41637  0.67478  Biso   1.000  O
  O12      1.0000 0.46461  0.33154  0.91704  Biso   1.000  O
  O13      1.0000 0.27514  0.12979  0.74257  Biso   1.000  O
  O14      1.0000 0.27344  0.12320  0.99068  Biso   1.000  O
  O15      1.0000 0.22531  0.37769  0.51151  Biso   1.000  O
  O16      1.0000 0.22343  0.37115  0.75839  Biso   1.000  O
  Zr9      1.0000 0.13694  0.52333  0.14348  Biso   1.000  Zr
  Zr10     1.0000 0.13715  0.72778  0.39679  Biso   1.000  Zr
  Zr11     1.0000 0.36036  0.77293  0.10480  Biso   1.000  Zr
  Zr12     1.0000 0.36127  0.96697  0.36165  Biso   1.000  Zr
  O17      1.0000 0.03345  0.67247  0.07975  Biso   1.000  O
  O18      1.0000 0.03265  0.58377  0.32834  Biso   1.000  O
  O19      1.0000 0.46315  0.92048  0.17346  Biso   1.000  O
  O20      1.0000 0.46195  0.82162  0.42184  Biso   1.000  O
  O21      1.0000 0.27328  0.63168  0.24073  Biso   1.000  O
  O22      1.0000 0.27248  0.61779  0.49062  Biso   1.000  O
  O23      1.0000 0.22349  0.88107  0.01136  Biso   1.000  O
  O24      1.0000 0.22330  0.87139  0.26206  Biso   1.000  O
  Zr13     1.0000 0.13775  0.52168  0.64540  Biso   1.000  Zr
  Zr14     1.0000 0.13670  0.73000  0.89678  Biso   1.000  Zr
  Zr15     1.0000 0.36105  0.76724  0.60694  Biso   1.000  Zr
  Zr16     1.0000 0.35996  0.97994  0.85542  Biso   1.000  Zr
  O25      1.0000 0.03221  0.66744  0.58014  Biso   1.000  O
  O26      1.0000 0.03472  0.58182  0.83081  Biso   1.000  O
  O27      1.0000 0.46319  0.91765  0.66972  Biso   1.000  O
  O28      1.0000 0.46338  0.83342  0.92055  Biso   1.000  O
  O29      1.0000 0.27471  0.62799  0.74121  Biso   1.000  O
  O30      1.0000 0.27472  0.62397  0.99058  Biso   1.000  O
  O31      1.0000 0.22317  0.87126  0.51332  Biso   1.000  O
  O32      1.0000 0.22343  0.87087  0.76165  Biso   1.000  O
  Zr17     1.0000 0.63864  0.02064  0.14653  Biso   1.000  Zr
  Zr18     1.0000 0.65340  0.22944  0.40085  Biso   1.000  Zr
  Zr19     1.0000 0.86020  0.27268  0.10457  Biso   1.000  Zr
  Zr20     1.0000 0.86266  0.47891  0.35378  Biso   1.000  Zr
  O33      1.0000 0.53288  0.16650  0.07693  Biso   1.000  O
  O34      1.0000 0.55233  0.05762  0.34293  Biso   1.000  O
  O35      1.0000 0.96170  0.42263  0.16707  Biso   1.000  O
  O36      1.0000 0.96491  0.33174  0.42107  Biso   1.000  O
  O37      1.0000 0.77853  0.12988  0.24049  Biso   1.000  O
  O38      1.0000 0.78078  0.11885  0.49351  Biso   1.000  O
  O39      1.0000 0.72270  0.37952  0.01045  Biso   1.000  O
  O40      1.0000 0.72500  0.37150  0.26019  Biso   1.000  O
  Zr21     1.0000 0.63686  0.02081  0.64506  Biso   1.000  Zr
  Zr22     1.0000 0.63854  0.22822  0.89571  Biso   1.000  Zr
  Zr23     1.0000 0.86375  0.27099  0.60841  Biso   1.000  Zr
  Zr24     1.0000 0.86040  0.47931  0.85600  Biso   1.000  Zr
  O41      1.0000 0.53531  0.16892  0.57857  Biso   1.000  O
  O42      1.0000 0.53382  0.08186  0.82804  Biso   1.000  O
  O43      1.0000 0.96441  0.42003  0.67168  Biso   1.000  O
  O44      1.0000 0.96266  0.33081  0.91906  Biso   1.000  O
  O45      1.0000 0.77413  0.12871  0.74193  Biso   1.000  O
  O46      1.0000 0.77469  0.12194  0.99138  Biso   1.000  O
  O47      1.0000 0.72884  0.37755  0.51283  Biso   1.000  O
  O48      1.0000 0.72439  0.37134  0.76151  Biso   1.000  O
  Zr25     1.0000 0.63660  0.52405  0.14362  Biso   1.000  Zr
  Zr26     1.0000 0.63960  0.72546  0.39465  Biso   1.000  Zr
  Zr27     1.0000 0.85964  0.77139  0.10445  Biso   1.000  Zr
  Zr28     1.0000 0.86211  0.97702  0.35452  Biso   1.000  Zr
  O49      1.0000 0.53705  0.67621  0.07970  Biso   1.000  O
  O50      1.0000 0.53285  0.58357  0.32489  Biso   1.000  O
  O51      1.0000 0.96522  0.92023  0.16927  Biso   1.000  O
  O52      1.0000 0.96394  0.83163  0.42109  Biso   1.000  O
  O53      1.0000 0.77531  0.62869  0.24032  Biso   1.000  O
  O54      1.0000 0.77448  0.61958  0.49022  Biso   1.000  O
  O55      1.0000 0.72317  0.88078  0.01035  Biso   1.000  O
  O56      1.0000 0.72654  0.86880  0.25884  Biso   1.000  O
  Zr29     1.0000 0.63860  0.52027  0.64681  Biso   1.000  Zr
  Zr30     1.0000 0.63690  0.73023  0.89540  Biso   1.000  Zr
  Zr31     1.0000 0.85894  0.77078  0.60485  Biso   1.000  Zr
  Zr32     1.0000 0.85886  0.97895  0.85556  Biso   1.000  Zr
  O57      1.0000 0.53504  0.66499  0.57977  Biso   1.000  O
  O58      1.0000 0.53400  0.58270  0.83041  Biso   1.000  O
  O59      1.0000 0.96148  0.91832  0.67063  Biso   1.000  O
  O60      1.0000 0.96270  0.83196  0.91987  Biso   1.000  O
  O61      1.0000 0.77456  0.62896  0.74066  Biso   1.000  O
  O62      1.0000 0.77418  0.62246  0.99021  Biso   1.000  O
  O63      1.0000 0.72290  0.87753  0.50947  Biso   1.000  O
  O64      1.0000 0.72192  0.87157  0.75988  Biso   1.000  O
  Pt1      1.0000 0.41838  0.22480  0.32615  Biso   1.000  Pt
