data_image0
_cell_length_a       10.1339
_cell_length_b       5.20141
_cell_length_c       10.5772
_cell_angle_alpha    89.3735
_cell_angle_beta     90.1893
_cell_angle_gamma    90.1234

_symmetry_space_group_name_H-M    "P 1"
_symmetry_int_tables_number       1

loop_
  _symmetry_equiv_pos_as_xyz
  'x, y, z'

loop_
  _atom_site_label
  _atom_site_occupancy
  _atom_site_fract_x
  _atom_site_fract_y
  _atom_site_fract_z
  _atom_site_thermal_displace_type
  _atom_site_B_iso_or_equiv
  _atom_site_type_symbol
  Zr1      1.0000 0.13800  0.04302  0.17076  Biso   1.000  Zr
  Zr2      1.0000 0.13841  0.45644  0.42426  Biso   1.000  Zr
  Zr3      1.0000 0.34916  0.54691  0.17798  Biso   1.000  Zr
  Zr4      1.0000 0.36414  0.95867  0.42243  Biso   1.000  Zr
  Zr5      1.0000 0.64610  0.06274  0.07797  Biso   1.000  Zr
  Zr6      1.0000 0.64203  0.46364  0.33384  Biso   1.000  Zr
  Zr7      1.0000 0.86332  0.54182  0.08212  Biso   1.000  Zr
  Zr8      1.0000 0.86529  0.96264  0.33418  Biso   1.000  Zr
  O1       1.0000 0.03275  0.32776  0.08305  Biso   1.000  O
  O2       1.0000 0.03399  0.17572  0.33220  Biso   1.000  O
  O3       1.0000 0.45154  0.87883  0.09451  Biso   1.000  O
  O4       1.0000 0.46847  0.67324  0.33264  Biso   1.000  O
  O5       1.0000 0.27267  0.25349  0.29715  Biso   1.000  O
  O6       1.0000 0.27377  0.25365  0.04333  Biso   1.000  O
  O7       1.0000 0.22323  0.75420  0.29855  Biso   1.000  O
  O8       1.0000 0.22091  0.74924  0.04516  Biso   1.000  O
  O9       1.0000 0.51751  0.30225  0.18414  Biso   1.000  O
  O10      1.0000 0.53414  0.17383  0.42032  Biso   1.000  O
  O11      1.0000 0.97091  0.82750  0.17025  Biso   1.000  O
  O12      1.0000 0.96924  0.67068  0.42095  Biso   1.000  O
  O13      1.0000 0.77624  0.24993  0.45748  Biso   1.000  O
  O14      1.0000 0.77828  0.26091  0.21190  Biso   1.000  O
  O15      1.0000 0.72619  0.74732  0.45993  Biso   1.000  O
  O16      1.0000 0.73446  0.77526  0.21556  Biso   1.000  O
  Zr9      1.0000 0.14168  0.03826  0.67155  Biso   1.000  Zr
  Zr10     1.0000 0.13902  0.45569  0.92108  Biso   1.000  Zr
  Zr11     1.0000 0.36249  0.53908  0.67154  Biso   1.000  Zr
  Zr12     1.0000 0.36185  0.95800  0.91960  Biso   1.000  Zr
  Zr13     1.0000 0.64055  0.03734  0.57964  Biso   1.000  Zr
  Zr14     1.0000 0.63969  0.44035  0.82232  Biso   1.000  Zr
  Zr15     1.0000 0.86382  0.53986  0.58130  Biso   1.000  Zr
  Zr16     1.0000 0.86615  0.95357  0.82806  Biso   1.000  Zr
  O17      1.0000 0.03358  0.32434  0.58342  Biso   1.000  O
  O18      1.0000 0.03580  0.16802  0.83097  Biso   1.000  O
  O19      1.0000 0.46971  0.82610  0.58225  Biso   1.000  O
  O20      1.0000 0.46683  0.65774  0.83059  Biso   1.000  O
  O21      1.0000 0.27740  0.24472  0.79472  Biso   1.000  O
  O22      1.0000 0.27637  0.24768  0.54535  Biso   1.000  O
  O23      1.0000 0.22590  0.74499  0.79540  Biso   1.000  O
  O24      1.0000 0.22740  0.74877  0.54597  Biso   1.000  O
  O25      1.0000 0.53311  0.32564  0.66408  Biso   1.000  O
  O26      1.0000 0.54188  0.12617  0.90280  Biso   1.000  O
  O27      1.0000 0.97168  0.82487  0.66736  Biso   1.000  O
  O28      1.0000 0.96810  0.66905  0.91915  Biso   1.000  O
  O29      1.0000 0.79074  0.23462  0.95077  Biso   1.000  O
  O30      1.0000 0.77757  0.24079  0.70251  Biso   1.000  O
  O31      1.0000 0.72382  0.74702  0.95697  Biso   1.000  O
  O32      1.0000 0.72876  0.74211  0.70683  Biso   1.000  O
  Pt1      1.0000 0.58408  0.55592  0.06040  Biso   1.000  Pt
