data_image0
_cell_length_a       10.1651
_cell_length_b       10.6268
_cell_length_c       5.06813
_cell_angle_alpha    89.8215
_cell_angle_beta     88.5521
_cell_angle_gamma    90.5836

_symmetry_space_group_name_H-M    "P 1"
_symmetry_int_tables_number       1

loop_
  _symmetry_equiv_pos_as_xyz
  'x, y, z'

loop_
  _atom_site_label
  _atom_site_occupancy
  _atom_site_fract_x
  _atom_site_fract_y
  _atom_site_fract_z
  _atom_site_thermal_displace_type
  _atom_site_B_iso_or_equiv
  _atom_site_type_symbol
  Zr1      1.0000 0.13783  0.00225  0.23086  Biso   1.000  Zr
  Zr2      1.0000 0.13043  0.20951  0.73603  Biso   1.000  Zr
  Zr3      1.0000 0.37944  0.26364  0.26532  Biso   1.000  Zr
  Zr4      1.0000 0.36930  0.49132  0.75098  Biso   1.000  Zr
  O1       1.0000 0.01695  0.16777  0.38523  Biso   1.000  O
  O2       1.0000 0.02924  0.05668  0.89560  Biso   1.000  O
  O3       1.0000 0.47815  0.42688  0.42491  Biso   1.000  O
  O4       1.0000 0.47982  0.32031  0.92973  Biso   1.000  O
  O5       1.0000 0.25940  0.09683  0.48553  Biso   1.000  O
  O6       1.0000 0.28118  0.12242  0.97909  Biso   1.000  O
  O7       1.0000 0.26480  0.42105  0.09200  Biso   1.000  O
  O8       1.0000 0.26933  0.33884  0.61424  Biso   1.000  O
  Zr5      1.0000 0.11915  0.54467  0.22414  Biso   1.000  Zr
  Zr6      1.0000 0.13230  0.74302  0.73359  Biso   1.000  Zr
  Zr7      1.0000 0.37377  0.75984  0.23997  Biso   1.000  Zr
  Zr8      1.0000 0.37404  0.98422  0.74046  Biso   1.000  Zr
  O9       1.0000 0.02598  0.69437  0.38946  Biso   1.000  O
  O10      1.0000 0.03350  0.57099  0.86533  Biso   1.000  O
  O11      1.0000 0.47014  0.92518  0.38496  Biso   1.000  O
  O12      1.0000 0.47017  0.81942  0.89095  Biso   1.000  O
  O13      1.0000 0.26258  0.61111  0.48882  Biso   1.000  O
  O14      1.0000 0.26157  0.65059  0.98064  Biso   1.000  O
  O15      1.0000 0.23229  0.88463  0.97161  Biso   1.000  O
  O16      1.0000 0.23565  0.85759  0.47140  Biso   1.000  O
  Zr9      1.0000 0.63412  0.01391  0.25073  Biso   1.000  Zr
  Zr10     1.0000 0.63230  0.23318  0.75538  Biso   1.000  Zr
  Zr11     1.0000 0.85517  0.26834  0.23457  Biso   1.000  Zr
  Zr12     1.0000 0.86658  0.48196  0.73489  Biso   1.000  Zr
  O17      1.0000 0.52772  0.16918  0.42668  Biso   1.000  O
  O18      1.0000 0.53697  0.06531  0.90481  Biso   1.000  O
  O19      1.0000 0.94837  0.44751  0.35694  Biso   1.000  O
  O20      1.0000 0.95436  0.31371  0.83263  Biso   1.000  O
  O21      1.0000 0.76633  0.11412  0.49233  Biso   1.000  O
  O22      1.0000 0.76601  0.13591  0.99479  Biso   1.000  O
  O23      1.0000 0.73148  0.38598  0.99301  Biso   1.000  O
  O24      1.0000 0.72730  0.36228  0.49109  Biso   1.000  O
  Zr13     1.0000 0.63467  0.51418  0.25237  Biso   1.000  Zr
  Zr14     1.0000 0.63405  0.73139  0.75276  Biso   1.000  Zr
  Zr15     1.0000 0.85986  0.76797  0.24227  Biso   1.000  Zr
  Zr16     1.0000 0.86369  0.98316  0.73930  Biso   1.000  Zr
  O25      1.0000 0.52834  0.67627  0.41458  Biso   1.000  O
  O26      1.0000 0.52839  0.57351  0.92422  Biso   1.000  O
  O27      1.0000 0.96694  0.92973  0.39665  Biso   1.000  O
  O28      1.0000 0.96455  0.81790  0.89320  Biso   1.000  O
  O29      1.0000 0.76253  0.61592  0.49679  Biso   1.000  O
  O30      1.0000 0.76719  0.63521  0.99465  Biso   1.000  O
  O31      1.0000 0.73196  0.88446  0.99651  Biso   1.000  O
  O32      1.0000 0.72967  0.86503  0.49696  Biso   1.000  O
  Pt1      1.0000 0.12842  0.29984  0.21654  Biso   1.000  Pt
