data_image0
_cell_length_a       5.1048
_cell_length_b       10.3749
_cell_length_c       10.2024
_cell_angle_alpha    88.9817
_cell_angle_beta     92.5882
_cell_angle_gamma    90.4887

_symmetry_space_group_name_H-M    "P 1"
_symmetry_int_tables_number       1

loop_
  _symmetry_equiv_pos_as_xyz
  'x, y, z'

loop_
  _atom_site_label
  _atom_site_occupancy
  _atom_site_fract_x
  _atom_site_fract_y
  _atom_site_fract_z
  _atom_site_thermal_displace_type
  _atom_site_B_iso_or_equiv
  _atom_site_type_symbol
  Zr1      1.0000 0.24937  0.98181  0.13626  Biso   1.000  Zr
  Zr2      1.0000 0.20715  0.24319  0.38371  Biso   1.000  Zr
  Zr3      1.0000 0.72267  0.20784  0.13079  Biso   1.000  Zr
  Zr4      1.0000 0.72141  0.00626  0.39634  Biso   1.000  Zr
  O1       1.0000 0.04739  0.16617  0.01507  Biso   1.000  O
  O2       1.0000 0.97761  0.07818  0.26045  Biso   1.000  O
  O3       1.0000 0.82797  0.31983  0.28816  Biso   1.000  O
  O4       1.0000 0.13887  0.43873  0.94607  Biso   1.000  O
  O5       1.0000 0.47506  0.11874  0.26636  Biso   1.000  O
  O6       1.0000 0.50946  0.08750  0.00066  Biso   1.000  O
  O7       1.0000 0.64433  0.34177  0.97616  Biso   1.000  O
  O8       1.0000 0.35150  0.41654  0.27020  Biso   1.000  O
  Zr5      1.0000 0.24059  0.00177  0.63601  Biso   1.000  Zr
  Zr6      1.0000 0.29857  0.26158  0.87058  Biso   1.000  Zr
  Zr7      1.0000 0.74707  0.26053  0.62397  Biso   1.000  Zr
  Zr8      1.0000 0.76099  0.00617  0.86648  Biso   1.000  Zr
  O9       1.0000 0.96893  0.13932  0.51314  Biso   1.000  O
  O10      1.0000 0.04035  0.10514  0.76769  Biso   1.000  O
  O11      1.0000 0.03321  0.34955  0.73377  Biso   1.000  O
  O12      1.0000 0.99151  0.39554  0.49656  Biso   1.000  O
  O13      1.0000 0.53412  0.15126  0.75237  Biso   1.000  O
  O14      1.0000 0.46331  0.10840  0.50746  Biso   1.000  O
  O15      1.0000 0.48418  0.35398  0.50014  Biso   1.000  O
  O16      1.0000 0.52704  0.40172  0.74156  Biso   1.000  O
  Zr9      1.0000 0.23918  0.54653  0.11261  Biso   1.000  Zr
  Zr10     1.0000 0.28573  0.75552  0.38789  Biso   1.000  Zr
  Zr11     1.0000 0.74412  0.75419  0.12419  Biso   1.000  Zr
  Zr12     1.0000 0.71994  0.49191  0.36369  Biso   1.000  Zr
  O17      1.0000 0.00625  0.66908  0.98616  Biso   1.000  O
  O18      1.0000 0.91979  0.57899  0.21671  Biso   1.000  O
  O19      1.0000 0.05740  0.82503  0.23942  Biso   1.000  O
  O20      1.0000 0.92451  0.91865  0.02336  Biso   1.000  O
  O21      1.0000 0.47574  0.64973  0.24961  Biso   1.000  O
  O22      1.0000 0.53430  0.61009  0.99272  Biso   1.000  O
  O23      1.0000 0.42424  0.84043  0.02075  Biso   1.000  O
  O24      1.0000 0.54443  0.88499  0.26126  Biso   1.000  O
  Zr13     1.0000 0.25731  0.49367  0.61421  Biso   1.000  Zr
  Zr14     1.0000 0.28483  0.74380  0.85908  Biso   1.000  Zr
  Zr15     1.0000 0.79484  0.73684  0.61365  Biso   1.000  Zr
  Zr16     1.0000 0.78109  0.50410  0.87205  Biso   1.000  Zr
  O25      1.0000 0.00932  0.63951  0.48053  Biso   1.000  O
  O26      1.0000 0.03655  0.60613  0.73450  Biso   1.000  O
  O27      1.0000 0.98880  0.85616  0.75326  Biso   1.000  O
  O28      1.0000 0.02327  0.88901  0.50059  Biso   1.000  O
  O29      1.0000 0.54444  0.65092  0.74643  Biso   1.000  O
  O30      1.0000 0.51387  0.60594  0.49985  Biso   1.000  O
  O31      1.0000 0.52225  0.86051  0.51635  Biso   1.000  O
  O32      1.0000 0.48022  0.90260  0.76889  Biso   1.000  O
  Pt1      1.0000 0.21263  0.29943  0.13419  Biso   1.000  Pt
