data_image0
_cell_length_a       10.0748
_cell_length_b       10.2402
_cell_length_c       10.0748
_cell_angle_alpha    90.0003
_cell_angle_beta     89.1886
_cell_angle_gamma    90.0003

_symmetry_space_group_name_H-M    "P 1"
_symmetry_int_tables_number       1

loop_
  _symmetry_equiv_pos_as_xyz
  'x, y, z'

loop_
  _atom_site_label
  _atom_site_occupancy
  _atom_site_fract_x
  _atom_site_fract_y
  _atom_site_fract_z
  _atom_site_thermal_displace_type
  _atom_site_B_iso_or_equiv
  _atom_site_type_symbol
  Pt1      1.0000 0.12544  0.96321  0.12544  Biso   1.000  Pt
  Zr1      1.0000 0.12906  0.25137  0.37249  Biso   1.000  Zr
  Zr2      1.0000 0.37249  0.25137  0.12906  Biso   1.000  Zr
  Zr3      1.0000 0.38194  0.00738  0.38194  Biso   1.000  Zr
  O1       1.0000 0.97312  0.16084  0.97312  Biso   1.000  O
  O2       1.0000 0.01799  0.09274  0.23290  Biso   1.000  O
  O3       1.0000 0.99966  0.34935  0.25122  Biso   1.000  O
  O4       1.0000 0.00186  0.40350  0.00186  Biso   1.000  O
  O5       1.0000 0.27776  0.16084  0.27776  Biso   1.000  O
  O6       1.0000 0.23290  0.09275  0.01798  Biso   1.000  O
  O7       1.0000 0.25122  0.34935  0.99966  Biso   1.000  O
  O8       1.0000 0.24902  0.40350  0.24902  Biso   1.000  O
  Zr4      1.0000 0.12544  0.99468  0.62544  Biso   1.000  Zr
  Zr5      1.0000 0.12182  0.25137  0.87838  Biso   1.000  Zr
  Zr6      1.0000 0.37287  0.24966  0.62898  Biso   1.000  Zr
  Zr7      1.0000 0.36926  0.00335  0.88162  Biso   1.000  Zr
  O9       1.0000 0.99767  0.14647  0.48616  Biso   1.000  O
  O10      1.0000 0.99657  0.10328  0.73491  Biso   1.000  O
  O11      1.0000 0.00016  0.35380  0.74971  Biso   1.000  O
  O12      1.0000 0.00018  0.39675  0.50132  Biso   1.000  O
  O13      1.0000 0.25321  0.14647  0.76473  Biso   1.000  O
  O14      1.0000 0.25431  0.10328  0.51597  Biso   1.000  O
  O15      1.0000 0.25072  0.35379  0.50116  Biso   1.000  O
  O16      1.0000 0.25070  0.39675  0.74956  Biso   1.000  O
  Zr8      1.0000 0.12544  0.50592  0.12544  Biso   1.000  Zr
  Zr9      1.0000 0.12960  0.74935  0.38202  Biso   1.000  Zr
  Zr10     1.0000 0.38202  0.74935  0.12960  Biso   1.000  Zr
  Zr11     1.0000 0.37658  0.49828  0.37658  Biso   1.000  Zr
  O17      1.0000 0.00185  0.65282  0.00185  Biso   1.000  O
  O18      1.0000 0.99851  0.60186  0.25236  Biso   1.000  O
  O19      1.0000 0.01168  0.84636  0.23920  Biso   1.000  O
  O20      1.0000 0.99217  0.91158  0.99218  Biso   1.000  O
  O21      1.0000 0.24902  0.65282  0.24902  Biso   1.000  O
  O22      1.0000 0.25236  0.60186  0.99851  Biso   1.000  O
  O23      1.0000 0.23920  0.84636  0.01168  Biso   1.000  O
  O24      1.0000 0.25871  0.91158  0.25870  Biso   1.000  O
  Zr12     1.0000 0.12544  0.49894  0.62544  Biso   1.000  Zr
  Zr13     1.0000 0.12127  0.74935  0.86885  Biso   1.000  Zr
  Zr14     1.0000 0.37863  0.75010  0.62775  Biso   1.000  Zr
  Zr15     1.0000 0.37552  0.49762  0.87535  Biso   1.000  Zr
  O25      1.0000 0.00106  0.64567  0.50237  Biso   1.000  O
  O26      1.0000 0.00138  0.60381  0.75246  Biso   1.000  O
  O27      1.0000 0.99543  0.85252  0.74687  Biso   1.000  O
  O28      1.0000 0.00665  0.89589  0.49328  Biso   1.000  O
  O29      1.0000 0.24981  0.64567  0.74850  Biso   1.000  O
  O30      1.0000 0.24949  0.60381  0.49841  Biso   1.000  O
  O31      1.0000 0.25544  0.85251  0.50401  Biso   1.000  O
  O32      1.0000 0.24422  0.89589  0.75759  Biso   1.000  O
  Zr16     1.0000 0.62544  0.99468  0.12544  Biso   1.000  Zr
  Zr17     1.0000 0.62899  0.24966  0.37287  Biso   1.000  Zr
  Zr18     1.0000 0.87838  0.25137  0.12182  Biso   1.000  Zr
  Zr19     1.0000 0.88162  0.00335  0.36926  Biso   1.000  Zr
  O33      1.0000 0.48616  0.14647  0.99767  Biso   1.000  O
  O34      1.0000 0.51597  0.10328  0.25431  Biso   1.000  O
  O35      1.0000 0.50116  0.35379  0.25072  Biso   1.000  O
  O36      1.0000 0.50131  0.39675  0.00019  Biso   1.000  O
  O37      1.0000 0.76473  0.14647  0.25321  Biso   1.000  O
  O38      1.0000 0.73491  0.10328  0.99657  Biso   1.000  O
  O39      1.0000 0.74971  0.35380  0.00016  Biso   1.000  O
  O40      1.0000 0.74956  0.39675  0.25069  Biso   1.000  O
  Zr20     1.0000 0.62544  0.00457  0.62544  Biso   1.000  Zr
  Zr21     1.0000 0.62189  0.24966  0.87801  Biso   1.000  Zr
  Zr22     1.0000 0.87801  0.24966  0.62189  Biso   1.000  Zr
  Zr23     1.0000 0.86894  0.00738  0.86894  Biso   1.000  Zr
  O41      1.0000 0.50299  0.14936  0.50298  Biso   1.000  O
  O42      1.0000 0.49849  0.10282  0.75239  Biso   1.000  O
  O43      1.0000 0.50032  0.35331  0.75056  Biso   1.000  O
  O44      1.0000 0.50056  0.39678  0.50056  Biso   1.000  O
  O45      1.0000 0.74790  0.14936  0.74790  Biso   1.000  O
  O46      1.0000 0.75239  0.10282  0.49849  Biso   1.000  O
  O47      1.0000 0.75056  0.35331  0.50032  Biso   1.000  O
  O48      1.0000 0.75032  0.39678  0.75032  Biso   1.000  O
  Zr24     1.0000 0.62544  0.49894  0.12544  Biso   1.000  Zr
  Zr25     1.0000 0.62775  0.75010  0.37863  Biso   1.000  Zr
  Zr26     1.0000 0.86885  0.74935  0.12127  Biso   1.000  Zr
  Zr27     1.0000 0.87535  0.49762  0.37552  Biso   1.000  Zr
  O49      1.0000 0.50237  0.64567  0.00106  Biso   1.000  O
  O50      1.0000 0.49841  0.60381  0.24949  Biso   1.000  O
  O51      1.0000 0.50401  0.85251  0.25544  Biso   1.000  O
  O52      1.0000 0.49328  0.89589  0.00665  Biso   1.000  O
  O53      1.0000 0.74850  0.64567  0.24981  Biso   1.000  O
  O54      1.0000 0.75246  0.60381  0.00138  Biso   1.000  O
  O55      1.0000 0.74687  0.85252  0.99543  Biso   1.000  O
  O56      1.0000 0.75760  0.89589  0.24422  Biso   1.000  O
  Zr28     1.0000 0.62544  0.49693  0.62544  Biso   1.000  Zr
  Zr29     1.0000 0.62312  0.75010  0.87224  Biso   1.000  Zr
  Zr30     1.0000 0.87224  0.75010  0.62312  Biso   1.000  Zr
  Zr31     1.0000 0.87430  0.49829  0.87430  Biso   1.000  Zr
  O57      1.0000 0.50042  0.64567  0.50042  Biso   1.000  O
  O58      1.0000 0.50063  0.60377  0.75025  Biso   1.000  O
  O59      1.0000 0.49320  0.85433  0.75768  Biso   1.000  O
  O60      1.0000 0.50560  0.89573  0.50560  Biso   1.000  O
  O61      1.0000 0.75045  0.64567  0.75045  Biso   1.000  O
  O62      1.0000 0.75025  0.60377  0.50063  Biso   1.000  O
  O63      1.0000 0.75768  0.85433  0.49320  Biso   1.000  O
  O64      1.0000 0.74528  0.89573  0.74528  Biso   1.000  O
