data_image0
_cell_length_a       10.2022
_cell_length_b       5.14061
_cell_length_c       10.5411
_cell_angle_alpha    89.9716
_cell_angle_beta     80.7542
_cell_angle_gamma    89.2471

_symmetry_space_group_name_H-M    "P 1"
_symmetry_int_tables_number       1

loop_
  _symmetry_equiv_pos_as_xyz
  'x, y, z'

loop_
  _atom_site_label
  _atom_site_occupancy
  _atom_site_fract_x
  _atom_site_fract_y
  _atom_site_fract_z
  _atom_site_thermal_displace_type
  _atom_site_B_iso_or_equiv
  _atom_site_type_symbol
  Pt1      1.0000 0.12607  0.02030  0.16879  Biso   1.000  Pt
  Zr1      1.0000 0.13732  0.45783  0.39517  Biso   1.000  Zr
  Zr2      1.0000 0.35779  0.54820  0.09904  Biso   1.000  Zr
  Zr3      1.0000 0.36195  0.95859  0.35234  Biso   1.000  Zr
  O1       1.0000 0.04307  0.30907  0.07950  Biso   1.000  O
  O2       1.0000 0.02743  0.17469  0.32629  Biso   1.000  O
  O3       1.0000 0.46544  0.82739  0.17485  Biso   1.000  O
  O4       1.0000 0.46469  0.66757  0.42237  Biso   1.000  O
  O5       1.0000 0.27044  0.24734  0.23049  Biso   1.000  O
  O6       1.0000 0.27548  0.24468  0.48496  Biso   1.000  O
  O7       1.0000 0.22462  0.80291  0.01527  Biso   1.000  O
  O8       1.0000 0.21741  0.74112  0.25931  Biso   1.000  O
  Zr4      1.0000 0.13822  0.03920  0.64396  Biso   1.000  Zr
  Zr5      1.0000 0.14117  0.45397  0.89392  Biso   1.000  Zr
  Zr6      1.0000 0.36178  0.54554  0.60553  Biso   1.000  Zr
  Zr7      1.0000 0.36198  0.97289  0.85567  Biso   1.000  Zr
  O9       1.0000 0.03137  0.32072  0.57191  Biso   1.000  O
  O10      1.0000 0.03467  0.16940  0.82523  Biso   1.000  O
  O11      1.0000 0.46713  0.83316  0.67279  Biso   1.000  O
  O12      1.0000 0.47082  0.68862  0.92512  Biso   1.000  O
  O13      1.0000 0.27323  0.25448  0.73203  Biso   1.000  O
  O14      1.0000 0.29510  0.29381  0.96811  Biso   1.000  O
  O15      1.0000 0.22381  0.75565  0.50843  Biso   1.000  O
  O16      1.0000 0.22734  0.74287  0.76174  Biso   1.000  O
  Zr8      1.0000 0.63654  0.03845  0.14346  Biso   1.000  Zr
  Zr9      1.0000 0.63678  0.45407  0.39503  Biso   1.000  Zr
  Zr10     1.0000 0.86621  0.52580  0.10590  Biso   1.000  Zr
  Zr11     1.0000 0.85359  0.95102  0.35711  Biso   1.000  Zr
  O17      1.0000 0.53384  0.33205  0.07614  Biso   1.000  O
  O18      1.0000 0.53239  0.16640  0.32695  Biso   1.000  O
  O19      1.0000 0.96185  0.82599  0.17345  Biso   1.000  O
  O20      1.0000 0.96607  0.67467  0.42609  Biso   1.000  O
  O21      1.0000 0.77263  0.24857  0.24068  Biso   1.000  O
  O22      1.0000 0.77518  0.24004  0.49060  Biso   1.000  O
  O23      1.0000 0.72737  0.75275  0.01187  Biso   1.000  O
  O24      1.0000 0.72590  0.73498  0.26055  Biso   1.000  O
  Zr12     1.0000 0.63847  0.04343  0.64739  Biso   1.000  Zr
  Zr13     1.0000 0.63931  0.46173  0.89671  Biso   1.000  Zr
  Zr14     1.0000 0.86044  0.54105  0.60676  Biso   1.000  Zr
  Zr15     1.0000 0.86462  0.95352  0.85738  Biso   1.000  Zr
  O25      1.0000 0.53378  0.33120  0.57595  Biso   1.000  O
  O26      1.0000 0.53630  0.17781  0.82456  Biso   1.000  O
  O27      1.0000 0.96901  0.81875  0.67720  Biso   1.000  O
  O28      1.0000 0.96799  0.66255  0.92933  Biso   1.000  O
  O29      1.0000 0.77772  0.25672  0.74067  Biso   1.000  O
  O30      1.0000 0.77666  0.23994  0.99080  Biso   1.000  O
  O31      1.0000 0.72235  0.75295  0.51108  Biso   1.000  O
  O32      1.0000 0.72669  0.74554  0.76156  Biso   1.000  O
