data_image0
_cell_length_a       5.09984
_cell_length_b       10.2869
_cell_length_c       10.5245
_cell_angle_alpha    90.0102
_cell_angle_beta     80.8089
_cell_angle_gamma    89.2713

_symmetry_space_group_name_H-M    "P 1"
_symmetry_int_tables_number       1

loop_
  _symmetry_equiv_pos_as_xyz
  'x, y, z'

loop_
  _atom_site_label
  _atom_site_occupancy
  _atom_site_fract_x
  _atom_site_fract_y
  _atom_site_fract_z
  _atom_site_thermal_displace_type
  _atom_site_B_iso_or_equiv
  _atom_site_type_symbol
  Pt1      1.0000 0.24709  0.00837  0.16893  Biso   1.000  Pt
  Zr1      1.0000 0.27846  0.23197  0.39208  Biso   1.000  Zr
  Zr2      1.0000 0.73342  0.26412  0.10295  Biso   1.000  Zr
  Zr3      1.0000 0.72248  0.47880  0.35336  Biso   1.000  Zr
  O1       1.0000 0.08902  0.15500  0.08004  Biso   1.000  O
  O2       1.0000 0.05225  0.08794  0.32603  Biso   1.000  O
  O3       1.0000 0.93712  0.41433  0.17373  Biso   1.000  O
  O4       1.0000 0.93304  0.33555  0.42388  Biso   1.000  O
  O5       1.0000 0.53646  0.11885  0.23073  Biso   1.000  O
  O6       1.0000 0.55246  0.12216  0.48384  Biso   1.000  O
  O7       1.0000 0.46048  0.38202  0.01111  Biso   1.000  O
  O8       1.0000 0.45840  0.36795  0.25885  Biso   1.000  O
  Zr4      1.0000 0.27434  0.02134  0.64372  Biso   1.000  Zr
  Zr5      1.0000 0.28978  0.22543  0.89650  Biso   1.000  Zr
  Zr6      1.0000 0.72449  0.27204  0.60473  Biso   1.000  Zr
  Zr7      1.0000 0.72954  0.47782  0.85774  Biso   1.000  Zr
  O9       1.0000 0.06826  0.16458  0.57169  Biso   1.000  O
  O10      1.0000 0.07689  0.08428  0.82423  Biso   1.000  O
  O11      1.0000 0.93872  0.41274  0.67644  Biso   1.000  O
  O12      1.0000 0.95206  0.33856  0.92999  Biso   1.000  O
  O13      1.0000 0.55196  0.12748  0.73207  Biso   1.000  O
  O14      1.0000 0.59630  0.13952  0.97054  Biso   1.000  O
  O15      1.0000 0.44793  0.37778  0.50943  Biso   1.000  O
  O16      1.0000 0.45795  0.37146  0.76131  Biso   1.000  O
  Zr8      1.0000 0.27538  0.52087  0.14402  Biso   1.000  Zr
  Zr9      1.0000 0.26962  0.72440  0.39792  Biso   1.000  Zr
  Zr10     1.0000 0.71339  0.77236  0.10166  Biso   1.000  Zr
  Zr11     1.0000 0.70734  0.97595  0.35585  Biso   1.000  Zr
  O17      1.0000 0.06712  0.66895  0.07840  Biso   1.000  O
  O18      1.0000 0.06858  0.58105  0.32856  Biso   1.000  O
  O19      1.0000 0.91459  0.91518  0.17140  Biso   1.000  O
  O20      1.0000 0.92679  0.83382  0.42231  Biso   1.000  O
  O21      1.0000 0.54841  0.62937  0.24072  Biso   1.000  O
  O22      1.0000 0.55037  0.62027  0.49190  Biso   1.000  O
  O23      1.0000 0.44049  0.89601  0.01504  Biso   1.000  O
  O24      1.0000 0.42873  0.86932  0.26055  Biso   1.000  O
  Zr12     1.0000 0.28040  0.52041  0.64818  Biso   1.000  Zr
  Zr13     1.0000 0.27316  0.73288  0.89574  Biso   1.000  Zr
  Zr14     1.0000 0.72010  0.77130  0.60751  Biso   1.000  Zr
  Zr15     1.0000 0.72511  0.98506  0.85488  Biso   1.000  Zr
  O25      1.0000 0.06524  0.66398  0.57843  Biso   1.000  O
  O26      1.0000 0.07031  0.58640  0.82852  Biso   1.000  O
  O27      1.0000 0.93163  0.91612  0.67120  Biso   1.000  O
  O28      1.0000 0.91945  0.83222  0.92131  Biso   1.000  O
  O29      1.0000 0.55170  0.62861  0.74151  Biso   1.000  O
  O30      1.0000 0.54910  0.62605  0.98981  Biso   1.000  O
  O31      1.0000 0.44453  0.87721  0.50941  Biso   1.000  O
  O32      1.0000 0.44958  0.87210  0.76124  Biso   1.000  O
