data_image0
_cell_length_a       5.04402
_cell_length_b       10.5243
_cell_length_c       10.1725
_cell_angle_alpha    89.0915
_cell_angle_beta     90.9012
_cell_angle_gamma    90.3262

_symmetry_space_group_name_H-M    "P 1"
_symmetry_int_tables_number       1

loop_
  _symmetry_equiv_pos_as_xyz
  'x, y, z'

loop_
  _atom_site_label
  _atom_site_occupancy
  _atom_site_fract_x
  _atom_site_fract_y
  _atom_site_fract_z
  _atom_site_thermal_displace_type
  _atom_site_B_iso_or_equiv
  _atom_site_type_symbol
  Zr1      1.0000 0.27147  0.01333  0.12217  Biso   1.000  Zr
  Zr2      1.0000 0.26856  0.23200  0.39710  Biso   1.000  Zr
  Zr3      1.0000 0.68429  0.26515  0.14812  Biso   1.000  Zr
  Zr4      1.0000 0.73876  0.48401  0.38942  Biso   1.000  Zr
  O1       1.0000 0.02514  0.17237  0.20771  Biso   1.000  O
  O2       1.0000 0.08643  0.05795  0.43982  Biso   1.000  O
  O3       1.0000 0.91359  0.43939  0.20658  Biso   1.000  O
  O4       1.0000 0.92643  0.31358  0.44809  Biso   1.000  O
  O5       1.0000 0.50939  0.11763  0.25877  Biso   1.000  O
  O6       1.0000 0.55921  0.12990  0.50479  Biso   1.000  O
  O7       1.0000 0.46108  0.37848  0.51126  Biso   1.000  O
  O8       1.0000 0.45268  0.37459  0.27230  Biso   1.000  O
  Zr5      1.0000 0.27746  0.00424  0.62163  Biso   1.000  Zr
  Zr6      1.0000 0.26511  0.21756  0.84739  Biso   1.000  Zr
  Zr7      1.0000 0.74411  0.27083  0.63721  Biso   1.000  Zr
  Zr8      1.0000 0.74024  0.48287  0.86591  Biso   1.000  Zr
  O9       1.0000 0.09621  0.17644  0.66275  Biso   1.000  O
  O10      1.0000 0.09393  0.05392  0.93441  Biso   1.000  O
  O11      1.0000 0.89933  0.45423  0.66308  Biso   1.000  O
  O12      1.0000 0.89299  0.30243  0.84703  Biso   1.000  O
  O13      1.0000 0.54503  0.10869  0.74759  Biso   1.000  O
  O14      1.0000 0.58271  0.12456  0.00268  Biso   1.000  O
  O15      1.0000 0.49309  0.39436  0.00864  Biso   1.000  O
  O16      1.0000 0.43342  0.37332  0.75227  Biso   1.000  O
  Zr9      1.0000 0.26775  0.52912  0.13830  Biso   1.000  Zr
  Zr10     1.0000 0.27562  0.73755  0.37898  Biso   1.000  Zr
  Zr11     1.0000 0.73040  0.76618  0.12961  Biso   1.000  Zr
  Zr12     1.0000 0.74016  0.98467  0.37630  Biso   1.000  Zr
  O17      1.0000 0.07821  0.68955  0.19764  Biso   1.000  O
  O18      1.0000 0.08881  0.56894  0.43959  Biso   1.000  O
  O19      1.0000 0.93237  0.93399  0.19442  Biso   1.000  O
  O20      1.0000 0.94067  0.81709  0.45070  Biso   1.000  O
  O21      1.0000 0.55005  0.62292  0.25888  Biso   1.000  O
  O22      1.0000 0.54413  0.63433  0.50615  Biso   1.000  O
  O23      1.0000 0.47684  0.88074  0.49963  Biso   1.000  O
  O24      1.0000 0.46685  0.86997  0.25044  Biso   1.000  O
  Zr13     1.0000 0.27089  0.51882  0.62545  Biso   1.000  Zr
  Zr14     1.0000 0.26824  0.73359  0.87994  Biso   1.000  Zr
  Zr15     1.0000 0.74175  0.76535  0.63135  Biso   1.000  Zr
  Zr16     1.0000 0.73689  0.98021  0.88049  Biso   1.000  Zr
  O25      1.0000 0.07661  0.68294  0.70105  Biso   1.000  O
  O26      1.0000 0.06702  0.55905  0.95090  Biso   1.000  O
  O27      1.0000 0.93895  0.93091  0.69813  Biso   1.000  O
  O28      1.0000 0.93052  0.81116  0.94949  Biso   1.000  O
  O29      1.0000 0.54099  0.61848  0.75535  Biso   1.000  O
  O30      1.0000 0.52910  0.63807  0.00673  Biso   1.000  O
  O31      1.0000 0.46239  0.88101  0.00261  Biso   1.000  O
  O32      1.0000 0.47100  0.86246  0.75264  Biso   1.000  O
  Pt1      1.0000 0.18101  0.29018  0.07629  Biso   1.000  Pt
