data_image0
_cell_length_a       10.0714
_cell_length_b       10.2898
_cell_length_c       10.4972
_cell_angle_alpha    89.6904
_cell_angle_beta     90.2353
_cell_angle_gamma    90.156

_symmetry_space_group_name_H-M    "P 1"
_symmetry_int_tables_number       1

loop_
  _symmetry_equiv_pos_as_xyz
  'x, y, z'

loop_
  _atom_site_label
  _atom_site_occupancy
  _atom_site_fract_x
  _atom_site_fract_y
  _atom_site_fract_z
  _atom_site_thermal_displace_type
  _atom_site_B_iso_or_equiv
  _atom_site_type_symbol
  Rb1      1.0000 0.09060  0.98061  0.14866  Biso   1.000  Rb
  Hf1      1.0000 0.13989  0.02232  0.67130  Biso   1.000  Hf
  Hf2      1.0000 0.14481  0.51894  0.17194  Biso   1.000  Hf
  Hf3      1.0000 0.14125  0.52225  0.67124  Biso   1.000  Hf
  Hf4      1.0000 0.14202  0.22739  0.42147  Biso   1.000  Hf
  Hf5      1.0000 0.13955  0.22890  0.92320  Biso   1.000  Hf
  Hf6      1.0000 0.14145  0.72963  0.42031  Biso   1.000  Hf
  Hf7      1.0000 0.15180  0.72815  0.91785  Biso   1.000  Hf
  Hf8      1.0000 0.35226  0.25962  0.17117  Biso   1.000  Hf
  Hf9      1.0000 0.36021  0.27047  0.67190  Biso   1.000  Hf
  Hf10     1.0000 0.36788  0.77120  0.17123  Biso   1.000  Hf
  Hf11     1.0000 0.36016  0.77295  0.66812  Biso   1.000  Hf
  Hf12     1.0000 0.36038  0.47686  0.42013  Biso   1.000  Hf
  Hf13     1.0000 0.36130  0.47523  0.92241  Biso   1.000  Hf
  Hf14     1.0000 0.35873  0.98087  0.41621  Biso   1.000  Hf
  Hf15     1.0000 0.36413  0.98177  0.92115  Biso   1.000  Hf
  Hf16     1.0000 0.64091  0.02923  0.07537  Biso   1.000  Hf
  Hf17     1.0000 0.63438  0.02117  0.58257  Biso   1.000  Hf
  Hf18     1.0000 0.63278  0.51481  0.07932  Biso   1.000  Hf
  Hf19     1.0000 0.63931  0.52047  0.57796  Biso   1.000  Hf
  Hf20     1.0000 0.63618  0.23320  0.32941  Biso   1.000  Hf
  Hf21     1.0000 0.64168  0.23098  0.82742  Biso   1.000  Hf
  Hf22     1.0000 0.63930  0.72413  0.33197  Biso   1.000  Hf
  Hf23     1.0000 0.63445  0.72978  0.82482  Biso   1.000  Hf
  Hf24     1.0000 0.86305  0.27563  0.07796  Biso   1.000  Hf
  Hf25     1.0000 0.86444  0.27418  0.57930  Biso   1.000  Hf
  Hf26     1.0000 0.86670  0.74240  0.05537  Biso   1.000  Hf
  Hf27     1.0000 0.86379  0.77091  0.57989  Biso   1.000  Hf
  Hf28     1.0000 0.86400  0.48135  0.32786  Biso   1.000  Hf
  Hf29     1.0000 0.86340  0.47697  0.82392  Biso   1.000  Hf
  Hf30     1.0000 0.85946  0.99448  0.35440  Biso   1.000  Hf
  Hf31     1.0000 0.86164  0.97931  0.82920  Biso   1.000  Hf
  O1       1.0000 0.03817  0.19892  0.08812  Biso   1.000  O
  O2       1.0000 0.03710  0.17608  0.59601  Biso   1.000  O
  O3       1.0000 0.04659  0.67836  0.08961  Biso   1.000  O
  O4       1.0000 0.03597  0.66899  0.58690  Biso   1.000  O
  O5       1.0000 0.02520  0.08292  0.36756  Biso   1.000  O
  O6       1.0000 0.03586  0.07962  0.84039  Biso   1.000  O
  O7       1.0000 0.03657  0.58396  0.33475  Biso   1.000  O
  O8       1.0000 0.03431  0.58386  0.83638  Biso   1.000  O
  O9       1.0000 0.46709  0.40754  0.08170  Biso   1.000  O
  O10      1.0000 0.46938  0.41263  0.58135  Biso   1.000  O
  O11      1.0000 0.47929  0.91464  0.08022  Biso   1.000  O
  O12      1.0000 0.46735  0.91261  0.57867  Biso   1.000  O
  O13      1.0000 0.46752  0.33842  0.33065  Biso   1.000  O
  O14      1.0000 0.47016  0.33642  0.83015  Biso   1.000  O
  O15      1.0000 0.48273  0.84478  0.32643  Biso   1.000  O
  O16      1.0000 0.47042  0.83977  0.82569  Biso   1.000  O
  O17      1.0000 0.28156  0.12930  0.30462  Biso   1.000  O
  O18      1.0000 0.27623  0.12328  0.79128  Biso   1.000  O
  O19      1.0000 0.28103  0.61822  0.29350  Biso   1.000  O
  O20      1.0000 0.27933  0.62349  0.79340  Biso   1.000  O
  O21      1.0000 0.28909  0.13271  0.03222  Biso   1.000  O
  O22      1.0000 0.27679  0.12546  0.54648  Biso   1.000  O
  O23      1.0000 0.27877  0.61693  0.04519  Biso   1.000  O
  O24      1.0000 0.27691  0.62646  0.54386  Biso   1.000  O
  O25      1.0000 0.22142  0.37262  0.29421  Biso   1.000  O
  O26      1.0000 0.22500  0.37419  0.79484  Biso   1.000  O
  O27      1.0000 0.24060  0.85850  0.30182  Biso   1.000  O
  O28      1.0000 0.22517  0.87354  0.78991  Biso   1.000  O
  O29      1.0000 0.22334  0.37688  0.04508  Biso   1.000  O
  O30      1.0000 0.22497  0.37753  0.54516  Biso   1.000  O
  O31      1.0000 0.25454  0.85543  0.02861  Biso   1.000  O
  O32      1.0000 0.22283  0.87860  0.54462  Biso   1.000  O
  O33      1.0000 0.53461  0.16604  0.16676  Biso   1.000  O
  O34      1.0000 0.53195  0.16469  0.66803  Biso   1.000  O
  O35      1.0000 0.53411  0.65846  0.17197  Biso   1.000  O
  O36      1.0000 0.53106  0.66312  0.66586  Biso   1.000  O
  O37      1.0000 0.53402  0.08675  0.41789  Biso   1.000  O
  O38      1.0000 0.53912  0.08647  0.91428  Biso   1.000  O
  O39      1.0000 0.53145  0.58709  0.41955  Biso   1.000  O
  O40      1.0000 0.52952  0.58751  0.91969  Biso   1.000  O
  O41      1.0000 0.96179  0.43158  0.15868  Biso   1.000  O
  O42      1.0000 0.96708  0.42301  0.66118  Biso   1.000  O
  O43      1.0000 0.84901  0.89493  0.17989  Biso   1.000  O
  O44      1.0000 0.96513  0.91927  0.66536  Biso   1.000  O
  O45      1.0000 0.96662  0.33516  0.41437  Biso   1.000  O
  O46      1.0000 0.96369  0.33232  0.90633  Biso   1.000  O
  O47      1.0000 0.96738  0.83375  0.41343  Biso   1.000  O
  O48      1.0000 0.97691  0.83707  0.91950  Biso   1.000  O
  O49      1.0000 0.78188  0.12436  0.95703  Biso   1.000  O
  O50      1.0000 0.76922  0.13067  0.46509  Biso   1.000  O
  O51      1.0000 0.77202  0.61438  0.94881  Biso   1.000  O
  O52      1.0000 0.77776  0.62428  0.45500  Biso   1.000  O
  O53      1.0000 0.77998  0.13115  0.21248  Biso   1.000  O
  O54      1.0000 0.77712  0.12661  0.70850  Biso   1.000  O
  O55      1.0000 0.77560  0.63100  0.20318  Biso   1.000  O
  O56      1.0000 0.77498  0.62737  0.70339  Biso   1.000  O
  O57      1.0000 0.72235  0.37407  0.95271  Biso   1.000  O
  O58      1.0000 0.72477  0.37761  0.45393  Biso   1.000  O
  O59      1.0000 0.72824  0.86850  0.95412  Biso   1.000  O
  O60      1.0000 0.72613  0.87493  0.46169  Biso   1.000  O
  O61      1.0000 0.72409  0.37926  0.20571  Biso   1.000  O
  O62      1.0000 0.72613  0.37570  0.70229  Biso   1.000  O
  O63      1.0000 0.70832  0.88805  0.21242  Biso   1.000  O
  O64      1.0000 0.72480  0.87601  0.70641  Biso   1.000  O
