data_image0
_cell_length_a       10.0134
_cell_length_b       10.4038
_cell_length_c       10.0955
_cell_angle_alpha    89.5981
_cell_angle_beta     90.833
_cell_angle_gamma    90.723

_symmetry_space_group_name_H-M    "P 1"
_symmetry_int_tables_number       1

loop_
  _symmetry_equiv_pos_as_xyz
  'x, y, z'

loop_
  _atom_site_label
  _atom_site_occupancy
  _atom_site_fract_x
  _atom_site_fract_y
  _atom_site_fract_z
  _atom_site_thermal_displace_type
  _atom_site_B_iso_or_equiv
  _atom_site_type_symbol
  Hf1      1.0000 0.14477  0.98747  0.10952  Biso   1.000  Hf
  Hf2      1.0000 0.12598  0.23164  0.39513  Biso   1.000  Hf
  Hf3      1.0000 0.36568  0.26717  0.12351  Biso   1.000  Hf
  Hf4      1.0000 0.36639  0.48486  0.37345  Biso   1.000  Hf
  O1       1.0000 0.95603  0.17972  0.27975  Biso   1.000  O
  O2       1.0000 0.04590  0.05580  0.45611  Biso   1.000  O
  O3       1.0000 0.45815  0.43737  0.19172  Biso   1.000  O
  O4       1.0000 0.46557  0.32237  0.44961  Biso   1.000  O
  O5       1.0000 0.23543  0.11169  0.24361  Biso   1.000  O
  O6       1.0000 0.27847  0.13419  0.49575  Biso   1.000  O
  O7       1.0000 0.23511  0.38579  0.49858  Biso   1.000  O
  O8       1.0000 0.22234  0.36210  0.25022  Biso   1.000  O
  Hf5      1.0000 0.14210  0.00665  0.62456  Biso   1.000  Hf
  Hf6      1.0000 0.14402  0.22709  0.84576  Biso   1.000  Hf
  Hf7      1.0000 0.37549  0.26785  0.62375  Biso   1.000  Hf
  Hf8      1.0000 0.36882  0.48383  0.87432  Biso   1.000  Hf
  O9       1.0000 0.05259  0.18138  0.67138  Biso   1.000  O
  O10      1.0000 0.04786  0.05785  0.93157  Biso   1.000  O
  O11      1.0000 0.46826  0.43502  0.69747  Biso   1.000  O
  O12      1.0000 0.47080  0.31633  0.94950  Biso   1.000  O
  O13      1.0000 0.28076  0.11364  0.74339  Biso   1.000  O
  O14      1.0000 0.27926  0.12392  0.99503  Biso   1.000  O
  O15      1.0000 0.23293  0.38707  0.99294  Biso   1.000  O
  O16      1.0000 0.23566  0.36759  0.74152  Biso   1.000  O
  Hf9      1.0000 0.13172  0.52238  0.12737  Biso   1.000  Hf
  Hf10     1.0000 0.13372  0.73675  0.37533  Biso   1.000  Hf
  Hf11     1.0000 0.37123  0.75858  0.12394  Biso   1.000  Hf
  Hf12     1.0000 0.36617  0.98980  0.36893  Biso   1.000  Hf
  O17      1.0000 0.03657  0.68521  0.19403  Biso   1.000  O
  O18      1.0000 0.03733  0.57210  0.43856  Biso   1.000  O
  O19      1.0000 0.45866  0.93294  0.19207  Biso   1.000  O
  O20      1.0000 0.46808  0.82057  0.44108  Biso   1.000  O
  O21      1.0000 0.27121  0.61669  0.24843  Biso   1.000  O
  O22      1.0000 0.27105  0.63517  0.49682  Biso   1.000  O
  O23      1.0000 0.23759  0.88413  0.49389  Biso   1.000  O
  O24      1.0000 0.23429  0.85879  0.24310  Biso   1.000  O
  Hf13     1.0000 0.13400  0.51708  0.61738  Biso   1.000  Hf
  Hf14     1.0000 0.13508  0.72905  0.86869  Biso   1.000  Hf
  Hf15     1.0000 0.37365  0.76571  0.62038  Biso   1.000  Hf
  Hf16     1.0000 0.37618  0.97962  0.87133  Biso   1.000  Hf
  O25      1.0000 0.04167  0.68919  0.68829  Biso   1.000  O
  O26      1.0000 0.03544  0.56337  0.94656  Biso   1.000  O
  O27      1.0000 0.47463  0.93077  0.69738  Biso   1.000  O
  O28      1.0000 0.47494  0.81739  0.95016  Biso   1.000  O
  O29      1.0000 0.27108  0.61397  0.74704  Biso   1.000  O
  O30      1.0000 0.27062  0.63084  0.99757  Biso   1.000  O
  O31      1.0000 0.24102  0.87155  0.99017  Biso   1.000  O
  O32      1.0000 0.24045  0.86197  0.74596  Biso   1.000  O
  Hf17     1.0000 0.62620  0.00956  0.12133  Biso   1.000  Hf
  Hf18     1.0000 0.62686  0.22937  0.39399  Biso   1.000  Hf
  Hf19     1.0000 0.81548  0.26158  0.15502  Biso   1.000  Hf
  Hf20     1.0000 0.86609  0.48376  0.38186  Biso   1.000  Hf
  O33      1.0000 0.51230  0.17611  0.21265  Biso   1.000  O
  O34      1.0000 0.53121  0.06628  0.45858  Biso   1.000  O
  O35      1.0000 0.95208  0.43012  0.19688  Biso   1.000  O
  O36      1.0000 0.97487  0.33294  0.47012  Biso   1.000  O
  O37      1.0000 0.73229  0.10840  0.26177  Biso   1.000  O
  O38      1.0000 0.77709  0.13897  0.50778  Biso   1.000  O
  O39      1.0000 0.73335  0.38242  0.50822  Biso   1.000  O
  O40      1.0000 0.70468  0.37479  0.26660  Biso   1.000  O
  Hf21     1.0000 0.64383  0.01699  0.62881  Biso   1.000  Hf
  Hf22     1.0000 0.64030  0.23470  0.87945  Biso   1.000  Hf
  Hf23     1.0000 0.87418  0.27578  0.64239  Biso   1.000  Hf
  Hf24     1.0000 0.86668  0.48489  0.87162  Biso   1.000  Hf
  O41      1.0000 0.54311  0.18521  0.69622  Biso   1.000  O
  O42      1.0000 0.54290  0.06689  0.94189  Biso   1.000  O
  O43      1.0000 0.95683  0.45685  0.68306  Biso   1.000  O
  O44      1.0000 0.95960  0.30725  0.86676  Biso   1.000  O
  O45      1.0000 0.77648  0.11906  0.75730  Biso   1.000  O
  O46      1.0000 0.78171  0.13029  0.00815  Biso   1.000  O
  O47      1.0000 0.73758  0.38350  0.00616  Biso   1.000  O
  O48      1.0000 0.72449  0.37412  0.75433  Biso   1.000  O
  Hf25     1.0000 0.63175  0.52062  0.12724  Biso   1.000  Hf
  Hf26     1.0000 0.63876  0.73856  0.37762  Biso   1.000  Hf
  Hf27     1.0000 0.86523  0.76614  0.12749  Biso   1.000  Hf
  Hf28     1.0000 0.87638  0.00012  0.36676  Biso   1.000  Hf
  O49      1.0000 0.53944  0.68461  0.19747  Biso   1.000  O
  O50      1.0000 0.53490  0.57024  0.44663  Biso   1.000  O
  O51      1.0000 0.96757  0.94070  0.18732  Biso   1.000  O
  O52      1.0000 0.96699  0.82112  0.44091  Biso   1.000  O
  O53      1.0000 0.77137  0.61846  0.25180  Biso   1.000  O
  O54      1.0000 0.77214  0.63514  0.50025  Biso   1.000  O
  O55      1.0000 0.73558  0.88914  0.49849  Biso   1.000  O
  O56      1.0000 0.73413  0.86702  0.24776  Biso   1.000  O
  Hf29     1.0000 0.63651  0.51795  0.62601  Biso   1.000  Hf
  Hf30     1.0000 0.63913  0.73446  0.87468  Biso   1.000  Hf
  Hf31     1.0000 0.87064  0.77181  0.62152  Biso   1.000  Hf
  Hf32     1.0000 0.87066  0.98207  0.87784  Biso   1.000  Hf
  O57      1.0000 0.53875  0.68371  0.69613  Biso   1.000  O
  O58      1.0000 0.53626  0.56929  0.94787  Biso   1.000  O
  O59      1.0000 0.97159  0.93324  0.69992  Biso   1.000  O
  O60      1.0000 0.97331  0.81486  0.95026  Biso   1.000  O
  O61      1.0000 0.77322  0.62154  0.75077  Biso   1.000  O
  O62      1.0000 0.77059  0.63395  0.00139  Biso   1.000  O
  O63      1.0000 0.73466  0.88160  0.99959  Biso   1.000  O
  O64      1.0000 0.73748  0.86805  0.74971  Biso   1.000  O
  Rb1      1.0000 0.06464  0.24596  0.08851  Biso   1.000  Rb
