data_image0
_cell_length_a       10.2014
_cell_length_b       10.3729
_cell_length_c       5.31456
_cell_angle_alpha    89.924
_cell_angle_beta     79.2504
_cell_angle_gamma    90.2668

_symmetry_space_group_name_H-M    "P 1"
_symmetry_int_tables_number       1

loop_
  _symmetry_equiv_pos_as_xyz
  'x, y, z'

loop_
  _atom_site_label
  _atom_site_occupancy
  _atom_site_fract_x
  _atom_site_fract_y
  _atom_site_fract_z
  _atom_site_thermal_displace_type
  _atom_site_B_iso_or_equiv
  _atom_site_type_symbol
  Hf1      1.0000 0.13332  0.02135  0.28641  Biso   1.000  Hf
  Hf2      1.0000 0.12849  0.22603  0.77626  Biso   1.000  Hf
  Hf3      1.0000 0.34570  0.28325  0.17151  Biso   1.000  Hf
  Hf4      1.0000 0.35740  0.49333  0.71383  Biso   1.000  Hf
  O1       1.0000 0.03576  0.16673  0.14804  Biso   1.000  O
  O2       1.0000 0.02523  0.08248  0.65092  Biso   1.000  O
  O3       1.0000 0.45696  0.43517  0.35144  Biso   1.000  O
  O4       1.0000 0.47548  0.37151  0.89719  Biso   1.000  O
  O5       1.0000 0.25988  0.12822  0.45637  Biso   1.000  O
  O6       1.0000 0.27877  0.12674  0.95092  Biso   1.000  O
  O7       1.0000 0.21258  0.38510  0.00421  Biso   1.000  O
  O8       1.0000 0.22210  0.37205  0.51078  Biso   1.000  O
  Hf5      1.0000 0.13506  0.52417  0.29829  Biso   1.000  Hf
  Hf6      1.0000 0.13337  0.72942  0.79709  Biso   1.000  Hf
  Hf7      1.0000 0.35904  0.77165  0.21580  Biso   1.000  Hf
  Hf8      1.0000 0.36395  0.96607  0.71507  Biso   1.000  Hf
  O9       1.0000 0.02993  0.66483  0.15748  Biso   1.000  O
  O10      1.0000 0.03027  0.58504  0.65797  Biso   1.000  O
  O11      1.0000 0.46398  0.91629  0.35010  Biso   1.000  O
  O12      1.0000 0.46095  0.82539  0.85167  Biso   1.000  O
  O13      1.0000 0.27101  0.63162  0.48715  Biso   1.000  O
  O14      1.0000 0.27119  0.62776  0.98951  Biso   1.000  O
  O15      1.0000 0.22319  0.88026  0.02621  Biso   1.000  O
  O16      1.0000 0.22215  0.87049  0.52719  Biso   1.000  O
  Hf9      1.0000 0.64152  0.01506  0.29769  Biso   1.000  Hf
  Hf10     1.0000 0.65592  0.22446  0.82481  Biso   1.000  Hf
  Hf11     1.0000 0.86236  0.27222  0.22219  Biso   1.000  Hf
  Hf12     1.0000 0.85744  0.47792  0.71381  Biso   1.000  Hf
  O17      1.0000 0.53259  0.16050  0.14346  Biso   1.000  O
  O18      1.0000 0.55678  0.05069  0.68436  Biso   1.000  O
  O19      1.0000 0.96536  0.41543  0.35312  Biso   1.000  O
  O20      1.0000 0.95991  0.33209  0.84667  Biso   1.000  O
  O21      1.0000 0.77824  0.12876  0.48908  Biso   1.000  O
  O22      1.0000 0.78457  0.11752  0.99771  Biso   1.000  O
  O23      1.0000 0.72546  0.37677  0.04007  Biso   1.000  O
  O24      1.0000 0.71993  0.37021  0.53470  Biso   1.000  O
  Hf13     1.0000 0.63424  0.52448  0.29759  Biso   1.000  Hf
  Hf14     1.0000 0.63876  0.72727  0.79720  Biso   1.000  Hf
  Hf15     1.0000 0.85874  0.76907  0.21232  Biso   1.000  Hf
  Hf16     1.0000 0.85661  0.97426  0.71006  Biso   1.000  Hf
  O25      1.0000 0.53389  0.67077  0.16068  Biso   1.000  O
  O26      1.0000 0.53122  0.59367  0.65304  Biso   1.000  O
  O27      1.0000 0.96302  0.91190  0.35143  Biso   1.000  O
  O28      1.0000 0.96374  0.83439  0.85110  Biso   1.000  O
  O29      1.0000 0.77539  0.62571  0.48401  Biso   1.000  O
  O30      1.0000 0.77267  0.61914  0.98263  Biso   1.000  O
  O31      1.0000 0.72281  0.87520  0.02372  Biso   1.000  O
  O32      1.0000 0.72450  0.86487  0.51855  Biso   1.000  O
  Rb1      1.0000 0.44986  0.23266  0.56854  Biso   1.000  Rb
