data_image0
_cell_length_a       10.2062
_cell_length_b       5.17783
_cell_length_c       10.6389
_cell_angle_alpha    89.962
_cell_angle_beta     79.1615
_cell_angle_gamma    90.1232

_symmetry_space_group_name_H-M    "P 1"
_symmetry_int_tables_number       1

loop_
  _symmetry_equiv_pos_as_xyz
  'x, y, z'

loop_
  _atom_site_label
  _atom_site_occupancy
  _atom_site_fract_x
  _atom_site_fract_y
  _atom_site_fract_z
  _atom_site_thermal_displace_type
  _atom_site_B_iso_or_equiv
  _atom_site_type_symbol
  Hf1      1.0000 0.12989  0.04238  0.14783  Biso   1.000  Hf
  Hf2      1.0000 0.12943  0.45296  0.39338  Biso   1.000  Hf
  Hf3      1.0000 0.34525  0.55053  0.08480  Biso   1.000  Hf
  Hf4      1.0000 0.36165  0.95487  0.36114  Biso   1.000  Hf
  O1       1.0000 0.03032  0.32851  0.07386  Biso   1.000  O
  O2       1.0000 0.02337  0.16644  0.32859  Biso   1.000  O
  O3       1.0000 0.45762  0.87234  0.16722  Biso   1.000  O
  O4       1.0000 0.47852  0.71756  0.45503  Biso   1.000  O
  O5       1.0000 0.25736  0.25247  0.23437  Biso   1.000  O
  O6       1.0000 0.27878  0.25078  0.48461  Biso   1.000  O
  O7       1.0000 0.21505  0.77122  0.00430  Biso   1.000  O
  O8       1.0000 0.22123  0.73767  0.25756  Biso   1.000  O
  Hf5      1.0000 0.13897  0.04484  0.64337  Biso   1.000  Hf
  Hf6      1.0000 0.13112  0.45628  0.89178  Biso   1.000  Hf
  Hf7      1.0000 0.36249  0.55274  0.61008  Biso   1.000  Hf
  Hf8      1.0000 0.35793  0.96536  0.85283  Biso   1.000  Hf
  O9       1.0000 0.03481  0.33070  0.57670  Biso   1.000  O
  O10      1.0000 0.03057  0.17167  0.82381  Biso   1.000  O
  O11      1.0000 0.46851  0.82390  0.68653  Biso   1.000  O
  O12      1.0000 0.46432  0.68132  0.92316  Biso   1.000  O
  O13      1.0000 0.27355  0.25387  0.73813  Biso   1.000  O
  O14      1.0000 0.27061  0.25536  0.98479  Biso   1.000  O
  O15      1.0000 0.22439  0.75569  0.51010  Biso   1.000  O
  O16      1.0000 0.22246  0.74417  0.75951  Biso   1.000  O
  Hf9      1.0000 0.63889  0.03666  0.14671  Biso   1.000  Hf
  Hf10     1.0000 0.65263  0.44912  0.41216  Biso   1.000  Hf
  Hf11     1.0000 0.85753  0.53829  0.10676  Biso   1.000  Hf
  Hf12     1.0000 0.85418  0.94998  0.35560  Biso   1.000  Hf
  O17      1.0000 0.53045  0.33321  0.06995  Biso   1.000  O
  O18      1.0000 0.55797  0.12019  0.34207  Biso   1.000  O
  O19      1.0000 0.96101  0.82202  0.17729  Biso   1.000  O
  O20      1.0000 0.96254  0.66708  0.42526  Biso   1.000  O
  O21      1.0000 0.77999  0.25213  0.24137  Biso   1.000  O
  O22      1.0000 0.78172  0.23563  0.49845  Biso   1.000  O
  O23      1.0000 0.72230  0.75499  0.01369  Biso   1.000  O
  O24      1.0000 0.71862  0.72706  0.26183  Biso   1.000  O
  Hf13     1.0000 0.63764  0.04290  0.65137  Biso   1.000  Hf
  Hf14     1.0000 0.63654  0.45667  0.89793  Biso   1.000  Hf
  Hf15     1.0000 0.86333  0.54488  0.61023  Biso   1.000  Hf
  Hf16     1.0000 0.85898  0.95709  0.85655  Biso   1.000  Hf
  O25      1.0000 0.53334  0.32709  0.58273  Biso   1.000  O
  O26      1.0000 0.52968  0.17955  0.82714  Biso   1.000  O
  O27      1.0000 0.96773  0.82996  0.67576  Biso   1.000  O
  O28      1.0000 0.96279  0.67150  0.92444  Biso   1.000  O
  O29      1.0000 0.77450  0.25856  0.74420  Biso   1.000  O
  O30      1.0000 0.77376  0.24249  0.99164  Biso   1.000  O
  O31      1.0000 0.72733  0.75231  0.51845  Biso   1.000  O
  O32      1.0000 0.72473  0.74677  0.76500  Biso   1.000  O
  Rb1      1.0000 0.44495  0.47016  0.28492  Biso   1.000  Rb
