data_image0
_cell_length_a       10.1491
_cell_length_b       5.16977
_cell_length_c       10.1491
_cell_angle_alpha    90.0001
_cell_angle_beta     90
_cell_angle_gamma    90.0004

_symmetry_space_group_name_H-M    "P 1"
_symmetry_int_tables_number       1

loop_
  _symmetry_equiv_pos_as_xyz
  'x, y, z'

loop_
  _atom_site_label
  _atom_site_occupancy
  _atom_site_fract_x
  _atom_site_fract_y
  _atom_site_fract_z
  _atom_site_thermal_displace_type
  _atom_site_B_iso_or_equiv
  _atom_site_type_symbol
  Hf1      1.0000 0.12491  0.00011  0.12491  Biso   1.000  Hf
  Hf2      1.0000 0.12491  0.50011  0.39804  Biso   1.000  Hf
  Hf3      1.0000 0.39804  0.50010  0.12491  Biso   1.000  Hf
  Hf4      1.0000 0.37441  0.01257  0.37441  Biso   1.000  Hf
  O1       1.0000 0.97329  0.32150  0.97329  Biso   1.000  O
  O2       1.0000 0.00027  0.17693  0.24955  Biso   1.000  O
  O3       1.0000 0.97329  0.67871  0.27653  Biso   1.000  O
  O4       1.0000 0.00027  0.82329  0.00027  Biso   1.000  O
  O5       1.0000 0.27653  0.32150  0.27653  Biso   1.000  O
  O6       1.0000 0.24955  0.17693  0.00028  Biso   1.000  O
  O7       1.0000 0.27653  0.67871  0.97329  Biso   1.000  O
  O8       1.0000 0.24955  0.82329  0.24955  Biso   1.000  O
  Hf5      1.0000 0.12491  0.00011  0.62491  Biso   1.000  Hf
  Hf6      1.0000 0.12491  0.50011  0.85177  Biso   1.000  Hf
  Hf7      1.0000 0.37854  0.50011  0.62491  Biso   1.000  Hf
  Hf8      1.0000 0.37441  0.98764  0.87541  Biso   1.000  Hf
  O9       1.0000 0.99164  0.28700  0.49864  Biso   1.000  O
  O10      1.0000 0.00532  0.21009  0.74310  Biso   1.000  O
  O11      1.0000 0.99164  0.71321  0.75118  Biso   1.000  O
  O12      1.0000 0.00531  0.79012  0.50672  Biso   1.000  O
  O13      1.0000 0.25818  0.28700  0.75118  Biso   1.000  O
  O14      1.0000 0.24450  0.21009  0.50672  Biso   1.000  O
  O15      1.0000 0.25818  0.71321  0.49863  Biso   1.000  O
  O16      1.0000 0.24450  0.79012  0.74310  Biso   1.000  O
  Hf9      1.0000 0.62491  0.00011  0.12491  Biso   1.000  Hf
  Hf10     1.0000 0.62491  0.50011  0.37854  Biso   1.000  Hf
  Hf11     1.0000 0.85178  0.50011  0.12491  Biso   1.000  Hf
  Hf12     1.0000 0.87541  0.98764  0.37441  Biso   1.000  Hf
  O17      1.0000 0.49864  0.28701  0.99164  Biso   1.000  O
  O18      1.0000 0.50672  0.21009  0.24450  Biso   1.000  O
  O19      1.0000 0.49863  0.71321  0.25818  Biso   1.000  O
  O20      1.0000 0.50672  0.79012  0.00531  Biso   1.000  O
  O21      1.0000 0.75118  0.28700  0.25818  Biso   1.000  O
  O22      1.0000 0.74310  0.21009  0.00532  Biso   1.000  O
  O23      1.0000 0.75118  0.71321  0.99164  Biso   1.000  O
  O24      1.0000 0.74310  0.79013  0.24450  Biso   1.000  O
  Hf13     1.0000 0.62491  0.00011  0.62491  Biso   1.000  Hf
  Hf14     1.0000 0.62491  0.50011  0.87127  Biso   1.000  Hf
  Hf15     1.0000 0.87127  0.50011  0.62491  Biso   1.000  Hf
  Hf16     1.0000 0.87541  0.01258  0.87541  Biso   1.000  Hf
  O25      1.0000 0.49392  0.30049  0.49392  Biso   1.000  O
  O26      1.0000 0.50449  0.20280  0.74533  Biso   1.000  O
  O27      1.0000 0.49392  0.69973  0.75590  Biso   1.000  O
  O28      1.0000 0.50449  0.79741  0.50449  Biso   1.000  O
  O29      1.0000 0.75590  0.30048  0.75590  Biso   1.000  O
  O30      1.0000 0.74532  0.20280  0.50449  Biso   1.000  O
  O31      1.0000 0.75589  0.69973  0.49392  Biso   1.000  O
  O32      1.0000 0.74533  0.79741  0.74533  Biso   1.000  O
  Rb1      1.0000 0.12491  0.50011  0.12491  Biso   1.000  Rb
