data_image0
_cell_length_a       10.1137
_cell_length_b       10.386
_cell_length_c       5.25216
_cell_angle_alpha    89.321
_cell_angle_beta     90.2882
_cell_angle_gamma    90.3677

_symmetry_space_group_name_H-M    "P 1"
_symmetry_int_tables_number       1

loop_
  _symmetry_equiv_pos_as_xyz
  'x, y, z'

loop_
  _atom_site_label
  _atom_site_occupancy
  _atom_site_fract_x
  _atom_site_fract_y
  _atom_site_fract_z
  _atom_site_thermal_displace_type
  _atom_site_B_iso_or_equiv
  _atom_site_type_symbol
  Rb1      1.0000 0.08971  0.98739  0.29744  Biso   1.000  Rb
  Hf1      1.0000 0.14650  0.52043  0.34172  Biso   1.000  Hf
  Hf2      1.0000 0.14032  0.23031  0.84733  Biso   1.000  Hf
  Hf3      1.0000 0.15497  0.72802  0.83001  Biso   1.000  Hf
  Hf4      1.0000 0.35465  0.26411  0.34333  Biso   1.000  Hf
  Hf5      1.0000 0.36669  0.77238  0.33294  Biso   1.000  Hf
  Hf6      1.0000 0.36157  0.47434  0.84046  Biso   1.000  Hf
  Hf7      1.0000 0.36345  0.97872  0.82908  Biso   1.000  Hf
  Hf8      1.0000 0.63286  0.03077  0.16001  Biso   1.000  Hf
  Hf9      1.0000 0.63372  0.51541  0.15724  Biso   1.000  Hf
  Hf10     1.0000 0.63880  0.23463  0.65806  Biso   1.000  Hf
  Hf11     1.0000 0.63463  0.72335  0.65403  Biso   1.000  Hf
  Hf12     1.0000 0.86342  0.27913  0.15726  Biso   1.000  Hf
  Hf13     1.0000 0.87057  0.74250  0.11059  Biso   1.000  Hf
  Hf14     1.0000 0.86614  0.47965  0.64627  Biso   1.000  Hf
  Hf15     1.0000 0.85957  0.99376  0.71319  Biso   1.000  Hf
  O1       1.0000 0.04284  0.21190  0.19771  Biso   1.000  O
  O2       1.0000 0.04969  0.67995  0.18248  Biso   1.000  O
  O3       1.0000 0.02609  0.07966  0.76602  Biso   1.000  O
  O4       1.0000 0.03752  0.58273  0.67233  Biso   1.000  O
  O5       1.0000 0.46816  0.40952  0.16296  Biso   1.000  O
  O6       1.0000 0.47672  0.91462  0.15619  Biso   1.000  O
  O7       1.0000 0.46940  0.33768  0.65922  Biso   1.000  O
  O8       1.0000 0.48355  0.84422  0.64545  Biso   1.000  O
  O9       1.0000 0.28154  0.12909  0.60195  Biso   1.000  O
  O10      1.0000 0.28316  0.61849  0.58366  Biso   1.000  O
  O11      1.0000 0.29135  0.13362  0.06599  Biso   1.000  O
  O12      1.0000 0.27999  0.61769  0.08625  Biso   1.000  O
  O13      1.0000 0.22337  0.37399  0.58747  Biso   1.000  O
  O14      1.0000 0.24172  0.86025  0.58467  Biso   1.000  O
  O15      1.0000 0.22537  0.37842  0.08871  Biso   1.000  O
  O16      1.0000 0.25145  0.85799  0.05590  Biso   1.000  O
  O17      1.0000 0.53493  0.16928  0.33498  Biso   1.000  O
  O18      1.0000 0.53370  0.65902  0.33832  Biso   1.000  O
  O19      1.0000 0.53915  0.08635  0.82783  Biso   1.000  O
  O20      1.0000 0.53052  0.58678  0.84033  Biso   1.000  O
  O21      1.0000 0.96239  0.43711  0.30705  Biso   1.000  O
  O22      1.0000 0.85190  0.88900  0.37207  Biso   1.000  O
  O23      1.0000 0.96282  0.33318  0.81098  Biso   1.000  O
  O24      1.0000 0.97774  0.83465  0.83136  Biso   1.000  O
  O25      1.0000 0.77308  0.13235  0.93396  Biso   1.000  O
  O26      1.0000 0.77458  0.61619  0.89534  Biso   1.000  O
  O27      1.0000 0.78204  0.12966  0.43149  Biso   1.000  O
  O28      1.0000 0.77401  0.62961  0.40060  Biso   1.000  O
  O29      1.0000 0.72332  0.37808  0.90437  Biso   1.000  O
  O30      1.0000 0.73201  0.87081  0.92330  Biso   1.000  O
  O31      1.0000 0.72667  0.37775  0.40600  Biso   1.000  O
  O32      1.0000 0.71058  0.88803  0.42549  Biso   1.000  O
