data_image0
_cell_length_a       5.09983
_cell_length_b       10.3518
_cell_length_c       10.6132
_cell_angle_alpha    89.1943
_cell_angle_beta     80.6692
_cell_angle_gamma    90.3704

_symmetry_space_group_name_H-M    "P 1"
_symmetry_int_tables_number       1

loop_
  _symmetry_equiv_pos_as_xyz
  'x, y, z'

loop_
  _atom_site_label
  _atom_site_occupancy
  _atom_site_fract_x
  _atom_site_fract_y
  _atom_site_fract_z
  _atom_site_thermal_displace_type
  _atom_site_B_iso_or_equiv
  _atom_site_type_symbol
  Rb1      1.0000 0.19001  0.98582  0.12883  Biso   1.000  Rb
  Hf1      1.0000 0.27926  0.02533  0.65182  Biso   1.000  Hf
  Hf2      1.0000 0.27270  0.51132  0.14484  Biso   1.000  Hf
  Hf3      1.0000 0.28631  0.52332  0.64336  Biso   1.000  Hf
  Hf4      1.0000 0.27454  0.23135  0.39867  Biso   1.000  Hf
  Hf5      1.0000 0.28773  0.22973  0.89712  Biso   1.000  Hf
  Hf6      1.0000 0.26831  0.72227  0.39685  Biso   1.000  Hf
  Hf7      1.0000 0.29963  0.72954  0.88405  Biso   1.000  Hf
  Hf8      1.0000 0.70554  0.26277  0.10627  Biso   1.000  Hf
  Hf9      1.0000 0.72569  0.27501  0.60578  Biso   1.000  Hf
  Hf10     1.0000 0.74172  0.73753  0.07434  Biso   1.000  Hf
  Hf11     1.0000 0.73151  0.77684  0.60169  Biso   1.000  Hf
  Hf12     1.0000 0.71741  0.47919  0.35212  Biso   1.000  Hf
  Hf13     1.0000 0.73649  0.47282  0.84812  Biso   1.000  Hf
  Hf14     1.0000 0.71447  0.99788  0.37651  Biso   1.000  Hf
  Hf15     1.0000 0.72978  0.98168  0.85542  Biso   1.000  Hf
  O1       1.0000 0.07507  0.20004  0.07804  Biso   1.000  O
  O2       1.0000 0.06954  0.17464  0.58738  Biso   1.000  O
  O3       1.0000 0.10244  0.66953  0.07209  Biso   1.000  O
  O4       1.0000 0.07187  0.66584  0.57449  Biso   1.000  O
  O5       1.0000 0.06024  0.08583  0.35631  Biso   1.000  O
  O6       1.0000 0.08345  0.08178  0.83309  Biso   1.000  O
  O7       1.0000 0.06315  0.58408  0.32411  Biso   1.000  O
  O8       1.0000 0.07246  0.58648  0.82285  Biso   1.000  O
  O9       1.0000 0.91043  0.42463  0.16842  Biso   1.000  O
  O10      1.0000 0.93857  0.42042  0.66859  Biso   1.000  O
  O11      1.0000 0.71855  0.88294  0.20644  Biso   1.000  O
  O12      1.0000 0.93909  0.91671  0.67511  Biso   1.000  O
  O13      1.0000 0.92805  0.33803  0.42287  Biso   1.000  O
  O14      1.0000 0.94022  0.33416  0.91349  Biso   1.000  O
  O15      1.0000 0.94340  0.83856  0.42117  Biso   1.000  O
  O16      1.0000 0.97745  0.84378  0.92659  Biso   1.000  O
  O17      1.0000 0.58187  0.14104  0.25908  Biso   1.000  O
  O18      1.0000 0.56135  0.13027  0.74114  Biso   1.000  O
  O19      1.0000 0.53957  0.63164  0.23369  Biso   1.000  O
  O20      1.0000 0.56084  0.63144  0.73281  Biso   1.000  O
  O21      1.0000 0.54102  0.12985  0.50344  Biso   1.000  O
  O22      1.0000 0.57790  0.12580  0.98142  Biso   1.000  O
  O23      1.0000 0.55351  0.62424  0.48499  Biso   1.000  O
  O24      1.0000 0.55684  0.60613  0.98076  Biso   1.000  O
  O25      1.0000 0.45241  0.37707  0.00856  Biso   1.000  O
  O26      1.0000 0.44972  0.38388  0.50994  Biso   1.000  O
  O27      1.0000 0.50503  0.85382  0.98529  Biso   1.000  O
  O28      1.0000 0.45650  0.88539  0.51750  Biso   1.000  O
  O29      1.0000 0.43331  0.37519  0.26099  Biso   1.000  O
  O30      1.0000 0.45501  0.37273  0.75772  Biso   1.000  O
  O31      1.0000 0.45956  0.87913  0.28121  Biso   1.000  O
  O32      1.0000 0.45920  0.87425  0.75451  Biso   1.000  O
