data_image0
_cell_length_a       10.2155
_cell_length_b       5.17754
_cell_length_c       10.5895
_cell_angle_alpha    89.6897
_cell_angle_beta     80.531
_cell_angle_gamma    90.4394

_symmetry_space_group_name_H-M    "P 1"
_symmetry_int_tables_number       1

loop_
  _symmetry_equiv_pos_as_xyz
  'x, y, z'

loop_
  _atom_site_label
  _atom_site_occupancy
  _atom_site_fract_x
  _atom_site_fract_y
  _atom_site_fract_z
  _atom_site_thermal_displace_type
  _atom_site_B_iso_or_equiv
  _atom_site_type_symbol
  Rb1      1.0000 0.09202  0.97469  0.13177  Biso   1.000  Rb
  Hf1      1.0000 0.14366  0.04838  0.64428  Biso   1.000  Hf
  Hf2      1.0000 0.63390  0.04310  0.14237  Biso   1.000  Hf
  Hf3      1.0000 0.63884  0.04571  0.64995  Biso   1.000  Hf
  Hf4      1.0000 0.14290  0.45443  0.39620  Biso   1.000  Hf
  Hf5      1.0000 0.14962  0.46183  0.89044  Biso   1.000  Hf
  Hf6      1.0000 0.63151  0.44714  0.40017  Biso   1.000  Hf
  Hf7      1.0000 0.63968  0.46453  0.89337  Biso   1.000  Hf
  Hf8      1.0000 0.35959  0.52461  0.10251  Biso   1.000  Hf
  Hf9      1.0000 0.36175  0.55024  0.60087  Biso   1.000  Hf
  Hf10     1.0000 0.86542  0.49382  0.07943  Biso   1.000  Hf
  Hf11     1.0000 0.86700  0.54802  0.60744  Biso   1.000  Hf
  Hf12     1.0000 0.35722  0.95862  0.34724  Biso   1.000  Hf
  Hf13     1.0000 0.36516  0.96022  0.85199  Biso   1.000  Hf
  Hf14     1.0000 0.86132  0.98036  0.38124  Biso   1.000  Hf
  Hf15     1.0000 0.86568  0.95542  0.84853  Biso   1.000  Hf
  O1       1.0000 0.04848  0.43213  0.08024  Biso   1.000  O
  O2       1.0000 0.04200  0.35761  0.59007  Biso   1.000  O
  O3       1.0000 0.53782  0.33122  0.07345  Biso   1.000  O
  O4       1.0000 0.53075  0.32472  0.57511  Biso   1.000  O
  O5       1.0000 0.02528  0.17113  0.35868  Biso   1.000  O
  O6       1.0000 0.04079  0.15423  0.83510  Biso   1.000  O
  O7       1.0000 0.53429  0.16943  0.32331  Biso   1.000  O
  O8       1.0000 0.53913  0.17281  0.82507  Biso   1.000  O
  O9       1.0000 0.47076  0.82236  0.17098  Biso   1.000  O
  O10      1.0000 0.47054  0.82747  0.67265  Biso   1.000  O
  O11      1.0000 0.84876  0.78796  0.21136  Biso   1.000  O
  O12      1.0000 0.96545  0.85735  0.66486  Biso   1.000  O
  O13      1.0000 0.47237  0.67692  0.42246  Biso   1.000  O
  O14      1.0000 0.48234  0.68664  0.92076  Biso   1.000  O
  O15      1.0000 0.96760  0.67116  0.42358  Biso   1.000  O
  O16      1.0000 0.96592  0.65456  0.90539  Biso   1.000  O
  O17      1.0000 0.28392  0.25246  0.24525  Biso   1.000  O
  O18      1.0000 0.27976  0.26236  0.73482  Biso   1.000  O
  O19      1.0000 0.77418  0.27348  0.24086  Biso   1.000  O
  O20      1.0000 0.78003  0.26198  0.74057  Biso   1.000  O
  O21      1.0000 0.27733  0.24609  0.48988  Biso   1.000  O
  O22      1.0000 0.28947  0.24813  0.97558  Biso   1.000  O
  O23      1.0000 0.77038  0.25861  0.49921  Biso   1.000  O
  O24      1.0000 0.77588  0.22244  0.98599  Biso   1.000  O
  O25      1.0000 0.25171  0.72923  0.98637  Biso   1.000  O
  O26      1.0000 0.22809  0.76615  0.50760  Biso   1.000  O
  O27      1.0000 0.72838  0.74772  0.00984  Biso   1.000  O
  O28      1.0000 0.72741  0.76503  0.51808  Biso   1.000  O
  O29      1.0000 0.23870  0.71000  0.26181  Biso   1.000  O
  O30      1.0000 0.22655  0.74780  0.75240  Biso   1.000  O
  O31      1.0000 0.71061  0.77854  0.27454  Biso   1.000  O
  O32      1.0000 0.72914  0.74418  0.75905  Biso   1.000  O
