data_image0
_cell_length_a       10.0794
_cell_length_b       10.3453
_cell_length_c       5.16002
_cell_angle_alpha    87.5277
_cell_angle_beta     92.8946
_cell_angle_gamma    93.3724

_symmetry_space_group_name_H-M    "P 1"
_symmetry_int_tables_number       1

loop_
  _symmetry_equiv_pos_as_xyz
  'x, y, z'

loop_
  _atom_site_label
  _atom_site_occupancy
  _atom_site_fract_x
  _atom_site_fract_y
  _atom_site_fract_z
  _atom_site_thermal_displace_type
  _atom_site_B_iso_or_equiv
  _atom_site_type_symbol
  Hf1      1.0000 0.11028  0.96351  0.22934  Biso   1.000  Hf
  Hf2      1.0000 0.12807  0.19529  0.61806  Biso   1.000  Hf
  Hf3      1.0000 0.39474  0.25308  0.20823  Biso   1.000  Hf
  Hf4      1.0000 0.36690  0.47969  0.74363  Biso   1.000  Hf
  O1       1.0000 0.97712  0.09814  0.37007  Biso   1.000  O
  O2       1.0000 0.04470  0.05728  0.88356  Biso   1.000  O
  O3       1.0000 0.45795  0.42177  0.43356  Biso   1.000  O
  O4       1.0000 0.51899  0.36310  0.96383  Biso   1.000  O
  O5       1.0000 0.23666  0.12433  0.35006  Biso   1.000  O
  O6       1.0000 0.28659  0.17532  0.86050  Biso   1.000  O
  O7       1.0000 0.27845  0.41190  0.06756  Biso   1.000  O
  O8       1.0000 0.19432  0.38234  0.54195  Biso   1.000  O
  Hf5      1.0000 0.14371  0.53256  0.26928  Biso   1.000  Hf
  Hf6      1.0000 0.12953  0.74237  0.75115  Biso   1.000  Hf
  Hf7      1.0000 0.37550  0.78358  0.27229  Biso   1.000  Hf
  Hf8      1.0000 0.39373  0.01183  0.74120  Biso   1.000  Hf
  O9       1.0000 0.01915  0.64649  0.46016  Biso   1.000  O
  O10      1.0000 0.03952  0.55131  0.90500  Biso   1.000  O
  O11      1.0000 0.49846  0.92586  0.46112  Biso   1.000  O
  O12      1.0000 0.51013  0.86015  0.96456  Biso   1.000  O
  O13      1.0000 0.27545  0.63097  0.53759  Biso   1.000  O
  O14      1.0000 0.25350  0.66707  0.04428  Biso   1.000  O
  O15      1.0000 0.26788  0.91509  0.01274  Biso   1.000  O
  O16      1.0000 0.24793  0.87300  0.51255  Biso   1.000  O
  Hf9      1.0000 0.64286  0.98282  0.19107  Biso   1.000  Hf
  Hf10     1.0000 0.63837  0.23984  0.77201  Biso   1.000  Hf
  Hf11     1.0000 0.83275  0.25826  0.28601  Biso   1.000  Hf
  Hf12     1.0000 0.88828  0.47618  0.67727  Biso   1.000  Hf
  O17      1.0000 0.47916  0.17652  0.54208  Biso   1.000  O
  O18      1.0000 0.51066  0.11490  0.03887  Biso   1.000  O
  O19      1.0000 0.95260  0.43426  0.32510  Biso   1.000  O
  O20      1.0000 0.93468  0.27081  0.65769  Biso   1.000  O
  O21      1.0000 0.72304  0.11066  0.49032  Biso   1.000  O
  O22      1.0000 0.77339  0.12327  0.99312  Biso   1.000  O
  O23      1.0000 0.77513  0.37656  0.96172  Biso   1.000  O
  O24      1.0000 0.70347  0.36452  0.46325  Biso   1.000  O
  Hf13     1.0000 0.61054  0.51806  0.23388  Biso   1.000  Hf
  Hf14     1.0000 0.63523  0.74044  0.74776  Biso   1.000  Hf
  Hf15     1.0000 0.86563  0.74797  0.27575  Biso   1.000  Hf
  Hf16     1.0000 0.86740  0.00762  0.69945  Biso   1.000  Hf
  O25      1.0000 0.53402  0.67677  0.40073  Biso   1.000  O
  O26      1.0000 0.50586  0.60448  0.90809  Biso   1.000  O
  O27      1.0000 0.99394  0.87362  0.53346  Biso   1.000  O
  O28      1.0000 0.02022  0.80631  0.04379  Biso   1.000  O
  O29      1.0000 0.75983  0.60995  0.52409  Biso   1.000  O
  O30      1.0000 0.74859  0.63896  0.02368  Biso   1.000  O
  O31      1.0000 0.77087  0.87854  0.96912  Biso   1.000  O
  O32      1.0000 0.74678  0.86461  0.46924  Biso   1.000  O
  Rb1      1.0000 0.07160  0.28599  0.06296  Biso   1.000  Rb
