data_image0
_cell_length_a       10.1416
_cell_length_b       10.366
_cell_length_c       10.5516
_cell_angle_alpha    89.6942
_cell_angle_beta     90.2494
_cell_angle_gamma    90.1664

_symmetry_space_group_name_H-M    "P 1"
_symmetry_int_tables_number       1

loop_
  _symmetry_equiv_pos_as_xyz
  'x, y, z'

loop_
  _atom_site_label
  _atom_site_occupancy
  _atom_site_fract_x
  _atom_site_fract_y
  _atom_site_fract_z
  _atom_site_thermal_displace_type
  _atom_site_B_iso_or_equiv
  _atom_site_type_symbol
  Rb1      1.0000 0.09170  0.98127  0.14935  Biso   1.000  Rb
  Zr1      1.0000 0.13970  0.02221  0.67096  Biso   1.000  Zr
  Zr2      1.0000 0.14474  0.51879  0.17150  Biso   1.000  Zr
  Zr3      1.0000 0.14112  0.52228  0.67092  Biso   1.000  Zr
  Zr4      1.0000 0.14170  0.22754  0.42126  Biso   1.000  Zr
  Zr5      1.0000 0.13939  0.22882  0.92277  Biso   1.000  Zr
  Zr6      1.0000 0.14156  0.72951  0.41968  Biso   1.000  Zr
  Zr7      1.0000 0.15222  0.72860  0.91772  Biso   1.000  Zr
  Zr8      1.0000 0.35202  0.25945  0.17086  Biso   1.000  Zr
  Zr9      1.0000 0.36007  0.27048  0.67168  Biso   1.000  Zr
  Zr10     1.0000 0.36831  0.77119  0.17092  Biso   1.000  Zr
  Zr11     1.0000 0.36017  0.77285  0.66767  Biso   1.000  Zr
  Zr12     1.0000 0.36034  0.47672  0.41965  Biso   1.000  Zr
  Zr13     1.0000 0.36133  0.47527  0.92214  Biso   1.000  Zr
  Zr14     1.0000 0.35872  0.98103  0.41603  Biso   1.000  Zr
  Zr15     1.0000 0.36422  0.98197  0.92092  Biso   1.000  Zr
  Zr16     1.0000 0.64160  0.02900  0.07592  Biso   1.000  Zr
  Zr17     1.0000 0.63426  0.02117  0.58314  Biso   1.000  Zr
  Zr18     1.0000 0.63292  0.51462  0.07989  Biso   1.000  Zr
  Zr19     1.0000 0.63926  0.52030  0.57837  Biso   1.000  Zr
  Zr20     1.0000 0.63625  0.23317  0.32964  Biso   1.000  Zr
  Zr21     1.0000 0.64173  0.23102  0.82800  Biso   1.000  Zr
  Zr22     1.0000 0.63913  0.72415  0.33238  Biso   1.000  Zr
  Zr23     1.0000 0.63425  0.72975  0.82525  Biso   1.000  Zr
  Zr24     1.0000 0.86369  0.27536  0.07833  Biso   1.000  Zr
  Zr25     1.0000 0.86413  0.27400  0.57965  Biso   1.000  Zr
  Zr26     1.0000 0.86728  0.74200  0.05529  Biso   1.000  Zr
  Zr27     1.0000 0.86343  0.77065  0.58038  Biso   1.000  Zr
  Zr28     1.0000 0.86371  0.48151  0.32812  Biso   1.000  Zr
  Zr29     1.0000 0.86335  0.47692  0.82446  Biso   1.000  Zr
  Zr30     1.0000 0.85899  0.99397  0.35465  Biso   1.000  Zr
  Zr31     1.0000 0.86123  0.97907  0.82942  Biso   1.000  Zr
  O1       1.0000 0.03763  0.19938  0.08790  Biso   1.000  O
  O2       1.0000 0.03684  0.17662  0.59665  Biso   1.000  O
  O3       1.0000 0.04723  0.67998  0.09066  Biso   1.000  O
  O4       1.0000 0.03564  0.66925  0.58702  Biso   1.000  O
  O5       1.0000 0.02454  0.08228  0.36878  Biso   1.000  O
  O6       1.0000 0.03529  0.07914  0.84049  Biso   1.000  O
  O7       1.0000 0.03649  0.58324  0.33530  Biso   1.000  O
  O8       1.0000 0.03395  0.58399  0.83697  Biso   1.000  O
  O9       1.0000 0.46787  0.40687  0.08107  Biso   1.000  O
  O10      1.0000 0.46991  0.41185  0.58059  Biso   1.000  O
  O11      1.0000 0.48071  0.91350  0.07920  Biso   1.000  O
  O12      1.0000 0.46796  0.91177  0.57775  Biso   1.000  O
  O13      1.0000 0.46778  0.33873  0.33002  Biso   1.000  O
  O14      1.0000 0.47074  0.33713  0.82951  Biso   1.000  O
  O15      1.0000 0.48397  0.84561  0.32528  Biso   1.000  O
  O16      1.0000 0.47112  0.84045  0.82486  Biso   1.000  O
  O17      1.0000 0.28041  0.12935  0.30452  Biso   1.000  O
  O18      1.0000 0.27515  0.12402  0.79142  Biso   1.000  O
  O19      1.0000 0.28015  0.61849  0.29351  Biso   1.000  O
  O20      1.0000 0.27845  0.62400  0.79314  Biso   1.000  O
  O21      1.0000 0.28810  0.13188  0.03257  Biso   1.000  O
  O22      1.0000 0.27591  0.12501  0.54646  Biso   1.000  O
  O23      1.0000 0.27810  0.61674  0.04486  Biso   1.000  O
  O24      1.0000 0.27596  0.62589  0.54373  Biso   1.000  O
  O25      1.0000 0.22200  0.37280  0.29403  Biso   1.000  O
  O26      1.0000 0.22563  0.37462  0.79466  Biso   1.000  O
  O27      1.0000 0.24143  0.85860  0.30173  Biso   1.000  O
  O28      1.0000 0.22630  0.87417  0.78989  Biso   1.000  O
  O29      1.0000 0.22427  0.37643  0.04499  Biso   1.000  O
  O30      1.0000 0.22561  0.37705  0.54493  Biso   1.000  O
  O31      1.0000 0.25487  0.85582  0.02874  Biso   1.000  O
  O32      1.0000 0.22355  0.87807  0.54442  Biso   1.000  O
  O33      1.0000 0.53378  0.16500  0.16715  Biso   1.000  O
  O34      1.0000 0.53108  0.16386  0.66873  Biso   1.000  O
  O35      1.0000 0.53317  0.65743  0.17294  Biso   1.000  O
  O36      1.0000 0.53026  0.66231  0.66645  Biso   1.000  O
  O37      1.0000 0.53319  0.08746  0.41846  Biso   1.000  O
  O38      1.0000 0.53845  0.08741  0.91512  Biso   1.000  O
  O39      1.0000 0.53095  0.58774  0.42021  Biso   1.000  O
  O40      1.0000 0.52864  0.58821  0.92063  Biso   1.000  O
  O41      1.0000 0.96179  0.43287  0.15802  Biso   1.000  O
  O42      1.0000 0.96714  0.42341  0.66075  Biso   1.000  O
  O43      1.0000 0.85023  0.89760  0.17724  Biso   1.000  O
  O44      1.0000 0.96527  0.91942  0.66479  Biso   1.000  O
  O45      1.0000 0.96661  0.33475  0.41395  Biso   1.000  O
  O46      1.0000 0.96392  0.33196  0.90514  Biso   1.000  O
  O47      1.0000 0.96723  0.83315  0.41264  Biso   1.000  O
  O48      1.0000 0.97727  0.83679  0.91908  Biso   1.000  O
  O49      1.0000 0.78096  0.12451  0.95696  Biso   1.000  O
  O50      1.0000 0.76848  0.13079  0.46509  Biso   1.000  O
  O51      1.0000 0.77096  0.61490  0.94909  Biso   1.000  O
  O52      1.0000 0.77689  0.62453  0.45530  Biso   1.000  O
  O53      1.0000 0.77867  0.13161  0.21284  Biso   1.000  O
  O54      1.0000 0.77604  0.12614  0.70857  Biso   1.000  O
  O55      1.0000 0.77493  0.63079  0.20340  Biso   1.000  O
  O56      1.0000 0.77400  0.62690  0.70361  Biso   1.000  O
  O57      1.0000 0.72325  0.37445  0.95285  Biso   1.000  O
  O58      1.0000 0.72548  0.37795  0.45407  Biso   1.000  O
  O59      1.0000 0.72897  0.86852  0.95351  Biso   1.000  O
  O60      1.0000 0.72666  0.87538  0.46232  Biso   1.000  O
  O61      1.0000 0.72483  0.37912  0.20588  Biso   1.000  O
  O62      1.0000 0.72689  0.37517  0.70239  Biso   1.000  O
  O63      1.0000 0.71218  0.88783  0.21283  Biso   1.000  O
  O64      1.0000 0.72556  0.87543  0.70638  Biso   1.000  O
