data_image0
_cell_length_a       10.2383
_cell_length_b       10.3839
_cell_length_c       10.6021
_cell_angle_alpha    89.9258
_cell_angle_beta     79.7122
_cell_angle_gamma    90.1101

_symmetry_space_group_name_H-M    "P 1"
_symmetry_int_tables_number       1

loop_
  _symmetry_equiv_pos_as_xyz
  'x, y, z'

loop_
  _atom_site_label
  _atom_site_occupancy
  _atom_site_fract_x
  _atom_site_fract_y
  _atom_site_fract_z
  _atom_site_thermal_displace_type
  _atom_site_B_iso_or_equiv
  _atom_site_type_symbol
  Zr1      1.0000 0.13250  0.02062  0.14388  Biso   1.000  Zr
  Zr2      1.0000 0.13274  0.22602  0.39256  Biso   1.000  Zr
  Zr3      1.0000 0.34717  0.27302  0.08530  Biso   1.000  Zr
  Zr4      1.0000 0.35942  0.49026  0.35724  Biso   1.000  Zr
  O1       1.0000 0.03156  0.16645  0.07455  Biso   1.000  O
  O2       1.0000 0.02658  0.08253  0.32826  Biso   1.000  O
  O3       1.0000 0.45824  0.43194  0.16141  Biso   1.000  O
  O4       1.0000 0.48251  0.37390  0.45318  Biso   1.000  O
  O5       1.0000 0.26156  0.12569  0.23164  Biso   1.000  O
  O6       1.0000 0.28117  0.12169  0.48219  Biso   1.000  O
  O7       1.0000 0.21599  0.38322  0.00385  Biso   1.000  O
  O8       1.0000 0.22419  0.37097  0.25729  Biso   1.000  O
  Zr5      1.0000 0.14077  0.02199  0.64274  Biso   1.000  Zr
  Zr6      1.0000 0.13291  0.22830  0.88967  Biso   1.000  Zr
  Zr7      1.0000 0.36385  0.28005  0.60689  Biso   1.000  Zr
  Zr8      1.0000 0.35911  0.48217  0.85581  Biso   1.000  Zr
  O9       1.0000 0.03782  0.16702  0.57760  Biso   1.000  O
  O10      1.0000 0.03191  0.08371  0.82464  Biso   1.000  O
  O11      1.0000 0.46918  0.41237  0.68814  Biso   1.000  O
  O12      1.0000 0.46478  0.33538  0.92164  Biso   1.000  O
  O13      1.0000 0.27394  0.12915  0.73640  Biso   1.000  O
  O14      1.0000 0.27042  0.12352  0.98265  Biso   1.000  O
  O15      1.0000 0.22690  0.37820  0.50707  Biso   1.000  O
  O16      1.0000 0.22379  0.37349  0.75803  Biso   1.000  O
  Zr9      1.0000 0.13767  0.52256  0.14824  Biso   1.000  Zr
  Zr10     1.0000 0.13497  0.72951  0.39649  Biso   1.000  Zr
  Zr11     1.0000 0.35919  0.77387  0.10429  Biso   1.000  Zr
  Zr12     1.0000 0.36386  0.96603  0.35805  Biso   1.000  Zr
  O17      1.0000 0.03236  0.66508  0.07831  Biso   1.000  O
  O18      1.0000 0.03218  0.58336  0.32881  Biso   1.000  O
  O19      1.0000 0.46464  0.91744  0.17472  Biso   1.000  O
  O20      1.0000 0.46205  0.82275  0.42462  Biso   1.000  O
  O21      1.0000 0.27251  0.63169  0.24222  Biso   1.000  O
  O22      1.0000 0.27166  0.62393  0.49250  Biso   1.000  O
  O23      1.0000 0.22301  0.88021  0.00986  Biso   1.000  O
  O24      1.0000 0.22223  0.87052  0.26098  Biso   1.000  O
  Zr13     1.0000 0.13719  0.52190  0.64571  Biso   1.000  Zr
  Zr14     1.0000 0.13677  0.72846  0.89688  Biso   1.000  Zr
  Zr15     1.0000 0.36096  0.76953  0.60764  Biso   1.000  Zr
  Zr16     1.0000 0.35946  0.97904  0.85243  Biso   1.000  Zr
  O25      1.0000 0.03111  0.66561  0.57846  Biso   1.000  O
  O26      1.0000 0.03245  0.58497  0.82771  Biso   1.000  O
  O27      1.0000 0.46537  0.91574  0.67138  Biso   1.000  O
  O28      1.0000 0.46472  0.83717  0.92235  Biso   1.000  O
  O29      1.0000 0.27452  0.62751  0.74156  Biso   1.000  O
  O30      1.0000 0.27439  0.62462  0.99283  Biso   1.000  O
  O31      1.0000 0.22401  0.87696  0.51188  Biso   1.000  O
  O32      1.0000 0.22359  0.87083  0.76059  Biso   1.000  O
  Zr17     1.0000 0.64156  0.01630  0.14788  Biso   1.000  Zr
  Zr18     1.0000 0.65595  0.22868  0.41046  Biso   1.000  Zr
  Zr19     1.0000 0.85909  0.27232  0.10642  Biso   1.000  Zr
  Zr20     1.0000 0.85999  0.47794  0.35488  Biso   1.000  Zr
  O33      1.0000 0.52945  0.15954  0.07245  Biso   1.000  O
  O34      1.0000 0.55676  0.05284  0.34517  Biso   1.000  O
  O35      1.0000 0.96523  0.41557  0.17363  Biso   1.000  O
  O36      1.0000 0.96482  0.33253  0.42352  Biso   1.000  O
  O37      1.0000 0.77707  0.12936  0.24193  Biso   1.000  O
  O38      1.0000 0.78351  0.11898  0.49790  Biso   1.000  O
  O39      1.0000 0.72216  0.37791  0.01304  Biso   1.000  O
  O40      1.0000 0.71991  0.37077  0.26320  Biso   1.000  O
  Zr21     1.0000 0.63765  0.02161  0.64667  Biso   1.000  Zr
  Zr22     1.0000 0.63792  0.22591  0.89786  Biso   1.000  Zr
  Zr23     1.0000 0.86460  0.27145  0.61075  Biso   1.000  Zr
  Zr24     1.0000 0.85886  0.47924  0.85679  Biso   1.000  Zr
  O41      1.0000 0.53560  0.16872  0.57981  Biso   1.000  O
  O42      1.0000 0.53122  0.08548  0.82519  Biso   1.000  O
  O43      1.0000 0.96739  0.41624  0.67468  Biso   1.000  O
  O44      1.0000 0.96244  0.33397  0.92192  Biso   1.000  O
  O45      1.0000 0.77476  0.12819  0.74410  Biso   1.000  O
  O46      1.0000 0.77520  0.12100  0.99241  Biso   1.000  O
  O47      1.0000 0.73077  0.37744  0.51708  Biso   1.000  O
  O48      1.0000 0.72544  0.37162  0.76416  Biso   1.000  O
  Zr25     1.0000 0.63421  0.52373  0.14403  Biso   1.000  Zr
  Zr26     1.0000 0.64021  0.72558  0.39677  Biso   1.000  Zr
  Zr27     1.0000 0.85971  0.76867  0.10504  Biso   1.000  Zr
  Zr28     1.0000 0.85676  0.97546  0.35511  Biso   1.000  Zr
  O49      1.0000 0.53415  0.67366  0.07774  Biso   1.000  O
  O50      1.0000 0.53207  0.59107  0.32274  Biso   1.000  O
  O51      1.0000 0.96255  0.91319  0.17446  Biso   1.000  O
  O52      1.0000 0.96366  0.83303  0.42320  Biso   1.000  O
  O53      1.0000 0.77586  0.62552  0.24078  Biso   1.000  O
  O54      1.0000 0.77406  0.61954  0.49083  Biso   1.000  O
  O55      1.0000 0.72453  0.87781  0.01042  Biso   1.000  O
  O56      1.0000 0.72498  0.86496  0.25853  Biso   1.000  O
  Zr29     1.0000 0.63772  0.52115  0.64869  Biso   1.000  Zr
  Zr30     1.0000 0.63658  0.73043  0.89617  Biso   1.000  Zr
  Zr31     1.0000 0.86023  0.77217  0.60607  Biso   1.000  Zr
  Zr32     1.0000 0.86042  0.97780  0.85506  Biso   1.000  Zr
  O57      1.0000 0.53222  0.66252  0.57970  Biso   1.000  O
  O58      1.0000 0.53171  0.58747  0.82995  Biso   1.000  O
  O59      1.0000 0.96627  0.91583  0.67258  Biso   1.000  O
  O60      1.0000 0.96597  0.83442  0.92355  Biso   1.000  O
  O61      1.0000 0.77383  0.62875  0.74074  Biso   1.000  O
  O62      1.0000 0.77307  0.62155  0.99001  Biso   1.000  O
  O63      1.0000 0.72300  0.87652  0.51152  Biso   1.000  O
  O64      1.0000 0.72387  0.87262  0.76097  Biso   1.000  O
  Rb1      1.0000 0.44679  0.23566  0.29064  Biso   1.000  Rb
