data_image0
_cell_length_a       5.13657
_cell_length_b       10.4292
_cell_length_c       10.6642
_cell_angle_alpha    89.1686
_cell_angle_beta     80.7178
_cell_angle_gamma    90.3541

_symmetry_space_group_name_H-M    "P 1"
_symmetry_int_tables_number       1

loop_
  _symmetry_equiv_pos_as_xyz
  'x, y, z'

loop_
  _atom_site_label
  _atom_site_occupancy
  _atom_site_fract_x
  _atom_site_fract_y
  _atom_site_fract_z
  _atom_site_thermal_displace_type
  _atom_site_B_iso_or_equiv
  _atom_site_type_symbol
  Rb1      1.0000 0.19261  0.98568  0.12916  Biso   1.000  Rb
  Zr1      1.0000 0.27915  0.02525  0.65108  Biso   1.000  Zr
  Zr2      1.0000 0.27308  0.51084  0.14408  Biso   1.000  Zr
  Zr3      1.0000 0.28662  0.52319  0.64270  Biso   1.000  Zr
  Zr4      1.0000 0.27429  0.23136  0.39782  Biso   1.000  Zr
  Zr5      1.0000 0.28848  0.22930  0.89637  Biso   1.000  Zr
  Zr6      1.0000 0.26795  0.72216  0.39614  Biso   1.000  Zr
  Zr7      1.0000 0.29966  0.72978  0.88340  Biso   1.000  Zr
  Zr8      1.0000 0.70669  0.26234  0.10616  Biso   1.000  Zr
  Zr9      1.0000 0.72573  0.27497  0.60587  Biso   1.000  Zr
  Zr10     1.0000 0.74233  0.73642  0.07381  Biso   1.000  Zr
  Zr11     1.0000 0.73141  0.77662  0.60182  Biso   1.000  Zr
  Zr12     1.0000 0.71736  0.47940  0.35213  Biso   1.000  Zr
  Zr13     1.0000 0.73708  0.47242  0.84835  Biso   1.000  Zr
  Zr14     1.0000 0.71528  0.99825  0.37674  Biso   1.000  Zr
  Zr15     1.0000 0.72992  0.98146  0.85560  Biso   1.000  Zr
  O1       1.0000 0.07493  0.19974  0.07785  Biso   1.000  O
  O2       1.0000 0.06852  0.17460  0.58744  Biso   1.000  O
  O3       1.0000 0.10301  0.67021  0.07261  Biso   1.000  O
  O4       1.0000 0.07113  0.66549  0.57394  Biso   1.000  O
  O5       1.0000 0.06084  0.08564  0.35641  Biso   1.000  O
  O6       1.0000 0.08274  0.08160  0.83279  Biso   1.000  O
  O7       1.0000 0.06305  0.58374  0.32420  Biso   1.000  O
  O8       1.0000 0.07149  0.58688  0.82290  Biso   1.000  O
  O9       1.0000 0.91165  0.42524  0.16759  Biso   1.000  O
  O10      1.0000 0.93964  0.42027  0.66821  Biso   1.000  O
  O11      1.0000 0.72136  0.88317  0.20591  Biso   1.000  O
  O12      1.0000 0.94028  0.91629  0.67481  Biso   1.000  O
  O13      1.0000 0.92841  0.33793  0.42222  Biso   1.000  O
  O14      1.0000 0.94075  0.33373  0.91262  Biso   1.000  O
  O15      1.0000 0.94459  0.83862  0.42086  Biso   1.000  O
  O16      1.0000 0.97894  0.84409  0.92674  Biso   1.000  O
  O17      1.0000 0.58051  0.14031  0.25874  Biso   1.000  O
  O18      1.0000 0.55969  0.13009  0.74089  Biso   1.000  O
  O19      1.0000 0.53902  0.63107  0.23373  Biso   1.000  O
  O20      1.0000 0.55954  0.63117  0.73255  Biso   1.000  O
  O21      1.0000 0.53994  0.13021  0.50322  Biso   1.000  O
  O22      1.0000 0.57695  0.12525  0.98116  Biso   1.000  O
  O23      1.0000 0.55212  0.62447  0.48493  Biso   1.000  O
  O24      1.0000 0.55464  0.60591  0.98066  Biso   1.000  O
  O25      1.0000 0.45434  0.37628  0.00815  Biso   1.000  O
  O26      1.0000 0.45079  0.38383  0.50944  Biso   1.000  O
  O27      1.0000 0.50646  0.85327  0.98511  Biso   1.000  O
  O28      1.0000 0.45794  0.88529  0.51676  Biso   1.000  O
  O29      1.0000 0.43558  0.37508  0.26030  Biso   1.000  O
  O30      1.0000 0.45660  0.37280  0.75727  Biso   1.000  O
  O31      1.0000 0.46591  0.87861  0.27942  Biso   1.000  O
  O32      1.0000 0.46121  0.87438  0.75407  Biso   1.000  O
