data_image0
_cell_length_a       10.1105
_cell_length_b       10.2609
_cell_length_c       10.1105
_cell_angle_alpha    90.0005
_cell_angle_beta     90.0011
_cell_angle_gamma    90.0001

_symmetry_space_group_name_H-M    "P 1"
_symmetry_int_tables_number       1

loop_
  _symmetry_equiv_pos_as_xyz
  'x, y, z'

loop_
  _atom_site_label
  _atom_site_occupancy
  _atom_site_fract_x
  _atom_site_fract_y
  _atom_site_fract_z
  _atom_site_thermal_displace_type
  _atom_site_B_iso_or_equiv
  _atom_site_type_symbol
  Rb1      1.0000 0.12576  0.00019  0.12575  Biso   1.000  Rb
  Zr1      1.0000 0.12576  0.00019  0.62575  Biso   1.000  Zr
  Zr2      1.0000 0.12575  0.50020  0.12574  Biso   1.000  Zr
  Zr3      1.0000 0.12575  0.50019  0.62574  Biso   1.000  Zr
  Zr4      1.0000 0.62576  0.00019  0.12575  Biso   1.000  Zr
  Zr5      1.0000 0.62576  0.00019  0.62574  Biso   1.000  Zr
  Zr6      1.0000 0.62575  0.50019  0.12575  Biso   1.000  Zr
  Zr7      1.0000 0.62577  0.50019  0.62575  Biso   1.000  Zr
  Zr8      1.0000 0.12452  0.25278  0.37673  Biso   1.000  Zr
  Zr9      1.0000 0.12698  0.25277  0.87477  Biso   1.000  Zr
  Zr10     1.0000 0.12699  0.74761  0.37673  Biso   1.000  Zr
  Zr11     1.0000 0.12452  0.74761  0.87477  Biso   1.000  Zr
  Zr12     1.0000 0.62570  0.25027  0.37593  Biso   1.000  Zr
  Zr13     1.0000 0.62582  0.25027  0.87557  Biso   1.000  Zr
  Zr14     1.0000 0.62582  0.75011  0.37592  Biso   1.000  Zr
  Zr15     1.0000 0.62569  0.75011  0.87557  Biso   1.000  Zr
  Zr16     1.0000 0.37673  0.25277  0.12451  Biso   1.000  Zr
  Zr17     1.0000 0.37594  0.25027  0.62569  Biso   1.000  Zr
  Zr18     1.0000 0.37674  0.74761  0.12698  Biso   1.000  Zr
  Zr19     1.0000 0.37593  0.75011  0.62581  Biso   1.000  Zr
  Zr20     1.0000 0.87478  0.25277  0.12698  Biso   1.000  Zr
  Zr21     1.0000 0.87558  0.25026  0.62581  Biso   1.000  Zr
  Zr22     1.0000 0.87478  0.74761  0.12452  Biso   1.000  Zr
  Zr23     1.0000 0.87557  0.75012  0.62568  Biso   1.000  Zr
  Zr24     1.0000 0.37711  0.00281  0.37710  Biso   1.000  Zr
  Zr25     1.0000 0.37710  0.99758  0.87440  Biso   1.000  Zr
  Zr26     1.0000 0.37660  0.49939  0.37659  Biso   1.000  Zr
  Zr27     1.0000 0.37659  0.50099  0.87490  Biso   1.000  Zr
  Zr28     1.0000 0.87441  0.99758  0.37709  Biso   1.000  Zr
  Zr29     1.0000 0.87441  0.00280  0.87440  Biso   1.000  Zr
  Zr30     1.0000 0.87491  0.50099  0.37659  Biso   1.000  Zr
  Zr31     1.0000 0.87492  0.49940  0.87491  Biso   1.000  Zr
  O1       1.0000 0.99073  0.15566  0.99072  Biso   1.000  O
  O2       1.0000 0.00811  0.14808  0.51018  Biso   1.000  O
  O3       1.0000 0.00485  0.64151  0.00485  Biso   1.000  O
  O4       1.0000 0.00167  0.64555  0.50484  Biso   1.000  O
  O5       1.0000 0.51018  0.14808  0.00810  Biso   1.000  O
  O6       1.0000 0.50522  0.14740  0.50521  Biso   1.000  O
  O7       1.0000 0.50485  0.64555  0.00167  Biso   1.000  O
  O8       1.0000 0.50145  0.64650  0.50145  Biso   1.000  O
  O9       1.0000 0.98328  0.12480  0.26822  Biso   1.000  O
  O10      1.0000 0.99699  0.10305  0.75079  Biso   1.000  O
  O11      1.0000 0.99883  0.60221  0.25269  Biso   1.000  O
  O12      1.0000 0.00066  0.60342  0.75383  Biso   1.000  O
  O13      1.0000 0.50072  0.10306  0.25453  Biso   1.000  O
  O14      1.0000 0.49881  0.10404  0.75270  Biso   1.000  O
  O15      1.0000 0.49769  0.60342  0.25087  Biso   1.000  O
  O16      1.0000 0.50054  0.60376  0.75098  Biso   1.000  O
  O17      1.0000 0.00485  0.35887  0.24665  Biso   1.000  O
  O18      1.0000 0.00167  0.35484  0.74666  Biso   1.000  O
  O19      1.0000 0.99073  0.84473  0.26078  Biso   1.000  O
  O20      1.0000 0.00810  0.85231  0.74133  Biso   1.000  O
  O21      1.0000 0.50484  0.35484  0.24984  Biso   1.000  O
  O22      1.0000 0.50146  0.35388  0.75006  Biso   1.000  O
  O23      1.0000 0.51019  0.85231  0.24339  Biso   1.000  O
  O24      1.0000 0.50521  0.85298  0.74629  Biso   1.000  O
  O25      1.0000 0.99882  0.39817  0.99881  Biso   1.000  O
  O26      1.0000 0.00065  0.39696  0.49767  Biso   1.000  O
  O27      1.0000 0.98328  0.87558  0.98328  Biso   1.000  O
  O28      1.0000 0.99697  0.89733  0.50072  Biso   1.000  O
  O29      1.0000 0.49767  0.39696  0.00064  Biso   1.000  O
  O30      1.0000 0.50053  0.39662  0.50052  Biso   1.000  O
  O31      1.0000 0.50072  0.89733  0.99697  Biso   1.000  O
  O32      1.0000 0.49880  0.89634  0.49880  Biso   1.000  O
  O33      1.0000 0.26079  0.15567  0.26078  Biso   1.000  O
  O34      1.0000 0.24341  0.14807  0.74132  Biso   1.000  O
  O35      1.0000 0.24667  0.64152  0.24666  Biso   1.000  O
  O36      1.0000 0.24986  0.64554  0.74668  Biso   1.000  O
  O37      1.0000 0.74133  0.14807  0.24340  Biso   1.000  O
  O38      1.0000 0.74630  0.14740  0.74630  Biso   1.000  O
  O39      1.0000 0.74669  0.64554  0.24985  Biso   1.000  O
  O40      1.0000 0.75007  0.64650  0.75006  Biso   1.000  O
  O41      1.0000 0.26823  0.12480  0.98327  Biso   1.000  O
  O42      1.0000 0.25453  0.10305  0.50071  Biso   1.000  O
  O43      1.0000 0.25270  0.60221  0.99882  Biso   1.000  O
  O44      1.0000 0.25087  0.60342  0.49768  Biso   1.000  O
  O45      1.0000 0.75080  0.10305  0.99698  Biso   1.000  O
  O46      1.0000 0.75271  0.10404  0.49881  Biso   1.000  O
  O47      1.0000 0.75384  0.60342  0.00065  Biso   1.000  O
  O48      1.0000 0.75099  0.60376  0.50053  Biso   1.000  O
  O49      1.0000 0.24666  0.35887  0.00484  Biso   1.000  O
  O50      1.0000 0.24986  0.35484  0.50483  Biso   1.000  O
  O51      1.0000 0.26079  0.84473  0.99073  Biso   1.000  O
  O52      1.0000 0.24339  0.85231  0.51019  Biso   1.000  O
  O53      1.0000 0.74667  0.35484  0.00166  Biso   1.000  O
  O54      1.0000 0.75007  0.35388  0.50145  Biso   1.000  O
  O55      1.0000 0.74133  0.85230  0.00810  Biso   1.000  O
  O56      1.0000 0.74629  0.85298  0.50521  Biso   1.000  O
  O57      1.0000 0.25269  0.39818  0.25268  Biso   1.000  O
  O58      1.0000 0.25087  0.39695  0.75382  Biso   1.000  O
  O59      1.0000 0.26824  0.87559  0.26823  Biso   1.000  O
  O60      1.0000 0.25452  0.89733  0.75080  Biso   1.000  O
  O61      1.0000 0.75383  0.39695  0.25086  Biso   1.000  O
  O62      1.0000 0.75099  0.39662  0.75098  Biso   1.000  O
  O63      1.0000 0.75080  0.89733  0.25452  Biso   1.000  O
  O64      1.0000 0.75270  0.89634  0.75270  Biso   1.000  O
