data_image0
_cell_length_a       10.1985
_cell_length_b       10.448
_cell_length_c       10.2015
_cell_angle_alpha    90.1077
_cell_angle_beta     90.0978
_cell_angle_gamma    94.2217

_symmetry_space_group_name_H-M    "P 1"
_symmetry_int_tables_number       1

loop_
  _symmetry_equiv_pos_as_xyz
  'x, y, z'

loop_
  _atom_site_label
  _atom_site_occupancy
  _atom_site_fract_x
  _atom_site_fract_y
  _atom_site_fract_z
  _atom_site_thermal_displace_type
  _atom_site_B_iso_or_equiv
  _atom_site_type_symbol
  Zr1      1.0000 0.11518  0.97559  0.10764  Biso   1.000  Zr
  Zr2      1.0000 0.15342  0.25411  0.39534  Biso   1.000  Zr
  Zr3      1.0000 0.43352  0.22725  0.10292  Biso   1.000  Zr
  Zr4      1.0000 0.38259  0.01636  0.35194  Biso   1.000  Zr
  O1       1.0000 0.02704  0.13345  0.98002  Biso   1.000  O
  O2       1.0000 0.02674  0.10756  0.23687  Biso   1.000  O
  O3       1.0000 0.98691  0.36912  0.25155  Biso   1.000  O
  O4       1.0000 0.02374  0.39197  0.99903  Biso   1.000  O
  O5       1.0000 0.31324  0.18353  0.28416  Biso   1.000  O
  O6       1.0000 0.29208  0.06665  0.03757  Biso   1.000  O
  O7       1.0000 0.32084  0.29448  0.94196  Biso   1.000  O
  O8       1.0000 0.22406  0.43450  0.29576  Biso   1.000  O
  Zr5      1.0000 0.12337  0.99363  0.61558  Biso   1.000  Zr
  Zr6      1.0000 0.13442  0.25813  0.83720  Biso   1.000  Zr
  Zr7      1.0000 0.40579  0.23156  0.60781  Biso   1.000  Zr
  Zr8      1.0000 0.37908  0.00906  0.86236  Biso   1.000  Zr
  O9       1.0000 0.01567  0.13553  0.49004  Biso   1.000  O
  O10      1.0000 0.01074  0.10949  0.73547  Biso   1.000  O
  O11      1.0000 0.98911  0.36176  0.74871  Biso   1.000  O
  O12      1.0000 0.02487  0.38602  0.50419  Biso   1.000  O
  O13      1.0000 0.26547  0.15262  0.74042  Biso   1.000  O
  O14      1.0000 0.26444  0.09317  0.50159  Biso   1.000  O
  O15      1.0000 0.27971  0.34414  0.51999  Biso   1.000  O
  O16      1.0000 0.23171  0.42860  0.76971  Biso   1.000  O
  Zr9      1.0000 0.10209  0.52620  0.15688  Biso   1.000  Zr
  Zr10     1.0000 0.09765  0.77127  0.36727  Biso   1.000  Zr
  Zr11     1.0000 0.36346  0.72988  0.10825  Biso   1.000  Zr
  Zr12     1.0000 0.38502  0.48981  0.39940  Biso   1.000  Zr
  O17      1.0000 0.00562  0.63750  0.00663  Biso   1.000  O
  O18      1.0000 0.96638  0.62031  0.26022  Biso   1.000  O
  O19      1.0000 0.97422  0.86243  0.23629  Biso   1.000  O
  O20      1.0000 0.97390  0.88197  0.98603  Biso   1.000  O
  O21      1.0000 0.21608  0.67925  0.24416  Biso   1.000  O
  O22      1.0000 0.26741  0.55128  0.03303  Biso   1.000  O
  O23      1.0000 0.21337  0.81838  0.02011  Biso   1.000  O
  O24      1.0000 0.21568  0.92752  0.27614  Biso   1.000  O
  Zr13     1.0000 0.11355  0.51782  0.64512  Biso   1.000  Zr
  Zr14     1.0000 0.09345  0.76245  0.85907  Biso   1.000  Zr
  Zr15     1.0000 0.36292  0.73926  0.60884  Biso   1.000  Zr
  Zr16     1.0000 0.38886  0.47842  0.89300  Biso   1.000  Zr
  O25      1.0000 0.00524  0.63951  0.50527  Biso   1.000  O
  O26      1.0000 0.97466  0.61135  0.75475  Biso   1.000  O
  O27      1.0000 0.97048  0.86239  0.73778  Biso   1.000  O
  O28      1.0000 0.97778  0.89107  0.48790  Biso   1.000  O
  O29      1.0000 0.22266  0.67557  0.74577  Biso   1.000  O
  O30      1.0000 0.25930  0.58702  0.51483  Biso   1.000  O
  O31      1.0000 0.21654  0.83869  0.52574  Biso   1.000  O
  O32      1.0000 0.21209  0.92308  0.78343  Biso   1.000  O
  Zr17     1.0000 0.62196  0.97584  0.10548  Biso   1.000  Zr
  Zr18     1.0000 0.63611  0.26563  0.35764  Biso   1.000  Zr
  Zr19     1.0000 0.89605  0.23319  0.11171  Biso   1.000  Zr
  Zr20     1.0000 0.88292  0.01550  0.35645  Biso   1.000  Zr
  O33      1.0000 0.54357  0.12447  0.98117  Biso   1.000  O
  O34      1.0000 0.53538  0.10975  0.23233  Biso   1.000  O
  O35      1.0000 0.49657  0.36413  0.24493  Biso   1.000  O
  O36      1.0000 0.53925  0.38595  0.99970  Biso   1.000  O
  O37      1.0000 0.78860  0.17472  0.27388  Biso   1.000  O
  O38      1.0000 0.78947  0.06654  0.03258  Biso   1.000  O
  O39      1.0000 0.77981  0.31820  0.98613  Biso   1.000  O
  O40      1.0000 0.73647  0.42448  0.26642  Biso   1.000  O
  Zr21     1.0000 0.62007  0.98751  0.60978  Biso   1.000  Zr
  Zr22     1.0000 0.63495  0.26452  0.85069  Biso   1.000  Zr
  Zr23     1.0000 0.89390  0.23422  0.61109  Biso   1.000  Zr
  Zr24     1.0000 0.87814  0.01019  0.86035  Biso   1.000  Zr
  O41      1.0000 0.52452  0.13618  0.48513  Biso   1.000  O
  O42      1.0000 0.51374  0.11135  0.73618  Biso   1.000  O
  O43      1.0000 0.49542  0.36199  0.74359  Biso   1.000  O
  O44      1.0000 0.52651  0.38815  0.49615  Biso   1.000  O
  O45      1.0000 0.77553  0.16479  0.76560  Biso   1.000  O
  O46      1.0000 0.77690  0.07609  0.52116  Biso   1.000  O
  O47      1.0000 0.77405  0.32929  0.49518  Biso   1.000  O
  O48      1.0000 0.73853  0.42137  0.76089  Biso   1.000  O
  Zr25     1.0000 0.61286  0.51826  0.14768  Biso   1.000  Zr
  Zr26     1.0000 0.59686  0.76772  0.36193  Biso   1.000  Zr
  Zr27     1.0000 0.86183  0.73493  0.10926  Biso   1.000  Zr
  Zr28     1.0000 0.88752  0.48050  0.39683  Biso   1.000  Zr
  O49      1.0000 0.50421  0.63414  0.00096  Biso   1.000  O
  O50      1.0000 0.47080  0.61336  0.25452  Biso   1.000  O
  O51      1.0000 0.47162  0.86107  0.23497  Biso   1.000  O
  O52      1.0000 0.47407  0.88034  0.98554  Biso   1.000  O
  O53      1.0000 0.71639  0.67561  0.24191  Biso   1.000  O
  O54      1.0000 0.76364  0.57254  0.01836  Biso   1.000  O
  O55      1.0000 0.71387  0.82226  0.01634  Biso   1.000  O
  O56      1.0000 0.71783  0.92265  0.27507  Biso   1.000  O
  Zr29     1.0000 0.61616  0.51679  0.64210  Biso   1.000  Zr
  Zr30     1.0000 0.59474  0.76178  0.85750  Biso   1.000  Zr
  Zr31     1.0000 0.86296  0.73794  0.60690  Biso   1.000  Zr
  Zr32     1.0000 0.88667  0.48106  0.89640  Biso   1.000  Zr
  O57      1.0000 0.50414  0.64122  0.50372  Biso   1.000  O
  O58      1.0000 0.47532  0.60986  0.75123  Biso   1.000  O
  O59      1.0000 0.46923  0.86266  0.73913  Biso   1.000  O
  O60      1.0000 0.47614  0.89150  0.48713  Biso   1.000  O
  O61      1.0000 0.72234  0.67253  0.74260  Biso   1.000  O
  O62      1.0000 0.76054  0.58007  0.51169  Biso   1.000  O
  O63      1.0000 0.71326  0.82950  0.52182  Biso   1.000  O
  O64      1.0000 0.71205  0.92253  0.77703  Biso   1.000  O
  Rb1      1.0000 0.17798  0.27556  0.12185  Biso   1.000  Rb
