data_image0
_cell_length_a       10.2756
_cell_length_b       10.4807
_cell_length_c       5.29198
_cell_angle_alpha    89.4282
_cell_angle_beta     80.5902
_cell_angle_gamma    90.4137

_symmetry_space_group_name_H-M    "P 1"
_symmetry_int_tables_number       1

loop_
  _symmetry_equiv_pos_as_xyz
  'x, y, z'

loop_
  _atom_site_label
  _atom_site_occupancy
  _atom_site_fract_x
  _atom_site_fract_y
  _atom_site_fract_z
  _atom_site_thermal_displace_type
  _atom_site_B_iso_or_equiv
  _atom_site_type_symbol
  Rb1      1.0000 0.08913  0.99056  0.26992  Biso   1.000  Rb
  Zr1      1.0000 0.14628  0.52080  0.28559  Biso   1.000  Zr
  Zr2      1.0000 0.63778  0.02965  0.29658  Biso   1.000  Zr
  Zr3      1.0000 0.63345  0.51422  0.28785  Biso   1.000  Zr
  Zr4      1.0000 0.13888  0.23114  0.79450  Biso   1.000  Zr
  Zr5      1.0000 0.15566  0.72826  0.77580  Biso   1.000  Zr
  Zr6      1.0000 0.63720  0.23326  0.79371  Biso   1.000  Zr
  Zr7      1.0000 0.63191  0.72124  0.78665  Biso   1.000  Zr
  Zr8      1.0000 0.35434  0.26394  0.20797  Biso   1.000  Zr
  Zr9      1.0000 0.36831  0.77491  0.20160  Biso   1.000  Zr
  Zr10     1.0000 0.86275  0.27803  0.20932  Biso   1.000  Zr
  Zr11     1.0000 0.87059  0.73986  0.15351  Biso   1.000  Zr
  Zr12     1.0000 0.36009  0.47414  0.70429  Biso   1.000  Zr
  Zr13     1.0000 0.36110  0.98103  0.69696  Biso   1.000  Zr
  Zr14     1.0000 0.86610  0.47854  0.69425  Biso   1.000  Zr
  Zr15     1.0000 0.86038  0.99015  0.76443  Biso   1.000  Zr
  O1       1.0000 0.04384  0.21543  0.18019  Biso   1.000  O
  O2       1.0000 0.05196  0.68129  0.16642  Biso   1.000  O
  O3       1.0000 0.53257  0.16824  0.15405  Biso   1.000  O
  O4       1.0000 0.53694  0.66176  0.14504  Biso   1.000  O
  O5       1.0000 0.02737  0.07908  0.75471  Biso   1.000  O
  O6       1.0000 0.03807  0.58267  0.66013  Biso   1.000  O
  O7       1.0000 0.53930  0.08771  0.65136  Biso   1.000  O
  O8       1.0000 0.53130  0.58141  0.64767  Biso   1.000  O
  O9       1.0000 0.46452  0.41096  0.34319  Biso   1.000  O
  O10      1.0000 0.47638  0.91569  0.34192  Biso   1.000  O
  O11      1.0000 0.95889  0.44018  0.31794  Biso   1.000  O
  O12      1.0000 0.85558  0.88165  0.43134  Biso   1.000  O
  O13      1.0000 0.46835  0.33576  0.84327  Biso   1.000  O
  O14      1.0000 0.48532  0.84281  0.83890  Biso   1.000  O
  O15      1.0000 0.96020  0.33156  0.82012  Biso   1.000  O
  O16      1.0000 0.97774  0.83428  0.84176  Biso   1.000  O
  O17      1.0000 0.28252  0.13359  0.49568  Biso   1.000  O
  O18      1.0000 0.28132  0.62346  0.46939  Biso   1.000  O
  O19      1.0000 0.78493  0.13107  0.49316  Biso   1.000  O
  O20      1.0000 0.76821  0.63271  0.46770  Biso   1.000  O
  O21      1.0000 0.28676  0.12947  0.95950  Biso   1.000  O
  O22      1.0000 0.28137  0.61625  0.97229  Biso   1.000  O
  O23      1.0000 0.77080  0.12917  0.00236  Biso   1.000  O
  O24      1.0000 0.77423  0.61487  0.96211  Biso   1.000  O
  O25      1.0000 0.22712  0.38154  0.01313  Biso   1.000  O
  O26      1.0000 0.24986  0.86431  0.98145  Biso   1.000  O
  O27      1.0000 0.72388  0.38132  0.01482  Biso   1.000  O
  O28      1.0000 0.73441  0.87802  0.03743  Biso   1.000  O
  O29      1.0000 0.22108  0.37265  0.51366  Biso   1.000  O
  O30      1.0000 0.24375  0.85858  0.51118  Biso   1.000  O
  O31      1.0000 0.72541  0.37271  0.51462  Biso   1.000  O
  O32      1.0000 0.71754  0.88543  0.54590  Biso   1.000  O
