data_image0
_cell_length_a       10.1805
_cell_length_b       10.4605
_cell_length_c       5.27966
_cell_angle_alpha    89.3148
_cell_angle_beta     90.3302
_cell_angle_gamma    90.4093

_symmetry_space_group_name_H-M    "P 1"
_symmetry_int_tables_number       1

loop_
  _symmetry_equiv_pos_as_xyz
  'x, y, z'

loop_
  _atom_site_label
  _atom_site_occupancy
  _atom_site_fract_x
  _atom_site_fract_y
  _atom_site_fract_z
  _atom_site_thermal_displace_type
  _atom_site_B_iso_or_equiv
  _atom_site_type_symbol
  Rb1      1.0000 0.09053  0.98818  0.29824  Biso   1.000  Rb
  Zr1      1.0000 0.14615  0.52021  0.34066  Biso   1.000  Zr
  Zr2      1.0000 0.13966  0.23029  0.84626  Biso   1.000  Zr
  Zr3      1.0000 0.15529  0.72828  0.82890  Biso   1.000  Zr
  Zr4      1.0000 0.35420  0.26408  0.34273  Biso   1.000  Zr
  Zr5      1.0000 0.36679  0.77215  0.33200  Biso   1.000  Zr
  Zr6      1.0000 0.36149  0.47437  0.83931  Biso   1.000  Zr
  Zr7      1.0000 0.36331  0.97900  0.82848  Biso   1.000  Zr
  Zr8      1.0000 0.63303  0.03075  0.16177  Biso   1.000  Zr
  Zr9      1.0000 0.63396  0.51529  0.15853  Biso   1.000  Zr
  Zr10     1.0000 0.63906  0.23463  0.65911  Biso   1.000  Zr
  Zr11     1.0000 0.63454  0.72357  0.65510  Biso   1.000  Zr
  Zr12     1.0000 0.86353  0.27863  0.15823  Biso   1.000  Zr
  Zr13     1.0000 0.87148  0.74171  0.11075  Biso   1.000  Zr
  Zr14     1.0000 0.86600  0.47965  0.64741  Biso   1.000  Zr
  Zr15     1.0000 0.85886  0.99272  0.71402  Biso   1.000  Zr
  O1       1.0000 0.04240  0.21318  0.19844  Biso   1.000  O
  O2       1.0000 0.05082  0.68194  0.18497  Biso   1.000  O
  O3       1.0000 0.02519  0.07872  0.76946  Biso   1.000  O
  O4       1.0000 0.03753  0.58205  0.67413  Biso   1.000  O
  O5       1.0000 0.46885  0.40867  0.16105  Biso   1.000  O
  O6       1.0000 0.47812  0.91307  0.15277  Biso   1.000  O
  O7       1.0000 0.46978  0.33834  0.65753  Biso   1.000  O
  O8       1.0000 0.48505  0.84561  0.64185  Biso   1.000  O
  O9       1.0000 0.28029  0.12943  0.60213  Biso   1.000  O
  O10      1.0000 0.28239  0.61886  0.58271  Biso   1.000  O
  O11      1.0000 0.29037  0.13287  0.06674  Biso   1.000  O
  O12      1.0000 0.27920  0.61730  0.08514  Biso   1.000  O
  O13      1.0000 0.22375  0.37429  0.58674  Biso   1.000  O
  O14      1.0000 0.24275  0.86051  0.58432  Biso   1.000  O
  O15      1.0000 0.22606  0.37792  0.08784  Biso   1.000  O
  O16      1.0000 0.25162  0.85836  0.05573  Biso   1.000  O
  O17      1.0000 0.53383  0.16822  0.33614  Biso   1.000  O
  O18      1.0000 0.53250  0.65777  0.34068  Biso   1.000  O
  O19      1.0000 0.53802  0.08749  0.82945  Biso   1.000  O
  O20      1.0000 0.52962  0.58799  0.84265  Biso   1.000  O
  O21      1.0000 0.96177  0.43894  0.30482  Biso   1.000  O
  O22      1.0000 0.85351  0.89074  0.36807  Biso   1.000  O
  O23      1.0000 0.96256  0.33229  0.80824  Biso   1.000  O
  O24      1.0000 0.97743  0.83353  0.82936  Biso   1.000  O
  O25      1.0000 0.77209  0.13225  0.93393  Biso   1.000  O
  O26      1.0000 0.77354  0.61631  0.89625  Biso   1.000  O
  O27      1.0000 0.78061  0.12985  0.43201  Biso   1.000  O
  O28      1.0000 0.77308  0.62942  0.40146  Biso   1.000  O
  O29      1.0000 0.72392  0.37832  0.90494  Biso   1.000  O
  O30      1.0000 0.73235  0.87065  0.92383  Biso   1.000  O
  O31      1.0000 0.72727  0.37747  0.40639  Biso   1.000  O
  O32      1.0000 0.71432  0.88788  0.42600  Biso   1.000  O
