data_image0
_cell_length_a       10.0676
_cell_length_b       10.4627
_cell_length_c       10.1496
_cell_angle_alpha    90.0199
_cell_angle_beta     89.7316
_cell_angle_gamma    89.9328

_symmetry_space_group_name_H-M    "P 1"
_symmetry_int_tables_number       1

loop_
  _symmetry_equiv_pos_as_xyz
  'x, y, z'

loop_
  _atom_site_label
  _atom_site_occupancy
  _atom_site_fract_x
  _atom_site_fract_y
  _atom_site_fract_z
  _atom_site_thermal_displace_type
  _atom_site_B_iso_or_equiv
  _atom_site_type_symbol
  Rb1      1.0000 0.08815  0.99151  0.13389  Biso   1.000  Rb
  Zr1      1.0000 0.13411  0.01912  0.63025  Biso   1.000  Zr
  Zr2      1.0000 0.13962  0.51553  0.13036  Biso   1.000  Zr
  Zr3      1.0000 0.13615  0.51706  0.62520  Biso   1.000  Zr
  Zr4      1.0000 0.63554  0.01866  0.11703  Biso   1.000  Zr
  Zr5      1.0000 0.62829  0.01631  0.62491  Biso   1.000  Zr
  Zr6      1.0000 0.62935  0.51280  0.12599  Biso   1.000  Zr
  Zr7      1.0000 0.63388  0.51563  0.62498  Biso   1.000  Zr
  Zr8      1.0000 0.13770  0.23561  0.37710  Biso   1.000  Zr
  Zr9      1.0000 0.13776  0.23393  0.87346  Biso   1.000  Zr
  Zr10     1.0000 0.14045  0.73553  0.38103  Biso   1.000  Zr
  Zr11     1.0000 0.14454  0.73462  0.87559  Biso   1.000  Zr
  Zr12     1.0000 0.63262  0.23394  0.37156  Biso   1.000  Zr
  Zr13     1.0000 0.63411  0.23354  0.87372  Biso   1.000  Zr
  Zr14     1.0000 0.63092  0.73036  0.37596  Biso   1.000  Zr
  Zr15     1.0000 0.63075  0.73522  0.87161  Biso   1.000  Zr
  Zr16     1.0000 0.36143  0.26085  0.12669  Biso   1.000  Zr
  Zr17     1.0000 0.36673  0.26547  0.62531  Biso   1.000  Zr
  Zr18     1.0000 0.36872  0.76414  0.12566  Biso   1.000  Zr
  Zr19     1.0000 0.36762  0.76981  0.62579  Biso   1.000  Zr
  Zr20     1.0000 0.86402  0.26923  0.12543  Biso   1.000  Zr
  Zr21     1.0000 0.86728  0.27033  0.62150  Biso   1.000  Zr
  Zr22     1.0000 0.88753  0.72682  0.08659  Biso   1.000  Zr
  Zr23     1.0000 0.86922  0.76330  0.62267  Biso   1.000  Zr
  Zr24     1.0000 0.36769  0.48280  0.37599  Biso   1.000  Zr
  Zr25     1.0000 0.36719  0.48121  0.87674  Biso   1.000  Zr
  Zr26     1.0000 0.36498  0.98637  0.37217  Biso   1.000  Zr
  Zr27     1.0000 0.36133  0.98608  0.88055  Biso   1.000  Zr
  Zr28     1.0000 0.86661  0.48804  0.37432  Biso   1.000  Zr
  Zr29     1.0000 0.86433  0.47860  0.87280  Biso   1.000  Zr
  Zr30     1.0000 0.86346  0.99091  0.39504  Biso   1.000  Zr
  Zr31     1.0000 0.86182  0.98392  0.86441  Biso   1.000  Zr
  O1       1.0000 0.02641  0.20979  0.20920  Biso   1.000  O
  O2       1.0000 0.04171  0.19403  0.67901  Biso   1.000  O
  O3       1.0000 0.04740  0.69371  0.19862  Biso   1.000  O
  O4       1.0000 0.03710  0.68382  0.69833  Biso   1.000  O
  O5       1.0000 0.54131  0.18465  0.18867  Biso   1.000  O
  O6       1.0000 0.53580  0.18486  0.69391  Biso   1.000  O
  O7       1.0000 0.53533  0.67928  0.20025  Biso   1.000  O
  O8       1.0000 0.53445  0.68283  0.69467  Biso   1.000  O
  O9       1.0000 0.03617  0.06786  0.44202  Biso   1.000  O
  O10      1.0000 0.03699  0.06848  0.88807  Biso   1.000  O
  O11      1.0000 0.03520  0.56942  0.44837  Biso   1.000  O
  O12      1.0000 0.01422  0.58700  0.96646  Biso   1.000  O
  O13      1.0000 0.53614  0.06720  0.44505  Biso   1.000  O
  O14      1.0000 0.53939  0.06632  0.94024  Biso   1.000  O
  O15      1.0000 0.53648  0.56668  0.44550  Biso   1.000  O
  O16      1.0000 0.52778  0.57000  0.94954  Biso   1.000  O
  O17      1.0000 0.46488  0.42900  0.19735  Biso   1.000  O
  O18      1.0000 0.46679  0.43349  0.69559  Biso   1.000  O
  O19      1.0000 0.47678  0.93051  0.19827  Biso   1.000  O
  O20      1.0000 0.46568  0.93329  0.70053  Biso   1.000  O
  O21      1.0000 0.96099  0.44570  0.19262  Biso   1.000  O
  O22      1.0000 0.96796  0.43557  0.69903  Biso   1.000  O
  O23      1.0000 0.86446  0.88046  0.21935  Biso   1.000  O
  O24      1.0000 0.95625  0.93689  0.67732  Biso   1.000  O
  O25      1.0000 0.46698  0.31633  0.44549  Biso   1.000  O
  O26      1.0000 0.46669  0.31712  0.94365  Biso   1.000  O
  O27      1.0000 0.47055  0.81865  0.45246  Biso   1.000  O
  O28      1.0000 0.47331  0.82186  0.94949  Biso   1.000  O
  O29      1.0000 0.96683  0.32420  0.44741  Biso   1.000  O
  O30      1.0000 0.96857  0.32144  0.94671  Biso   1.000  O
  O31      1.0000 0.97072  0.82061  0.44676  Biso   1.000  O
  O32      1.0000 0.97547  0.82725  0.93781  Biso   1.000  O
  O33      1.0000 0.28335  0.12949  0.25896  Biso   1.000  O
  O34      1.0000 0.27441  0.11949  0.74760  Biso   1.000  O
  O35      1.0000 0.27284  0.61207  0.25126  Biso   1.000  O
  O36      1.0000 0.27069  0.61768  0.75092  Biso   1.000  O
  O37      1.0000 0.77399  0.11445  0.24911  Biso   1.000  O
  O38      1.0000 0.76796  0.11843  0.74422  Biso   1.000  O
  O39      1.0000 0.76979  0.61757  0.24204  Biso   1.000  O
  O40      1.0000 0.77085  0.61543  0.74443  Biso   1.000  O
  O41      1.0000 0.26903  0.13212  0.50344  Biso   1.000  O
  O42      1.0000 0.27449  0.13731  0.99240  Biso   1.000  O
  O43      1.0000 0.27308  0.63339  0.50194  Biso   1.000  O
  O44      1.0000 0.26761  0.62611  0.00089  Biso   1.000  O
  O45      1.0000 0.76693  0.13738  0.49971  Biso   1.000  O
  O46      1.0000 0.77696  0.13139  0.99551  Biso   1.000  O
  O47      1.0000 0.76950  0.63473  0.49469  Biso   1.000  O
  O48      1.0000 0.75819  0.62007  0.98800  Biso   1.000  O
  O49      1.0000 0.23335  0.38458  0.49979  Biso   1.000  O
  O50      1.0000 0.22975  0.38376  0.00087  Biso   1.000  O
  O51      1.0000 0.23209  0.88639  0.50322  Biso   1.000  O
  O52      1.0000 0.24308  0.86793  0.99335  Biso   1.000  O
  O53      1.0000 0.73135  0.38562  0.49769  Biso   1.000  O
  O54      1.0000 0.72772  0.38042  0.99693  Biso   1.000  O
  O55      1.0000 0.73015  0.88195  0.49981  Biso   1.000  O
  O56      1.0000 0.73706  0.87281  0.99674  Biso   1.000  O
  O57      1.0000 0.22906  0.37054  0.25083  Biso   1.000  O
  O58      1.0000 0.23170  0.36865  0.74867  Biso   1.000  O
  O59      1.0000 0.25315  0.85283  0.26232  Biso   1.000  O
  O60      1.0000 0.22974  0.87062  0.74887  Biso   1.000  O
  O61      1.0000 0.73085  0.36850  0.24936  Biso   1.000  O
  O62      1.0000 0.73178  0.36741  0.74769  Biso   1.000  O
  O63      1.0000 0.72375  0.87657  0.24513  Biso   1.000  O
  O64      1.0000 0.73067  0.86536  0.74578  Biso   1.000  O
