data_image0
_cell_length_a       10.1621
_cell_length_b       10.4174
_cell_length_c       5.33452
_cell_angle_alpha    89.9969
_cell_angle_beta     91.1747
_cell_angle_gamma    90.2523

_symmetry_space_group_name_H-M    "P 1"
_symmetry_int_tables_number       1

loop_
  _symmetry_equiv_pos_as_xyz
  'x, y, z'

loop_
  _atom_site_label
  _atom_site_occupancy
  _atom_site_fract_x
  _atom_site_fract_y
  _atom_site_fract_z
  _atom_site_thermal_displace_type
  _atom_site_B_iso_or_equiv
  _atom_site_type_symbol
  Zr1      1.0000 0.14136  0.02104  0.34844  Biso   1.000  Zr
  Zr2      1.0000 0.14205  0.22709  0.85401  Biso   1.000  Zr
  Zr3      1.0000 0.34770  0.27533  0.37798  Biso   1.000  Zr
  Zr4      1.0000 0.35973  0.48592  0.85282  Biso   1.000  Zr
  Zr5      1.0000 0.64130  0.00396  0.15700  Biso   1.000  Zr
  Zr6      1.0000 0.64794  0.21517  0.61387  Biso   1.000  Zr
  Zr7      1.0000 0.87163  0.27463  0.14565  Biso   1.000  Zr
  Zr8      1.0000 0.86443  0.47969  0.65636  Biso   1.000  Zr
  O1       1.0000 0.03505  0.16105  0.16235  Biso   1.000  O
  O2       1.0000 0.03338  0.08758  0.66233  Biso   1.000  O
  O3       1.0000 0.44901  0.44601  0.19993  Biso   1.000  O
  O4       1.0000 0.47036  0.33729  0.66088  Biso   1.000  O
  O5       1.0000 0.27314  0.12525  0.60565  Biso   1.000  O
  O6       1.0000 0.28073  0.12607  0.10153  Biso   1.000  O
  O7       1.0000 0.22053  0.37621  0.61103  Biso   1.000  O
  O8       1.0000 0.22165  0.37565  0.10503  Biso   1.000  O
  O9       1.0000 0.52114  0.12513  0.39005  Biso   1.000  O
  O10      1.0000 0.53605  0.06705  0.84268  Biso   1.000  O
  O11      1.0000 0.97076  0.41290  0.34291  Biso   1.000  O
  O12      1.0000 0.97575  0.33681  0.83737  Biso   1.000  O
  O13      1.0000 0.77652  0.12619  0.88951  Biso   1.000  O
  O14      1.0000 0.78064  0.12163  0.38301  Biso   1.000  O
  O15      1.0000 0.74251  0.38787  0.90848  Biso   1.000  O
  O16      1.0000 0.72409  0.37219  0.40092  Biso   1.000  O
  Zr9      1.0000 0.14010  0.52254  0.34617  Biso   1.000  Zr
  Zr10     1.0000 0.13882  0.73046  0.84467  Biso   1.000  Zr
  Zr11     1.0000 0.36051  0.77058  0.35050  Biso   1.000  Zr
  Zr12     1.0000 0.36302  0.97483  0.85142  Biso   1.000  Zr
  Zr13     1.0000 0.64051  0.53451  0.16069  Biso   1.000  Zr
  Zr14     1.0000 0.64069  0.73054  0.66005  Biso   1.000  Zr
  Zr15     1.0000 0.86700  0.77024  0.16077  Biso   1.000  Zr
  Zr16     1.0000 0.86726  0.97907  0.65889  Biso   1.000  Zr
  O17      1.0000 0.03308  0.66195  0.16341  Biso   1.000  O
  O18      1.0000 0.03307  0.58877  0.66417  Biso   1.000  O
  O19      1.0000 0.47062  0.90113  0.16044  Biso   1.000  O
  O20      1.0000 0.46804  0.83235  0.66792  Biso   1.000  O
  O21      1.0000 0.27383  0.62668  0.59284  Biso   1.000  O
  O22      1.0000 0.27229  0.62955  0.08950  Biso   1.000  O
  O23      1.0000 0.22615  0.87502  0.59658  Biso   1.000  O
  O24      1.0000 0.22469  0.87684  0.09929  Biso   1.000  O
  O25      1.0000 0.53676  0.67158  0.33943  Biso   1.000  O
  O26      1.0000 0.53370  0.58722  0.83856  Biso   1.000  O
  O27      1.0000 0.97238  0.91290  0.34206  Biso   1.000  O
  O28      1.0000 0.97103  0.83877  0.84397  Biso   1.000  O
  O29      1.0000 0.77692  0.63066  0.90983  Biso   1.000  O
  O30      1.0000 0.77862  0.62513  0.41203  Biso   1.000  O
  O31      1.0000 0.73058  0.87378  0.91307  Biso   1.000  O
  O32      1.0000 0.73171  0.87061  0.41583  Biso   1.000  O
  Rb1      1.0000 0.55987  0.26678  0.05869  Biso   1.000  Rb
