data_image0
_cell_length_a       10.2054
_cell_length_b       5.18116
_cell_length_c       10.2054
_cell_angle_alpha    89.9994
_cell_angle_beta     89.9999
_cell_angle_gamma    89.9994

_symmetry_space_group_name_H-M    "P 1"
_symmetry_int_tables_number       1

loop_
  _symmetry_equiv_pos_as_xyz
  'x, y, z'

loop_
  _atom_site_label
  _atom_site_occupancy
  _atom_site_fract_x
  _atom_site_fract_y
  _atom_site_fract_z
  _atom_site_thermal_displace_type
  _atom_site_B_iso_or_equiv
  _atom_site_type_symbol
  Zr1      1.0000 0.12539  0.00015  0.12539  Biso   1.000  Zr
  Zr2      1.0000 0.12539  0.50015  0.39854  Biso   1.000  Zr
  Zr3      1.0000 0.39854  0.50015  0.12539  Biso   1.000  Zr
  Zr4      1.0000 0.37464  0.01100  0.37464  Biso   1.000  Zr
  O1       1.0000 0.97489  0.31602  0.97489  Biso   1.000  O
  O2       1.0000 0.00081  0.18110  0.24998  Biso   1.000  O
  O3       1.0000 0.97488  0.68427  0.27591  Biso   1.000  O
  O4       1.0000 0.00081  0.81919  0.00081  Biso   1.000  O
  O5       1.0000 0.27592  0.31606  0.27592  Biso   1.000  O
  O6       1.0000 0.24998  0.18110  0.00081  Biso   1.000  O
  O7       1.0000 0.27591  0.68427  0.97488  Biso   1.000  O
  O8       1.0000 0.24998  0.81921  0.24998  Biso   1.000  O
  Zr5      1.0000 0.12540  0.00015  0.62540  Biso   1.000  Zr
  Zr6      1.0000 0.12540  0.50015  0.85226  Biso   1.000  Zr
  Zr7      1.0000 0.37929  0.50015  0.62540  Biso   1.000  Zr
  Zr8      1.0000 0.37464  0.98931  0.87615  Biso   1.000  Zr
  O9       1.0000 0.99217  0.28445  0.49838  Biso   1.000  O
  O10      1.0000 0.00547  0.21349  0.74268  Biso   1.000  O
  O11      1.0000 0.99217  0.71585  0.75241  Biso   1.000  O
  O12      1.0000 0.00547  0.78681  0.50812  Biso   1.000  O
  O13      1.0000 0.25862  0.28445  0.75242  Biso   1.000  O
  O14      1.0000 0.24532  0.21351  0.50812  Biso   1.000  O
  O15      1.0000 0.25862  0.71585  0.49838  Biso   1.000  O
  O16      1.0000 0.24532  0.78680  0.74268  Biso   1.000  O
  Zr9      1.0000 0.62540  0.00015  0.12540  Biso   1.000  Zr
  Zr10     1.0000 0.62540  0.50015  0.37929  Biso   1.000  Zr
  Zr11     1.0000 0.85226  0.50015  0.12540  Biso   1.000  Zr
  Zr12     1.0000 0.87615  0.98931  0.37464  Biso   1.000  Zr
  O17      1.0000 0.49838  0.28445  0.99217  Biso   1.000  O
  O18      1.0000 0.50811  0.21351  0.24532  Biso   1.000  O
  O19      1.0000 0.49838  0.71585  0.25862  Biso   1.000  O
  O20      1.0000 0.50812  0.78681  0.00547  Biso   1.000  O
  O21      1.0000 0.75242  0.28445  0.25862  Biso   1.000  O
  O22      1.0000 0.74268  0.21349  0.00547  Biso   1.000  O
  O23      1.0000 0.75241  0.71585  0.99217  Biso   1.000  O
  O24      1.0000 0.74268  0.78680  0.24532  Biso   1.000  O
  Zr13     1.0000 0.62539  0.00015  0.62539  Biso   1.000  Zr
  Zr14     1.0000 0.62539  0.50015  0.87150  Biso   1.000  Zr
  Zr15     1.0000 0.87150  0.50015  0.62539  Biso   1.000  Zr
  Zr16     1.0000 0.87615  0.01098  0.87615  Biso   1.000  Zr
  O25      1.0000 0.49451  0.29738  0.49451  Biso   1.000  O
  O26      1.0000 0.50516  0.20643  0.74563  Biso   1.000  O
  O27      1.0000 0.49452  0.70293  0.75628  Biso   1.000  O
  O28      1.0000 0.50516  0.79387  0.50516  Biso   1.000  O
  O29      1.0000 0.75628  0.29737  0.75628  Biso   1.000  O
  O30      1.0000 0.74563  0.20643  0.50516  Biso   1.000  O
  O31      1.0000 0.75628  0.70293  0.49451  Biso   1.000  O
  O32      1.0000 0.74563  0.79387  0.74563  Biso   1.000  O
  Rb1      1.0000 0.12540  0.50015  0.12540  Biso   1.000  Rb
