data_image0
_cell_length_a       10.0937
_cell_length_b       10.3322
_cell_length_c       5.27461
_cell_angle_alpha    89.6835
_cell_angle_beta     91.0954
_cell_angle_gamma    89.7782

_symmetry_space_group_name_H-M    "P 1"
_symmetry_int_tables_number       1

loop_
  _symmetry_equiv_pos_as_xyz
  'x, y, z'

loop_
  _atom_site_label
  _atom_site_occupancy
  _atom_site_fract_x
  _atom_site_fract_y
  _atom_site_fract_z
  _atom_site_thermal_displace_type
  _atom_site_B_iso_or_equiv
  _atom_site_type_symbol
  Hf1      1.0000 0.14201  0.01991  0.33952  Biso   1.000  Hf
  Hf2      1.0000 0.14388  0.22770  0.83495  Biso   1.000  Hf
  Hf3      1.0000 0.35972  0.26733  0.35012  Biso   1.000  Hf
  Hf4      1.0000 0.36120  0.48003  0.84248  Biso   1.000  Hf
  Hf5      1.0000 0.63827  0.01337  0.14881  Biso   1.000  Hf
  Hf6      1.0000 0.62891  0.22118  0.71299  Biso   1.000  Hf
  Hf7      1.0000 0.87651  0.26848  0.14597  Biso   1.000  Hf
  Hf8      1.0000 0.86508  0.48274  0.65854  Biso   1.000  Hf
  O1       1.0000 0.03967  0.16021  0.14907  Biso   1.000  O
  O2       1.0000 0.03222  0.09083  0.64625  Biso   1.000  O
  O3       1.0000 0.47228  0.42123  0.17358  Biso   1.000  O
  O4       1.0000 0.45951  0.33017  0.68588  Biso   1.000  O
  O5       1.0000 0.27308  0.12240  0.59055  Biso   1.000  O
  O6       1.0000 0.27725  0.12186  0.08568  Biso   1.000  O
  O7       1.0000 0.22225  0.37460  0.58796  Biso   1.000  O
  O8       1.0000 0.22600  0.37551  0.08701  Biso   1.000  O
  O9       1.0000 0.51068  0.13053  0.37193  Biso   1.000  O
  O10      1.0000 0.53099  0.06475  0.83091  Biso   1.000  O
  O11      1.0000 0.96776  0.41435  0.33604  Biso   1.000  O
  O12      1.0000 0.97108  0.33749  0.82842  Biso   1.000  O
  O13      1.0000 0.79303  0.11375  0.89665  Biso   1.000  O
  O14      1.0000 0.75818  0.14501  0.39396  Biso   1.000  O
  O15      1.0000 0.72669  0.37707  0.94337  Biso   1.000  O
  O16      1.0000 0.71843  0.40004  0.43868  Biso   1.000  O
  Hf9      1.0000 0.13964  0.51960  0.33925  Biso   1.000  Hf
  Hf10     1.0000 0.13899  0.72725  0.84070  Biso   1.000  Hf
  Hf11     1.0000 0.36000  0.76956  0.34524  Biso   1.000  Hf
  Hf12     1.0000 0.35837  0.97194  0.84656  Biso   1.000  Hf
  Hf13     1.0000 0.64455  0.53917  0.15713  Biso   1.000  Hf
  Hf14     1.0000 0.64011  0.73230  0.65472  Biso   1.000  Hf
  Hf15     1.0000 0.86620  0.77523  0.15568  Biso   1.000  Hf
  Hf16     1.0000 0.86596  0.97866  0.65306  Biso   1.000  Hf
  O17      1.0000 0.03346  0.66304  0.15612  Biso   1.000  O
  O18      1.0000 0.03373  0.58830  0.65479  Biso   1.000  O
  O19      1.0000 0.46605  0.90352  0.15893  Biso   1.000  O
  O20      1.0000 0.46576  0.83204  0.66251  Biso   1.000  O
  O21      1.0000 0.27543  0.62198  0.58899  Biso   1.000  O
  O22      1.0000 0.27621  0.62349  0.08957  Biso   1.000  O
  O23      1.0000 0.22260  0.87153  0.59029  Biso   1.000  O
  O24      1.0000 0.22139  0.87250  0.09177  Biso   1.000  O
  O25      1.0000 0.53327  0.66788  0.33834  Biso   1.000  O
  O26      1.0000 0.53343  0.58862  0.83455  Biso   1.000  O
  O27      1.0000 0.96933  0.91778  0.32701  Biso   1.000  O
  O28      1.0000 0.97021  0.83841  0.83078  Biso   1.000  O
  O29      1.0000 0.77978  0.62671  0.90370  Biso   1.000  O
  O30      1.0000 0.78224  0.63750  0.40676  Biso   1.000  O
  O31      1.0000 0.72651  0.87051  0.91035  Biso   1.000  O
  O32      1.0000 0.72856  0.87981  0.41354  Biso   1.000  O
  Re1      1.0000 0.61236  0.27241  0.22090  Biso   1.000  Re
