data_image0
_cell_length_a       10.2053
_cell_length_b       5.19283
_cell_length_c       10.4898
_cell_angle_alpha    91.2099
_cell_angle_beta     78.9654
_cell_angle_gamma    90.2963

_symmetry_space_group_name_H-M    "P 1"
_symmetry_int_tables_number       1

loop_
  _symmetry_equiv_pos_as_xyz
  'x, y, z'

loop_
  _atom_site_label
  _atom_site_occupancy
  _atom_site_fract_x
  _atom_site_fract_y
  _atom_site_fract_z
  _atom_site_thermal_displace_type
  _atom_site_B_iso_or_equiv
  _atom_site_type_symbol
  Hf1      1.0000 0.12958  0.05787  0.14138  Biso   1.000  Hf
  Hf2      1.0000 0.14012  0.46563  0.39168  Biso   1.000  Hf
  Hf3      1.0000 0.34836  0.56980  0.09422  Biso   1.000  Hf
  Hf4      1.0000 0.36110  0.89364  0.35219  Biso   1.000  Hf
  O1       1.0000 0.02850  0.34768  0.07522  Biso   1.000  O
  O2       1.0000 0.03015  0.17703  0.32743  Biso   1.000  O
  O3       1.0000 0.46116  0.86402  0.16143  Biso   1.000  O
  O4       1.0000 0.47567  0.63940  0.42945  Biso   1.000  O
  O5       1.0000 0.26329  0.27775  0.22312  Biso   1.000  O
  O6       1.0000 0.28914  0.24356  0.47353  Biso   1.000  O
  O7       1.0000 0.21586  0.77881  0.00232  Biso   1.000  O
  O8       1.0000 0.20652  0.76961  0.25367  Biso   1.000  O
  Hf5      1.0000 0.13524  0.04153  0.64390  Biso   1.000  Hf
  Hf6      1.0000 0.13197  0.46365  0.89292  Biso   1.000  Hf
  Hf7      1.0000 0.36289  0.53828  0.61101  Biso   1.000  Hf
  Hf8      1.0000 0.35784  0.96613  0.85229  Biso   1.000  Hf
  O9       1.0000 0.03947  0.33374  0.57738  Biso   1.000  O
  O10      1.0000 0.03180  0.16536  0.82826  Biso   1.000  O
  O11      1.0000 0.46438  0.84259  0.66962  Biso   1.000  O
  O12      1.0000 0.46235  0.67013  0.91527  Biso   1.000  O
  O13      1.0000 0.27304  0.25259  0.73476  Biso   1.000  O
  O14      1.0000 0.27058  0.26009  0.98114  Biso   1.000  O
  O15      1.0000 0.22392  0.74795  0.51542  Biso   1.000  O
  O16      1.0000 0.22323  0.74098  0.75860  Biso   1.000  O
  Hf9      1.0000 0.63615  0.04847  0.15605  Biso   1.000  Hf
  Hf10     1.0000 0.65532  0.45127  0.40434  Biso   1.000  Hf
  Hf11     1.0000 0.85551  0.54846  0.10648  Biso   1.000  Hf
  Hf12     1.0000 0.86378  0.95531  0.35684  Biso   1.000  Hf
  O17      1.0000 0.52472  0.36103  0.09846  Biso   1.000  O
  O18      1.0000 0.55385  0.10620  0.35678  Biso   1.000  O
  O19      1.0000 0.96086  0.84262  0.16939  Biso   1.000  O
  O20      1.0000 0.96623  0.67200  0.42539  Biso   1.000  O
  O21      1.0000 0.78125  0.26068  0.24411  Biso   1.000  O
  O22      1.0000 0.78328  0.23596  0.49890  Biso   1.000  O
  O23      1.0000 0.71936  0.76585  0.01570  Biso   1.000  O
  O24      1.0000 0.72626  0.74130  0.26482  Biso   1.000  O
  Hf13     1.0000 0.63913  0.04568  0.65122  Biso   1.000  Hf
  Hf14     1.0000 0.63428  0.46659  0.90269  Biso   1.000  Hf
  Hf15     1.0000 0.86349  0.54169  0.60889  Biso   1.000  Hf
  Hf16     1.0000 0.85631  0.96199  0.85937  Biso   1.000  Hf
  O25      1.0000 0.53972  0.34160  0.59074  Biso   1.000  O
  O26      1.0000 0.53342  0.16532  0.83739  Biso   1.000  O
  O27      1.0000 0.96425  0.83647  0.67472  Biso   1.000  O
  O28      1.0000 0.95872  0.66891  0.92018  Biso   1.000  O
  O29      1.0000 0.77506  0.26169  0.74709  Biso   1.000  O
  O30      1.0000 0.76703  0.24987  0.99696  Biso   1.000  O
  O31      1.0000 0.72769  0.75407  0.51716  Biso   1.000  O
  O32      1.0000 0.72273  0.74244  0.76603  Biso   1.000  O
  Re1      1.0000 0.42273  0.36865  0.30139  Biso   1.000  Re
