data_image0
_cell_length_a       10.0905
_cell_length_b       5.12137
_cell_length_c       10.4376
_cell_angle_alpha    89.8876
_cell_angle_beta     80.0336
_cell_angle_gamma    89.8748

_symmetry_space_group_name_H-M    "P 1"
_symmetry_int_tables_number       1

loop_
  _symmetry_equiv_pos_as_xyz
  'x, y, z'

loop_
  _atom_site_label
  _atom_site_occupancy
  _atom_site_fract_x
  _atom_site_fract_y
  _atom_site_fract_z
  _atom_site_thermal_displace_type
  _atom_site_B_iso_or_equiv
  _atom_site_type_symbol
  Re1      1.0000 0.14093  0.04382  0.14935  Biso   1.000  Re
  Hf1      1.0000 0.13966  0.45996  0.39509  Biso   1.000  Hf
  Hf2      1.0000 0.35703  0.55104  0.10521  Biso   1.000  Hf
  Hf3      1.0000 0.36148  0.95865  0.35343  Biso   1.000  Hf
  O1       1.0000 0.03705  0.32735  0.07991  Biso   1.000  O
  O2       1.0000 0.03929  0.16522  0.32009  Biso   1.000  O
  O3       1.0000 0.46576  0.83695  0.17139  Biso   1.000  O
  O4       1.0000 0.46495  0.66195  0.41991  Biso   1.000  O
  O5       1.0000 0.27722  0.25732  0.24062  Biso   1.000  O
  O6       1.0000 0.27751  0.24315  0.49116  Biso   1.000  O
  O7       1.0000 0.21611  0.76042  0.00961  Biso   1.000  O
  O8       1.0000 0.22024  0.74829  0.25847  Biso   1.000  O
  Hf4      1.0000 0.13857  0.04218  0.64601  Biso   1.000  Hf
  Hf5      1.0000 0.13816  0.45372  0.89755  Biso   1.000  Hf
  Hf6      1.0000 0.36128  0.54320  0.60453  Biso   1.000  Hf
  Hf7      1.0000 0.35829  0.95669  0.85558  Biso   1.000  Hf
  O9       1.0000 0.03344  0.32985  0.57490  Biso   1.000  O
  O10      1.0000 0.03355  0.16486  0.82727  Biso   1.000  O
  O11      1.0000 0.46349  0.83928  0.67051  Biso   1.000  O
  O12      1.0000 0.46020  0.65916  0.92048  Biso   1.000  O
  O13      1.0000 0.27676  0.25729  0.74241  Biso   1.000  O
  O14      1.0000 0.27388  0.23608  0.99775  Biso   1.000  O
  O15      1.0000 0.22321  0.75715  0.50852  Biso   1.000  O
  O16      1.0000 0.22258  0.74075  0.75903  Biso   1.000  O
  Hf8      1.0000 0.63878  0.04582  0.14532  Biso   1.000  Hf
  Hf9      1.0000 0.63992  0.45803  0.39543  Biso   1.000  Hf
  Hf10     1.0000 0.86584  0.54234  0.10359  Biso   1.000  Hf
  Hf11     1.0000 0.86161  0.95877  0.35230  Biso   1.000  Hf
  O17      1.0000 0.53371  0.34097  0.08151  Biso   1.000  O
  O18      1.0000 0.53689  0.16136  0.33128  Biso   1.000  O
  O19      1.0000 0.97538  0.83563  0.16757  Biso   1.000  O
  O20      1.0000 0.96518  0.66620  0.41973  Biso   1.000  O
  O21      1.0000 0.77763  0.25819  0.23991  Biso   1.000  O
  O22      1.0000 0.77837  0.24113  0.48936  Biso   1.000  O
  O23      1.0000 0.72276  0.75898  0.00980  Biso   1.000  O
  O24      1.0000 0.72903  0.74340  0.25856  Biso   1.000  O
  Hf12     1.0000 0.63821  0.04252  0.64674  Biso   1.000  Hf
  Hf13     1.0000 0.63732  0.45701  0.89747  Biso   1.000  Hf
  Hf14     1.0000 0.86021  0.54291  0.60396  Biso   1.000  Hf
  Hf15     1.0000 0.86019  0.95644  0.85459  Biso   1.000  Hf
  O25      1.0000 0.53707  0.34059  0.58074  Biso   1.000  O
  O26      1.0000 0.53410  0.16037  0.83188  Biso   1.000  O
  O27      1.0000 0.96502  0.83262  0.67065  Biso   1.000  O
  O28      1.0000 0.96450  0.66049  0.92049  Biso   1.000  O
  O29      1.0000 0.77566  0.25759  0.74073  Biso   1.000  O
  O30      1.0000 0.77633  0.24389  0.99048  Biso   1.000  O
  O31      1.0000 0.72337  0.75863  0.50918  Biso   1.000  O
  O32      1.0000 0.72227  0.74178  0.75994  Biso   1.000  O
