data_image0
_cell_length_a       10.0682
_cell_length_b       10.6152
_cell_length_c       5.04634
_cell_angle_alpha    89.8404
_cell_angle_beta     88.6135
_cell_angle_gamma    93.9619

_symmetry_space_group_name_H-M    "P 1"
_symmetry_int_tables_number       1

loop_
  _symmetry_equiv_pos_as_xyz
  'x, y, z'

loop_
  _atom_site_label
  _atom_site_occupancy
  _atom_site_fract_x
  _atom_site_fract_y
  _atom_site_fract_z
  _atom_site_thermal_displace_type
  _atom_site_B_iso_or_equiv
  _atom_site_type_symbol
  Hf1      1.0000 0.12703  0.93529  0.26058  Biso   1.000  Hf
  Hf2      1.0000 0.12828  0.27242  0.74943  Biso   1.000  Hf
  Hf3      1.0000 0.39720  0.27442  0.27798  Biso   1.000  Hf
  Hf4      1.0000 0.37963  0.02466  0.76194  Biso   1.000  Hf
  O1       1.0000 0.98040  0.15834  0.95886  Biso   1.000  O
  O2       1.0000 0.01163  0.04881  0.48930  Biso   1.000  O
  O3       1.0000 0.01226  0.31118  0.44045  Biso   1.000  O
  O4       1.0000 0.99124  0.40288  0.98159  Biso   1.000  O
  O5       1.0000 0.26787  0.16365  0.55717  Biso   1.000  O
  O6       1.0000 0.24409  0.06358  0.03726  Biso   1.000  O
  O7       1.0000 0.23851  0.32581  0.06571  Biso   1.000  O
  O8       1.0000 0.25985  0.40570  0.53200  Biso   1.000  O
  Hf5      1.0000 0.13701  0.48306  0.26233  Biso   1.000  Hf
  Hf6      1.0000 0.13511  0.71659  0.73119  Biso   1.000  Hf
  Hf7      1.0000 0.39148  0.77284  0.26435  Biso   1.000  Hf
  Hf8      1.0000 0.39146  0.52546  0.74352  Biso   1.000  Hf
  O9       1.0000 0.97935  0.65224  0.99027  Biso   1.000  O
  O10      1.0000 0.02141  0.55617  0.53522  Biso   1.000  O
  O11      1.0000 0.01050  0.79283  0.46708  Biso   1.000  O
  O12      1.0000 0.97870  0.89971  0.99099  Biso   1.000  O
  O13      1.0000 0.26451  0.64094  0.46083  Biso   1.000  O
  O14      1.0000 0.22311  0.56741  0.94093  Biso   1.000  O
  O15      1.0000 0.23265  0.80647  0.03799  Biso   1.000  O
  O16      1.0000 0.26317  0.88827  0.53996  Biso   1.000  O
  Hf9      1.0000 0.63612  0.00110  0.27299  Biso   1.000  Hf
  Hf10     1.0000 0.63701  0.24941  0.70159  Biso   1.000  Hf
  Hf11     1.0000 0.85597  0.26698  0.19984  Biso   1.000  Hf
  Hf12     1.0000 0.86926  0.01288  0.76313  Biso   1.000  Hf
  O17      1.0000 0.48031  0.19189  0.95376  Biso   1.000  O
  O18      1.0000 0.51077  0.12138  0.47626  Biso   1.000  O
  O19      1.0000 0.51087  0.38331  0.56647  Biso   1.000  O
  O20      1.0000 0.47014  0.44508  0.07486  Biso   1.000  O
  O21      1.0000 0.77024  0.13879  0.48866  Biso   1.000  O
  O22      1.0000 0.73042  0.12186  0.98253  Biso   1.000  O
  O23      1.0000 0.72985  0.37479  0.98086  Biso   1.000  O
  O24      1.0000 0.77480  0.39555  0.48546  Biso   1.000  O
  Hf13     1.0000 0.63562  0.49485  0.27906  Biso   1.000  Hf
  Hf14     1.0000 0.63662  0.75163  0.71789  Biso   1.000  Hf
  Hf15     1.0000 0.86090  0.76120  0.20963  Biso   1.000  Hf
  Hf16     1.0000 0.86462  0.51619  0.78033  Biso   1.000  Hf
  O25      1.0000 0.47304  0.69048  0.94077  Biso   1.000  O
  O26      1.0000 0.51709  0.62969  0.46290  Biso   1.000  O
  O27      1.0000 0.51660  0.87552  0.53198  Biso   1.000  O
  O28      1.0000 0.47722  0.93892  0.05670  Biso   1.000  O
  O29      1.0000 0.76646  0.64015  0.50487  Biso   1.000  O
  O30      1.0000 0.72601  0.62377  0.00035  Biso   1.000  O
  O31      1.0000 0.72793  0.87192  0.99572  Biso   1.000  O
  O32      1.0000 0.76535  0.89093  0.48749  Biso   1.000  O
  Re1      1.0000 0.12553  0.17604  0.25717  Biso   1.000  Re
