data_image0
_cell_length_a       5.09959
_cell_length_b       10.2767
_cell_length_c       10.5971
_cell_angle_alpha    89.7682
_cell_angle_beta     79.5505
_cell_angle_gamma    90.5218

_symmetry_space_group_name_H-M    "P 1"
_symmetry_int_tables_number       1

loop_
  _symmetry_equiv_pos_as_xyz
  'x, y, z'

loop_
  _atom_site_label
  _atom_site_occupancy
  _atom_site_fract_x
  _atom_site_fract_y
  _atom_site_fract_z
  _atom_site_thermal_displace_type
  _atom_site_B_iso_or_equiv
  _atom_site_type_symbol
  Hf1      1.0000 0.27242  0.02157  0.14652  Biso   1.000  Hf
  Hf2      1.0000 0.29780  0.24034  0.40209  Biso   1.000  Hf
  Hf3      1.0000 0.71336  0.26910  0.09357  Biso   1.000  Hf
  Hf4      1.0000 0.70612  0.48573  0.35748  Biso   1.000  Hf
  O1       1.0000 0.05579  0.15325  0.06523  Biso   1.000  O
  O2       1.0000 0.08665  0.06999  0.33704  Biso   1.000  O
  O3       1.0000 0.94892  0.38615  0.19427  Biso   1.000  O
  O4       1.0000 0.97591  0.36615  0.43963  Biso   1.000  O
  O5       1.0000 0.56643  0.12276  0.23363  Biso   1.000  O
  O6       1.0000 0.59003  0.12087  0.48054  Biso   1.000  O
  O7       1.0000 0.44016  0.37949  0.00700  Biso   1.000  O
  O8       1.0000 0.44008  0.38091  0.25256  Biso   1.000  O
  Hf5      1.0000 0.27304  0.02289  0.64509  Biso   1.000  Hf
  Hf6      1.0000 0.27196  0.22793  0.89231  Biso   1.000  Hf
  Hf7      1.0000 0.73081  0.27712  0.60418  Biso   1.000  Hf
  Hf8      1.0000 0.71417  0.48011  0.85605  Biso   1.000  Hf
  O9       1.0000 0.08056  0.16909  0.57742  Biso   1.000  O
  O10      1.0000 0.05856  0.08847  0.82084  Biso   1.000  O
  O11      1.0000 0.93476  0.41264  0.68398  Biso   1.000  O
  O12      1.0000 0.93893  0.34407  0.92731  Biso   1.000  O
  O13      1.0000 0.54898  0.12906  0.73649  Biso   1.000  O
  O14      1.0000 0.54408  0.12276  0.98452  Biso   1.000  O
  O15      1.0000 0.45026  0.38557  0.52060  Biso   1.000  O
  O16      1.0000 0.44839  0.37306  0.76101  Biso   1.000  O
  Hf9      1.0000 0.27264  0.52090  0.14766  Biso   1.000  Hf
  Hf10     1.0000 0.26506  0.72616  0.39744  Biso   1.000  Hf
  Hf11     1.0000 0.71587  0.77116  0.10386  Biso   1.000  Hf
  Hf12     1.0000 0.71828  0.96589  0.35474  Biso   1.000  Hf
  O17      1.0000 0.04597  0.65566  0.07294  Biso   1.000  O
  O18      1.0000 0.05278  0.59386  0.31854  Biso   1.000  O
  O19      1.0000 0.93536  0.90885  0.17662  Biso   1.000  O
  O20      1.0000 0.92548  0.83078  0.42835  Biso   1.000  O
  O21      1.0000 0.54448  0.62745  0.24081  Biso   1.000  O
  O22      1.0000 0.53594  0.62629  0.49385  Biso   1.000  O
  O23      1.0000 0.44311  0.87972  0.01260  Biso   1.000  O
  O24      1.0000 0.44281  0.86648  0.25995  Biso   1.000  O
  Hf13     1.0000 0.27018  0.52505  0.65036  Biso   1.000  Hf
  Hf14     1.0000 0.26727  0.72874  0.89886  Biso   1.000  Hf
  Hf15     1.0000 0.71515  0.77169  0.60719  Biso   1.000  Hf
  Hf16     1.0000 0.71760  0.97864  0.85329  Biso   1.000  Hf
  O25      1.0000 0.05064  0.66038  0.57624  Biso   1.000  O
  O26      1.0000 0.05464  0.59238  0.82586  Biso   1.000  O
  O27      1.0000 0.93172  0.91347  0.67522  Biso   1.000  O
  O28      1.0000 0.92962  0.83972  0.92674  Biso   1.000  O
  O29      1.0000 0.54455  0.62960  0.74358  Biso   1.000  O
  O30      1.0000 0.54018  0.62358  0.99224  Biso   1.000  O
  O31      1.0000 0.44091  0.87890  0.51205  Biso   1.000  O
  O32      1.0000 0.44277  0.87261  0.76199  Biso   1.000  O
  Re1      1.0000 0.83141  0.23289  0.32463  Biso   1.000  Re
