data_image0
_cell_length_a       9.99067
_cell_length_b       10.1299
_cell_length_c       4.99674
_cell_angle_alpha    90.0002
_cell_angle_beta     89.9999
_cell_angle_gamma    90

_symmetry_space_group_name_H-M    "P 1"
_symmetry_int_tables_number       1

loop_
  _symmetry_equiv_pos_as_xyz
  'x, y, z'

loop_
  _atom_site_label
  _atom_site_occupancy
  _atom_site_fract_x
  _atom_site_fract_y
  _atom_site_fract_z
  _atom_site_thermal_displace_type
  _atom_site_B_iso_or_equiv
  _atom_site_type_symbol
  Re1      1.0000 0.12491  0.00005  0.24982  Biso   1.000  Re
  Hf1      1.0000 0.12491  0.24810  0.74982  Biso   1.000  Hf
  Hf2      1.0000 0.37336  0.24891  0.25018  Biso   1.000  Hf
  Hf3      1.0000 0.37404  0.00005  0.74982  Biso   1.000  Hf
  O1       1.0000 0.99766  0.14065  0.99267  Biso   1.000  O
  O2       1.0000 0.00490  0.10426  0.48898  Biso   1.000  O
  O3       1.0000 0.99622  0.35408  0.50861  Biso   1.000  O
  O4       1.0000 0.00188  0.39417  0.00516  Biso   1.000  O
  O5       1.0000 0.25216  0.14065  0.50696  Biso   1.000  O
  O6       1.0000 0.24492  0.10426  0.01066  Biso   1.000  O
  O7       1.0000 0.25359  0.35408  0.99103  Biso   1.000  O
  O8       1.0000 0.24793  0.39417  0.49447  Biso   1.000  O
  Hf4      1.0000 0.12491  0.50005  0.24982  Biso   1.000  Hf
  Hf5      1.0000 0.12491  0.75200  0.74982  Biso   1.000  Hf
  Hf6      1.0000 0.37336  0.75119  0.24946  Biso   1.000  Hf
  Hf7      1.0000 0.37520  0.50005  0.74982  Biso   1.000  Hf
  O9       1.0000 0.99622  0.64603  0.99103  Biso   1.000  O
  O10      1.0000 0.00188  0.60594  0.49448  Biso   1.000  O
  O11      1.0000 0.99766  0.85946  0.50696  Biso   1.000  O
  O12      1.0000 0.00490  0.89585  0.01065  Biso   1.000  O
  O13      1.0000 0.25359  0.64603  0.50861  Biso   1.000  O
  O14      1.0000 0.24793  0.60594  0.00516  Biso   1.000  O
  O15      1.0000 0.25216  0.85946  0.99267  Biso   1.000  O
  O16      1.0000 0.24492  0.89585  0.48898  Biso   1.000  O
  Hf8      1.0000 0.62491  0.00005  0.24982  Biso   1.000  Hf
  Hf9      1.0000 0.62491  0.25061  0.74982  Biso   1.000  Hf
  Hf10     1.0000 0.87646  0.24891  0.24946  Biso   1.000  Hf
  Hf11     1.0000 0.87578  0.00005  0.74982  Biso   1.000  Hf
  O17      1.0000 0.49332  0.14610  0.98772  Biso   1.000  O
  O18      1.0000 0.50268  0.10480  0.49319  Biso   1.000  O
  O19      1.0000 0.49614  0.35393  0.50607  Biso   1.000  O
  O20      1.0000 0.50211  0.39575  0.00329  Biso   1.000  O
  O21      1.0000 0.75649  0.14610  0.51192  Biso   1.000  O
  O22      1.0000 0.74714  0.10480  0.00644  Biso   1.000  O
  O23      1.0000 0.75368  0.35393  0.99357  Biso   1.000  O
  O24      1.0000 0.74770  0.39574  0.49635  Biso   1.000  O
  Hf12     1.0000 0.62491  0.50005  0.24982  Biso   1.000  Hf
  Hf13     1.0000 0.62491  0.74950  0.74982  Biso   1.000  Hf
  Hf14     1.0000 0.87646  0.75119  0.25018  Biso   1.000  Hf
  Hf15     1.0000 0.87461  0.50005  0.74982  Biso   1.000  Hf
  O25      1.0000 0.49614  0.64618  0.99357  Biso   1.000  O
  O26      1.0000 0.50211  0.60436  0.49635  Biso   1.000  O
  O27      1.0000 0.49332  0.85400  0.51192  Biso   1.000  O
  O28      1.0000 0.50268  0.89531  0.00644  Biso   1.000  O
  O29      1.0000 0.75368  0.64618  0.50607  Biso   1.000  O
  O30      1.0000 0.74770  0.60436  0.00329  Biso   1.000  O
  O31      1.0000 0.75650  0.85400  0.98772  Biso   1.000  O
  O32      1.0000 0.74714  0.89530  0.49320  Biso   1.000  O
