data_image0
_cell_length_a       10.1705
_cell_length_b       10.3892
_cell_length_c       5.31157
_cell_angle_alpha    89.697
_cell_angle_beta     91.126
_cell_angle_gamma    89.7922

_symmetry_space_group_name_H-M    "P 1"
_symmetry_int_tables_number       1

loop_
  _symmetry_equiv_pos_as_xyz
  'x, y, z'

loop_
  _atom_site_label
  _atom_site_occupancy
  _atom_site_fract_x
  _atom_site_fract_y
  _atom_site_fract_z
  _atom_site_thermal_displace_type
  _atom_site_B_iso_or_equiv
  _atom_site_type_symbol
  Zr1      1.0000 0.14175  0.02063  0.33965  Biso   1.000  Zr
  Zr2      1.0000 0.14333  0.22790  0.83580  Biso   1.000  Zr
  Zr3      1.0000 0.35994  0.26810  0.35173  Biso   1.000  Zr
  Zr4      1.0000 0.36067  0.47986  0.84274  Biso   1.000  Zr
  Zr5      1.0000 0.63897  0.01247  0.14661  Biso   1.000  Zr
  Zr6      1.0000 0.63060  0.22182  0.70683  Biso   1.000  Zr
  Zr7      1.0000 0.87620  0.26976  0.15015  Biso   1.000  Zr
  Zr8      1.0000 0.86573  0.48264  0.65824  Biso   1.000  Zr
  O1       1.0000 0.03721  0.15817  0.14470  Biso   1.000  O
  O2       1.0000 0.03023  0.09372  0.64200  Biso   1.000  O
  O3       1.0000 0.47389  0.41839  0.16987  Biso   1.000  O
  O4       1.0000 0.46094  0.33228  0.68465  Biso   1.000  O
  O5       1.0000 0.27191  0.12301  0.59153  Biso   1.000  O
  O6       1.0000 0.27582  0.12211  0.08681  Biso   1.000  O
  O7       1.0000 0.22277  0.37542  0.59003  Biso   1.000  O
  O8       1.0000 0.22642  0.37568  0.08850  Biso   1.000  O
  O9       1.0000 0.51085  0.13137  0.36955  Biso   1.000  O
  O10      1.0000 0.52882  0.06852  0.83605  Biso   1.000  O
  O11      1.0000 0.97008  0.41366  0.33956  Biso   1.000  O
  O12      1.0000 0.97133  0.33974  0.83324  Biso   1.000  O
  O13      1.0000 0.79138  0.11444  0.89356  Biso   1.000  O
  O14      1.0000 0.75570  0.14432  0.38957  Biso   1.000  O
  O15      1.0000 0.72458  0.37501  0.94577  Biso   1.000  O
  O16      1.0000 0.72162  0.39399  0.43605  Biso   1.000  O
  Zr9      1.0000 0.14038  0.52038  0.33955  Biso   1.000  Zr
  Zr10     1.0000 0.13926  0.72752  0.84114  Biso   1.000  Zr
  Zr11     1.0000 0.36036  0.77025  0.34579  Biso   1.000  Zr
  Zr12     1.0000 0.35843  0.97240  0.84736  Biso   1.000  Zr
  Zr13     1.0000 0.64398  0.53846  0.15623  Biso   1.000  Zr
  Zr14     1.0000 0.64012  0.73188  0.65418  Biso   1.000  Zr
  Zr15     1.0000 0.86657  0.77484  0.15649  Biso   1.000  Zr
  Zr16     1.0000 0.86614  0.97853  0.65412  Biso   1.000  Zr
  O17      1.0000 0.03251  0.66152  0.15366  Biso   1.000  O
  O18      1.0000 0.03234  0.59020  0.65268  Biso   1.000  O
  O19      1.0000 0.46743  0.90128  0.15527  Biso   1.000  O
  O20      1.0000 0.46793  0.83495  0.65843  Biso   1.000  O
  O21      1.0000 0.27456  0.62283  0.59040  Biso   1.000  O
  O22      1.0000 0.27543  0.62363  0.09059  Biso   1.000  O
  O23      1.0000 0.22368  0.87227  0.59147  Biso   1.000  O
  O24      1.0000 0.22226  0.87258  0.09303  Biso   1.000  O
  O25      1.0000 0.53177  0.66481  0.34298  Biso   1.000  O
  O26      1.0000 0.53222  0.59077  0.83880  Biso   1.000  O
  O27      1.0000 0.97083  0.91556  0.33071  Biso   1.000  O
  O28      1.0000 0.97160  0.84019  0.83453  Biso   1.000  O
  O29      1.0000 0.77903  0.62598  0.90274  Biso   1.000  O
  O30      1.0000 0.78064  0.63570  0.40572  Biso   1.000  O
  O31      1.0000 0.72798  0.87023  0.90929  Biso   1.000  O
  O32      1.0000 0.73017  0.87891  0.41294  Biso   1.000  O
  Re1      1.0000 0.61233  0.27149  0.21926  Biso   1.000  Re
