data_image0
_cell_length_a       10.1629
_cell_length_b       10.3196
_cell_length_c       5.23567
_cell_angle_alpha    89.8756
_cell_angle_beta     80.0553
_cell_angle_gamma    89.9493

_symmetry_space_group_name_H-M    "P 1"
_symmetry_int_tables_number       1

loop_
  _symmetry_equiv_pos_as_xyz
  'x, y, z'

loop_
  _atom_site_label
  _atom_site_occupancy
  _atom_site_fract_x
  _atom_site_fract_y
  _atom_site_fract_z
  _atom_site_thermal_displace_type
  _atom_site_B_iso_or_equiv
  _atom_site_type_symbol
  Re1      1.0000 0.14032  0.02276  0.29733  Biso   1.000  Re
  Zr1      1.0000 0.13908  0.22677  0.79285  Biso   1.000  Zr
  Zr2      1.0000 0.35961  0.27119  0.21351  Biso   1.000  Zr
  Zr3      1.0000 0.36071  0.47914  0.71039  Biso   1.000  Zr
  O1       1.0000 0.03570  0.16273  0.15531  Biso   1.000  O
  O2       1.0000 0.04091  0.07932  0.63454  Biso   1.000  O
  O3       1.0000 0.46348  0.42095  0.33778  Biso   1.000  O
  O4       1.0000 0.46145  0.32760  0.83841  Biso   1.000  O
  O5       1.0000 0.27800  0.12543  0.48652  Biso   1.000  O
  O6       1.0000 0.27293  0.11707  0.99981  Biso   1.000  O
  O7       1.0000 0.22297  0.37779  0.02008  Biso   1.000  O
  O8       1.0000 0.22380  0.37077  0.52052  Biso   1.000  O
  Zr4      1.0000 0.13907  0.52157  0.29133  Biso   1.000  Zr
  Zr5      1.0000 0.13849  0.73003  0.79006  Biso   1.000  Zr
  Zr6      1.0000 0.35854  0.77516  0.20955  Biso   1.000  Zr
  Zr7      1.0000 0.35936  0.97840  0.71133  Biso   1.000  Zr
  O9       1.0000 0.03484  0.66752  0.15777  Biso   1.000  O
  O10      1.0000 0.03520  0.58076  0.66089  Biso   1.000  O
  O11      1.0000 0.46512  0.91885  0.34312  Biso   1.000  O
  O12      1.0000 0.46251  0.82954  0.83867  Biso   1.000  O
  O13      1.0000 0.27583  0.63136  0.48252  Biso   1.000  O
  O14      1.0000 0.27609  0.62203  0.98204  Biso   1.000  O
  O15      1.0000 0.21779  0.88129  0.02018  Biso   1.000  O
  O16      1.0000 0.21849  0.87566  0.51285  Biso   1.000  O
  Zr8      1.0000 0.63823  0.02179  0.29143  Biso   1.000  Zr
  Zr9      1.0000 0.63843  0.22918  0.79127  Biso   1.000  Zr
  Zr10     1.0000 0.86319  0.26981  0.20830  Biso   1.000  Zr
  Zr11     1.0000 0.86086  0.47860  0.70881  Biso   1.000  Zr
  O17      1.0000 0.53653  0.17144  0.16555  Biso   1.000  O
  O18      1.0000 0.53524  0.07951  0.66609  Biso   1.000  O
  O19      1.0000 0.96530  0.41818  0.33933  Biso   1.000  O
  O20      1.0000 0.96501  0.32832  0.83796  Biso   1.000  O
  O21      1.0000 0.77620  0.12862  0.48087  Biso   1.000  O
  O22      1.0000 0.77668  0.12058  0.97803  Biso   1.000  O
  O23      1.0000 0.72433  0.37905  0.01845  Biso   1.000  O
  O24      1.0000 0.72394  0.37095  0.51813  Biso   1.000  O
  Zr12     1.0000 0.63900  0.52224  0.29097  Biso   1.000  Zr
  Zr13     1.0000 0.63877  0.72859  0.79313  Biso   1.000  Zr
  Zr14     1.0000 0.86348  0.77346  0.20740  Biso   1.000  Zr
  Zr15     1.0000 0.86063  0.97935  0.70581  Biso   1.000  Zr
  O25      1.0000 0.53472  0.67088  0.16322  Biso   1.000  O
  O26      1.0000 0.53624  0.57905  0.66476  Biso   1.000  O
  O27      1.0000 0.97426  0.92073  0.32770  Biso   1.000  O
  O28      1.0000 0.96422  0.83218  0.83552  Biso   1.000  O
  O29      1.0000 0.77625  0.62979  0.48202  Biso   1.000  O
  O30      1.0000 0.77672  0.62206  0.98218  Biso   1.000  O
  O31      1.0000 0.72300  0.87945  0.01802  Biso   1.000  O
  O32      1.0000 0.72844  0.87247  0.51768  Biso   1.000  O
