data_image0
_cell_length_a       10.0619
_cell_length_b       5.12829
_cell_length_c       10.5149
_cell_angle_alpha    89.9151
_cell_angle_beta     89.8989
_cell_angle_gamma    89.9101

_symmetry_space_group_name_H-M    "P 1"
_symmetry_int_tables_number       1

loop_
  _symmetry_equiv_pos_as_xyz
  'x, y, z'

loop_
  _atom_site_label
  _atom_site_occupancy
  _atom_site_fract_x
  _atom_site_fract_y
  _atom_site_fract_z
  _atom_site_thermal_displace_type
  _atom_site_B_iso_or_equiv
  _atom_site_type_symbol
  Re1      1.0000 0.14102  0.04265  0.17537  Biso   1.000  Re
  Zr1      1.0000 0.13860  0.45987  0.42066  Biso   1.000  Zr
  Zr2      1.0000 0.35653  0.55052  0.17199  Biso   1.000  Zr
  Zr3      1.0000 0.36028  0.95993  0.42162  Biso   1.000  Zr
  Zr4      1.0000 0.63820  0.04496  0.07812  Biso   1.000  Zr
  Zr5      1.0000 0.63760  0.45820  0.32722  Biso   1.000  Zr
  Zr6      1.0000 0.86698  0.54095  0.07945  Biso   1.000  Zr
  Zr7      1.0000 0.86129  0.95973  0.32712  Biso   1.000  Zr
  O1       1.0000 0.03445  0.31680  0.08446  Biso   1.000  O
  O2       1.0000 0.03705  0.17068  0.32312  Biso   1.000  O
  O3       1.0000 0.46857  0.82517  0.08120  Biso   1.000  O
  O4       1.0000 0.46556  0.67425  0.33202  Biso   1.000  O
  O5       1.0000 0.27548  0.24543  0.29458  Biso   1.000  O
  O6       1.0000 0.27243  0.24385  0.05292  Biso   1.000  O
  O7       1.0000 0.21855  0.75362  0.29445  Biso   1.000  O
  O8       1.0000 0.21824  0.75617  0.04544  Biso   1.000  O
  O9       1.0000 0.53059  0.33109  0.16785  Biso   1.000  O
  O10      1.0000 0.53169  0.17404  0.41804  Biso   1.000  O
  O11      1.0000 0.98014  0.83028  0.16612  Biso   1.000  O
  O12      1.0000 0.96761  0.67437  0.41669  Biso   1.000  O
  O13      1.0000 0.77665  0.24694  0.45308  Biso   1.000  O
  O14      1.0000 0.77538  0.25154  0.20447  Biso   1.000  O
  O15      1.0000 0.72353  0.74791  0.45433  Biso   1.000  O
  O16      1.0000 0.73036  0.75262  0.20477  Biso   1.000  O
  Zr8      1.0000 0.13842  0.04196  0.67206  Biso   1.000  Zr
  Zr9      1.0000 0.13889  0.45339  0.92395  Biso   1.000  Zr
  Zr10     1.0000 0.36123  0.54301  0.67203  Biso   1.000  Zr
  Zr11     1.0000 0.36019  0.95588  0.92273  Biso   1.000  Zr
  Zr12     1.0000 0.63853  0.04292  0.57881  Biso   1.000  Zr
  Zr13     1.0000 0.63930  0.45918  0.82972  Biso   1.000  Zr
  Zr14     1.0000 0.86045  0.54223  0.57789  Biso   1.000  Zr
  Zr15     1.0000 0.86113  0.95666  0.82913  Biso   1.000  Zr
  O17      1.0000 0.02924  0.31798  0.57600  Biso   1.000  O
  O18      1.0000 0.03001  0.17605  0.82915  Biso   1.000  O
  O19      1.0000 0.46750  0.82927  0.58289  Biso   1.000  O
  O20      1.0000 0.46775  0.67327  0.83287  Biso   1.000  O
  O21      1.0000 0.27590  0.24756  0.79773  Biso   1.000  O
  O22      1.0000 0.27570  0.25300  0.54610  Biso   1.000  O
  O23      1.0000 0.22409  0.74726  0.79527  Biso   1.000  O
  O24      1.0000 0.22385  0.75090  0.54463  Biso   1.000  O
  O25      1.0000 0.53222  0.32865  0.66829  Biso   1.000  O
  O26      1.0000 0.53042  0.17512  0.91875  Biso   1.000  O
  O27      1.0000 0.96923  0.82106  0.66882  Biso   1.000  O
  O28      1.0000 0.96881  0.66916  0.91876  Biso   1.000  O
  O29      1.0000 0.77575  0.25037  0.95504  Biso   1.000  O
  O30      1.0000 0.77581  0.25127  0.70452  Biso   1.000  O
  O31      1.0000 0.72465  0.74995  0.95500  Biso   1.000  O
  O32      1.0000 0.72413  0.75233  0.70477  Biso   1.000  O
