data_image0
_cell_length_a       10.0623
_cell_length_b       10.2535
_cell_length_c       5.25941
_cell_angle_alpha    89.9149
_cell_angle_beta     89.9007
_cell_angle_gamma    89.946

_symmetry_space_group_name_H-M    "P 1"
_symmetry_int_tables_number       1

loop_
  _symmetry_equiv_pos_as_xyz
  'x, y, z'

loop_
  _atom_site_label
  _atom_site_occupancy
  _atom_site_fract_x
  _atom_site_fract_y
  _atom_site_fract_z
  _atom_site_thermal_displace_type
  _atom_site_B_iso_or_equiv
  _atom_site_type_symbol
  Re1      1.0000 0.14084  0.02213  0.35239  Biso   1.000  Re
  Zr1      1.0000 0.13882  0.22709  0.84426  Biso   1.000  Zr
  Zr2      1.0000 0.35949  0.27039  0.34557  Biso   1.000  Zr
  Zr3      1.0000 0.36112  0.47936  0.84403  Biso   1.000  Zr
  Zr4      1.0000 0.63830  0.02200  0.15472  Biso   1.000  Zr
  Zr5      1.0000 0.63855  0.22973  0.65751  Biso   1.000  Zr
  Zr6      1.0000 0.86406  0.26902  0.15924  Biso   1.000  Zr
  Zr7      1.0000 0.86098  0.47876  0.65870  Biso   1.000  Zr
  O1       1.0000 0.03257  0.15539  0.15744  Biso   1.000  O
  O2       1.0000 0.03605  0.08615  0.64267  Biso   1.000  O
  O3       1.0000 0.46742  0.41372  0.16693  Biso   1.000  O
  O4       1.0000 0.46728  0.33629  0.66604  Biso   1.000  O
  O5       1.0000 0.27732  0.12099  0.59524  Biso   1.000  O
  O6       1.0000 0.27149  0.12059  0.10519  Biso   1.000  O
  O7       1.0000 0.22436  0.37424  0.59143  Biso   1.000  O
  O8       1.0000 0.22447  0.37413  0.09018  Biso   1.000  O
  O9       1.0000 0.53151  0.16320  0.33836  Biso   1.000  O
  O10      1.0000 0.52942  0.08888  0.84006  Biso   1.000  O
  O11      1.0000 0.96950  0.41133  0.33902  Biso   1.000  O
  O12      1.0000 0.96901  0.33410  0.83699  Biso   1.000  O
  O13      1.0000 0.77600  0.12356  0.90511  Biso   1.000  O
  O14      1.0000 0.77571  0.12579  0.40769  Biso   1.000  O
  O15      1.0000 0.72517  0.37401  0.91186  Biso   1.000  O
  O16      1.0000 0.72486  0.37583  0.41081  Biso   1.000  O
  Zr8      1.0000 0.13913  0.52121  0.34406  Biso   1.000  Zr
  Zr9      1.0000 0.13853  0.72967  0.84299  Biso   1.000  Zr
  Zr10     1.0000 0.35794  0.77536  0.34227  Biso   1.000  Zr
  Zr11     1.0000 0.35971  0.97784  0.84561  Biso   1.000  Zr
  Zr12     1.0000 0.63858  0.52196  0.15985  Biso   1.000  Zr
  Zr13     1.0000 0.63809  0.72890  0.65679  Biso   1.000  Zr
  Zr14     1.0000 0.86355  0.77298  0.15518  Biso   1.000  Zr
  Zr15     1.0000 0.86097  0.97954  0.65355  Biso   1.000  Zr
  O17      1.0000 0.03069  0.66110  0.16064  Biso   1.000  O
  O18      1.0000 0.03140  0.58677  0.66288  Biso   1.000  O
  O19      1.0000 0.46906  0.91239  0.16106  Biso   1.000  O
  O20      1.0000 0.46654  0.83796  0.66239  Biso   1.000  O
  O21      1.0000 0.27578  0.62546  0.59147  Biso   1.000  O
  O22      1.0000 0.27569  0.62743  0.09160  Biso   1.000  O
  O23      1.0000 0.21873  0.87640  0.58579  Biso   1.000  O
  O24      1.0000 0.21728  0.87952  0.09058  Biso   1.000  O
  O25      1.0000 0.53089  0.66537  0.33580  Biso   1.000  O
  O26      1.0000 0.53242  0.58621  0.83589  Biso   1.000  O
  O27      1.0000 0.97826  0.91648  0.32932  Biso   1.000  O
  O28      1.0000 0.96785  0.83770  0.83279  Biso   1.000  O
  O29      1.0000 0.77618  0.62535  0.91156  Biso   1.000  O
  O30      1.0000 0.77568  0.62614  0.41117  Biso   1.000  O
  O31      1.0000 0.72358  0.87487  0.90699  Biso   1.000  O
  O32      1.0000 0.72918  0.87672  0.40834  Biso   1.000  O
