data_image0
_cell_length_a       10.2557
_cell_length_b       5.23355
_cell_length_c       10.5192
_cell_angle_alpha    90.7039
_cell_angle_beta     79.0752
_cell_angle_gamma    90.3291

_symmetry_space_group_name_H-M    "P 1"
_symmetry_int_tables_number       1

loop_
  _symmetry_equiv_pos_as_xyz
  'x, y, z'

loop_
  _atom_site_label
  _atom_site_occupancy
  _atom_site_fract_x
  _atom_site_fract_y
  _atom_site_fract_z
  _atom_site_thermal_displace_type
  _atom_site_B_iso_or_equiv
  _atom_site_type_symbol
  Zr1      1.0000 0.13039  0.05194  0.14019  Biso   1.000  Zr
  Zr2      1.0000 0.14240  0.46426  0.39028  Biso   1.000  Zr
  Zr3      1.0000 0.34569  0.55688  0.09484  Biso   1.000  Zr
  Zr4      1.0000 0.35587  0.91489  0.34645  Biso   1.000  Zr
  O1       1.0000 0.03052  0.35276  0.07772  Biso   1.000  O
  O2       1.0000 0.03293  0.17184  0.32762  Biso   1.000  O
  O3       1.0000 0.46151  0.85764  0.15846  Biso   1.000  O
  O4       1.0000 0.47553  0.65496  0.42721  Biso   1.000  O
  O5       1.0000 0.27199  0.24599  0.22979  Biso   1.000  O
  O6       1.0000 0.29303  0.25977  0.47407  Biso   1.000  O
  O7       1.0000 0.21626  0.77485  0.99996  Biso   1.000  O
  O8       1.0000 0.20231  0.75481  0.24859  Biso   1.000  O
  Zr5      1.0000 0.13541  0.04325  0.64429  Biso   1.000  Zr
  Zr6      1.0000 0.13156  0.46364  0.89205  Biso   1.000  Zr
  Zr7      1.0000 0.36228  0.54488  0.61019  Biso   1.000  Zr
  Zr8      1.0000 0.35838  0.96445  0.85293  Biso   1.000  Zr
  O9       1.0000 0.04121  0.33912  0.57931  Biso   1.000  O
  O10      1.0000 0.03205  0.16014  0.83131  Biso   1.000  O
  O11      1.0000 0.46499  0.84497  0.67034  Biso   1.000  O
  O12      1.0000 0.46195  0.66352  0.91576  Biso   1.000  O
  O13      1.0000 0.27258  0.25625  0.73563  Biso   1.000  O
  O14      1.0000 0.26935  0.25508  0.98314  Biso   1.000  O
  O15      1.0000 0.22405  0.76058  0.51226  Biso   1.000  O
  O16      1.0000 0.22333  0.74304  0.75702  Biso   1.000  O
  Zr9      1.0000 0.63676  0.03926  0.15627  Biso   1.000  Zr
  Zr10     1.0000 0.65300  0.45160  0.40487  Biso   1.000  Zr
  Zr11     1.0000 0.85592  0.54510  0.10780  Biso   1.000  Zr
  Zr12     1.0000 0.86393  0.95637  0.35749  Biso   1.000  Zr
  O17      1.0000 0.52382  0.36112  0.10860  Biso   1.000  O
  O18      1.0000 0.55017  0.10534  0.35341  Biso   1.000  O
  O19      1.0000 0.95874  0.84859  0.16617  Biso   1.000  O
  O20      1.0000 0.96594  0.66898  0.42376  Biso   1.000  O
  O21      1.0000 0.77970  0.25987  0.24456  Biso   1.000  O
  O22      1.0000 0.78335  0.23588  0.49953  Biso   1.000  O
  O23      1.0000 0.71969  0.76009  0.01563  Biso   1.000  O
  O24      1.0000 0.72708  0.74129  0.26476  Biso   1.000  O
  Zr13     1.0000 0.63987  0.04656  0.65064  Biso   1.000  Zr
  Zr14     1.0000 0.63517  0.46654  0.90165  Biso   1.000  Zr
  Zr15     1.0000 0.86434  0.54359  0.60850  Biso   1.000  Zr
  Zr16     1.0000 0.85601  0.96138  0.86018  Biso   1.000  Zr
  O25      1.0000 0.53827  0.34358  0.59054  Biso   1.000  O
  O26      1.0000 0.53384  0.16320  0.83966  Biso   1.000  O
  O27      1.0000 0.96351  0.84156  0.67350  Biso   1.000  O
  O28      1.0000 0.95739  0.66152  0.91762  Biso   1.000  O
  O29      1.0000 0.77464  0.26247  0.74749  Biso   1.000  O
  O30      1.0000 0.76483  0.24567  0.99780  Biso   1.000  O
  O31      1.0000 0.72795  0.75570  0.51750  Biso   1.000  O
  O32      1.0000 0.72283  0.74265  0.76597  Biso   1.000  O
  Re1      1.0000 0.42573  0.39390  0.30377  Biso   1.000  Re
