data_image0
_cell_length_a       5.07757
_cell_length_b       10.3212
_cell_length_c       10.4767
_cell_angle_alpha    89.898
_cell_angle_beta     80.0935
_cell_angle_gamma    89.8748

_symmetry_space_group_name_H-M    "P 1"
_symmetry_int_tables_number       1

loop_
  _symmetry_equiv_pos_as_xyz
  'x, y, z'

loop_
  _atom_site_label
  _atom_site_occupancy
  _atom_site_fract_x
  _atom_site_fract_y
  _atom_site_fract_z
  _atom_site_thermal_displace_type
  _atom_site_B_iso_or_equiv
  _atom_site_type_symbol
  Re1      1.0000 0.28420  0.02220  0.14976  Biso   1.000  Re
  Zr1      1.0000 0.28073  0.23000  0.39399  Biso   1.000  Zr
  Zr2      1.0000 0.72666  0.26957  0.10585  Biso   1.000  Zr
  Zr3      1.0000 0.72337  0.47968  0.35385  Biso   1.000  Zr
  O1       1.0000 0.07512  0.16568  0.08351  Biso   1.000  O
  O2       1.0000 0.08551  0.07880  0.32009  Biso   1.000  O
  O3       1.0000 0.92931  0.42063  0.16871  Biso   1.000  O
  O4       1.0000 0.92764  0.32927  0.41803  Biso   1.000  O
  O5       1.0000 0.55611  0.12634  0.24089  Biso   1.000  O
  O6       1.0000 0.55714  0.12071  0.48986  Biso   1.000  O
  O7       1.0000 0.44771  0.37853  0.01012  Biso   1.000  O
  O8       1.0000 0.44995  0.37128  0.25916  Biso   1.000  O
  Zr4      1.0000 0.27623  0.02080  0.64538  Biso   1.000  Zr
  Zr5      1.0000 0.27505  0.22624  0.89792  Biso   1.000  Zr
  Zr6      1.0000 0.72140  0.27124  0.60476  Biso   1.000  Zr
  Zr7      1.0000 0.71954  0.47820  0.85587  Biso   1.000  Zr
  O9       1.0000 0.06995  0.16678  0.57614  Biso   1.000  O
  O10      1.0000 0.06540  0.08138  0.82888  Biso   1.000  O
  O11      1.0000 0.92910  0.41803  0.67002  Biso   1.000  O
  O12      1.0000 0.92633  0.32731  0.92064  Biso   1.000  O
  O13      1.0000 0.55049  0.12845  0.74232  Biso   1.000  O
  O14      1.0000 0.54261  0.11686  0.99792  Biso   1.000  O
  O15      1.0000 0.44708  0.37825  0.50933  Biso   1.000  O
  O16      1.0000 0.44629  0.37037  0.76024  Biso   1.000  O
  Zr8      1.0000 0.27871  0.52288  0.14496  Biso   1.000  Zr
  Zr9      1.0000 0.27919  0.72922  0.39519  Biso   1.000  Zr
  Zr10     1.0000 0.72132  0.77814  0.10416  Biso   1.000  Zr
  Zr11     1.0000 0.72360  0.97923  0.35264  Biso   1.000  Zr
  O17      1.0000 0.06678  0.66944  0.08086  Biso   1.000  O
  O18      1.0000 0.07296  0.58009  0.33144  Biso   1.000  O
  O19      1.0000 0.95041  0.92141  0.16541  Biso   1.000  O
  O20      1.0000 0.93134  0.83190  0.41861  Biso   1.000  O
  O21      1.0000 0.55220  0.63264  0.24093  Biso   1.000  O
  O22      1.0000 0.55353  0.62105  0.49114  Biso   1.000  O
  O23      1.0000 0.43033  0.88199  0.01066  Biso   1.000  O
  O24      1.0000 0.44673  0.87674  0.25750  Biso   1.000  O
  Zr12     1.0000 0.27763  0.52100  0.64643  Biso   1.000  Zr
  Zr13     1.0000 0.27489  0.72898  0.89702  Biso   1.000  Zr
  Zr14     1.0000 0.72167  0.77109  0.60469  Biso   1.000  Zr
  Zr15     1.0000 0.71711  0.97862  0.85537  Biso   1.000  Zr
  O25      1.0000 0.07152  0.66924  0.58021  Biso   1.000  O
  O26      1.0000 0.06939  0.57972  0.83143  Biso   1.000  O
  O27      1.0000 0.92778  0.91894  0.66933  Biso   1.000  O
  O28      1.0000 0.92175  0.83025  0.91873  Biso   1.000  O
  O29      1.0000 0.55178  0.62846  0.74149  Biso   1.000  O
  O30      1.0000 0.55202  0.62283  0.99137  Biso   1.000  O
  O31      1.0000 0.44881  0.87871  0.50814  Biso   1.000  O
  O32      1.0000 0.44561  0.87084  0.75905  Biso   1.000  O
