data_image0
_cell_length_a       10.006
_cell_length_b       5.19693
_cell_length_c       10.04
_cell_angle_alpha    89.7905
_cell_angle_beta     89.8345
_cell_angle_gamma    89.9673

_symmetry_space_group_name_H-M    "P 1"
_symmetry_int_tables_number       1

loop_
  _symmetry_equiv_pos_as_xyz
  'x, y, z'

loop_
  _atom_site_label
  _atom_site_occupancy
  _atom_site_fract_x
  _atom_site_fract_y
  _atom_site_fract_z
  _atom_site_thermal_displace_type
  _atom_site_B_iso_or_equiv
  _atom_site_type_symbol
  Re1      1.0000 0.13877  0.04052  0.12342  Biso   1.000  Re
  Zr1      1.0000 0.13271  0.46874  0.37299  Biso   1.000  Zr
  Zr2      1.0000 0.36558  0.54002  0.12626  Biso   1.000  Zr
  Zr3      1.0000 0.36516  0.97123  0.37470  Biso   1.000  Zr
  O1       1.0000 0.03904  0.35226  0.19338  Biso   1.000  O
  O2       1.0000 0.03275  0.13880  0.45058  Biso   1.000  O
  O3       1.0000 0.46589  0.86787  0.19523  Biso   1.000  O
  O4       1.0000 0.46394  0.63487  0.44266  Biso   1.000  O
  O5       1.0000 0.26912  0.23910  0.24461  Biso   1.000  O
  O6       1.0000 0.26895  0.26736  0.49735  Biso   1.000  O
  O7       1.0000 0.23016  0.76675  0.49887  Biso   1.000  O
  O8       1.0000 0.22561  0.74930  0.24726  Biso   1.000  O
  Zr4      1.0000 0.13361  0.03112  0.62618  Biso   1.000  Zr
  Zr5      1.0000 0.13340  0.46632  0.87830  Biso   1.000  Zr
  Zr6      1.0000 0.36579  0.53221  0.62499  Biso   1.000  Zr
  Zr7      1.0000 0.36430  0.96712  0.87666  Biso   1.000  Zr
  O9       1.0000 0.03151  0.35841  0.70322  Biso   1.000  O
  O10      1.0000 0.03522  0.12621  0.96203  Biso   1.000  O
  O11      1.0000 0.46276  0.86888  0.69386  Biso   1.000  O
  O12      1.0000 0.45967  0.62857  0.94354  Biso   1.000  O
  O13      1.0000 0.26913  0.23449  0.74973  Biso   1.000  O
  O14      1.0000 0.26933  0.25723  0.00209  Biso   1.000  O
  O15      1.0000 0.22254  0.76449  0.00196  Biso   1.000  O
  O16      1.0000 0.22951  0.73162  0.75054  Biso   1.000  O
  Zr8      1.0000 0.63545  0.03366  0.12488  Biso   1.000  Zr
  Zr9      1.0000 0.63491  0.47123  0.37363  Biso   1.000  Zr
  Zr10     1.0000 0.87042  0.53204  0.12337  Biso   1.000  Zr
  Zr11     1.0000 0.86993  0.96993  0.37275  Biso   1.000  Zr
  O17      1.0000 0.53625  0.37010  0.19272  Biso   1.000  O
  O18      1.0000 0.53496  0.13577  0.44306  Biso   1.000  O
  O19      1.0000 0.97761  0.85748  0.19245  Biso   1.000  O
  O20      1.0000 0.96606  0.63451  0.44655  Biso   1.000  O
  O21      1.0000 0.77134  0.23528  0.24770  Biso   1.000  O
  O22      1.0000 0.76930  0.26749  0.49762  Biso   1.000  O
  O23      1.0000 0.73118  0.76814  0.49666  Biso   1.000  O
  O24      1.0000 0.73572  0.73671  0.24659  Biso   1.000  O
  Zr12     1.0000 0.63325  0.03109  0.62384  Biso   1.000  Zr
  Zr13     1.0000 0.63304  0.46723  0.87497  Biso   1.000  Zr
  Zr14     1.0000 0.86574  0.52948  0.62558  Biso   1.000  Zr
  Zr15     1.0000 0.86685  0.96837  0.87518  Biso   1.000  Zr
  O25      1.0000 0.53545  0.36901  0.69328  Biso   1.000  O
  O26      1.0000 0.53525  0.12953  0.94313  Biso   1.000  O
  O27      1.0000 0.96500  0.86363  0.69593  Biso   1.000  O
  O28      1.0000 0.96141  0.62766  0.94083  Biso   1.000  O
  O29      1.0000 0.76786  0.23193  0.74839  Biso   1.000  O
  O30      1.0000 0.76964  0.26565  0.99773  Biso   1.000  O
  O31      1.0000 0.72945  0.76542  0.99729  Biso   1.000  O
  O32      1.0000 0.72973  0.73335  0.74779  Biso   1.000  O
