data_image0
_cell_length_a       10.1053
_cell_length_b       5.27641
_cell_length_c       10.1921
_cell_angle_alpha    88.9857
_cell_angle_beta     88.6434
_cell_angle_gamma    90.5084

_symmetry_space_group_name_H-M    "P 1"
_symmetry_int_tables_number       1

loop_
  _symmetry_equiv_pos_as_xyz
  'x, y, z'

loop_
  _atom_site_label
  _atom_site_occupancy
  _atom_site_fract_x
  _atom_site_fract_y
  _atom_site_fract_z
  _atom_site_thermal_displace_type
  _atom_site_B_iso_or_equiv
  _atom_site_type_symbol
  Zr1      1.0000 0.12425  0.12930  0.10406  Biso   1.000  Zr
  Zr2      1.0000 0.14027  0.44936  0.38486  Biso   1.000  Zr
  Zr3      1.0000 0.38876  0.51179  0.12148  Biso   1.000  Zr
  Zr4      1.0000 0.36990  0.95171  0.36990  Biso   1.000  Zr
  O1       1.0000 0.01274  0.38781  0.22651  Biso   1.000  O
  O2       1.0000 0.04272  0.11126  0.44486  Biso   1.000  O
  O3       1.0000 0.47783  0.83657  0.20515  Biso   1.000  O
  O4       1.0000 0.47115  0.62516  0.45238  Biso   1.000  O
  O5       1.0000 0.26858  0.20149  0.24286  Biso   1.000  O
  O6       1.0000 0.27610  0.24384  0.49900  Biso   1.000  O
  O7       1.0000 0.23669  0.74421  0.49801  Biso   1.000  O
  O8       1.0000 0.24836  0.68142  0.24999  Biso   1.000  O
  Zr5      1.0000 0.13597  0.00483  0.62054  Biso   1.000  Zr
  Zr6      1.0000 0.10934  0.48311  0.83681  Biso   1.000  Zr
  Zr7      1.0000 0.37331  0.50776  0.62273  Biso   1.000  Zr
  Zr8      1.0000 0.38547  0.98352  0.85550  Biso   1.000  Zr
  O9       1.0000 0.02104  0.31941  0.67754  Biso   1.000  O
  O10      1.0000 0.01311  0.16769  0.93346  Biso   1.000  O
  O11      1.0000 0.48747  0.80237  0.70203  Biso   1.000  O
  O12      1.0000 0.47645  0.67242  0.95192  Biso   1.000  O
  O13      1.0000 0.25223  0.21656  0.74766  Biso   1.000  O
  O14      1.0000 0.24137  0.40107  0.99025  Biso   1.000  O
  O15      1.0000 0.24278  0.88581  0.99570  Biso   1.000  O
  O16      1.0000 0.24621  0.72236  0.74313  Biso   1.000  O
  Zr9      1.0000 0.63251  0.03117  0.12928  Biso   1.000  Zr
  Zr10     1.0000 0.63839  0.45266  0.38187  Biso   1.000  Zr
  Zr11     1.0000 0.85416  0.52850  0.11988  Biso   1.000  Zr
  Zr12     1.0000 0.87492  0.95634  0.37000  Biso   1.000  Zr
  O17      1.0000 0.53251  0.33878  0.21952  Biso   1.000  O
  O18      1.0000 0.53178  0.12377  0.45772  Biso   1.000  O
  O19      1.0000 0.97832  0.87287  0.19133  Biso   1.000  O
  O20      1.0000 0.97535  0.63669  0.45336  Biso   1.000  O
  O21      1.0000 0.76798  0.21631  0.24448  Biso   1.000  O
  O22      1.0000 0.78363  0.24288  0.48959  Biso   1.000  O
  O23      1.0000 0.73536  0.75469  0.49822  Biso   1.000  O
  O24      1.0000 0.73605  0.72424  0.25073  Biso   1.000  O
  Zr13     1.0000 0.63825  0.02674  0.61864  Biso   1.000  Zr
  Zr14     1.0000 0.62460  0.47171  0.87145  Biso   1.000  Zr
  Zr15     1.0000 0.85948  0.52027  0.61739  Biso   1.000  Zr
  Zr16     1.0000 0.85792  0.96911  0.86885  Biso   1.000  Zr
  O25      1.0000 0.50384  0.28448  0.73447  Biso   1.000  O
  O26      1.0000 0.50319  0.18554  0.98349  Biso   1.000  O
  O27      1.0000 0.98443  0.80396  0.71564  Biso   1.000  O
  O28      1.0000 0.96874  0.66618  0.95638  Biso   1.000  O
  O29      1.0000 0.76269  0.22954  0.74459  Biso   1.000  O
  O30      1.0000 0.75478  0.27727  0.99208  Biso   1.000  O
  O31      1.0000 0.72683  0.77883  0.99744  Biso   1.000  O
  O32      1.0000 0.73623  0.72731  0.74782  Biso   1.000  O
  Re1      1.0000 0.11445  0.64216  0.09838  Biso   1.000  Re
