data_image0
_cell_length_a       10.0444
_cell_length_b       10.1412
_cell_length_c       5.02347
_cell_angle_alpha    90
_cell_angle_beta     89.9999
_cell_angle_gamma    90

_symmetry_space_group_name_H-M    "P 1"
_symmetry_int_tables_number       1

loop_
  _symmetry_equiv_pos_as_xyz
  'x, y, z'

loop_
  _atom_site_label
  _atom_site_occupancy
  _atom_site_fract_x
  _atom_site_fract_y
  _atom_site_fract_z
  _atom_site_thermal_displace_type
  _atom_site_B_iso_or_equiv
  _atom_site_type_symbol
  Re1      1.0000 0.12540  0.00008  0.25079  Biso   1.000  Re
  Zr1      1.0000 0.12540  0.24825  0.75079  Biso   1.000  Zr
  Zr2      1.0000 0.37407  0.24896  0.25137  Biso   1.000  Zr
  Zr3      1.0000 0.37434  0.00007  0.75079  Biso   1.000  Zr
  O1       1.0000 0.99738  0.13877  0.99272  Biso   1.000  O
  O2       1.0000 0.00749  0.10521  0.48740  Biso   1.000  O
  O3       1.0000 0.99506  0.35575  0.51229  Biso   1.000  O
  O4       1.0000 0.00352  0.39210  0.00773  Biso   1.000  O
  O5       1.0000 0.25342  0.13877  0.50886  Biso   1.000  O
  O6       1.0000 0.24331  0.10520  0.01419  Biso   1.000  O
  O7       1.0000 0.25574  0.35575  0.98929  Biso   1.000  O
  O8       1.0000 0.24728  0.39210  0.49385  Biso   1.000  O
  Zr4      1.0000 0.12540  0.50008  0.25079  Biso   1.000  Zr
  Zr5      1.0000 0.12540  0.75190  0.75079  Biso   1.000  Zr
  Zr6      1.0000 0.37407  0.75119  0.25022  Biso   1.000  Zr
  Zr7      1.0000 0.37593  0.50008  0.75079  Biso   1.000  Zr
  O9       1.0000 0.99506  0.64440  0.98929  Biso   1.000  O
  O10      1.0000 0.00351  0.60805  0.49385  Biso   1.000  O
  O11      1.0000 0.99738  0.86138  0.50886  Biso   1.000  O
  O12      1.0000 0.00749  0.89495  0.01419  Biso   1.000  O
  O13      1.0000 0.25574  0.64440  0.51229  Biso   1.000  O
  O14      1.0000 0.24728  0.60805  0.00774  Biso   1.000  O
  O15      1.0000 0.25341  0.86138  0.99272  Biso   1.000  O
  O16      1.0000 0.24330  0.89495  0.48740  Biso   1.000  O
  Zr8      1.0000 0.62540  0.00008  0.25079  Biso   1.000  Zr
  Zr9      1.0000 0.62540  0.25062  0.75079  Biso   1.000  Zr
  Zr10     1.0000 0.87672  0.24896  0.25022  Biso   1.000  Zr
  Zr11     1.0000 0.87645  0.00008  0.75079  Biso   1.000  Zr
  O17      1.0000 0.49229  0.14377  0.98646  Biso   1.000  O
  O18      1.0000 0.50429  0.10757  0.49260  Biso   1.000  O
  O19      1.0000 0.49522  0.35647  0.50970  Biso   1.000  O
  O20      1.0000 0.50374  0.39315  0.00598  Biso   1.000  O
  O21      1.0000 0.75850  0.14377  0.51512  Biso   1.000  O
  O22      1.0000 0.74651  0.10757  0.00899  Biso   1.000  O
  O23      1.0000 0.75557  0.35647  0.99189  Biso   1.000  O
  O24      1.0000 0.74705  0.39314  0.49560  Biso   1.000  O
  Zr12     1.0000 0.62540  0.50008  0.25079  Biso   1.000  Zr
  Zr13     1.0000 0.62540  0.74953  0.75079  Biso   1.000  Zr
  Zr14     1.0000 0.87672  0.75119  0.25137  Biso   1.000  Zr
  Zr15     1.0000 0.87486  0.50007  0.75079  Biso   1.000  Zr
  O25      1.0000 0.49522  0.64368  0.99189  Biso   1.000  O
  O26      1.0000 0.50374  0.60701  0.49560  Biso   1.000  O
  O27      1.0000 0.49229  0.85638  0.51513  Biso   1.000  O
  O28      1.0000 0.50429  0.89258  0.00899  Biso   1.000  O
  O29      1.0000 0.75558  0.64368  0.50970  Biso   1.000  O
  O30      1.0000 0.74705  0.60701  0.00598  Biso   1.000  O
  O31      1.0000 0.75850  0.85638  0.98646  Biso   1.000  O
  O32      1.0000 0.74651  0.89258  0.49260  Biso   1.000  O
