data_image0
_cell_length_a       10.1979
_cell_length_b       10.2945
_cell_length_c       5.26373
_cell_angle_alpha    90.2782
_cell_angle_beta     79.5991
_cell_angle_gamma    90.0908

_symmetry_space_group_name_H-M    "P 1"
_symmetry_int_tables_number       1

loop_
  _symmetry_equiv_pos_as_xyz
  'x, y, z'

loop_
  _atom_site_label
  _atom_site_occupancy
  _atom_site_fract_x
  _atom_site_fract_y
  _atom_site_fract_z
  _atom_site_thermal_displace_type
  _atom_site_B_iso_or_equiv
  _atom_site_type_symbol
  Hf1      1.0000 0.13389  0.02036  0.29636  Biso   1.000  Hf
  Hf2      1.0000 0.13931  0.23005  0.78402  Biso   1.000  Hf
  Hf3      1.0000 0.35501  0.27288  0.17777  Biso   1.000  Hf
  Hf4      1.0000 0.35399  0.48347  0.70120  Biso   1.000  Hf
  O1       1.0000 0.03518  0.16907  0.15788  Biso   1.000  O
  O2       1.0000 0.03183  0.08317  0.65780  Biso   1.000  O
  O3       1.0000 0.46581  0.40808  0.36037  Biso   1.000  O
  O4       1.0000 0.48388  0.36461  0.88022  Biso   1.000  O
  O5       1.0000 0.27537  0.12813  0.47731  Biso   1.000  O
  O6       1.0000 0.26657  0.11450  0.98597  Biso   1.000  O
  O7       1.0000 0.21922  0.38247  0.00444  Biso   1.000  O
  O8       1.0000 0.21444  0.37478  0.49859  Biso   1.000  O
  Hf5      1.0000 0.13604  0.52385  0.28981  Biso   1.000  Hf
  Hf6      1.0000 0.13470  0.73028  0.79732  Biso   1.000  Hf
  Hf7      1.0000 0.35961  0.77052  0.21153  Biso   1.000  Hf
  Hf8      1.0000 0.35934  0.97255  0.71592  Biso   1.000  Hf
  O9       1.0000 0.02910  0.66869  0.15773  Biso   1.000  O
  O10      1.0000 0.03287  0.58620  0.65585  Biso   1.000  O
  O11      1.0000 0.46390  0.91559  0.34884  Biso   1.000  O
  O12      1.0000 0.46156  0.82857  0.85006  Biso   1.000  O
  O13      1.0000 0.27367  0.62930  0.48302  Biso   1.000  O
  O14      1.0000 0.27105  0.62317  0.98491  Biso   1.000  O
  O15      1.0000 0.22153  0.87616  0.02606  Biso   1.000  O
  O16      1.0000 0.22135  0.87058  0.52420  Biso   1.000  O
  Hf9      1.0000 0.63686  0.02095  0.29683  Biso   1.000  Hf
  Hf10     1.0000 0.64987  0.23290  0.80789  Biso   1.000  Hf
  Hf11     1.0000 0.86416  0.27196  0.21633  Biso   1.000  Hf
  Hf12     1.0000 0.86292  0.47964  0.71275  Biso   1.000  Hf
  O17      1.0000 0.52895  0.16236  0.14874  Biso   1.000  O
  O18      1.0000 0.54339  0.06371  0.68298  Biso   1.000  O
  O19      1.0000 0.96427  0.42072  0.34248  Biso   1.000  O
  O20      1.0000 0.96473  0.33268  0.84230  Biso   1.000  O
  O21      1.0000 0.77548  0.13039  0.48748  Biso   1.000  O
  O22      1.0000 0.77837  0.11960  0.99221  Biso   1.000  O
  O23      1.0000 0.72814  0.37785  0.03255  Biso   1.000  O
  O24      1.0000 0.72787  0.37449  0.52970  Biso   1.000  O
  Hf13     1.0000 0.63775  0.52175  0.29756  Biso   1.000  Hf
  Hf14     1.0000 0.63569  0.72661  0.79375  Biso   1.000  Hf
  Hf15     1.0000 0.85709  0.77201  0.21045  Biso   1.000  Hf
  Hf16     1.0000 0.85814  0.97835  0.71169  Biso   1.000  Hf
  O25      1.0000 0.53023  0.66083  0.15306  Biso   1.000  O
  O26      1.0000 0.52836  0.59009  0.64550  Biso   1.000  O
  O27      1.0000 0.96160  0.91747  0.34506  Biso   1.000  O
  O28      1.0000 0.96203  0.83457  0.84638  Biso   1.000  O
  O29      1.0000 0.77331  0.62872  0.48275  Biso   1.000  O
  O30      1.0000 0.77266  0.62130  0.98274  Biso   1.000  O
  O31      1.0000 0.71973  0.87864  0.02428  Biso   1.000  O
  O32      1.0000 0.72212  0.87041  0.52236  Biso   1.000  O
  Rh1      1.0000 0.43836  0.23490  0.61492  Biso   1.000  Rh
