data_image0
_cell_length_a       10.0469
_cell_length_b       10.5729
_cell_length_c       5.02167
_cell_angle_alpha    89.6386
_cell_angle_beta     89.7787
_cell_angle_gamma    90.3061

_symmetry_space_group_name_H-M    "P 1"
_symmetry_int_tables_number       1

loop_
  _symmetry_equiv_pos_as_xyz
  'x, y, z'

loop_
  _atom_site_label
  _atom_site_occupancy
  _atom_site_fract_x
  _atom_site_fract_y
  _atom_site_fract_z
  _atom_site_thermal_displace_type
  _atom_site_B_iso_or_equiv
  _atom_site_type_symbol
  Hf1      1.0000 0.13498  0.00798  0.23975  Biso   1.000  Hf
  Hf2      1.0000 0.13517  0.20951  0.74043  Biso   1.000  Hf
  Hf3      1.0000 0.37242  0.26417  0.24500  Biso   1.000  Hf
  Hf4      1.0000 0.37022  0.48716  0.74555  Biso   1.000  Hf
  O1       1.0000 0.01391  0.16512  0.40938  Biso   1.000  O
  O2       1.0000 0.03159  0.05689  0.89864  Biso   1.000  O
  O3       1.0000 0.47419  0.42774  0.40652  Biso   1.000  O
  O4       1.0000 0.47160  0.31711  0.90063  Biso   1.000  O
  O5       1.0000 0.26493  0.10178  0.48562  Biso   1.000  O
  O6       1.0000 0.28585  0.12294  0.97673  Biso   1.000  O
  O7       1.0000 0.25916  0.41589  0.05705  Biso   1.000  O
  O8       1.0000 0.24968  0.34836  0.55938  Biso   1.000  O
  Hf5      1.0000 0.12504  0.54122  0.23365  Biso   1.000  Hf
  Hf6      1.0000 0.13175  0.74214  0.74236  Biso   1.000  Hf
  Hf7      1.0000 0.37015  0.76393  0.24493  Biso   1.000  Hf
  Hf8      1.0000 0.37155  0.98009  0.74297  Biso   1.000  Hf
  O9       1.0000 0.02949  0.69288  0.39287  Biso   1.000  O
  O10      1.0000 0.03331  0.57264  0.87816  Biso   1.000  O
  O11      1.0000 0.46775  0.92877  0.38239  Biso   1.000  O
  O12      1.0000 0.46830  0.81603  0.88912  Biso   1.000  O
  O13      1.0000 0.26784  0.61447  0.49300  Biso   1.000  O
  O14      1.0000 0.26480  0.64909  0.98685  Biso   1.000  O
  O15      1.0000 0.23133  0.88506  0.98679  Biso   1.000  O
  O16      1.0000 0.23421  0.86113  0.48604  Biso   1.000  O
  Hf9      1.0000 0.63287  0.01428  0.24758  Biso   1.000  Hf
  Hf10     1.0000 0.63066  0.23085  0.74935  Biso   1.000  Hf
  Hf11     1.0000 0.85329  0.26557  0.24855  Biso   1.000  Hf
  Hf12     1.0000 0.86646  0.48311  0.74886  Biso   1.000  Hf
  O17      1.0000 0.53270  0.17591  0.39957  Biso   1.000  O
  O18      1.0000 0.53957  0.06278  0.88835  Biso   1.000  O
  O19      1.0000 0.95577  0.44429  0.38659  Biso   1.000  O
  O20      1.0000 0.96914  0.31602  0.88482  Biso   1.000  O
  O21      1.0000 0.76497  0.11319  0.49644  Biso   1.000  O
  O22      1.0000 0.76901  0.13451  0.99582  Biso   1.000  O
  O23      1.0000 0.73080  0.38334  0.00094  Biso   1.000  O
  O24      1.0000 0.72962  0.36367  0.50376  Biso   1.000  O
  Hf13     1.0000 0.63457  0.51513  0.25409  Biso   1.000  Hf
  Hf14     1.0000 0.63440  0.73110  0.75240  Biso   1.000  Hf
  Hf15     1.0000 0.86122  0.76805  0.24887  Biso   1.000  Hf
  Hf16     1.0000 0.86376  0.98182  0.74435  Biso   1.000  Hf
  O25      1.0000 0.53310  0.67906  0.40021  Biso   1.000  O
  O26      1.0000 0.53384  0.56868  0.90601  Biso   1.000  O
  O27      1.0000 0.96627  0.92894  0.39865  Biso   1.000  O
  O28      1.0000 0.96356  0.81734  0.89600  Biso   1.000  O
  O29      1.0000 0.76651  0.61569  0.50357  Biso   1.000  O
  O30      1.0000 0.76941  0.63368  0.00105  Biso   1.000  O
  O31      1.0000 0.73081  0.88343  0.99825  Biso   1.000  O
  O32      1.0000 0.72894  0.86486  0.49890  Biso   1.000  O
  Rh1      1.0000 0.11480  0.30375  0.21669  Biso   1.000  Rh
