data_image0
_cell_length_a       10.1283
_cell_length_b       5.11571
_cell_length_c       10.521
_cell_angle_alpha    89.7991
_cell_angle_beta     91.5413
_cell_angle_gamma    89.9625

_symmetry_space_group_name_H-M    "P 1"
_symmetry_int_tables_number       1

loop_
  _symmetry_equiv_pos_as_xyz
  'x, y, z'

loop_
  _atom_site_label
  _atom_site_occupancy
  _atom_site_fract_x
  _atom_site_fract_y
  _atom_site_fract_z
  _atom_site_thermal_displace_type
  _atom_site_B_iso_or_equiv
  _atom_site_type_symbol
  Hf1      1.0000 0.13371  0.03782  0.17529  Biso   1.000  Hf
  Hf2      1.0000 0.13929  0.45281  0.42696  Biso   1.000  Hf
  Hf3      1.0000 0.34853  0.53732  0.18514  Biso   1.000  Hf
  Hf4      1.0000 0.36372  0.95262  0.42696  Biso   1.000  Hf
  Hf5      1.0000 0.64186  0.03844  0.07669  Biso   1.000  Hf
  Hf6      1.0000 0.64004  0.45976  0.33026  Biso   1.000  Hf
  Hf7      1.0000 0.86130  0.53867  0.07689  Biso   1.000  Hf
  Hf8      1.0000 0.86203  0.95781  0.32829  Biso   1.000  Hf
  O1       1.0000 0.03052  0.32685  0.08467  Biso   1.000  O
  O2       1.0000 0.03123  0.17178  0.33527  Biso   1.000  O
  O3       1.0000 0.45410  0.87483  0.10956  Biso   1.000  O
  O4       1.0000 0.46552  0.65951  0.34110  Biso   1.000  O
  O5       1.0000 0.27231  0.24472  0.30168  Biso   1.000  O
  O6       1.0000 0.26638  0.23997  0.05222  Biso   1.000  O
  O7       1.0000 0.21978  0.74826  0.30522  Biso   1.000  O
  O8       1.0000 0.21652  0.74807  0.05515  Biso   1.000  O
  O9       1.0000 0.53201  0.33540  0.17199  Biso   1.000  O
  O10      1.0000 0.53415  0.16523  0.41648  Biso   1.000  O
  O11      1.0000 0.96402  0.82721  0.16927  Biso   1.000  O
  O12      1.0000 0.97002  0.67043  0.41944  Biso   1.000  O
  O13      1.0000 0.77770  0.24820  0.45244  Biso   1.000  O
  O14      1.0000 0.77534  0.25035  0.20218  Biso   1.000  O
  O15      1.0000 0.72829  0.74841  0.45454  Biso   1.000  O
  O16      1.0000 0.72433  0.74945  0.20641  Biso   1.000  O
  Hf9      1.0000 0.14551  0.03779  0.67617  Biso   1.000  Hf
  Hf10     1.0000 0.14191  0.45830  0.92639  Biso   1.000  Hf
  Hf11     1.0000 0.36657  0.53868  0.67626  Biso   1.000  Hf
  Hf12     1.0000 0.35897  0.96240  0.93230  Biso   1.000  Hf
  Hf13     1.0000 0.64279  0.03773  0.57516  Biso   1.000  Hf
  Hf14     1.0000 0.65525  0.45713  0.81548  Biso   1.000  Hf
  Hf15     1.0000 0.86937  0.54065  0.57708  Biso   1.000  Hf
  Hf16     1.0000 0.87175  0.95838  0.82815  Biso   1.000  Hf
  O17      1.0000 0.03781  0.32311  0.58524  Biso   1.000  O
  O18      1.0000 0.04158  0.16592  0.83504  Biso   1.000  O
  O19      1.0000 0.47393  0.82211  0.58415  Biso   1.000  O
  O20      1.0000 0.48459  0.69049  0.82555  Biso   1.000  O
  O21      1.0000 0.28143  0.24975  0.79952  Biso   1.000  O
  O22      1.0000 0.28020  0.24647  0.54997  Biso   1.000  O
  O23      1.0000 0.23264  0.74339  0.80271  Biso   1.000  O
  O24      1.0000 0.22924  0.74685  0.55251  Biso   1.000  O
  O25      1.0000 0.53784  0.32103  0.66747  Biso   1.000  O
  O26      1.0000 0.53008  0.16771  0.91907  Biso   1.000  O
  O27      1.0000 0.97642  0.82268  0.66918  Biso   1.000  O
  O28      1.0000 0.97230  0.66539  0.91781  Biso   1.000  O
  O29      1.0000 0.78216  0.24993  0.94764  Biso   1.000  O
  O30      1.0000 0.78532  0.24299  0.69818  Biso   1.000  O
  O31      1.0000 0.73909  0.76559  0.95108  Biso   1.000  O
  O32      1.0000 0.73517  0.74625  0.70122  Biso   1.000  O
  Rh1      1.0000 0.51423  0.55596  0.00785  Biso   1.000  Rh
