data_image0
_cell_length_a       4.96909
_cell_length_b       10.3761
_cell_length_c       9.99141
_cell_angle_alpha    90.3646
_cell_angle_beta     89.3204
_cell_angle_gamma    90.3548

_symmetry_space_group_name_H-M    "P 1"
_symmetry_int_tables_number       1

loop_
  _symmetry_equiv_pos_as_xyz
  'x, y, z'

loop_
  _atom_site_label
  _atom_site_occupancy
  _atom_site_fract_x
  _atom_site_fract_y
  _atom_site_fract_z
  _atom_site_thermal_displace_type
  _atom_site_B_iso_or_equiv
  _atom_site_type_symbol
  Rh1      1.0000 0.25095  0.03495  0.10748  Biso   1.000  Rh
  Hf1      1.0000 0.26805  0.22930  0.37536  Biso   1.000  Hf
  Hf2      1.0000 0.72642  0.26574  0.12486  Biso   1.000  Hf
  Hf3      1.0000 0.73481  0.48250  0.37656  Biso   1.000  Hf
  O1       1.0000 0.06410  0.18365  0.19387  Biso   1.000  O
  O2       1.0000 0.07271  0.06556  0.44791  Biso   1.000  O
  O3       1.0000 0.92907  0.43063  0.19484  Biso   1.000  O
  O4       1.0000 0.92901  0.31446  0.44319  Biso   1.000  O
  O5       1.0000 0.52650  0.10894  0.24375  Biso   1.000  O
  O6       1.0000 0.54542  0.13209  0.49596  Biso   1.000  O
  O7       1.0000 0.45930  0.38133  0.49996  Biso   1.000  O
  O8       1.0000 0.45877  0.36340  0.24971  Biso   1.000  O
  Hf4      1.0000 0.26481  0.01589  0.62505  Biso   1.000  Hf
  Hf5      1.0000 0.26278  0.23792  0.87245  Biso   1.000  Hf
  Hf6      1.0000 0.73154  0.26612  0.62413  Biso   1.000  Hf
  Hf7      1.0000 0.72943  0.48614  0.87522  Biso   1.000  Hf
  O9       1.0000 0.07075  0.18544  0.69446  Biso   1.000  O
  O10      1.0000 0.06305  0.06641  0.94090  Biso   1.000  O
  O11      1.0000 0.92758  0.43413  0.69468  Biso   1.000  O
  O12      1.0000 0.91964  0.31558  0.94296  Biso   1.000  O
  O13      1.0000 0.53818  0.11831  0.74857  Biso   1.000  O
  O14      1.0000 0.52818  0.13401  0.99743  Biso   1.000  O
  O15      1.0000 0.45520  0.38378  0.99914  Biso   1.000  O
  O16      1.0000 0.45748  0.36899  0.74897  Biso   1.000  O
  Hf8      1.0000 0.26894  0.51564  0.12818  Biso   1.000  Hf
  Hf9      1.0000 0.27828  0.73425  0.37661  Biso   1.000  Hf
  Hf10     1.0000 0.74409  0.76430  0.12492  Biso   1.000  Hf
  Hf11     1.0000 0.73662  0.98264  0.37249  Biso   1.000  Hf
  O17      1.0000 0.07833  0.68411  0.19740  Biso   1.000  O
  O18      1.0000 0.07559  0.56477  0.44523  Biso   1.000  O
  O19      1.0000 0.96326  0.93700  0.19164  Biso   1.000  O
  O20      1.0000 0.94042  0.81804  0.44834  Biso   1.000  O
  O21      1.0000 0.54457  0.60976  0.24940  Biso   1.000  O
  O22      1.0000 0.54577  0.63292  0.50048  Biso   1.000  O
  O23      1.0000 0.46595  0.88346  0.50327  Biso   1.000  O
  O24      1.0000 0.50903  0.85279  0.25943  Biso   1.000  O
  Hf12     1.0000 0.26855  0.51783  0.62532  Biso   1.000  Hf
  Hf13     1.0000 0.26342  0.73510  0.87951  Biso   1.000  Hf
  Hf14     1.0000 0.73601  0.76781  0.62676  Biso   1.000  Hf
  Hf15     1.0000 0.71533  0.98222  0.87709  Biso   1.000  Hf
  O25      1.0000 0.07126  0.68416  0.69731  Biso   1.000  O
  O26      1.0000 0.06656  0.56738  0.94838  Biso   1.000  O
  O27      1.0000 0.92530  0.93527  0.69712  Biso   1.000  O
  O28      1.0000 0.91500  0.81728  0.94031  Biso   1.000  O
  O29      1.0000 0.53845  0.61876  0.75121  Biso   1.000  O
  O30      1.0000 0.53724  0.63473  0.00064  Biso   1.000  O
  O31      1.0000 0.44609  0.88780  0.00907  Biso   1.000  O
  O32      1.0000 0.45483  0.86777  0.75321  Biso   1.000  O
