data_image0
_cell_length_a       10.1041
_cell_length_b       10.2474
_cell_length_c       10.4536
_cell_angle_alpha    90.0157
_cell_angle_beta     80.558
_cell_angle_gamma    89.6895

_symmetry_space_group_name_H-M    "P 1"
_symmetry_int_tables_number       1

loop_
  _symmetry_equiv_pos_as_xyz
  'x, y, z'

loop_
  _atom_site_label
  _atom_site_occupancy
  _atom_site_fract_x
  _atom_site_fract_y
  _atom_site_fract_z
  _atom_site_thermal_displace_type
  _atom_site_B_iso_or_equiv
  _atom_site_type_symbol
  Rh1      1.0000 0.12444  0.01171  0.16733  Biso   1.000  Rh
  Hf1      1.0000 0.13993  0.23034  0.39315  Biso   1.000  Hf
  Hf2      1.0000 0.35902  0.26859  0.10109  Biso   1.000  Hf
  Hf3      1.0000 0.36136  0.47895  0.35308  Biso   1.000  Hf
  O1       1.0000 0.04401  0.15715  0.08250  Biso   1.000  O
  O2       1.0000 0.03052  0.08381  0.32930  Biso   1.000  O
  O3       1.0000 0.46351  0.41857  0.16986  Biso   1.000  O
  O4       1.0000 0.46418  0.33130  0.41979  Biso   1.000  O
  O5       1.0000 0.27169  0.12327  0.23381  Biso   1.000  O
  O6       1.0000 0.27706  0.12227  0.48591  Biso   1.000  O
  O7       1.0000 0.22358  0.38251  0.00894  Biso   1.000  O
  O8       1.0000 0.22466  0.37005  0.25857  Biso   1.000  O
  Hf4      1.0000 0.13781  0.02089  0.64352  Biso   1.000  Hf
  Hf5      1.0000 0.14348  0.22452  0.89517  Biso   1.000  Hf
  Hf6      1.0000 0.36108  0.27193  0.60334  Biso   1.000  Hf
  Hf7      1.0000 0.36129  0.47974  0.85461  Biso   1.000  Hf
  O9       1.0000 0.03505  0.16665  0.57512  Biso   1.000  O
  O10      1.0000 0.03564  0.08172  0.82756  Biso   1.000  O
  O11      1.0000 0.46450  0.41903  0.67034  Biso   1.000  O
  O12      1.0000 0.46966  0.33739  0.92164  Biso   1.000  O
  O13      1.0000 0.27528  0.12770  0.73390  Biso   1.000  O
  O14      1.0000 0.29438  0.13635  0.97294  Biso   1.000  O
  O15      1.0000 0.22256  0.37918  0.50860  Biso   1.000  O
  O16      1.0000 0.22521  0.37010  0.75973  Biso   1.000  O
  Hf8      1.0000 0.13973  0.52262  0.14562  Biso   1.000  Hf
  Hf9      1.0000 0.13709  0.72735  0.39727  Biso   1.000  Hf
  Hf10     1.0000 0.35817  0.77611  0.10256  Biso   1.000  Hf
  Hf11     1.0000 0.36031  0.97929  0.35222  Biso   1.000  Hf
  O17      1.0000 0.03538  0.66924  0.08013  Biso   1.000  O
  O18      1.0000 0.03525  0.58077  0.32988  Biso   1.000  O
  O19      1.0000 0.46363  0.91867  0.17118  Biso   1.000  O
  O20      1.0000 0.46300  0.83036  0.41899  Biso   1.000  O
  O21      1.0000 0.27607  0.63185  0.24093  Biso   1.000  O
  O22      1.0000 0.27649  0.62065  0.49112  Biso   1.000  O
  O23      1.0000 0.22151  0.89109  0.01175  Biso   1.000  O
  O24      1.0000 0.21555  0.87178  0.25899  Biso   1.000  O
  Hf12     1.0000 0.13992  0.52138  0.64708  Biso   1.000  Hf
  Hf13     1.0000 0.13943  0.73251  0.89648  Biso   1.000  Hf
  Hf14     1.0000 0.36131  0.77234  0.60459  Biso   1.000  Hf
  Hf15     1.0000 0.36076  0.98312  0.85461  Biso   1.000  Hf
  O25      1.0000 0.03455  0.66721  0.57995  Biso   1.000  O
  O26      1.0000 0.03695  0.58239  0.83113  Biso   1.000  O
  O27      1.0000 0.46444  0.92000  0.66935  Biso   1.000  O
  O28      1.0000 0.46209  0.83239  0.92009  Biso   1.000  O
  O29      1.0000 0.27658  0.63010  0.74054  Biso   1.000  O
  O30      1.0000 0.27649  0.62484  0.99051  Biso   1.000  O
  O31      1.0000 0.22321  0.87910  0.50818  Biso   1.000  O
  O32      1.0000 0.22359  0.87171  0.75939  Biso   1.000  O
  Hf16     1.0000 0.63810  0.02153  0.14526  Biso   1.000  Hf
  Hf17     1.0000 0.63854  0.22876  0.39576  Biso   1.000  Hf
  Hf18     1.0000 0.86617  0.26751  0.10631  Biso   1.000  Hf
  Hf19     1.0000 0.86072  0.47830  0.35403  Biso   1.000  Hf
  O33      1.0000 0.53698  0.16968  0.07988  Biso   1.000  O
  O34      1.0000 0.53481  0.08106  0.32986  Biso   1.000  O
  O35      1.0000 0.96728  0.41626  0.17165  Biso   1.000  O
  O36      1.0000 0.96449  0.33200  0.42131  Biso   1.000  O
  O37      1.0000 0.77618  0.12650  0.24100  Biso   1.000  O
  O38      1.0000 0.77652  0.12037  0.49092  Biso   1.000  O
  O39      1.0000 0.72743  0.37765  0.01120  Biso   1.000  O
  O40      1.0000 0.72544  0.36878  0.25928  Biso   1.000  O
  Hf20     1.0000 0.63824  0.02184  0.64687  Biso   1.000  Hf
  Hf21     1.0000 0.64029  0.22988  0.89672  Biso   1.000  Hf
  Hf22     1.0000 0.86161  0.27162  0.60466  Biso   1.000  Hf
  Hf23     1.0000 0.86434  0.47683  0.85627  Biso   1.000  Hf
  O41      1.0000 0.53599  0.16971  0.57944  Biso   1.000  O
  O42      1.0000 0.53904  0.08139  0.82953  Biso   1.000  O
  O43      1.0000 0.96696  0.41588  0.67349  Biso   1.000  O
  O44      1.0000 0.96814  0.32949  0.92609  Biso   1.000  O
  O45      1.0000 0.77813  0.12979  0.74021  Biso   1.000  O
  O46      1.0000 0.77851  0.12051  0.99147  Biso   1.000  O
  O47      1.0000 0.72333  0.37863  0.50994  Biso   1.000  O
  O48      1.0000 0.72531  0.37191  0.76068  Biso   1.000  O
  Hf24     1.0000 0.63677  0.51983  0.14484  Biso   1.000  Hf
  Hf25     1.0000 0.63744  0.72724  0.39563  Biso   1.000  Hf
  Hf26     1.0000 0.85908  0.76825  0.10284  Biso   1.000  Hf
  Hf27     1.0000 0.85531  0.97655  0.35687  Biso   1.000  Hf
  O49      1.0000 0.53441  0.66964  0.07939  Biso   1.000  O
  O50      1.0000 0.53614  0.57934  0.32980  Biso   1.000  O
  O51      1.0000 0.96254  0.91539  0.17205  Biso   1.000  O
  O52      1.0000 0.96328  0.83195  0.42143  Biso   1.000  O
  O53      1.0000 0.77576  0.62733  0.23995  Biso   1.000  O
  O54      1.0000 0.77653  0.62051  0.49069  Biso   1.000  O
  O55      1.0000 0.72195  0.87922  0.00956  Biso   1.000  O
  O56      1.0000 0.72372  0.86957  0.25935  Biso   1.000  O
  Hf28     1.0000 0.63890  0.52130  0.64674  Biso   1.000  Hf
  Hf29     1.0000 0.63733  0.72914  0.89607  Biso   1.000  Hf
  Hf30     1.0000 0.85972  0.77047  0.60555  Biso   1.000  Hf
  Hf31     1.0000 0.86159  0.97918  0.85411  Biso   1.000  Hf
  O57      1.0000 0.53580  0.66892  0.57922  Biso   1.000  O
  O58      1.0000 0.53492  0.58343  0.82839  Biso   1.000  O
  O59      1.0000 0.96395  0.91738  0.67056  Biso   1.000  O
  O60      1.0000 0.96287  0.83100  0.92123  Biso   1.000  O
  O61      1.0000 0.77715  0.62836  0.74141  Biso   1.000  O
  O62      1.0000 0.77620  0.62040  0.99042  Biso   1.000  O
  O63      1.0000 0.72134  0.87819  0.50992  Biso   1.000  O
  O64      1.0000 0.72331  0.87091  0.75983  Biso   1.000  O
