data_image0
_cell_length_a       10.1102
_cell_length_b       5.10324
_cell_length_c       10.4793
_cell_angle_alpha    90.0354
_cell_angle_beta     80.7492
_cell_angle_gamma    89.276

_symmetry_space_group_name_H-M    "P 1"
_symmetry_int_tables_number       1

loop_
  _symmetry_equiv_pos_as_xyz
  'x, y, z'

loop_
  _atom_site_label
  _atom_site_occupancy
  _atom_site_fract_x
  _atom_site_fract_y
  _atom_site_fract_z
  _atom_site_thermal_displace_type
  _atom_site_B_iso_or_equiv
  _atom_site_type_symbol
  Rh1      1.0000 0.12430  0.02297  0.16782  Biso   1.000  Rh
  Hf1      1.0000 0.13794  0.45748  0.39454  Biso   1.000  Hf
  Hf2      1.0000 0.35610  0.54807  0.09945  Biso   1.000  Hf
  Hf3      1.0000 0.36035  0.95924  0.35070  Biso   1.000  Hf
  O1       1.0000 0.04389  0.30968  0.08144  Biso   1.000  O
  O2       1.0000 0.02839  0.16979  0.32850  Biso   1.000  O
  O3       1.0000 0.46414  0.83139  0.17300  Biso   1.000  O
  O4       1.0000 0.46382  0.66618  0.42067  Biso   1.000  O
  O5       1.0000 0.27016  0.25230  0.23279  Biso   1.000  O
  O6       1.0000 0.27660  0.24430  0.48566  Biso   1.000  O
  O7       1.0000 0.22235  0.79343  0.01284  Biso   1.000  O
  O8       1.0000 0.21709  0.74235  0.25863  Biso   1.000  O
  Hf4      1.0000 0.13864  0.04089  0.64449  Biso   1.000  Hf
  Hf5      1.0000 0.14328  0.45721  0.89432  Biso   1.000  Hf
  Hf6      1.0000 0.36151  0.54611  0.60383  Biso   1.000  Hf
  Hf7      1.0000 0.36114  0.97059  0.85540  Biso   1.000  Hf
  O9       1.0000 0.03291  0.32548  0.57376  Biso   1.000  O
  O10      1.0000 0.03607  0.16854  0.82756  Biso   1.000  O
  O11      1.0000 0.46581  0.83583  0.67174  Biso   1.000  O
  O12      1.0000 0.46979  0.68589  0.92427  Biso   1.000  O
  O13      1.0000 0.27463  0.25689  0.73264  Biso   1.000  O
  O14      1.0000 0.29480  0.28666  0.97022  Biso   1.000  O
  O15      1.0000 0.22245  0.75755  0.50768  Biso   1.000  O
  O16      1.0000 0.22603  0.74295  0.76048  Biso   1.000  O
  Hf8      1.0000 0.63584  0.03942  0.14423  Biso   1.000  Hf
  Hf9      1.0000 0.63688  0.45431  0.39540  Biso   1.000  Hf
  Hf10     1.0000 0.86432  0.52728  0.10504  Biso   1.000  Hf
  Hf11     1.0000 0.85483  0.95151  0.35714  Biso   1.000  Hf
  O17      1.0000 0.53466  0.33598  0.07732  Biso   1.000  O
  O18      1.0000 0.53383  0.16346  0.32771  Biso   1.000  O
  O19      1.0000 0.96672  0.81867  0.17481  Biso   1.000  O
  O20      1.0000 0.96456  0.66960  0.42489  Biso   1.000  O
  O21      1.0000 0.77510  0.24735  0.24003  Biso   1.000  O
  O22      1.0000 0.77603  0.24000  0.49087  Biso   1.000  O
  O23      1.0000 0.72653  0.75476  0.01173  Biso   1.000  O
  O24      1.0000 0.72606  0.73372  0.25958  Biso   1.000  O
  Hf12     1.0000 0.63820  0.04362  0.64776  Biso   1.000  Hf
  Hf13     1.0000 0.63865  0.46166  0.89711  Biso   1.000  Hf
  Hf14     1.0000 0.86033  0.54107  0.60625  Biso   1.000  Hf
  Hf15     1.0000 0.86475  0.95435  0.85637  Biso   1.000  Hf
  O25      1.0000 0.53487  0.33470  0.57668  Biso   1.000  O
  O26      1.0000 0.53688  0.17437  0.82574  Biso   1.000  O
  O27      1.0000 0.96780  0.82382  0.67590  Biso   1.000  O
  O28      1.0000 0.96726  0.66183  0.92901  Biso   1.000  O
  O29      1.0000 0.77851  0.25728  0.74086  Biso   1.000  O
  O30      1.0000 0.77804  0.24025  0.99105  Biso   1.000  O
  O31      1.0000 0.72155  0.75469  0.51070  Biso   1.000  O
  O32      1.0000 0.72560  0.74456  0.76139  Biso   1.000  O
