data_image0
_cell_length_a       10.0463
_cell_length_b       10.2425
_cell_length_c       10.5032
_cell_angle_alpha    89.9374
_cell_angle_beta     90.2911
_cell_angle_gamma    90.094

_symmetry_space_group_name_H-M    "P 1"
_symmetry_int_tables_number       1

loop_
  _symmetry_equiv_pos_as_xyz
  'x, y, z'

loop_
  _atom_site_label
  _atom_site_occupancy
  _atom_site_fract_x
  _atom_site_fract_y
  _atom_site_fract_z
  _atom_site_thermal_displace_type
  _atom_site_B_iso_or_equiv
  _atom_site_type_symbol
  Hf1      1.0000 0.13719  0.02077  0.17270  Biso   1.000  Hf
  Hf2      1.0000 0.13788  0.22818  0.42454  Biso   1.000  Hf
  Hf3      1.0000 0.35215  0.26932  0.17813  Biso   1.000  Hf
  Hf4      1.0000 0.36279  0.47841  0.42140  Biso   1.000  Hf
  Hf5      1.0000 0.64407  0.01768  0.07605  Biso   1.000  Hf
  Hf6      1.0000 0.63877  0.22649  0.32886  Biso   1.000  Hf
  Hf7      1.0000 0.85999  0.26888  0.07791  Biso   1.000  Hf
  Hf8      1.0000 0.86346  0.47924  0.32937  Biso   1.000  Hf
  O1       1.0000 0.03180  0.16377  0.08324  Biso   1.000  O
  O2       1.0000 0.03166  0.08552  0.33381  Biso   1.000  O
  O3       1.0000 0.45329  0.43791  0.09863  Biso   1.000  O
  O4       1.0000 0.46758  0.33406  0.33233  Biso   1.000  O
  O5       1.0000 0.27159  0.12490  0.29899  Biso   1.000  O
  O6       1.0000 0.27334  0.12421  0.04675  Biso   1.000  O
  O7       1.0000 0.22110  0.37503  0.29829  Biso   1.000  O
  O8       1.0000 0.22173  0.37525  0.04536  Biso   1.000  O
  O9       1.0000 0.51497  0.13909  0.18564  Biso   1.000  O
  O10      1.0000 0.53170  0.08815  0.42393  Biso   1.000  O
  O11      1.0000 0.96762  0.41369  0.16778  Biso   1.000  O
  O12      1.0000 0.96834  0.33598  0.41878  Biso   1.000  O
  O13      1.0000 0.77641  0.12348  0.45424  Biso   1.000  O
  O14      1.0000 0.77675  0.12437  0.20706  Biso   1.000  O
  O15      1.0000 0.72444  0.37305  0.45538  Biso   1.000  O
  O16      1.0000 0.72653  0.38079  0.20832  Biso   1.000  O
  Hf9      1.0000 0.14093  0.02081  0.67253  Biso   1.000  Hf
  Hf10     1.0000 0.13828  0.22807  0.92242  Biso   1.000  Hf
  Hf11     1.0000 0.36219  0.27180  0.67321  Biso   1.000  Hf
  Hf12     1.0000 0.36103  0.48033  0.92276  Biso   1.000  Hf
  Hf13     1.0000 0.64024  0.01968  0.57830  Biso   1.000  Hf
  Hf14     1.0000 0.64347  0.22699  0.82017  Biso   1.000  Hf
  Hf15     1.0000 0.86272  0.27118  0.57768  Biso   1.000  Hf
  Hf16     1.0000 0.86376  0.47971  0.82815  Biso   1.000  Hf
  O17      1.0000 0.03323  0.16389  0.58391  Biso   1.000  O
  O18      1.0000 0.03560  0.08372  0.83210  Biso   1.000  O
  O19      1.0000 0.46993  0.41183  0.57982  Biso   1.000  O
  O20      1.0000 0.47160  0.34179  0.82751  Biso   1.000  O
  O21      1.0000 0.27809  0.12436  0.79660  Biso   1.000  O
  O22      1.0000 0.27666  0.12549  0.54697  Biso   1.000  O
  O23      1.0000 0.22450  0.37310  0.79646  Biso   1.000  O
  O24      1.0000 0.22528  0.37590  0.54677  Biso   1.000  O
  O25      1.0000 0.53151  0.16023  0.66951  Biso   1.000  O
  O26      1.0000 0.53218  0.08904  0.92048  Biso   1.000  O
  O27      1.0000 0.96883  0.41462  0.66777  Biso   1.000  O
  O28      1.0000 0.96621  0.33461  0.91712  Biso   1.000  O
  O29      1.0000 0.78650  0.11856  0.94796  Biso   1.000  O
  O30      1.0000 0.77890  0.12379  0.70089  Biso   1.000  O
  O31      1.0000 0.72206  0.37612  0.95403  Biso   1.000  O
  O32      1.0000 0.72687  0.37536  0.70343  Biso   1.000  O
  Hf17     1.0000 0.13886  0.52104  0.17149  Biso   1.000  Hf
  Hf18     1.0000 0.14045  0.72846  0.42176  Biso   1.000  Hf
  Hf19     1.0000 0.36170  0.77299  0.17231  Biso   1.000  Hf
  Hf20     1.0000 0.36210  0.97902  0.42353  Biso   1.000  Hf
  Hf21     1.0000 0.63855  0.52940  0.08199  Biso   1.000  Hf
  Hf22     1.0000 0.63977  0.73108  0.32985  Biso   1.000  Hf
  Hf23     1.0000 0.86312  0.77072  0.07916  Biso   1.000  Hf
  Hf24     1.0000 0.86219  0.97823  0.32970  Biso   1.000  Hf
  O33      1.0000 0.03318  0.66392  0.08258  Biso   1.000  O
  O34      1.0000 0.03423  0.58604  0.33213  Biso   1.000  O
  O35      1.0000 0.46991  0.91037  0.07822  Biso   1.000  O
  O36      1.0000 0.46888  0.83863  0.33264  Biso   1.000  O
  O37      1.0000 0.27748  0.62436  0.29493  Biso   1.000  O
  O38      1.0000 0.27545  0.62794  0.04457  Biso   1.000  O
  O39      1.0000 0.22482  0.87448  0.29608  Biso   1.000  O
  O40      1.0000 0.22365  0.87654  0.04613  Biso   1.000  O
  O41      1.0000 0.53565  0.67202  0.16857  Biso   1.000  O
  O42      1.0000 0.53328  0.58634  0.41706  Biso   1.000  O
  O43      1.0000 0.96790  0.91405  0.16811  Biso   1.000  O
  O44      1.0000 0.96856  0.83387  0.41740  Biso   1.000  O
  O45      1.0000 0.77717  0.62358  0.45529  Biso   1.000  O
  O46      1.0000 0.77777  0.62821  0.20616  Biso   1.000  O
  O47      1.0000 0.72549  0.87400  0.45612  Biso   1.000  O
  O48      1.0000 0.72669  0.87543  0.20638  Biso   1.000  O
  Hf25     1.0000 0.14043  0.52040  0.67172  Biso   1.000  Hf
  Hf26     1.0000 0.13973  0.72884  0.92205  Biso   1.000  Hf
  Hf27     1.0000 0.36295  0.77067  0.67218  Biso   1.000  Hf
  Hf28     1.0000 0.36130  0.97803  0.92324  Biso   1.000  Hf
  Hf29     1.0000 0.63965  0.52057  0.57729  Biso   1.000  Hf
  Hf30     1.0000 0.63972  0.72821  0.82771  Biso   1.000  Hf
  Hf31     1.0000 0.86381  0.77003  0.57858  Biso   1.000  Hf
  Hf32     1.0000 0.86459  0.97638  0.82740  Biso   1.000  Hf
  O49      1.0000 0.03461  0.66339  0.58258  Biso   1.000  O
  O50      1.0000 0.03413  0.58534  0.83246  Biso   1.000  O
  O51      1.0000 0.46963  0.91132  0.58170  Biso   1.000  O
  O52      1.0000 0.47024  0.83802  0.83058  Biso   1.000  O
  O53      1.0000 0.27754  0.62317  0.79590  Biso   1.000  O
  O54      1.0000 0.27778  0.62516  0.54523  Biso   1.000  O
  O55      1.0000 0.22558  0.87295  0.79598  Biso   1.000  O
  O56      1.0000 0.22556  0.87554  0.54592  Biso   1.000  O
  O57      1.0000 0.53281  0.66191  0.66847  Biso   1.000  O
  O58      1.0000 0.53303  0.58687  0.91948  Biso   1.000  O
  O59      1.0000 0.97062  0.91304  0.66611  Biso   1.000  O
  O60      1.0000 0.96897  0.83472  0.91819  Biso   1.000  O
  O61      1.0000 0.77776  0.62443  0.95484  Biso   1.000  O
  O62      1.0000 0.77724  0.62527  0.70473  Biso   1.000  O
  O63      1.0000 0.72532  0.87214  0.95521  Biso   1.000  O
  O64      1.0000 0.72615  0.87419  0.70496  Biso   1.000  O
  Rh1      1.0000 0.57711  0.26981  0.05656  Biso   1.000  Rh
