data_image0
_cell_length_a       9.9386
_cell_length_b       10.3712
_cell_length_c       4.99614
_cell_angle_alpha    90.3336
_cell_angle_beta     89.4648
_cell_angle_gamma    90.2968

_symmetry_space_group_name_H-M    "P 1"
_symmetry_int_tables_number       1

loop_
  _symmetry_equiv_pos_as_xyz
  'x, y, z'

loop_
  _atom_site_label
  _atom_site_occupancy
  _atom_site_fract_x
  _atom_site_fract_y
  _atom_site_fract_z
  _atom_site_thermal_displace_type
  _atom_site_B_iso_or_equiv
  _atom_site_type_symbol
  Rh1      1.0000 0.12810  0.03396  0.21896  Biso   1.000  Rh
  Hf1      1.0000 0.13354  0.23455  0.74591  Biso   1.000  Hf
  Hf2      1.0000 0.36643  0.26557  0.25171  Biso   1.000  Hf
  Hf3      1.0000 0.36657  0.48444  0.75285  Biso   1.000  Hf
  O1       1.0000 0.03390  0.18437  0.38721  Biso   1.000  O
  O2       1.0000 0.03550  0.06464  0.88827  Biso   1.000  O
  O3       1.0000 0.46416  0.43319  0.38847  Biso   1.000  O
  O4       1.0000 0.46135  0.31459  0.88717  Biso   1.000  O
  O5       1.0000 0.26524  0.11220  0.49518  Biso   1.000  O
  O6       1.0000 0.26707  0.13250  0.99732  Biso   1.000  O
  O7       1.0000 0.22871  0.38240  0.99879  Biso   1.000  O
  O8       1.0000 0.23023  0.36522  0.49880  Biso   1.000  O
  Hf4      1.0000 0.13413  0.51556  0.25271  Biso   1.000  Hf
  Hf5      1.0000 0.13458  0.73408  0.75926  Biso   1.000  Hf
  Hf6      1.0000 0.36573  0.76601  0.25984  Biso   1.000  Hf
  Hf7      1.0000 0.36153  0.97988  0.75534  Biso   1.000  Hf
  O9       1.0000 0.03751  0.68418  0.39132  Biso   1.000  O
  O10      1.0000 0.03443  0.56494  0.89430  Biso   1.000  O
  O11      1.0000 0.46886  0.93198  0.40000  Biso   1.000  O
  O12      1.0000 0.46481  0.81755  0.89920  Biso   1.000  O
  O13      1.0000 0.26927  0.61186  0.50169  Biso   1.000  O
  O14      1.0000 0.27094  0.63352  0.00206  Biso   1.000  O
  O15      1.0000 0.22540  0.88708  0.02605  Biso   1.000  O
  O16      1.0000 0.24259  0.85493  0.52829  Biso   1.000  O
  Hf8      1.0000 0.63193  0.01536  0.24559  Biso   1.000  Hf
  Hf9      1.0000 0.63228  0.23273  0.75029  Biso   1.000  Hf
  Hf10     1.0000 0.86331  0.26651  0.24778  Biso   1.000  Hf
  Hf11     1.0000 0.86516  0.48425  0.75113  Biso   1.000  Hf
  O17      1.0000 0.53456  0.18394  0.38921  Biso   1.000  O
  O18      1.0000 0.53351  0.06693  0.89167  Biso   1.000  O
  O19      1.0000 0.96425  0.43172  0.39059  Biso   1.000  O
  O20      1.0000 0.96263  0.31461  0.88472  Biso   1.000  O
  O21      1.0000 0.76794  0.11703  0.49275  Biso   1.000  O
  O22      1.0000 0.77086  0.13277  0.99178  Biso   1.000  O
  O23      1.0000 0.72854  0.38243  0.99963  Biso   1.000  O
  O24      1.0000 0.72816  0.36765  0.49907  Biso   1.000  O
  Hf12     1.0000 0.63472  0.51793  0.25440  Biso   1.000  Hf
  Hf13     1.0000 0.63466  0.73487  0.75239  Biso   1.000  Hf
  Hf14     1.0000 0.87299  0.76762  0.24476  Biso   1.000  Hf
  Hf15     1.0000 0.86490  0.98517  0.74171  Biso   1.000  Hf
  O25      1.0000 0.53621  0.68344  0.39663  Biso   1.000  O
  O26      1.0000 0.53704  0.56639  0.89144  Biso   1.000  O
  O27      1.0000 0.97724  0.93921  0.38177  Biso   1.000  O
  O28      1.0000 0.96206  0.81744  0.87963  Biso   1.000  O
  O29      1.0000 0.77210  0.61752  0.50001  Biso   1.000  O
  O30      1.0000 0.77052  0.63428  0.00093  Biso   1.000  O
  O31      1.0000 0.73011  0.88403  0.99294  Biso   1.000  O
  O32      1.0000 0.73744  0.86707  0.49211  Biso   1.000  O
