data_image0
_cell_length_a       10.1165
_cell_length_b       10.205
_cell_length_c       5.23366
_cell_angle_alpha    90.0667
_cell_angle_beta     80.7187
_cell_angle_gamma    89.2243

_symmetry_space_group_name_H-M    "P 1"
_symmetry_int_tables_number       1

loop_
  _symmetry_equiv_pos_as_xyz
  'x, y, z'

loop_
  _atom_site_label
  _atom_site_occupancy
  _atom_site_fract_x
  _atom_site_fract_y
  _atom_site_fract_z
  _atom_site_thermal_displace_type
  _atom_site_B_iso_or_equiv
  _atom_site_type_symbol
  Rh1      1.0000 0.12246  0.00967  0.33406  Biso   1.000  Rh
  Hf1      1.0000 0.14517  0.22702  0.78298  Biso   1.000  Hf
  Hf2      1.0000 0.35943  0.26943  0.20024  Biso   1.000  Hf
  Hf3      1.0000 0.36190  0.48036  0.70741  Biso   1.000  Hf
  O1       1.0000 0.04444  0.15028  0.14981  Biso   1.000  O
  O2       1.0000 0.02955  0.08575  0.65110  Biso   1.000  O
  O3       1.0000 0.46488  0.41695  0.34342  Biso   1.000  O
  O4       1.0000 0.47165  0.34069  0.84673  Biso   1.000  O
  O5       1.0000 0.26983  0.12189  0.45122  Biso   1.000  O
  O6       1.0000 0.29781  0.14139  0.92988  Biso   1.000  O
  O7       1.0000 0.22322  0.38325  0.01595  Biso   1.000  O
  O8       1.0000 0.22738  0.36989  0.51761  Biso   1.000  O
  Hf4      1.0000 0.14073  0.52270  0.29427  Biso   1.000  Hf
  Hf5      1.0000 0.13710  0.73097  0.79724  Biso   1.000  Hf
  Hf6      1.0000 0.35804  0.77788  0.20662  Biso   1.000  Hf
  Hf7      1.0000 0.36084  0.98479  0.70504  Biso   1.000  Hf
  O9       1.0000 0.03306  0.66560  0.15833  Biso   1.000  O
  O10      1.0000 0.03575  0.58297  0.66101  Biso   1.000  O
  O11      1.0000 0.46414  0.91905  0.34309  Biso   1.000  O
  O12      1.0000 0.46039  0.83302  0.84086  Biso   1.000  O
  O13      1.0000 0.27532  0.63331  0.48225  Biso   1.000  O
  O14      1.0000 0.27610  0.62560  0.98304  Biso   1.000  O
  O15      1.0000 0.22054  0.89373  0.02355  Biso   1.000  O
  O16      1.0000 0.21524  0.87361  0.52190  Biso   1.000  O
  Hf8      1.0000 0.63792  0.02191  0.29218  Biso   1.000  Hf
  Hf9      1.0000 0.64037  0.23016  0.79336  Biso   1.000  Hf
  Hf10     1.0000 0.86758  0.26658  0.21320  Biso   1.000  Hf
  Hf11     1.0000 0.86408  0.47621  0.71217  Biso   1.000  Hf
  O17      1.0000 0.53679  0.16898  0.15620  Biso   1.000  O
  O18      1.0000 0.53881  0.08254  0.65662  Biso   1.000  O
  O19      1.0000 0.97166  0.41036  0.35267  Biso   1.000  O
  O20      1.0000 0.96943  0.33059  0.85662  Biso   1.000  O
  O21      1.0000 0.77794  0.12690  0.48069  Biso   1.000  O
  O22      1.0000 0.77850  0.11976  0.98310  Biso   1.000  O
  O23      1.0000 0.72875  0.37641  0.02405  Biso   1.000  O
  O24      1.0000 0.72821  0.36979  0.52113  Biso   1.000  O
  Hf12     1.0000 0.63683  0.51950  0.29144  Biso   1.000  Hf
  Hf13     1.0000 0.63532  0.72759  0.79200  Biso   1.000  Hf
  Hf14     1.0000 0.85711  0.76737  0.20892  Biso   1.000  Hf
  Hf15     1.0000 0.85495  0.97577  0.71291  Biso   1.000  Hf
  O25      1.0000 0.53302  0.66842  0.15602  Biso   1.000  O
  O26      1.0000 0.53434  0.58355  0.65368  Biso   1.000  O
  O27      1.0000 0.95893  0.91277  0.34616  Biso   1.000  O
  O28      1.0000 0.96213  0.83272  0.84705  Biso   1.000  O
  O29      1.0000 0.77611  0.62583  0.48160  Biso   1.000  O
  O30      1.0000 0.77502  0.61955  0.98067  Biso   1.000  O
  O31      1.0000 0.71948  0.87783  0.01953  Biso   1.000  O
  O32      1.0000 0.72177  0.86909  0.52041  Biso   1.000  O
