data_image0
_cell_length_a       10.1831
_cell_length_b       5.13592
_cell_length_c       10.5401
_cell_angle_alpha    90.0407
_cell_angle_beta     80.797
_cell_angle_gamma    89.2383

_symmetry_space_group_name_H-M    "P 1"
_symmetry_int_tables_number       1

loop_
  _symmetry_equiv_pos_as_xyz
  'x, y, z'

loop_
  _atom_site_label
  _atom_site_occupancy
  _atom_site_fract_x
  _atom_site_fract_y
  _atom_site_fract_z
  _atom_site_thermal_displace_type
  _atom_site_B_iso_or_equiv
  _atom_site_type_symbol
  Rh1      1.0000 0.12442  0.02222  0.16805  Biso   1.000  Rh
  Zr1      1.0000 0.13834  0.04078  0.64373  Biso   1.000  Zr
  Zr2      1.0000 0.63565  0.03950  0.14358  Biso   1.000  Zr
  Zr3      1.0000 0.63813  0.04369  0.64742  Biso   1.000  Zr
  Zr4      1.0000 0.13741  0.45737  0.39364  Biso   1.000  Zr
  Zr5      1.0000 0.14298  0.45743  0.89343  Biso   1.000  Zr
  Zr6      1.0000 0.63682  0.45444  0.39480  Biso   1.000  Zr
  Zr7      1.0000 0.63865  0.46196  0.89690  Biso   1.000  Zr
  Zr8      1.0000 0.35557  0.54918  0.09977  Biso   1.000  Zr
  Zr9      1.0000 0.36159  0.54624  0.60436  Biso   1.000  Zr
  Zr10     1.0000 0.86529  0.52665  0.10601  Biso   1.000  Zr
  Zr11     1.0000 0.86028  0.54094  0.60696  Biso   1.000  Zr
  Zr12     1.0000 0.36025  0.95927  0.35123  Biso   1.000  Zr
  Zr13     1.0000 0.36116  0.97145  0.85588  Biso   1.000  Zr
  Zr14     1.0000 0.85499  0.95155  0.35763  Biso   1.000  Zr
  Zr15     1.0000 0.86478  0.95410  0.85722  Biso   1.000  Zr
  O1       1.0000 0.04425  0.30515  0.08146  Biso   1.000  O
  O2       1.0000 0.03167  0.32226  0.57243  Biso   1.000  O
  O3       1.0000 0.53346  0.33302  0.07625  Biso   1.000  O
  O4       1.0000 0.53384  0.33187  0.57550  Biso   1.000  O
  O5       1.0000 0.02796  0.17075  0.32700  Biso   1.000  O
  O6       1.0000 0.03501  0.17055  0.82668  Biso   1.000  O
  O7       1.0000 0.53246  0.16696  0.32654  Biso   1.000  O
  O8       1.0000 0.53588  0.17782  0.82474  Biso   1.000  O
  O9       1.0000 0.46506  0.82785  0.17442  Biso   1.000  O
  O10      1.0000 0.46686  0.83317  0.67292  Biso   1.000  O
  O11      1.0000 0.96965  0.81501  0.17494  Biso   1.000  O
  O12      1.0000 0.96882  0.82036  0.67720  Biso   1.000  O
  O13      1.0000 0.46497  0.66960  0.42187  Biso   1.000  O
  O14      1.0000 0.47040  0.68897  0.92553  Biso   1.000  O
  O15      1.0000 0.96523  0.67194  0.42599  Biso   1.000  O
  O16      1.0000 0.96790  0.66287  0.93025  Biso   1.000  O
  O17      1.0000 0.26840  0.25018  0.23138  Biso   1.000  O
  O18      1.0000 0.27367  0.25599  0.73209  Biso   1.000  O
  O19      1.0000 0.77423  0.24634  0.24000  Biso   1.000  O
  O20      1.0000 0.77764  0.25675  0.74096  Biso   1.000  O
  O21      1.0000 0.27560  0.24548  0.48492  Biso   1.000  O
  O22      1.0000 0.29446  0.29038  0.96911  Biso   1.000  O
  O23      1.0000 0.77523  0.24019  0.49071  Biso   1.000  O
  O24      1.0000 0.77734  0.24094  0.99119  Biso   1.000  O
  O25      1.0000 0.22264  0.79695  0.01374  Biso   1.000  O
  O26      1.0000 0.22330  0.75702  0.50768  Biso   1.000  O
  O27      1.0000 0.72748  0.75399  0.01208  Biso   1.000  O
  O28      1.0000 0.72232  0.75376  0.51103  Biso   1.000  O
  O29      1.0000 0.21719  0.74374  0.25868  Biso   1.000  O
  O30      1.0000 0.22687  0.74368  0.76053  Biso   1.000  O
  O31      1.0000 0.72758  0.73418  0.25975  Biso   1.000  O
  O32      1.0000 0.72635  0.74554  0.76178  Biso   1.000  O
