data_image0
_cell_length_a       10.2691
_cell_length_b       10.3663
_cell_length_c       5.29498
_cell_angle_alpha    90.2441
_cell_angle_beta     79.6738
_cell_angle_gamma    90.2043

_symmetry_space_group_name_H-M    "P 1"
_symmetry_int_tables_number       1

loop_
  _symmetry_equiv_pos_as_xyz
  'x, y, z'

loop_
  _atom_site_label
  _atom_site_occupancy
  _atom_site_fract_x
  _atom_site_fract_y
  _atom_site_fract_z
  _atom_site_thermal_displace_type
  _atom_site_B_iso_or_equiv
  _atom_site_type_symbol
  Zr1      1.0000 0.13450  0.02039  0.29618  Biso   1.000  Zr
  Zr2      1.0000 0.13936  0.23074  0.78471  Biso   1.000  Zr
  Zr3      1.0000 0.35570  0.27307  0.17972  Biso   1.000  Zr
  Zr4      1.0000 0.35309  0.48393  0.70146  Biso   1.000  Zr
  O1       1.0000 0.03485  0.16892  0.15800  Biso   1.000  O
  O2       1.0000 0.03265  0.08366  0.65624  Biso   1.000  O
  O3       1.0000 0.46734  0.40416  0.36588  Biso   1.000  O
  O4       1.0000 0.48478  0.36415  0.87877  Biso   1.000  O
  O5       1.0000 0.27820  0.12930  0.47955  Biso   1.000  O
  O6       1.0000 0.26608  0.11460  0.98698  Biso   1.000  O
  O7       1.0000 0.21978  0.38262  0.00621  Biso   1.000  O
  O8       1.0000 0.21428  0.37595  0.49886  Biso   1.000  O
  Zr5      1.0000 0.13574  0.52398  0.28892  Biso   1.000  Zr
  Zr6      1.0000 0.13436  0.73045  0.79643  Biso   1.000  Zr
  Zr7      1.0000 0.35983  0.77043  0.21188  Biso   1.000  Zr
  Zr8      1.0000 0.35972  0.97228  0.71686  Biso   1.000  Zr
  O9       1.0000 0.02810  0.66839  0.15657  Biso   1.000  O
  O10      1.0000 0.03168  0.58709  0.65515  Biso   1.000  O
  O11      1.0000 0.46494  0.91413  0.35003  Biso   1.000  O
  O12      1.0000 0.46299  0.82982  0.85171  Biso   1.000  O
  O13      1.0000 0.27250  0.62951  0.48274  Biso   1.000  O
  O14      1.0000 0.26971  0.62372  0.98465  Biso   1.000  O
  O15      1.0000 0.22262  0.87591  0.02619  Biso   1.000  O
  O16      1.0000 0.22224  0.87123  0.52421  Biso   1.000  O
  Zr9      1.0000 0.63719  0.02097  0.29447  Biso   1.000  Zr
  Zr10     1.0000 0.64942  0.23222  0.80699  Biso   1.000  Zr
  Zr11     1.0000 0.86434  0.27185  0.21707  Biso   1.000  Zr
  Zr12     1.0000 0.86259  0.47942  0.71372  Biso   1.000  Zr
  O17      1.0000 0.52909  0.16163  0.14660  Biso   1.000  O
  O18      1.0000 0.54255  0.06605  0.67749  Biso   1.000  O
  O19      1.0000 0.96426  0.42044  0.34336  Biso   1.000  O
  O20      1.0000 0.96543  0.33345  0.84276  Biso   1.000  O
  O21      1.0000 0.77532  0.12978  0.48619  Biso   1.000  O
  O22      1.0000 0.77800  0.11964  0.99077  Biso   1.000  O
  O23      1.0000 0.72888  0.37750  0.03201  Biso   1.000  O
  O24      1.0000 0.72796  0.37397  0.52914  Biso   1.000  O
  Zr13     1.0000 0.63776  0.52127  0.29653  Biso   1.000  Zr
  Zr14     1.0000 0.63570  0.72610  0.79247  Biso   1.000  Zr
  Zr15     1.0000 0.85710  0.77205  0.21085  Biso   1.000  Zr
  Zr16     1.0000 0.85854  0.97839  0.71158  Biso   1.000  Zr
  O25      1.0000 0.52878  0.65830  0.14992  Biso   1.000  O
  O26      1.0000 0.52729  0.59126  0.64224  Biso   1.000  O
  O27      1.0000 0.96284  0.91726  0.34486  Biso   1.000  O
  O28      1.0000 0.96267  0.83549  0.84682  Biso   1.000  O
  O29      1.0000 0.77222  0.62817  0.48235  Biso   1.000  O
  O30      1.0000 0.77178  0.62150  0.98263  Biso   1.000  O
  O31      1.0000 0.72061  0.87821  0.02357  Biso   1.000  O
  O32      1.0000 0.72325  0.87054  0.52196  Biso   1.000  O
  Rh1      1.0000 0.43271  0.23622  0.62574  Biso   1.000  Rh
