data_image0
_cell_length_a       10.0868
_cell_length_b       5.13083
_cell_length_c       10.4943
_cell_angle_alpha    90.0598
_cell_angle_beta     90.5912
_cell_angle_gamma    89.3435

_symmetry_space_group_name_H-M    "P 1"
_symmetry_int_tables_number       1

loop_
  _symmetry_equiv_pos_as_xyz
  'x, y, z'

loop_
  _atom_site_label
  _atom_site_occupancy
  _atom_site_fract_x
  _atom_site_fract_y
  _atom_site_fract_z
  _atom_site_thermal_displace_type
  _atom_site_B_iso_or_equiv
  _atom_site_type_symbol
  Rh1      1.0000 0.12387  0.02409  0.19045  Biso   1.000  Rh
  Zr1      1.0000 0.13825  0.04153  0.66966  Biso   1.000  Zr
  Zr2      1.0000 0.13758  0.45974  0.41890  Biso   1.000  Zr
  Zr3      1.0000 0.14455  0.45953  0.92121  Biso   1.000  Zr
  Zr4      1.0000 0.35587  0.55148  0.16571  Biso   1.000  Zr
  Zr5      1.0000 0.36156  0.54518  0.67067  Biso   1.000  Zr
  Zr6      1.0000 0.35913  0.96181  0.41867  Biso   1.000  Zr
  Zr7      1.0000 0.36042  0.96653  0.92253  Biso   1.000  Zr
  Zr8      1.0000 0.63903  0.04100  0.07756  Biso   1.000  Zr
  Zr9      1.0000 0.63698  0.04115  0.58072  Biso   1.000  Zr
  Zr10     1.0000 0.63441  0.45555  0.32750  Biso   1.000  Zr
  Zr11     1.0000 0.63969  0.45984  0.83017  Biso   1.000  Zr
  Zr12     1.0000 0.86614  0.52840  0.08178  Biso   1.000  Zr
  Zr13     1.0000 0.85952  0.53906  0.58110  Biso   1.000  Zr
  Zr14     1.0000 0.85429  0.95322  0.33245  Biso   1.000  Zr
  Zr15     1.0000 0.86504  0.95435  0.83219  Biso   1.000  Zr
  O1       1.0000 0.04552  0.31112  0.09091  Biso   1.000  O
  O2       1.0000 0.03074  0.32315  0.57923  Biso   1.000  O
  O3       1.0000 0.02866  0.16805  0.33481  Biso   1.000  O
  O4       1.0000 0.03459  0.17234  0.83394  Biso   1.000  O
  O5       1.0000 0.46823  0.83590  0.08357  Biso   1.000  O
  O6       1.0000 0.46452  0.83913  0.58409  Biso   1.000  O
  O7       1.0000 0.46001  0.66043  0.33583  Biso   1.000  O
  O8       1.0000 0.46849  0.67170  0.83265  Biso   1.000  O
  O9       1.0000 0.26992  0.24253  0.28368  Biso   1.000  O
  O10      1.0000 0.27535  0.24606  0.78677  Biso   1.000  O
  O11      1.0000 0.29956  0.30306  0.02451  Biso   1.000  O
  O12      1.0000 0.27507  0.25504  0.53948  Biso   1.000  O
  O13      1.0000 0.21545  0.75031  0.29384  Biso   1.000  O
  O14      1.0000 0.22558  0.74811  0.79626  Biso   1.000  O
  O15      1.0000 0.21833  0.79090  0.04878  Biso   1.000  O
  O16      1.0000 0.22300  0.75260  0.54337  Biso   1.000  O
  O17      1.0000 0.53446  0.33906  0.16298  Biso   1.000  O
  O18      1.0000 0.53463  0.33895  0.66304  Biso   1.000  O
  O19      1.0000 0.53217  0.16162  0.41253  Biso   1.000  O
  O20      1.0000 0.53872  0.16192  0.91164  Biso   1.000  O
  O21      1.0000 0.96886  0.82067  0.16919  Biso   1.000  O
  O22      1.0000 0.96926  0.82082  0.67097  Biso   1.000  O
  O23      1.0000 0.96472  0.67010  0.41893  Biso   1.000  O
  O24      1.0000 0.96958  0.66395  0.92426  Biso   1.000  O
  O25      1.0000 0.78018  0.24488  0.95739  Biso   1.000  O
  O26      1.0000 0.77363  0.24514  0.45612  Biso   1.000  O
  O27      1.0000 0.77614  0.24425  0.20597  Biso   1.000  O
  O28      1.0000 0.77696  0.24978  0.70667  Biso   1.000  O
  O29      1.0000 0.72770  0.74360  0.95739  Biso   1.000  O
  O30      1.0000 0.72086  0.74460  0.45662  Biso   1.000  O
  O31      1.0000 0.72722  0.74506  0.20640  Biso   1.000  O
  O32      1.0000 0.72554  0.75274  0.70690  Biso   1.000  O
