data_image0
_cell_length_a       10.2493
_cell_length_b       5.20086
_cell_length_c       10.588
_cell_angle_alpha    90.1655
_cell_angle_beta     79.9466
_cell_angle_gamma    90.2865

_symmetry_space_group_name_H-M    "P 1"
_symmetry_int_tables_number       1

loop_
  _symmetry_equiv_pos_as_xyz
  'x, y, z'

loop_
  _atom_site_label
  _atom_site_occupancy
  _atom_site_fract_x
  _atom_site_fract_y
  _atom_site_fract_z
  _atom_site_thermal_displace_type
  _atom_site_B_iso_or_equiv
  _atom_site_type_symbol
  Zr1      1.0000 0.13509  0.04666  0.14395  Biso   1.000  Zr
  Zr2      1.0000 0.13561  0.46219  0.39616  Biso   1.000  Zr
  Zr3      1.0000 0.35700  0.54833  0.09822  Biso   1.000  Zr
  Zr4      1.0000 0.35515  0.93766  0.35438  Biso   1.000  Zr
  O1       1.0000 0.03221  0.34132  0.07714  Biso   1.000  O
  O2       1.0000 0.03229  0.17377  0.32562  Biso   1.000  O
  O3       1.0000 0.46442  0.83303  0.17322  Biso   1.000  O
  O4       1.0000 0.48194  0.70137  0.43891  Biso   1.000  O
  O5       1.0000 0.27665  0.25471  0.23807  Biso   1.000  O
  O6       1.0000 0.26966  0.23306  0.49122  Biso   1.000  O
  O7       1.0000 0.22198  0.76453  0.00646  Biso   1.000  O
  O8       1.0000 0.20988  0.75273  0.25462  Biso   1.000  O
  Zr5      1.0000 0.13555  0.04421  0.64691  Biso   1.000  Zr
  Zr6      1.0000 0.13489  0.46034  0.89508  Biso   1.000  Zr
  Zr7      1.0000 0.36068  0.54521  0.60918  Biso   1.000  Zr
  Zr8      1.0000 0.35919  0.96111  0.85493  Biso   1.000  Zr
  O9       1.0000 0.03162  0.33352  0.57870  Biso   1.000  O
  O10      1.0000 0.03157  0.16885  0.82845  Biso   1.000  O
  O11      1.0000 0.46644  0.82675  0.67844  Biso   1.000  O
  O12      1.0000 0.46645  0.67725  0.92386  Biso   1.000  O
  O13      1.0000 0.27340  0.25831  0.74070  Biso   1.000  O
  O14      1.0000 0.27184  0.24887  0.98861  Biso   1.000  O
  O15      1.0000 0.22297  0.75239  0.51484  Biso   1.000  O
  O16      1.0000 0.22358  0.74490  0.76035  Biso   1.000  O
  Zr9      1.0000 0.63897  0.04345  0.14594  Biso   1.000  Zr
  Zr10     1.0000 0.64751  0.45581  0.40003  Biso   1.000  Zr
  Zr11     1.0000 0.85971  0.54546  0.10504  Biso   1.000  Zr
  Zr12     1.0000 0.86163  0.95815  0.35446  Biso   1.000  Zr
  O17      1.0000 0.52962  0.32444  0.07378  Biso   1.000  O
  O18      1.0000 0.54703  0.13127  0.33434  Biso   1.000  O
  O19      1.0000 0.96331  0.84092  0.16948  Biso   1.000  O
  O20      1.0000 0.96512  0.67381  0.42424  Biso   1.000  O
  O21      1.0000 0.77751  0.25879  0.23940  Biso   1.000  O
  O22      1.0000 0.77781  0.24000  0.49268  Biso   1.000  O
  O23      1.0000 0.72273  0.75883  0.01199  Biso   1.000  O
  O24      1.0000 0.72735  0.74063  0.26099  Biso   1.000  O
  Zr13     1.0000 0.63757  0.04359  0.64665  Biso   1.000  Zr
  Zr14     1.0000 0.63662  0.45703  0.89673  Biso   1.000  Zr
  Zr15     1.0000 0.86106  0.54498  0.60758  Biso   1.000  Zr
  Zr16     1.0000 0.85855  0.95853  0.85639  Biso   1.000  Zr
  O25      1.0000 0.53239  0.32734  0.57778  Biso   1.000  O
  O26      1.0000 0.53080  0.17558  0.82572  Biso   1.000  O
  O27      1.0000 0.96442  0.83426  0.67426  Biso   1.000  O
  O28      1.0000 0.96316  0.66925  0.92116  Biso   1.000  O
  O29      1.0000 0.77321  0.25831  0.74168  Biso   1.000  O
  O30      1.0000 0.77333  0.24573  0.99074  Biso   1.000  O
  O31      1.0000 0.72677  0.75535  0.51326  Biso   1.000  O
  O32      1.0000 0.72333  0.74488  0.76229  Biso   1.000  O
  Rh1      1.0000 0.41178  0.44275  0.33038  Biso   1.000  Rh
