data_image0
_cell_length_a       5.09034
_cell_length_b       10.2775
_cell_length_c       10.5254
_cell_angle_alpha    90.0546
_cell_angle_beta     80.8407
_cell_angle_gamma    89.308

_symmetry_space_group_name_H-M    "P 1"
_symmetry_int_tables_number       1

loop_
  _symmetry_equiv_pos_as_xyz
  'x, y, z'

loop_
  _atom_site_label
  _atom_site_occupancy
  _atom_site_fract_x
  _atom_site_fract_y
  _atom_site_fract_z
  _atom_site_thermal_displace_type
  _atom_site_B_iso_or_equiv
  _atom_site_type_symbol
  Rh1      1.0000 0.24552  0.01027  0.16786  Biso   1.000  Rh
  Zr1      1.0000 0.27412  0.02136  0.64382  Biso   1.000  Zr
  Zr2      1.0000 0.27431  0.52133  0.14405  Biso   1.000  Zr
  Zr3      1.0000 0.28006  0.52093  0.64777  Biso   1.000  Zr
  Zr4      1.0000 0.27778  0.23040  0.39155  Biso   1.000  Zr
  Zr5      1.0000 0.29046  0.22588  0.89572  Biso   1.000  Zr
  Zr6      1.0000 0.27085  0.72570  0.39692  Biso   1.000  Zr
  Zr7      1.0000 0.27398  0.73344  0.89632  Biso   1.000  Zr
  Zr8      1.0000 0.73062  0.26429  0.10341  Biso   1.000  Zr
  Zr9      1.0000 0.72387  0.27220  0.60442  Biso   1.000  Zr
  Zr10     1.0000 0.71057  0.77391  0.10224  Biso   1.000  Zr
  Zr11     1.0000 0.71984  0.77114  0.60699  Biso   1.000  Zr
  Zr12     1.0000 0.72184  0.47856  0.35353  Biso   1.000  Zr
  Zr13     1.0000 0.72969  0.47813  0.85772  Biso   1.000  Zr
  Zr14     1.0000 0.70849  0.97667  0.35537  Biso   1.000  Zr
  Zr15     1.0000 0.72348  0.98431  0.85490  Biso   1.000  Zr
  O1       1.0000 0.09134  0.15397  0.08149  Biso   1.000  O
  O2       1.0000 0.06775  0.16466  0.57206  Biso   1.000  O
  O3       1.0000 0.06469  0.66838  0.07841  Biso   1.000  O
  O4       1.0000 0.06615  0.66464  0.57795  Biso   1.000  O
  O5       1.0000 0.05430  0.08635  0.32625  Biso   1.000  O
  O6       1.0000 0.07634  0.08429  0.82529  Biso   1.000  O
  O7       1.0000 0.06841  0.58112  0.32839  Biso   1.000  O
  O8       1.0000 0.06988  0.58688  0.82839  Biso   1.000  O
  O9       1.0000 0.93711  0.41300  0.17389  Biso   1.000  O
  O10      1.0000 0.93813  0.41313  0.67636  Biso   1.000  O
  O11      1.0000 0.92601  0.91340  0.17304  Biso   1.000  O
  O12      1.0000 0.93102  0.91616  0.67143  Biso   1.000  O
  O13      1.0000 0.93278  0.33535  0.42366  Biso   1.000  O
  O14      1.0000 0.95124  0.33819  0.93013  Biso   1.000  O
  O15      1.0000 0.92591  0.83314  0.42195  Biso   1.000  O
  O16      1.0000 0.92075  0.83354  0.92264  Biso   1.000  O
  O17      1.0000 0.53905  0.11798  0.23063  Biso   1.000  O
  O18      1.0000 0.55182  0.12780  0.73238  Biso   1.000  O
  O19      1.0000 0.54813  0.62954  0.24044  Biso   1.000  O
  O20      1.0000 0.55218  0.62871  0.74153  Biso   1.000  O
  O21      1.0000 0.55205  0.12220  0.48438  Biso   1.000  O
  O22      1.0000 0.59569  0.13865  0.97121  Biso   1.000  O
  O23      1.0000 0.55070  0.62049  0.49149  Biso   1.000  O
  O24      1.0000 0.54922  0.62602  0.99031  Biso   1.000  O
  O25      1.0000 0.45915  0.38160  0.01110  Biso   1.000  O
  O26      1.0000 0.44714  0.37801  0.50922  Biso   1.000  O
  O27      1.0000 0.43987  0.89441  0.01405  Biso   1.000  O
  O28      1.0000 0.44408  0.87763  0.50918  Biso   1.000  O
  O29      1.0000 0.45701  0.36725  0.25848  Biso   1.000  O
  O30      1.0000 0.45705  0.37158  0.76130  Biso   1.000  O
  O31      1.0000 0.43099  0.87129  0.25979  Biso   1.000  O
  O32      1.0000 0.44859  0.87208  0.76061  Biso   1.000  O
