data_image0
_cell_length_a       10.1398
_cell_length_b       5.16739
_cell_length_c       10.6135
_cell_angle_alpha    89.8884
_cell_angle_beta     90.6065
_cell_angle_gamma    90.1912

_symmetry_space_group_name_H-M    "P 1"
_symmetry_int_tables_number       1

loop_
  _symmetry_equiv_pos_as_xyz
  'x, y, z'

loop_
  _atom_site_label
  _atom_site_occupancy
  _atom_site_fract_x
  _atom_site_fract_y
  _atom_site_fract_z
  _atom_site_thermal_displace_type
  _atom_site_B_iso_or_equiv
  _atom_site_type_symbol
  Zr1      1.0000 0.13654  0.04102  0.17222  Biso   1.000  Zr
  Zr2      1.0000 0.13988  0.45518  0.42469  Biso   1.000  Zr
  Zr3      1.0000 0.35276  0.54135  0.17923  Biso   1.000  Zr
  Zr4      1.0000 0.36356  0.95679  0.42360  Biso   1.000  Zr
  Zr5      1.0000 0.64541  0.04764  0.08035  Biso   1.000  Zr
  Zr6      1.0000 0.64045  0.45866  0.33027  Biso   1.000  Zr
  Zr7      1.0000 0.86028  0.53625  0.07961  Biso   1.000  Zr
  Zr8      1.0000 0.86487  0.95775  0.33204  Biso   1.000  Zr
  O1       1.0000 0.03081  0.32327  0.08166  Biso   1.000  O
  O2       1.0000 0.03255  0.17597  0.33155  Biso   1.000  O
  O3       1.0000 0.45775  0.86427  0.09263  Biso   1.000  O
  O4       1.0000 0.47044  0.67850  0.33049  Biso   1.000  O
  O5       1.0000 0.27237  0.25124  0.29875  Biso   1.000  O
  O6       1.0000 0.27142  0.24994  0.04653  Biso   1.000  O
  O7       1.0000 0.22339  0.75201  0.29968  Biso   1.000  O
  O8       1.0000 0.22274  0.75002  0.04651  Biso   1.000  O
  O9       1.0000 0.51784  0.29525  0.18697  Biso   1.000  O
  O10      1.0000 0.53124  0.18107  0.42455  Biso   1.000  O
  O11      1.0000 0.96917  0.82338  0.16994  Biso   1.000  O
  O12      1.0000 0.97120  0.67242  0.42107  Biso   1.000  O
  O13      1.0000 0.77603  0.24846  0.45445  Biso   1.000  O
  O14      1.0000 0.77743  0.25075  0.20870  Biso   1.000  O
  O15      1.0000 0.72758  0.74783  0.45718  Biso   1.000  O
  O16      1.0000 0.73244  0.75799  0.21181  Biso   1.000  O
  Zr9      1.0000 0.14238  0.04089  0.67254  Biso   1.000  Zr
  Zr10     1.0000 0.13859  0.45686  0.92326  Biso   1.000  Zr
  Zr11     1.0000 0.36389  0.54404  0.67427  Biso   1.000  Zr
  Zr12     1.0000 0.36023  0.96071  0.92367  Biso   1.000  Zr
  Zr13     1.0000 0.64097  0.03885  0.57687  Biso   1.000  Zr
  Zr14     1.0000 0.64487  0.45192  0.81856  Biso   1.000  Zr
  Zr15     1.0000 0.86544  0.54067  0.57835  Biso   1.000  Zr
  Zr16     1.0000 0.86698  0.95432  0.82772  Biso   1.000  Zr
  O17      1.0000 0.03380  0.32127  0.58175  Biso   1.000  O
  O18      1.0000 0.03559  0.17147  0.83018  Biso   1.000  O
  O19      1.0000 0.47341  0.81430  0.57716  Biso   1.000  O
  O20      1.0000 0.47480  0.69192  0.82434  Biso   1.000  O
  O21      1.0000 0.27797  0.24918  0.79760  Biso   1.000  O
  O22      1.0000 0.27710  0.24852  0.54728  Biso   1.000  O
  O23      1.0000 0.22701  0.74647  0.79781  Biso   1.000  O
  O24      1.0000 0.22828  0.74993  0.54824  Biso   1.000  O
  O25      1.0000 0.53052  0.31307  0.67178  Biso   1.000  O
  O26      1.0000 0.53246  0.18376  0.92399  Biso   1.000  O
  O27      1.0000 0.97359  0.82234  0.66871  Biso   1.000  O
  O28      1.0000 0.96783  0.67097  0.91999  Biso   1.000  O
  O29      1.0000 0.78699  0.23747  0.94751  Biso   1.000  O
  O30      1.0000 0.77894  0.24450  0.70009  Biso   1.000  O
  O31      1.0000 0.72223  0.74675  0.95472  Biso   1.000  O
  O32      1.0000 0.73073  0.74620  0.70350  Biso   1.000  O
  Rh1      1.0000 0.57595  0.53700  0.05090  Biso   1.000  Rh
