data_image0
_cell_length_a       10.1879
_cell_length_b       10.2742
_cell_length_c       5.26113
_cell_angle_alpha    90.0715
_cell_angle_beta     80.7766
_cell_angle_gamma    89.173

_symmetry_space_group_name_H-M    "P 1"
_symmetry_int_tables_number       1

loop_
  _symmetry_equiv_pos_as_xyz
  'x, y, z'

loop_
  _atom_site_label
  _atom_site_occupancy
  _atom_site_fract_x
  _atom_site_fract_y
  _atom_site_fract_z
  _atom_site_thermal_displace_type
  _atom_site_B_iso_or_equiv
  _atom_site_type_symbol
  Rh1      1.0000 0.12248  0.00930  0.33410  Biso   1.000  Rh
  Zr1      1.0000 0.14066  0.52283  0.29337  Biso   1.000  Zr
  Zr2      1.0000 0.63787  0.02201  0.29116  Biso   1.000  Zr
  Zr3      1.0000 0.63688  0.51948  0.29044  Biso   1.000  Zr
  Zr4      1.0000 0.14500  0.22706  0.78112  Biso   1.000  Zr
  Zr5      1.0000 0.13671  0.73115  0.79617  Biso   1.000  Zr
  Zr6      1.0000 0.64057  0.23030  0.79229  Biso   1.000  Zr
  Zr7      1.0000 0.63506  0.72763  0.79150  Biso   1.000  Zr
  Zr8      1.0000 0.35949  0.26967  0.20116  Biso   1.000  Zr
  Zr9      1.0000 0.35756  0.77833  0.20769  Biso   1.000  Zr
  Zr10     1.0000 0.86837  0.26609  0.21467  Biso   1.000  Zr
  Zr11     1.0000 0.85723  0.76762  0.21056  Biso   1.000  Zr
  Zr12     1.0000 0.36201  0.48061  0.70856  Biso   1.000  Zr
  Zr13     1.0000 0.36067  0.98521  0.70586  Biso   1.000  Zr
  Zr14     1.0000 0.86406  0.47619  0.71357  Biso   1.000  Zr
  Zr15     1.0000 0.85500  0.97558  0.71370  Biso   1.000  Zr
  O1       1.0000 0.04492  0.14805  0.14904  Biso   1.000  O
  O2       1.0000 0.03216  0.66444  0.15706  Biso   1.000  O
  O3       1.0000 0.53631  0.16833  0.15504  Biso   1.000  O
  O4       1.0000 0.53207  0.66789  0.15547  Biso   1.000  O
  O5       1.0000 0.02980  0.08534  0.64863  Biso   1.000  O
  O6       1.0000 0.03503  0.58354  0.66021  Biso   1.000  O
  O7       1.0000 0.53830  0.08333  0.65574  Biso   1.000  O
  O8       1.0000 0.53369  0.58430  0.65302  Biso   1.000  O
  O9       1.0000 0.46586  0.41615  0.34481  Biso   1.000  O
  O10      1.0000 0.46430  0.91857  0.34407  Biso   1.000  O
  O11      1.0000 0.97274  0.40890  0.35472  Biso   1.000  O
  O12      1.0000 0.96053  0.91180  0.34541  Biso   1.000  O
  O13      1.0000 0.47252  0.34158  0.84801  Biso   1.000  O
  O14      1.0000 0.45999  0.83343  0.84158  Biso   1.000  O
  O15      1.0000 0.97027  0.33092  0.85864  Biso   1.000  O
  O16      1.0000 0.96216  0.83281  0.84750  Biso   1.000  O
  O17      1.0000 0.26858  0.12127  0.44824  Biso   1.000  O
  O18      1.0000 0.27442  0.63330  0.48239  Biso   1.000  O
  O19      1.0000 0.77746  0.12651  0.48048  Biso   1.000  O
  O20      1.0000 0.77521  0.62560  0.48211  Biso   1.000  O
  O21      1.0000 0.29771  0.14256  0.92717  Biso   1.000  O
  O22      1.0000 0.27514  0.62651  0.98312  Biso   1.000  O
  O23      1.0000 0.77804  0.11979  0.98271  Biso   1.000  O
  O24      1.0000 0.77406  0.61971  0.98108  Biso   1.000  O
  O25      1.0000 0.22427  0.38343  0.01597  Biso   1.000  O
  O26      1.0000 0.22014  0.89508  0.02550  Biso   1.000  O
  O27      1.0000 0.72993  0.37595  0.02434  Biso   1.000  O
  O28      1.0000 0.71985  0.87749  0.01999  Biso   1.000  O
  O29      1.0000 0.22842  0.37027  0.51759  Biso   1.000  O
  O30      1.0000 0.21476  0.87463  0.52217  Biso   1.000  O
  O31      1.0000 0.72936  0.36993  0.52132  Biso   1.000  O
  O32      1.0000 0.72240  0.86955  0.52095  Biso   1.000  O
