data_image0
_cell_length_a       10.0942
_cell_length_b       10.2541
_cell_length_c       5.24867
_cell_angle_alpha    90.0767
_cell_angle_beta     90.5407
_cell_angle_gamma    89.2641

_symmetry_space_group_name_H-M    "P 1"
_symmetry_int_tables_number       1

loop_
  _symmetry_equiv_pos_as_xyz
  'x, y, z'

loop_
  _atom_site_label
  _atom_site_occupancy
  _atom_site_fract_x
  _atom_site_fract_y
  _atom_site_fract_z
  _atom_site_thermal_displace_type
  _atom_site_B_iso_or_equiv
  _atom_site_type_symbol
  Rh1      1.0000 0.12292  0.01019  0.37845  Biso   1.000  Rh
  Zr1      1.0000 0.13963  0.52317  0.34620  Biso   1.000  Zr
  Zr2      1.0000 0.14663  0.22873  0.83538  Biso   1.000  Zr
  Zr3      1.0000 0.13670  0.73161  0.84821  Biso   1.000  Zr
  Zr4      1.0000 0.35987  0.27079  0.33366  Biso   1.000  Zr
  Zr5      1.0000 0.35774  0.77797  0.33954  Biso   1.000  Zr
  Zr6      1.0000 0.36125  0.48018  0.84281  Biso   1.000  Zr
  Zr7      1.0000 0.35919  0.98418  0.84127  Biso   1.000  Zr
  Zr8      1.0000 0.63768  0.02176  0.15606  Biso   1.000  Zr
  Zr9      1.0000 0.63869  0.51942  0.16001  Biso   1.000  Zr
  Zr10     1.0000 0.63911  0.22980  0.65846  Biso   1.000  Zr
  Zr11     1.0000 0.63498  0.72742  0.65684  Biso   1.000  Zr
  Zr12     1.0000 0.86792  0.26560  0.16629  Biso   1.000  Zr
  Zr13     1.0000 0.85762  0.76811  0.15897  Biso   1.000  Zr
  Zr14     1.0000 0.86367  0.47610  0.66474  Biso   1.000  Zr
  Zr15     1.0000 0.85488  0.97634  0.66209  Biso   1.000  Zr
  O1       1.0000 0.04596  0.14937  0.16591  Biso   1.000  O
  O2       1.0000 0.03053  0.66379  0.16860  Biso   1.000  O
  O3       1.0000 0.03072  0.08609  0.66124  Biso   1.000  O
  O4       1.0000 0.03235  0.58507  0.67274  Biso   1.000  O
  O5       1.0000 0.46674  0.41815  0.16877  Biso   1.000  O
  O6       1.0000 0.46655  0.91797  0.16490  Biso   1.000  O
  O7       1.0000 0.46805  0.33438  0.66771  Biso   1.000  O
  O8       1.0000 0.46182  0.83406  0.66682  Biso   1.000  O
  O9       1.0000 0.27128  0.11740  0.55399  Biso   1.000  O
  O10      1.0000 0.27418  0.62747  0.59133  Biso   1.000  O
  O11      1.0000 0.30124  0.14884  0.03948  Biso   1.000  O
  O12      1.0000 0.27572  0.63219  0.09161  Biso   1.000  O
  O13      1.0000 0.22666  0.37422  0.59049  Biso   1.000  O
  O14      1.0000 0.21445  0.87589  0.59131  Biso   1.000  O
  O15      1.0000 0.22112  0.38299  0.08913  Biso   1.000  O
  O16      1.0000 0.21863  0.88949  0.09381  Biso   1.000  O
  O17      1.0000 0.53678  0.16983  0.32572  Biso   1.000  O
  O18      1.0000 0.53106  0.66798  0.32832  Biso   1.000  O
  O19      1.0000 0.53813  0.07969  0.81972  Biso   1.000  O
  O20      1.0000 0.53314  0.58287  0.83053  Biso   1.000  O
  O21      1.0000 0.97246  0.40848  0.34618  Biso   1.000  O
  O22      1.0000 0.96237  0.91242  0.33333  Biso   1.000  O
  O23      1.0000 0.97105  0.33104  0.84859  Biso   1.000  O
  O24      1.0000 0.96388  0.83500  0.83656  Biso   1.000  O
  O25      1.0000 0.77877  0.12212  0.91366  Biso   1.000  O
  O26      1.0000 0.77502  0.62216  0.91259  Biso   1.000  O
  O27      1.0000 0.77798  0.12405  0.41128  Biso   1.000  O
  O28      1.0000 0.77468  0.62334  0.41384  Biso   1.000  O
  O29      1.0000 0.72836  0.37168  0.91663  Biso   1.000  O
  O30      1.0000 0.72076  0.87165  0.91039  Biso   1.000  O
  O31      1.0000 0.72859  0.37388  0.41365  Biso   1.000  O
  O32      1.0000 0.72248  0.87505  0.41216  Biso   1.000  O
