data_image0
_cell_length_a       10.1773
_cell_length_b       10.3203
_cell_length_c       10.5083
_cell_angle_alpha    90.0291
_cell_angle_beta     80.615
_cell_angle_gamma    89.6588

_symmetry_space_group_name_H-M    "P 1"
_symmetry_int_tables_number       1

loop_
  _symmetry_equiv_pos_as_xyz
  'x, y, z'

loop_
  _atom_site_label
  _atom_site_occupancy
  _atom_site_fract_x
  _atom_site_fract_y
  _atom_site_fract_z
  _atom_site_thermal_displace_type
  _atom_site_B_iso_or_equiv
  _atom_site_type_symbol
  Rh1      1.0000 0.12418  0.01107  0.16801  Biso   1.000  Rh
  Zr1      1.0000 0.13754  0.02091  0.64277  Biso   1.000  Zr
  Zr2      1.0000 0.13969  0.52275  0.14509  Biso   1.000  Zr
  Zr3      1.0000 0.13991  0.52132  0.64661  Biso   1.000  Zr
  Zr4      1.0000 0.63796  0.02160  0.14473  Biso   1.000  Zr
  Zr5      1.0000 0.63820  0.02182  0.64646  Biso   1.000  Zr
  Zr6      1.0000 0.63668  0.51976  0.14423  Biso   1.000  Zr
  Zr7      1.0000 0.63886  0.52128  0.64633  Biso   1.000  Zr
  Zr8      1.0000 0.13965  0.23039  0.39213  Biso   1.000  Zr
  Zr9      1.0000 0.14368  0.22442  0.89461  Biso   1.000  Zr
  Zr10     1.0000 0.13689  0.72736  0.39688  Biso   1.000  Zr
  Zr11     1.0000 0.13925  0.73282  0.89591  Biso   1.000  Zr
  Zr12     1.0000 0.63860  0.22881  0.39521  Biso   1.000  Zr
  Zr13     1.0000 0.64049  0.23010  0.89628  Biso   1.000  Zr
  Zr14     1.0000 0.63730  0.72730  0.39514  Biso   1.000  Zr
  Zr15     1.0000 0.63712  0.72923  0.89577  Biso   1.000  Zr
  Zr16     1.0000 0.35902  0.26864  0.10135  Biso   1.000  Zr
  Zr17     1.0000 0.36110  0.27192  0.60367  Biso   1.000  Zr
  Zr18     1.0000 0.35775  0.77645  0.10298  Biso   1.000  Zr
  Zr19     1.0000 0.36131  0.77239  0.60521  Biso   1.000  Zr
  Zr20     1.0000 0.86689  0.26705  0.10703  Biso   1.000  Zr
  Zr21     1.0000 0.86167  0.27156  0.60521  Biso   1.000  Zr
  Zr22     1.0000 0.85918  0.76836  0.10346  Biso   1.000  Zr
  Zr23     1.0000 0.85958  0.77032  0.60621  Biso   1.000  Zr
  Zr24     1.0000 0.36144  0.47906  0.35360  Biso   1.000  Zr
  Zr25     1.0000 0.36138  0.47993  0.85503  Biso   1.000  Zr
  Zr26     1.0000 0.36019  0.97939  0.35265  Biso   1.000  Zr
  Zr27     1.0000 0.36078  0.98362  0.85509  Biso   1.000  Zr
  Zr28     1.0000 0.86067  0.47834  0.35451  Biso   1.000  Zr
  Zr29     1.0000 0.86454  0.47680  0.85700  Biso   1.000  Zr
  Zr30     1.0000 0.85533  0.97634  0.35737  Biso   1.000  Zr
  Zr31     1.0000 0.86165  0.97923  0.85466  Biso   1.000  Zr
  O1       1.0000 0.04478  0.15527  0.08317  Biso   1.000  O
  O2       1.0000 0.03449  0.16614  0.57443  Biso   1.000  O
  O3       1.0000 0.03476  0.66867  0.07986  Biso   1.000  O
  O4       1.0000 0.03393  0.66664  0.57977  Biso   1.000  O
  O5       1.0000 0.53660  0.16931  0.07963  Biso   1.000  O
  O6       1.0000 0.53557  0.16940  0.57915  Biso   1.000  O
  O7       1.0000 0.53375  0.66939  0.07928  Biso   1.000  O
  O8       1.0000 0.53525  0.66862  0.57901  Biso   1.000  O
  O9       1.0000 0.03065  0.08313  0.32889  Biso   1.000  O
  O10      1.0000 0.03503  0.08225  0.82713  Biso   1.000  O
  O11      1.0000 0.03478  0.58107  0.32968  Biso   1.000  O
  O12      1.0000 0.03646  0.58278  0.83103  Biso   1.000  O
  O13      1.0000 0.53408  0.08169  0.32952  Biso   1.000  O
  O14      1.0000 0.53885  0.08177  0.82944  Biso   1.000  O
  O15      1.0000 0.53570  0.57962  0.32970  Biso   1.000  O
  O16      1.0000 0.53434  0.58405  0.82813  Biso   1.000  O
  O17      1.0000 0.46412  0.41820  0.17015  Biso   1.000  O
  O18      1.0000 0.46507  0.41866  0.67055  Biso   1.000  O
  O19      1.0000 0.46382  0.91827  0.17154  Biso   1.000  O
  O20      1.0000 0.46483  0.91982  0.66951  Biso   1.000  O
  O21      1.0000 0.96811  0.41543  0.17205  Biso   1.000  O
  O22      1.0000 0.96765  0.41517  0.67408  Biso   1.000  O
  O23      1.0000 0.96427  0.91443  0.17172  Biso   1.000  O
  O24      1.0000 0.96436  0.91686  0.67078  Biso   1.000  O
  O25      1.0000 0.46482  0.33177  0.42002  Biso   1.000  O
  O26      1.0000 0.47051  0.33819  0.92192  Biso   1.000  O
  O27      1.0000 0.46334  0.83081  0.41913  Biso   1.000  O
  O28      1.0000 0.46175  0.83256  0.92035  Biso   1.000  O
  O29      1.0000 0.96494  0.33237  0.42152  Biso   1.000  O
  O30      1.0000 0.96888  0.32965  0.92697  Biso   1.000  O
  O31      1.0000 0.96340  0.83202  0.42177  Biso   1.000  O
  O32      1.0000 0.96309  0.83113  0.92133  Biso   1.000  O
  O33      1.0000 0.27009  0.12218  0.23228  Biso   1.000  O
  O34      1.0000 0.27441  0.12741  0.73337  Biso   1.000  O
  O35      1.0000 0.27526  0.63178  0.24093  Biso   1.000  O
  O36      1.0000 0.27578  0.62988  0.74055  Biso   1.000  O
  O37      1.0000 0.77565  0.12603  0.24098  Biso   1.000  O
  O38      1.0000 0.77752  0.12963  0.74017  Biso   1.000  O
  O39      1.0000 0.77499  0.62707  0.23999  Biso   1.000  O
  O40      1.0000 0.77631  0.62813  0.74156  Biso   1.000  O
  O41      1.0000 0.27630  0.12270  0.48520  Biso   1.000  O
  O42      1.0000 0.29476  0.13775  0.97167  Biso   1.000  O
  O43      1.0000 0.27573  0.62099  0.49116  Biso   1.000  O
  O44      1.0000 0.27563  0.62565  0.99048  Biso   1.000  O
  O45      1.0000 0.77592  0.12038  0.49079  Biso   1.000  O
  O46      1.0000 0.77796  0.12076  0.99152  Biso   1.000  O
  O47      1.0000 0.77568  0.62065  0.49077  Biso   1.000  O
  O48      1.0000 0.77536  0.62065  0.99047  Biso   1.000  O
  O49      1.0000 0.22451  0.38265  0.00888  Biso   1.000  O
  O50      1.0000 0.22333  0.37900  0.50843  Biso   1.000  O
  O51      1.0000 0.22131  0.89266  0.01277  Biso   1.000  O
  O52      1.0000 0.22388  0.87890  0.50824  Biso   1.000  O
  O53      1.0000 0.72852  0.37732  0.01132  Biso   1.000  O
  O54      1.0000 0.72413  0.37830  0.51003  Biso   1.000  O
  O55      1.0000 0.72250  0.87901  0.00968  Biso   1.000  O
  O56      1.0000 0.72185  0.87783  0.51007  Biso   1.000  O
  O57      1.0000 0.22561  0.37008  0.25849  Biso   1.000  O
  O58      1.0000 0.22608  0.37037  0.75964  Biso   1.000  O
  O59      1.0000 0.21514  0.87253  0.25911  Biso   1.000  O
  O60      1.0000 0.22422  0.87201  0.75956  Biso   1.000  O
  O61      1.0000 0.72649  0.36879  0.25926  Biso   1.000  O
  O62      1.0000 0.72618  0.37228  0.76080  Biso   1.000  O
  O63      1.0000 0.72454  0.86991  0.25943  Biso   1.000  O
  O64      1.0000 0.72389  0.87124  0.76002  Biso   1.000  O
