data_image0
_cell_length_a       10.0095
_cell_length_b       10.4358
_cell_length_c       5.03118
_cell_angle_alpha    90.4117
_cell_angle_beta     89.3172
_cell_angle_gamma    90.3883

_symmetry_space_group_name_H-M    "P 1"
_symmetry_int_tables_number       1

loop_
  _symmetry_equiv_pos_as_xyz
  'x, y, z'

loop_
  _atom_site_label
  _atom_site_occupancy
  _atom_site_fract_x
  _atom_site_fract_y
  _atom_site_fract_z
  _atom_site_thermal_displace_type
  _atom_site_B_iso_or_equiv
  _atom_site_type_symbol
  Rh1      1.0000 0.12727  0.03720  0.21620  Biso   1.000  Rh
  Zr1      1.0000 0.13388  0.51457  0.25254  Biso   1.000  Zr
  Zr2      1.0000 0.63121  0.01416  0.24419  Biso   1.000  Zr
  Zr3      1.0000 0.63439  0.51794  0.25437  Biso   1.000  Zr
  Zr4      1.0000 0.13222  0.23575  0.74486  Biso   1.000  Zr
  Zr5      1.0000 0.13451  0.73465  0.76071  Biso   1.000  Zr
  Zr6      1.0000 0.63182  0.23344  0.75033  Biso   1.000  Zr
  Zr7      1.0000 0.63455  0.73653  0.75193  Biso   1.000  Zr
  Zr8      1.0000 0.36700  0.26465  0.25060  Biso   1.000  Zr
  Zr9      1.0000 0.36595  0.76517  0.26109  Biso   1.000  Zr
  Zr10     1.0000 0.86246  0.26634  0.24661  Biso   1.000  Zr
  Zr11     1.0000 0.87457  0.76723  0.24237  Biso   1.000  Zr
  Zr12     1.0000 0.36692  0.48548  0.75247  Biso   1.000  Zr
  Zr13     1.0000 0.36063  0.98050  0.75742  Biso   1.000  Zr
  Zr14     1.0000 0.86481  0.48576  0.75028  Biso   1.000  Zr
  Zr15     1.0000 0.86561  0.98651  0.73836  Biso   1.000  Zr
  O1       1.0000 0.03274  0.18493  0.38525  Biso   1.000  O
  O2       1.0000 0.03682  0.68410  0.39296  Biso   1.000  O
  O3       1.0000 0.53213  0.18277  0.39366  Biso   1.000  O
  O4       1.0000 0.53473  0.68250  0.40078  Biso   1.000  O
  O5       1.0000 0.03435  0.06479  0.88825  Biso   1.000  O
  O6       1.0000 0.03268  0.56586  0.89753  Biso   1.000  O
  O7       1.0000 0.53118  0.06880  0.89647  Biso   1.000  O
  O8       1.0000 0.53583  0.56792  0.89405  Biso   1.000  O
  O9       1.0000 0.46500  0.43241  0.38990  Biso   1.000  O
  O10      1.0000 0.47096  0.93084  0.40631  Biso   1.000  O
  O11      1.0000 0.96482  0.43134  0.39239  Biso   1.000  O
  O12      1.0000 0.98070  0.94039  0.37950  Biso   1.000  O
  O13      1.0000 0.46230  0.31603  0.88969  Biso   1.000  O
  O14      1.0000 0.46625  0.81943  0.90479  Biso   1.000  O
  O15      1.0000 0.96276  0.31545  0.88489  Biso   1.000  O
  O16      1.0000 0.96247  0.81828  0.87850  Biso   1.000  O
  O17      1.0000 0.26048  0.10817  0.49249  Biso   1.000  O
  O18      1.0000 0.26752  0.60999  0.50139  Biso   1.000  O
  O19      1.0000 0.76625  0.11649  0.49035  Biso   1.000  O
  O20      1.0000 0.77098  0.61715  0.49860  Biso   1.000  O
  O21      1.0000 0.26530  0.13419  0.99522  Biso   1.000  O
  O22      1.0000 0.26995  0.63450  0.00194  Biso   1.000  O
  O23      1.0000 0.76946  0.13396  0.98943  Biso   1.000  O
  O24      1.0000 0.76901  0.63593  0.99959  Biso   1.000  O
  O25      1.0000 0.22927  0.38355  0.99678  Biso   1.000  O
  O26      1.0000 0.22548  0.88928  0.03087  Biso   1.000  O
  O27      1.0000 0.72932  0.38373  0.99849  Biso   1.000  O
  O28      1.0000 0.73144  0.88567  0.98942  Biso   1.000  O
  O29      1.0000 0.23162  0.36341  0.49695  Biso   1.000  O
  O30      1.0000 0.24597  0.85194  0.53363  Biso   1.000  O
  O31      1.0000 0.72854  0.36723  0.49783  Biso   1.000  O
  O32      1.0000 0.73972  0.86646  0.48858  Biso   1.000  O
