data_image0
_cell_length_a       5.03222
_cell_length_b       10.224
_cell_length_c       10.0635
_cell_angle_alpha    89.9969
_cell_angle_beta     88.7228
_cell_angle_gamma    89.9999

_symmetry_space_group_name_H-M    "P 1"
_symmetry_int_tables_number       1

loop_
  _symmetry_equiv_pos_as_xyz
  'x, y, z'

loop_
  _atom_site_label
  _atom_site_occupancy
  _atom_site_fract_x
  _atom_site_fract_y
  _atom_site_fract_z
  _atom_site_thermal_displace_type
  _atom_site_B_iso_or_equiv
  _atom_site_type_symbol
  Rh1      1.0000 0.25011  0.96816  0.12536  Biso   1.000  Rh
  Zr1      1.0000 0.25015  0.99966  0.62537  Biso   1.000  Zr
  Zr2      1.0000 0.25017  0.50534  0.12535  Biso   1.000  Zr
  Zr3      1.0000 0.25017  0.49472  0.62533  Biso   1.000  Zr
  Zr4      1.0000 0.26366  0.24955  0.36956  Biso   1.000  Zr
  Zr5      1.0000 0.23666  0.24957  0.88115  Biso   1.000  Zr
  Zr6      1.0000 0.25568  0.74901  0.38224  Biso   1.000  Zr
  Zr7      1.0000 0.24478  0.74896  0.86843  Biso   1.000  Zr
  Zr8      1.0000 0.75018  0.25579  0.12536  Biso   1.000  Zr
  Zr9      1.0000 0.75015  0.24662  0.62535  Biso   1.000  Zr
  Zr10     1.0000 0.75017  0.75153  0.12534  Biso   1.000  Zr
  Zr11     1.0000 0.75023  0.75015  0.62534  Biso   1.000  Zr
  Zr12     1.0000 0.77337  0.00514  0.37319  Biso   1.000  Zr
  Zr13     1.0000 0.72689  0.00515  0.87753  Biso   1.000  Zr
  Zr14     1.0000 0.75340  0.49677  0.37744  Biso   1.000  Zr
  Zr15     1.0000 0.74694  0.49676  0.87323  Biso   1.000  Zr
  O1       1.0000 0.92647  0.15967  0.97413  Biso   1.000  O
  O2       1.0000 0.00587  0.14490  0.48908  Biso   1.000  O
  O3       1.0000 0.00745  0.65160  0.00139  Biso   1.000  O
  O4       1.0000 0.99986  0.64251  0.50036  Biso   1.000  O
  O5       1.0000 0.05729  0.09590  0.23536  Biso   1.000  O
  O6       1.0000 0.98478  0.10127  0.73788  Biso   1.000  O
  O7       1.0000 0.99013  0.60448  0.24955  Biso   1.000  O
  O8       1.0000 0.00158  0.60329  0.75003  Biso   1.000  O
  O9       1.0000 0.00493  0.35269  0.25187  Biso   1.000  O
  O10      1.0000 0.00019  0.35228  0.75152  Biso   1.000  O
  O11      1.0000 0.01966  0.85151  0.24952  Biso   1.000  O
  O12      1.0000 0.97991  0.85274  0.75765  Biso   1.000  O
  O13      1.0000 0.99925  0.40245  0.00307  Biso   1.000  O
  O14      1.0000 0.99714  0.39364  0.50300  Biso   1.000  O
  O15      1.0000 0.97643  0.90766  0.00665  Biso   1.000  O
  O16      1.0000 0.01441  0.89260  0.50286  Biso   1.000  O
  O17      1.0000 0.57376  0.15964  0.27654  Biso   1.000  O
  O18      1.0000 0.49435  0.14489  0.76161  Biso   1.000  O
  O19      1.0000 0.49280  0.65158  0.24926  Biso   1.000  O
  O20      1.0000 0.50053  0.64250  0.75029  Biso   1.000  O
  O21      1.0000 0.44293  0.09589  0.01533  Biso   1.000  O
  O22      1.0000 0.51545  0.10128  0.51281  Biso   1.000  O
  O23      1.0000 0.51013  0.60448  0.00109  Biso   1.000  O
  O24      1.0000 0.49880  0.60330  0.50064  Biso   1.000  O
  O25      1.0000 0.49541  0.35268  0.99884  Biso   1.000  O
  O26      1.0000 0.50009  0.35228  0.49918  Biso   1.000  O
  O27      1.0000 0.48052  0.85150  0.00121  Biso   1.000  O
  O28      1.0000 0.52049  0.85275  0.49307  Biso   1.000  O
  O29      1.0000 0.50110  0.40244  0.24762  Biso   1.000  O
  O30      1.0000 0.50315  0.39363  0.74769  Biso   1.000  O
  O31      1.0000 0.52369  0.90760  0.24413  Biso   1.000  O
  O32      1.0000 0.48597  0.89258  0.74785  Biso   1.000  O
