data_image0
_cell_length_a       5.13501
_cell_length_b       10.3553
_cell_length_c       10.6164
_cell_angle_alpha    90.1934
_cell_angle_beta     79.723
_cell_angle_gamma    90.2898

_symmetry_space_group_name_H-M    "P 1"
_symmetry_int_tables_number       1

loop_
  _symmetry_equiv_pos_as_xyz
  'x, y, z'

loop_
  _atom_site_label
  _atom_site_occupancy
  _atom_site_fract_x
  _atom_site_fract_y
  _atom_site_fract_z
  _atom_site_thermal_displace_type
  _atom_site_B_iso_or_equiv
  _atom_site_type_symbol
  Zr1      1.0000 0.27281  0.02149  0.14641  Biso   1.000  Zr
  Zr2      1.0000 0.30168  0.23370  0.40099  Biso   1.000  Zr
  Zr3      1.0000 0.71185  0.27401  0.09617  Biso   1.000  Zr
  Zr4      1.0000 0.71404  0.48184  0.35238  Biso   1.000  Zr
  O1       1.0000 0.05808  0.15985  0.07064  Biso   1.000  O
  O2       1.0000 0.09538  0.06688  0.33753  Biso   1.000  O
  O3       1.0000 0.93228  0.41140  0.17668  Biso   1.000  O
  O4       1.0000 0.97061  0.35881  0.43764  Biso   1.000  O
  O5       1.0000 0.56360  0.12837  0.23809  Biso   1.000  O
  O6       1.0000 0.54998  0.11355  0.49664  Biso   1.000  O
  O7       1.0000 0.44197  0.38128  0.00637  Biso   1.000  O
  O8       1.0000 0.42927  0.37884  0.25444  Biso   1.000  O
  Zr5      1.0000 0.27133  0.02089  0.64679  Biso   1.000  Zr
  Zr6      1.0000 0.27126  0.22830  0.89425  Biso   1.000  Zr
  Zr7      1.0000 0.72792  0.27306  0.60761  Biso   1.000  Zr
  Zr8      1.0000 0.71596  0.48062  0.85507  Biso   1.000  Zr
  O9       1.0000 0.06830  0.16626  0.57664  Biso   1.000  O
  O10      1.0000 0.05665  0.08822  0.82374  Biso   1.000  O
  O11      1.0000 0.93545  0.41247  0.68056  Biso   1.000  O
  O12      1.0000 0.93292  0.34029  0.92432  Biso   1.000  O
  O13      1.0000 0.54548  0.12896  0.74175  Biso   1.000  O
  O14      1.0000 0.54280  0.12338  0.98900  Biso   1.000  O
  O15      1.0000 0.45973  0.37874  0.51442  Biso   1.000  O
  O16      1.0000 0.44888  0.37247  0.76020  Biso   1.000  O
  Zr9      1.0000 0.27380  0.52356  0.14582  Biso   1.000  Zr
  Zr10     1.0000 0.27154  0.72659  0.39690  Biso   1.000  Zr
  Zr11     1.0000 0.71786  0.77273  0.10489  Biso   1.000  Zr
  Zr12     1.0000 0.72142  0.97007  0.35893  Biso   1.000  Zr
  O17      1.0000 0.05475  0.66382  0.07438  Biso   1.000  O
  O18      1.0000 0.05589  0.59207  0.32142  Biso   1.000  O
  O19      1.0000 0.93308  0.91430  0.17595  Biso   1.000  O
  O20      1.0000 0.92659  0.83025  0.42698  Biso   1.000  O
  O21      1.0000 0.54626  0.62915  0.24093  Biso   1.000  O
  O22      1.0000 0.53907  0.62130  0.49197  Biso   1.000  O
  O23      1.0000 0.44476  0.88018  0.01246  Biso   1.000  O
  O24      1.0000 0.44956  0.86949  0.26109  Biso   1.000  O
  Zr13     1.0000 0.27318  0.52225  0.64719  Biso   1.000  Zr
  Zr14     1.0000 0.26869  0.72936  0.89731  Biso   1.000  Zr
  Zr15     1.0000 0.71688  0.76983  0.60675  Biso   1.000  Zr
  Zr16     1.0000 0.71663  0.97903  0.85483  Biso   1.000  Zr
  O25      1.0000 0.05598  0.66053  0.57654  Biso   1.000  O
  O26      1.0000 0.05863  0.58957  0.82564  Biso   1.000  O
  O27      1.0000 0.92794  0.91336  0.67466  Biso   1.000  O
  O28      1.0000 0.92984  0.83926  0.92556  Biso   1.000  O
  O29      1.0000 0.54430  0.62818  0.74166  Biso   1.000  O
  O30      1.0000 0.54339  0.62464  0.99100  Biso   1.000  O
  O31      1.0000 0.44388  0.87458  0.51253  Biso   1.000  O
  O32      1.0000 0.44355  0.87218  0.76217  Biso   1.000  O
  Rh1      1.0000 0.84691  0.23010  0.31909  Biso   1.000  Rh
