data_image0
_cell_length_a       10.1528
_cell_length_b       10.2628
_cell_length_c       10.531
_cell_angle_alpha    89.9137
_cell_angle_beta     79.9613
_cell_angle_gamma    90.3777

_symmetry_space_group_name_H-M    "P 1"
_symmetry_int_tables_number       1

loop_
  _symmetry_equiv_pos_as_xyz
  'x, y, z'

loop_
  _atom_site_label
  _atom_site_occupancy
  _atom_site_fract_x
  _atom_site_fract_y
  _atom_site_fract_z
  _atom_site_thermal_displace_type
  _atom_site_B_iso_or_equiv
  _atom_site_type_symbol
  Hf1      1.0000 0.13666  0.02200  0.14639  Biso   1.000  Hf
  Hf2      1.0000 0.14036  0.23488  0.39402  Biso   1.000  Hf
  Hf3      1.0000 0.35629  0.27045  0.09616  Biso   1.000  Hf
  Hf4      1.0000 0.35038  0.48166  0.35460  Biso   1.000  Hf
  O1       1.0000 0.03508  0.16803  0.07684  Biso   1.000  O
  O2       1.0000 0.03612  0.08569  0.32610  Biso   1.000  O
  O3       1.0000 0.47286  0.38736  0.19434  Biso   1.000  O
  O4       1.0000 0.48423  0.36281  0.44205  Biso   1.000  O
  O5       1.0000 0.28176  0.12654  0.23712  Biso   1.000  O
  O6       1.0000 0.28971  0.12463  0.48019  Biso   1.000  O
  O7       1.0000 0.22203  0.38078  0.00462  Biso   1.000  O
  O8       1.0000 0.20778  0.37875  0.25023  Biso   1.000  O
  Hf5      1.0000 0.13755  0.02146  0.64596  Biso   1.000  Hf
  Hf6      1.0000 0.13622  0.22889  0.89343  Biso   1.000  Hf
  Hf7      1.0000 0.36151  0.27705  0.60589  Biso   1.000  Hf
  Hf8      1.0000 0.35982  0.48042  0.85466  Biso   1.000  Hf
  O9       1.0000 0.03989  0.16754  0.57606  Biso   1.000  O
  O10      1.0000 0.03291  0.08314  0.82643  Biso   1.000  O
  O11      1.0000 0.46853  0.41186  0.68238  Biso   1.000  O
  O12      1.0000 0.47021  0.34332  0.92940  Biso   1.000  O
  O13      1.0000 0.27488  0.12929  0.73770  Biso   1.000  O
  O14      1.0000 0.27391  0.12213  0.98635  Biso   1.000  O
  O15      1.0000 0.21911  0.38310  0.51540  Biso   1.000  O
  O16      1.0000 0.22365  0.37267  0.75940  Biso   1.000  O
  Hf9      1.0000 0.13647  0.52337  0.14287  Biso   1.000  Hf
  Hf10     1.0000 0.13496  0.72956  0.39669  Biso   1.000  Hf
  Hf11     1.0000 0.35985  0.77075  0.10312  Biso   1.000  Hf
  Hf12     1.0000 0.36478  0.96810  0.35439  Biso   1.000  Hf
  O17      1.0000 0.03164  0.67038  0.07752  Biso   1.000  O
  O18      1.0000 0.03159  0.58825  0.32530  Biso   1.000  O
  O19      1.0000 0.46801  0.90998  0.17447  Biso   1.000  O
  O20      1.0000 0.46374  0.82635  0.42481  Biso   1.000  O
  O21      1.0000 0.27449  0.62878  0.23994  Biso   1.000  O
  O22      1.0000 0.26998  0.62442  0.49283  Biso   1.000  O
  O23      1.0000 0.22373  0.87974  0.01040  Biso   1.000  O
  O24      1.0000 0.22284  0.86988  0.25948  Biso   1.000  O
  Hf13     1.0000 0.13561  0.52487  0.64796  Biso   1.000  Hf
  Hf14     1.0000 0.13597  0.73050  0.89683  Biso   1.000  Hf
  Hf15     1.0000 0.36092  0.76969  0.60560  Biso   1.000  Hf
  Hf16     1.0000 0.36100  0.97851  0.85318  Biso   1.000  Hf
  O25      1.0000 0.02963  0.66709  0.57802  Biso   1.000  O
  O26      1.0000 0.03191  0.58510  0.82983  Biso   1.000  O
  O27      1.0000 0.46578  0.91432  0.67312  Biso   1.000  O
  O28      1.0000 0.46653  0.83659  0.92440  Biso   1.000  O
  O29      1.0000 0.27481  0.62906  0.74159  Biso   1.000  O
  O30      1.0000 0.27364  0.62353  0.98960  Biso   1.000  O
  O31      1.0000 0.22409  0.88080  0.51096  Biso   1.000  O
  O32      1.0000 0.22264  0.87197  0.76038  Biso   1.000  O
  Hf17     1.0000 0.63961  0.02049  0.14585  Biso   1.000  Hf
  Hf18     1.0000 0.64424  0.22964  0.40095  Biso   1.000  Hf
  Hf19     1.0000 0.86129  0.27234  0.10495  Biso   1.000  Hf
  Hf20     1.0000 0.86186  0.47881  0.35475  Biso   1.000  Hf
  O33      1.0000 0.52928  0.15578  0.07019  Biso   1.000  O
  O34      1.0000 0.55049  0.06143  0.33576  Biso   1.000  O
  O35      1.0000 0.96229  0.42027  0.16989  Biso   1.000  O
  O36      1.0000 0.96719  0.33731  0.42387  Biso   1.000  O
  O37      1.0000 0.77900  0.12925  0.23876  Biso   1.000  O
  O38      1.0000 0.78001  0.12034  0.49189  Biso   1.000  O
  O39      1.0000 0.72269  0.37758  0.01286  Biso   1.000  O
  O40      1.0000 0.72586  0.37149  0.26280  Biso   1.000  O
  Hf21     1.0000 0.63791  0.02261  0.64483  Biso   1.000  Hf
  Hf22     1.0000 0.63815  0.22740  0.89708  Biso   1.000  Hf
  Hf23     1.0000 0.86410  0.27186  0.60607  Biso   1.000  Hf
  Hf24     1.0000 0.85890  0.47848  0.85661  Biso   1.000  Hf
  O41      1.0000 0.53363  0.16692  0.57811  Biso   1.000  O
  O42      1.0000 0.53156  0.08798  0.82346  Biso   1.000  O
  O43      1.0000 0.96474  0.41700  0.67521  Biso   1.000  O
  O44      1.0000 0.96399  0.33319  0.92127  Biso   1.000  O
  O45      1.0000 0.77604  0.12870  0.74051  Biso   1.000  O
  O46      1.0000 0.77580  0.12163  0.98980  Biso   1.000  O
  O47      1.0000 0.72895  0.37779  0.51420  Biso   1.000  O
  O48      1.0000 0.72383  0.37151  0.76233  Biso   1.000  O
  Hf25     1.0000 0.63687  0.51939  0.14979  Biso   1.000  Hf
  Hf26     1.0000 0.63750  0.72516  0.39534  Biso   1.000  Hf
  Hf27     1.0000 0.85935  0.77145  0.10421  Biso   1.000  Hf
  Hf28     1.0000 0.86045  0.97958  0.35354  Biso   1.000  Hf
  O49      1.0000 0.52712  0.65465  0.07371  Biso   1.000  O
  O50      1.0000 0.52762  0.58879  0.32141  Biso   1.000  O
  O51      1.0000 0.96551  0.91773  0.17130  Biso   1.000  O
  O52      1.0000 0.96473  0.83676  0.42351  Biso   1.000  O
  O53      1.0000 0.77312  0.62606  0.23941  Biso   1.000  O
  O54      1.0000 0.77470  0.62126  0.48959  Biso   1.000  O
  O55      1.0000 0.72196  0.87824  0.01098  Biso   1.000  O
  O56      1.0000 0.72652  0.86757  0.25948  Biso   1.000  O
  Hf29     1.0000 0.63923  0.52095  0.64724  Biso   1.000  Hf
  Hf30     1.0000 0.63710  0.72731  0.89671  Biso   1.000  Hf
  Hf31     1.0000 0.85834  0.77317  0.60423  Biso   1.000  Hf
  Hf32     1.0000 0.85888  0.97855  0.85436  Biso   1.000  Hf
  O57      1.0000 0.53189  0.66114  0.57651  Biso   1.000  O
  O58      1.0000 0.53181  0.58877  0.82447  Biso   1.000  O
  O59      1.0000 0.96498  0.91671  0.67291  Biso   1.000  O
  O60      1.0000 0.96342  0.83502  0.92218  Biso   1.000  O
  O61      1.0000 0.77519  0.62907  0.74085  Biso   1.000  O
  O62      1.0000 0.77308  0.62132  0.99163  Biso   1.000  O
  O63      1.0000 0.72174  0.87836  0.50970  Biso   1.000  O
  O64      1.0000 0.72211  0.87170  0.76028  Biso   1.000  O
  Ru1      1.0000 0.41059  0.23543  0.33060  Biso   1.000  Ru
