data_image0
_cell_length_a       10.0752
_cell_length_b       10.3032
_cell_length_c       10.1017
_cell_angle_alpha    89.9958
_cell_angle_beta     88.4404
_cell_angle_gamma    90.1619

_symmetry_space_group_name_H-M    "P 1"
_symmetry_int_tables_number       1

loop_
  _symmetry_equiv_pos_as_xyz
  'x, y, z'

loop_
  _atom_site_label
  _atom_site_occupancy
  _atom_site_fract_x
  _atom_site_fract_y
  _atom_site_fract_z
  _atom_site_thermal_displace_type
  _atom_site_B_iso_or_equiv
  _atom_site_type_symbol
  Hf1      1.0000 0.10485  0.92726  0.14030  Biso   1.000  Hf
  Hf2      1.0000 0.13732  0.24763  0.36656  Biso   1.000  Hf
  Hf3      1.0000 0.37632  0.27705  0.11083  Biso   1.000  Hf
  Hf4      1.0000 0.37774  0.99184  0.38288  Biso   1.000  Hf
  O1       1.0000 0.00124  0.15484  0.95600  Biso   1.000  O
  O2       1.0000 0.98988  0.08198  0.22052  Biso   1.000  O
  O3       1.0000 0.99802  0.34251  0.25411  Biso   1.000  O
  O4       1.0000 0.99825  0.40820  0.00556  Biso   1.000  O
  O5       1.0000 0.28003  0.15322  0.24696  Biso   1.000  O
  O6       1.0000 0.28707  0.15892  0.96145  Biso   1.000  O
  O7       1.0000 0.25264  0.38920  0.99604  Biso   1.000  O
  O8       1.0000 0.25409  0.40216  0.24775  Biso   1.000  O
  Hf5      1.0000 0.12594  0.00018  0.62596  Biso   1.000  Hf
  Hf6      1.0000 0.13729  0.28095  0.87101  Biso   1.000  Hf
  Hf7      1.0000 0.36660  0.26259  0.62874  Biso   1.000  Hf
  Hf8      1.0000 0.36726  0.99025  0.89056  Biso   1.000  Hf
  O9       1.0000 0.98170  0.15580  0.46425  Biso   1.000  O
  O10      1.0000 0.96315  0.08712  0.70685  Biso   1.000  O
  O11      1.0000 0.99242  0.34780  0.74708  Biso   1.000  O
  O12      1.0000 0.98760  0.39860  0.50917  Biso   1.000  O
  O13      1.0000 0.21108  0.16991  0.71790  Biso   1.000  O
  O14      1.0000 0.23487  0.09696  0.48363  Biso   1.000  O
  O15      1.0000 0.24295  0.35547  0.49710  Biso   1.000  O
  O16      1.0000 0.25599  0.41570  0.74729  Biso   1.000  O
  Hf9      1.0000 0.12327  0.50980  0.13016  Biso   1.000  Hf
  Hf10     1.0000 0.12671  0.74238  0.39351  Biso   1.000  Hf
  Hf11     1.0000 0.38404  0.74840  0.12839  Biso   1.000  Hf
  Hf12     1.0000 0.37534  0.50377  0.36988  Biso   1.000  Hf
  O17      1.0000 0.01984  0.66615  0.04475  Biso   1.000  O
  O18      1.0000 0.02676  0.58323  0.29791  Biso   1.000  O
  O19      1.0000 0.97985  0.82567  0.26420  Biso   1.000  O
  O20      1.0000 0.97556  0.89303  0.99342  Biso   1.000  O
  O21      1.0000 0.26214  0.65184  0.26714  Biso   1.000  O
  O22      1.0000 0.26109  0.61545  0.01827  Biso   1.000  O
  O23      1.0000 0.24331  0.85229  0.01195  Biso   1.000  O
  O24      1.0000 0.23828  0.89198  0.27832  Biso   1.000  O
  Hf13     1.0000 0.11677  0.49613  0.62230  Biso   1.000  Hf
  Hf14     1.0000 0.11872  0.75118  0.87533  Biso   1.000  Hf
  Hf15     1.0000 0.38906  0.74539  0.61985  Biso   1.000  Hf
  Hf16     1.0000 0.37520  0.52403  0.87740  Biso   1.000  Hf
  O25      1.0000 0.01881  0.65435  0.54463  Biso   1.000  O
  O26      1.0000 0.03664  0.58459  0.79360  Biso   1.000  O
  O27      1.0000 0.99021  0.84330  0.75152  Biso   1.000  O
  O28      1.0000 0.99997  0.90229  0.49675  Biso   1.000  O
  O29      1.0000 0.27642  0.67308  0.77240  Biso   1.000  O
  O30      1.0000 0.26152  0.60053  0.51451  Biso   1.000  O
  O31      1.0000 0.24791  0.84833  0.52661  Biso   1.000  O
  O32      1.0000 0.22329  0.92030  0.77916  Biso   1.000  O
  Hf17     1.0000 0.62935  0.01230  0.12315  Biso   1.000  Hf
  Hf18     1.0000 0.61592  0.23898  0.37340  Biso   1.000  Hf
  Hf19     1.0000 0.88164  0.24513  0.11409  Biso   1.000  Hf
  Hf20     1.0000 0.86842  0.00225  0.37274  Biso   1.000  Hf
  O33      1.0000 0.52936  0.16769  0.02769  Biso   1.000  O
  O34      1.0000 0.52013  0.08500  0.27874  Biso   1.000  O
  O35      1.0000 0.50730  0.35110  0.24792  Biso   1.000  O
  O36      1.0000 0.50394  0.41342  0.99375  Biso   1.000  O
  O37      1.0000 0.75502  0.14761  0.25393  Biso   1.000  O
  O38      1.0000 0.76842  0.10033  0.00672  Biso   1.000  O
  O39      1.0000 0.75423  0.35297  0.98636  Biso   1.000  O
  O40      1.0000 0.75787  0.38973  0.23312  Biso   1.000  O
  Hf21     1.0000 0.60490  0.01488  0.63957  Biso   1.000  Hf
  Hf22     1.0000 0.61634  0.26117  0.87162  Biso   1.000  Hf
  Hf23     1.0000 0.87109  0.24343  0.61369  Biso   1.000  Hf
  Hf24     1.0000 0.86853  0.00155  0.86059  Biso   1.000  Hf
  O41      1.0000 0.49037  0.14807  0.51501  Biso   1.000  O
  O42      1.0000 0.47688  0.11284  0.76646  Biso   1.000  O
  O43      1.0000 0.49824  0.35935  0.74558  Biso   1.000  O
  O44      1.0000 0.49351  0.39612  0.49685  Biso   1.000  O
  O45      1.0000 0.73152  0.14661  0.75402  Biso   1.000  O
  O46      1.0000 0.73939  0.09763  0.50585  Biso   1.000  O
  O47      1.0000 0.74239  0.34796  0.48871  Biso   1.000  O
  O48      1.0000 0.74738  0.39528  0.73684  Biso   1.000  O
  Hf25     1.0000 0.63671  0.49447  0.12175  Biso   1.000  Hf
  Hf26     1.0000 0.63415  0.74536  0.36586  Biso   1.000  Hf
  Hf27     1.0000 0.85059  0.75728  0.10927  Biso   1.000  Hf
  Hf28     1.0000 0.87194  0.48116  0.36752  Biso   1.000  Hf
  O49      1.0000 0.50361  0.66453  0.98632  Biso   1.000  O
  O50      1.0000 0.50441  0.59734  0.23498  Biso   1.000  O
  O51      1.0000 0.48758  0.83871  0.27534  Biso   1.000  O
  O52      1.0000 0.47464  0.91824  0.03713  Biso   1.000  O
  O53      1.0000 0.75670  0.63572  0.24449  Biso   1.000  O
  O54      1.0000 0.75837  0.60693  0.99396  Biso   1.000  O
  O55      1.0000 0.72657  0.85853  0.98714  Biso   1.000  O
  O56      1.0000 0.74513  0.89270  0.23591  Biso   1.000  O
  Hf29     1.0000 0.62625  0.49202  0.60857  Biso   1.000  Hf
  Hf30     1.0000 0.63578  0.74304  0.85364  Biso   1.000  Hf
  Hf31     1.0000 0.86902  0.76517  0.61132  Biso   1.000  Hf
  Hf32     1.0000 0.87194  0.48730  0.86281  Biso   1.000  Hf
  O57      1.0000 0.50811  0.64277  0.48959  Biso   1.000  O
  O58      1.0000 0.51859  0.60815  0.73828  Biso   1.000  O
  O59      1.0000 0.49076  0.86034  0.76809  Biso   1.000  O
  O60      1.0000 0.49815  0.89673  0.51868  Biso   1.000  O
  O61      1.0000 0.77770  0.64349  0.74881  Biso   1.000  O
  O62      1.0000 0.75992  0.60213  0.49618  Biso   1.000  O
  O63      1.0000 0.75521  0.85203  0.47735  Biso   1.000  O
  O64      1.0000 0.74069  0.89438  0.73344  Biso   1.000  O
  Ru1      1.0000 0.14034  0.15220  0.10183  Biso   1.000  Ru
