data_image0
_cell_length_a       9.99417
_cell_length_b       10.4236
_cell_length_c       10.0337
_cell_angle_alpha    89.7925
_cell_angle_beta     90.1919
_cell_angle_gamma    90.1255

_symmetry_space_group_name_H-M    "P 1"
_symmetry_int_tables_number       1

loop_
  _symmetry_equiv_pos_as_xyz
  'x, y, z'

loop_
  _atom_site_label
  _atom_site_occupancy
  _atom_site_fract_x
  _atom_site_fract_y
  _atom_site_fract_z
  _atom_site_thermal_displace_type
  _atom_site_B_iso_or_equiv
  _atom_site_type_symbol
  Hf1      1.0000 0.13478  0.02242  0.12009  Biso   1.000  Hf
  Hf2      1.0000 0.13402  0.22903  0.38423  Biso   1.000  Hf
  Hf3      1.0000 0.36691  0.26222  0.11927  Biso   1.000  Hf
  Hf4      1.0000 0.36781  0.48261  0.37392  Biso   1.000  Hf
  O1       1.0000 0.00735  0.17135  0.22356  Biso   1.000  O
  O2       1.0000 0.03587  0.06308  0.45292  Biso   1.000  O
  O3       1.0000 0.46291  0.43264  0.19426  Biso   1.000  O
  O4       1.0000 0.46441  0.31654  0.44615  Biso   1.000  O
  O5       1.0000 0.26586  0.11419  0.25157  Biso   1.000  O
  O6       1.0000 0.27253  0.13113  0.50095  Biso   1.000  O
  O7       1.0000 0.23165  0.38310  0.50038  Biso   1.000  O
  O8       1.0000 0.23171  0.35865  0.25264  Biso   1.000  O
  Hf5      1.0000 0.13520  0.01328  0.62734  Biso   1.000  Hf
  Hf6      1.0000 0.14402  0.22427  0.87000  Biso   1.000  Hf
  Hf7      1.0000 0.36856  0.26640  0.62552  Biso   1.000  Hf
  Hf8      1.0000 0.36918  0.48585  0.87280  Biso   1.000  Hf
  O9       1.0000 0.03729  0.18065  0.69323  Biso   1.000  O
  O10      1.0000 0.03963  0.06138  0.93899  Biso   1.000  O
  O11      1.0000 0.46726  0.43327  0.69498  Biso   1.000  O
  O12      1.0000 0.46591  0.31534  0.94032  Biso   1.000  O
  O13      1.0000 0.27442  0.11348  0.74596  Biso   1.000  O
  O14      1.0000 0.29089  0.12104  0.98994  Biso   1.000  O
  O15      1.0000 0.23596  0.39481  0.99947  Biso   1.000  O
  O16      1.0000 0.23349  0.36546  0.74914  Biso   1.000  O
  Hf9      1.0000 0.13045  0.53881  0.12112  Biso   1.000  Hf
  Hf10     1.0000 0.13508  0.73604  0.37854  Biso   1.000  Hf
  Hf11     1.0000 0.36509  0.76866  0.12687  Biso   1.000  Hf
  Hf12     1.0000 0.36488  0.98327  0.37549  Biso   1.000  Hf
  O17      1.0000 0.03257  0.69157  0.20036  Biso   1.000  O
  O18      1.0000 0.03522  0.56812  0.44645  Biso   1.000  O
  O19      1.0000 0.46307  0.93368  0.19535  Biso   1.000  O
  O20      1.0000 0.46430  0.81484  0.44307  Biso   1.000  O
  O21      1.0000 0.27149  0.62024  0.24994  Biso   1.000  O
  O22      1.0000 0.27125  0.63162  0.49885  Biso   1.000  O
  O23      1.0000 0.23111  0.88195  0.50016  Biso   1.000  O
  O24      1.0000 0.22932  0.86779  0.24990  Biso   1.000  O
  Hf13     1.0000 0.13430  0.51487  0.62538  Biso   1.000  Hf
  Hf14     1.0000 0.13299  0.73813  0.87151  Biso   1.000  Hf
  Hf15     1.0000 0.36944  0.76374  0.62339  Biso   1.000  Hf
  Hf16     1.0000 0.37149  0.97778  0.87334  Biso   1.000  Hf
  O25      1.0000 0.03742  0.68357  0.69146  Biso   1.000  O
  O26      1.0000 0.03397  0.57093  0.94306  Biso   1.000  O
  O27      1.0000 0.46875  0.93043  0.69144  Biso   1.000  O
  O28      1.0000 0.46852  0.81533  0.94759  Biso   1.000  O
  O29      1.0000 0.27023  0.61557  0.74806  Biso   1.000  O
  O30      1.0000 0.26996  0.64100  0.99587  Biso   1.000  O
  O31      1.0000 0.22970  0.88324  0.99914  Biso   1.000  O
  O32      1.0000 0.23505  0.86456  0.74782  Biso   1.000  O
  Hf17     1.0000 0.63057  0.01336  0.12374  Biso   1.000  Hf
  Hf18     1.0000 0.63065  0.23106  0.37776  Biso   1.000  Hf
  Hf19     1.0000 0.84657  0.26368  0.12915  Biso   1.000  Hf
  Hf20     1.0000 0.86638  0.48481  0.37739  Biso   1.000  Hf
  O33      1.0000 0.53249  0.18016  0.19557  Biso   1.000  O
  O34      1.0000 0.53482  0.06492  0.44625  Biso   1.000  O
  O35      1.0000 0.95489  0.44511  0.19554  Biso   1.000  O
  O36      1.0000 0.96763  0.32001  0.45008  Biso   1.000  O
  O37      1.0000 0.75909  0.11390  0.25058  Biso   1.000  O
  O38      1.0000 0.77195  0.13378  0.49823  Biso   1.000  O
  O39      1.0000 0.73071  0.38210  0.50157  Biso   1.000  O
  O40      1.0000 0.72312  0.36826  0.25361  Biso   1.000  O
  Hf21     1.0000 0.63679  0.01519  0.62424  Biso   1.000  Hf
  Hf22     1.0000 0.63338  0.23125  0.87284  Biso   1.000  Hf
  Hf23     1.0000 0.86812  0.26596  0.62626  Biso   1.000  Hf
  Hf24     1.0000 0.86543  0.48223  0.87776  Biso   1.000  Hf
  O41      1.0000 0.53894  0.18328  0.69194  Biso   1.000  O
  O42      1.0000 0.54280  0.06238  0.93893  Biso   1.000  O
  O43      1.0000 0.96719  0.43192  0.70119  Biso   1.000  O
  O44      1.0000 0.96829  0.31045  0.95035  Biso   1.000  O
  O45      1.0000 0.77295  0.11571  0.74862  Biso   1.000  O
  O46      1.0000 0.77060  0.13066  0.99938  Biso   1.000  O
  O47      1.0000 0.72687  0.38178  0.00047  Biso   1.000  O
  O48      1.0000 0.73322  0.36594  0.75134  Biso   1.000  O
  Hf25     1.0000 0.63174  0.51769  0.12782  Biso   1.000  Hf
  Hf26     1.0000 0.63421  0.73398  0.37547  Biso   1.000  Hf
  Hf27     1.0000 0.86336  0.76831  0.12617  Biso   1.000  Hf
  Hf28     1.0000 0.86884  0.98577  0.37201  Biso   1.000  Hf
  O49      1.0000 0.53468  0.68346  0.19546  Biso   1.000  O
  O50      1.0000 0.53509  0.56559  0.44555  Biso   1.000  O
  O51      1.0000 0.96356  0.93502  0.19126  Biso   1.000  O
  O52      1.0000 0.96478  0.81787  0.44484  Biso   1.000  O
  O53      1.0000 0.76781  0.61876  0.25162  Biso   1.000  O
  O54      1.0000 0.76914  0.63345  0.50074  Biso   1.000  O
  O55      1.0000 0.73238  0.88429  0.49771  Biso   1.000  O
  O56      1.0000 0.72884  0.86702  0.24880  Biso   1.000  O
  Hf29     1.0000 0.63634  0.51517  0.62564  Biso   1.000  Hf
  Hf30     1.0000 0.63608  0.73243  0.87567  Biso   1.000  Hf
  Hf31     1.0000 0.86771  0.76638  0.62436  Biso   1.000  Hf
  Hf32     1.0000 0.86678  0.98163  0.87538  Biso   1.000  Hf
  O57      1.0000 0.53731  0.68152  0.69604  Biso   1.000  O
  O58      1.0000 0.53624  0.56657  0.94600  Biso   1.000  O
  O59      1.0000 0.96776  0.92980  0.69865  Biso   1.000  O
  O60      1.0000 0.96354  0.81466  0.94527  Biso   1.000  O
  O61      1.0000 0.77248  0.61519  0.75086  Biso   1.000  O
  O62      1.0000 0.77041  0.63128  0.00066  Biso   1.000  O
  O63      1.0000 0.73037  0.88123  0.99897  Biso   1.000  O
  O64      1.0000 0.73218  0.86542  0.74867  Biso   1.000  O
  Ru1      1.0000 0.09824  0.30386  0.10928  Biso   1.000  Ru
