data_image0
_cell_length_a       5.05032
_cell_length_b       9.98804
_cell_length_c       9.98806
_cell_angle_alpha    90.0002
_cell_angle_beta     90.0002
_cell_angle_gamma    90.0001

_symmetry_space_group_name_H-M    "P 1"
_symmetry_int_tables_number       1

loop_
  _symmetry_equiv_pos_as_xyz
  'x, y, z'

loop_
  _atom_site_label
  _atom_site_occupancy
  _atom_site_fract_x
  _atom_site_fract_y
  _atom_site_fract_z
  _atom_site_thermal_displace_type
  _atom_site_B_iso_or_equiv
  _atom_site_type_symbol
  Ru1      1.0000 0.24982  0.00006  0.12491  Biso   1.000  Ru
  Hf1      1.0000 0.24758  0.24898  0.37383  Biso   1.000  Hf
  Hf2      1.0000 0.74982  0.24636  0.12491  Biso   1.000  Hf
  Hf3      1.0000 0.74982  0.00006  0.37121  Biso   1.000  Hf
  O1       1.0000 0.97652  0.12805  0.99691  Biso   1.000  O
  O2       1.0000 0.03198  0.11758  0.24242  Biso   1.000  O
  O3       1.0000 0.95836  0.36589  0.25736  Biso   1.000  O
  O4       1.0000 0.03786  0.37925  0.00385  Biso   1.000  O
  O5       1.0000 0.52311  0.12805  0.25291  Biso   1.000  O
  O6       1.0000 0.46765  0.11758  0.00739  Biso   1.000  O
  O7       1.0000 0.54128  0.36589  0.99246  Biso   1.000  O
  O8       1.0000 0.46177  0.37925  0.24597  Biso   1.000  O
  Hf4      1.0000 0.24982  0.00006  0.62491  Biso   1.000  Hf
  Hf5      1.0000 0.25205  0.24898  0.87599  Biso   1.000  Hf
  Hf6      1.0000 0.74982  0.25056  0.62491  Biso   1.000  Hf
  Hf7      1.0000 0.74982  0.00007  0.87861  Biso   1.000  Hf
  O9       1.0000 0.95838  0.13248  0.49076  Biso   1.000  O
  O10      1.0000 0.03784  0.12112  0.74572  Biso   1.000  O
  O11      1.0000 0.96236  0.36830  0.75667  Biso   1.000  O
  O12      1.0000 0.03624  0.37914  0.50401  Biso   1.000  O
  O13      1.0000 0.54125  0.13248  0.75906  Biso   1.000  O
  O14      1.0000 0.46179  0.12112  0.50410  Biso   1.000  O
  O15      1.0000 0.53727  0.36830  0.49315  Biso   1.000  O
  O16      1.0000 0.46339  0.37914  0.74580  Biso   1.000  O
  Hf8      1.0000 0.24982  0.50007  0.12491  Biso   1.000  Hf
  Hf9      1.0000 0.25205  0.75114  0.37383  Biso   1.000  Hf
  Hf10     1.0000 0.74982  0.75376  0.12491  Biso   1.000  Hf
  Hf11     1.0000 0.74981  0.50006  0.37542  Biso   1.000  Hf
  O17      1.0000 0.95837  0.63420  0.99249  Biso   1.000  O
  O18      1.0000 0.03785  0.62086  0.24599  Biso   1.000  O
  O19      1.0000 0.97651  0.87206  0.25291  Biso   1.000  O
  O20      1.0000 0.03199  0.88253  0.00740  Biso   1.000  O
  O21      1.0000 0.54126  0.63420  0.25733  Biso   1.000  O
  O22      1.0000 0.46178  0.62086  0.00383  Biso   1.000  O
  O23      1.0000 0.52312  0.87206  0.99690  Biso   1.000  O
  O24      1.0000 0.46765  0.88253  0.24242  Biso   1.000  O
  Hf12     1.0000 0.24982  0.50006  0.62491  Biso   1.000  Hf
  Hf13     1.0000 0.24758  0.75114  0.87598  Biso   1.000  Hf
  Hf14     1.0000 0.74982  0.74955  0.62491  Biso   1.000  Hf
  Hf15     1.0000 0.74982  0.50006  0.87440  Biso   1.000  Hf
  O25      1.0000 0.96236  0.63180  0.49317  Biso   1.000  O
  O26      1.0000 0.03624  0.62096  0.74583  Biso   1.000  O
  O27      1.0000 0.95834  0.86762  0.75907  Biso   1.000  O
  O28      1.0000 0.03788  0.87897  0.50412  Biso   1.000  O
  O29      1.0000 0.53727  0.63180  0.75665  Biso   1.000  O
  O30      1.0000 0.46339  0.62096  0.50399  Biso   1.000  O
  O31      1.0000 0.54129  0.86762  0.49074  Biso   1.000  O
  O32      1.0000 0.46176  0.87897  0.74570  Biso   1.000  O
