data_image0
_cell_length_a       9.9477
_cell_length_b       10.3456
_cell_length_c       9.98312
_cell_angle_alpha    89.8915
_cell_angle_beta     89.9551
_cell_angle_gamma    90.0371

_symmetry_space_group_name_H-M    "P 1"
_symmetry_int_tables_number       1

loop_
  _symmetry_equiv_pos_as_xyz
  'x, y, z'

loop_
  _atom_site_label
  _atom_site_occupancy
  _atom_site_fract_x
  _atom_site_fract_y
  _atom_site_fract_z
  _atom_site_thermal_displace_type
  _atom_site_B_iso_or_equiv
  _atom_site_type_symbol
  Ru1      1.0000 0.13770  0.02108  0.12011  Biso   1.000  Ru
  Hf1      1.0000 0.13241  0.23183  0.37487  Biso   1.000  Hf
  Hf2      1.0000 0.36623  0.26700  0.12607  Biso   1.000  Hf
  Hf3      1.0000 0.36613  0.48432  0.37633  Biso   1.000  Hf
  O1       1.0000 0.03521  0.17798  0.19730  Biso   1.000  O
  O2       1.0000 0.03494  0.06735  0.45081  Biso   1.000  O
  O3       1.0000 0.46352  0.43494  0.19348  Biso   1.000  O
  O4       1.0000 0.46349  0.31652  0.44391  Biso   1.000  O
  O5       1.0000 0.26572  0.11594  0.24569  Biso   1.000  O
  O6       1.0000 0.27122  0.13274  0.49813  Biso   1.000  O
  O7       1.0000 0.22922  0.38248  0.50004  Biso   1.000  O
  O8       1.0000 0.23032  0.36787  0.25051  Biso   1.000  O
  Hf4      1.0000 0.13460  0.01644  0.62743  Biso   1.000  Hf
  Hf5      1.0000 0.13504  0.23338  0.87861  Biso   1.000  Hf
  Hf6      1.0000 0.36583  0.26691  0.62584  Biso   1.000  Hf
  Hf7      1.0000 0.36575  0.48396  0.87576  Biso   1.000  Hf
  O9       1.0000 0.03443  0.18185  0.70151  Biso   1.000  O
  O10      1.0000 0.03612  0.06584  0.95764  Biso   1.000  O
  O11      1.0000 0.46304  0.43485  0.69364  Biso   1.000  O
  O12      1.0000 0.46131  0.31376  0.94320  Biso   1.000  O
  O13      1.0000 0.27104  0.11827  0.75091  Biso   1.000  O
  O14      1.0000 0.27147  0.12740  0.00210  Biso   1.000  O
  O15      1.0000 0.22890  0.38120  0.00040  Biso   1.000  O
  O16      1.0000 0.22861  0.36725  0.75070  Biso   1.000  O
  Hf8      1.0000 0.13480  0.51633  0.12690  Biso   1.000  Hf
  Hf9      1.0000 0.13339  0.73545  0.37510  Biso   1.000  Hf
  Hf10     1.0000 0.36394  0.76855  0.12657  Biso   1.000  Hf
  Hf11     1.0000 0.36465  0.98377  0.37453  Biso   1.000  Hf
  O17      1.0000 0.03709  0.68242  0.19392  Biso   1.000  O
  O18      1.0000 0.03637  0.56653  0.44345  Biso   1.000  O
  O19      1.0000 0.46427  0.93380  0.19472  Biso   1.000  O
  O20      1.0000 0.46293  0.81588  0.44222  Biso   1.000  O
  O21      1.0000 0.27160  0.62034  0.25010  Biso   1.000  O
  O22      1.0000 0.27024  0.63292  0.49938  Biso   1.000  O
  O23      1.0000 0.22952  0.88269  0.49998  Biso   1.000  O
  O24      1.0000 0.22513  0.87381  0.24786  Biso   1.000  O
  Hf12     1.0000 0.13368  0.51651  0.62548  Biso   1.000  Hf
  Hf13     1.0000 0.13324  0.73309  0.87634  Biso   1.000  Hf
  Hf14     1.0000 0.36626  0.76643  0.62552  Biso   1.000  Hf
  Hf15     1.0000 0.36532  0.98218  0.87713  Biso   1.000  Hf
  O25      1.0000 0.03607  0.68418  0.69402  Biso   1.000  O
  O26      1.0000 0.03644  0.56474  0.94505  Biso   1.000  O
  O27      1.0000 0.46328  0.93449  0.69359  Biso   1.000  O
  O28      1.0000 0.46156  0.81466  0.94398  Biso   1.000  O
  O29      1.0000 0.27039  0.61758  0.74957  Biso   1.000  O
  O30      1.0000 0.27112  0.63191  0.99984  Biso   1.000  O
  O31      1.0000 0.22524  0.88251  0.00258  Biso   1.000  O
  O32      1.0000 0.22998  0.86712  0.75083  Biso   1.000  O
  Hf16     1.0000 0.63382  0.01635  0.12562  Biso   1.000  Hf
  Hf17     1.0000 0.63394  0.23373  0.37631  Biso   1.000  Hf
  Hf18     1.0000 0.86696  0.26443  0.12607  Biso   1.000  Hf
  Hf19     1.0000 0.86597  0.48362  0.37601  Biso   1.000  Hf
  O33      1.0000 0.53471  0.18385  0.19497  Biso   1.000  O
  O34      1.0000 0.53563  0.06588  0.44338  Biso   1.000  O
  O35      1.0000 0.96564  0.43095  0.19534  Biso   1.000  O
  O36      1.0000 0.96401  0.31576  0.44544  Biso   1.000  O
  O37      1.0000 0.76878  0.11797  0.24933  Biso   1.000  O
  O38      1.0000 0.77082  0.13292  0.49912  Biso   1.000  O
  O39      1.0000 0.72940  0.38256  0.49997  Biso   1.000  O
  O40      1.0000 0.72994  0.36758  0.24958  Biso   1.000  O
  Hf20     1.0000 0.63392  0.01619  0.62455  Biso   1.000  Hf
  Hf21     1.0000 0.63341  0.23326  0.87537  Biso   1.000  Hf
  Hf22     1.0000 0.86611  0.26561  0.62659  Biso   1.000  Hf
  Hf23     1.0000 0.86564  0.48335  0.87612  Biso   1.000  Hf
  O41      1.0000 0.53679  0.18487  0.69288  Biso   1.000  O
  O42      1.0000 0.53618  0.06503  0.94378  Biso   1.000  O
  O43      1.0000 0.96343  0.43387  0.69408  Biso   1.000  O
  O44      1.0000 0.96376  0.31481  0.94447  Biso   1.000  O
  O45      1.0000 0.76999  0.11710  0.74977  Biso   1.000  O
  O46      1.0000 0.77000  0.13226  0.99931  Biso   1.000  O
  O47      1.0000 0.72909  0.38146  0.99988  Biso   1.000  O
  O48      1.0000 0.72934  0.36755  0.74964  Biso   1.000  O
  Hf24     1.0000 0.63493  0.51715  0.12611  Biso   1.000  Hf
  Hf25     1.0000 0.63497  0.73474  0.37422  Biso   1.000  Hf
  Hf26     1.0000 0.86991  0.76828  0.12449  Biso   1.000  Hf
  Hf27     1.0000 0.87012  0.98541  0.37242  Biso   1.000  Hf
  O49      1.0000 0.53708  0.68547  0.19252  Biso   1.000  O
  O50      1.0000 0.53698  0.56667  0.44347  Biso   1.000  O
  O51      1.0000 0.97093  0.93407  0.19171  Biso   1.000  O
  O52      1.0000 0.96432  0.81678  0.44479  Biso   1.000  O
  O53      1.0000 0.77180  0.61800  0.24952  Biso   1.000  O
  O54      1.0000 0.77079  0.63304  0.49956  Biso   1.000  O
  O55      1.0000 0.73051  0.88357  0.49764  Biso   1.000  O
  O56      1.0000 0.73376  0.86856  0.24763  Biso   1.000  O
  Hf28     1.0000 0.63422  0.51689  0.62562  Biso   1.000  Hf
  Hf29     1.0000 0.63397  0.73337  0.87612  Biso   1.000  Hf
  Hf30     1.0000 0.86592  0.76725  0.62585  Biso   1.000  Hf
  Hf31     1.0000 0.86595  0.98372  0.87685  Biso   1.000  Hf
  O57      1.0000 0.53669  0.68482  0.69382  Biso   1.000  O
  O58      1.0000 0.53727  0.56441  0.94284  Biso   1.000  O
  O59      1.0000 0.96503  0.93408  0.69696  Biso   1.000  O
  O60      1.0000 0.96165  0.81475  0.94097  Biso   1.000  O
  O61      1.0000 0.77055  0.61790  0.74977  Biso   1.000  O
  O62      1.0000 0.77123  0.63231  0.99967  Biso   1.000  O
  O63      1.0000 0.72863  0.88265  0.99844  Biso   1.000  O
  O64      1.0000 0.72937  0.86822  0.74934  Biso   1.000  O
