data_image0
_cell_length_a       10.1759
_cell_length_b       10.2798
_cell_length_c       5.28301
_cell_angle_alpha    89.9319
_cell_angle_beta     79.8235
_cell_angle_gamma    90.8434

_symmetry_space_group_name_H-M    "P 1"
_symmetry_int_tables_number       1

loop_
  _symmetry_equiv_pos_as_xyz
  'x, y, z'

loop_
  _atom_site_label
  _atom_site_occupancy
  _atom_site_fract_x
  _atom_site_fract_y
  _atom_site_fract_z
  _atom_site_thermal_displace_type
  _atom_site_B_iso_or_equiv
  _atom_site_type_symbol
  Hf1      1.0000 0.13607  0.02199  0.29507  Biso   1.000  Hf
  Hf2      1.0000 0.13871  0.23573  0.78508  Biso   1.000  Hf
  Hf3      1.0000 0.35568  0.27755  0.19544  Biso   1.000  Hf
  Hf4      1.0000 0.34879  0.48375  0.70832  Biso   1.000  Hf
  O1       1.0000 0.04072  0.16834  0.15041  Biso   1.000  O
  O2       1.0000 0.03511  0.08583  0.64986  Biso   1.000  O
  O3       1.0000 0.47323  0.38766  0.39750  Biso   1.000  O
  O4       1.0000 0.48405  0.36611  0.88959  Biso   1.000  O
  O5       1.0000 0.28137  0.12888  0.47246  Biso   1.000  O
  O6       1.0000 0.28707  0.12436  0.95673  Biso   1.000  O
  O7       1.0000 0.21500  0.38665  0.02042  Biso   1.000  O
  O8       1.0000 0.20868  0.38081  0.49907  Biso   1.000  O
  Hf5      1.0000 0.13294  0.52689  0.29051  Biso   1.000  Hf
  Hf6      1.0000 0.13235  0.73178  0.79552  Biso   1.000  Hf
  Hf7      1.0000 0.35968  0.76891  0.20897  Biso   1.000  Hf
  Hf8      1.0000 0.36510  0.96824  0.70824  Biso   1.000  Hf
  O9       1.0000 0.02659  0.66996  0.15399  Biso   1.000  O
  O10      1.0000 0.02857  0.59026  0.65405  Biso   1.000  O
  O11      1.0000 0.46745  0.90962  0.34833  Biso   1.000  O
  O12      1.0000 0.46469  0.82821  0.85175  Biso   1.000  O
  O13      1.0000 0.27241  0.62986  0.48288  Biso   1.000  O
  O14      1.0000 0.26773  0.62661  0.98368  Biso   1.000  O
  O15      1.0000 0.22455  0.88135  0.02366  Biso   1.000  O
  O16      1.0000 0.22227  0.87106  0.52058  Biso   1.000  O
  Hf9      1.0000 0.63937  0.02104  0.28933  Biso   1.000  Hf
  Hf10     1.0000 0.64306  0.22855  0.80471  Biso   1.000  Hf
  Hf11     1.0000 0.86427  0.27195  0.21304  Biso   1.000  Hf
  Hf12     1.0000 0.85952  0.47831  0.71398  Biso   1.000  Hf
  O17      1.0000 0.53082  0.16050  0.14984  Biso   1.000  O
  O18      1.0000 0.54933  0.06331  0.66551  Biso   1.000  O
  O19      1.0000 0.96134  0.41985  0.34744  Biso   1.000  O
  O20      1.0000 0.96584  0.33695  0.84624  Biso   1.000  O
  O21      1.0000 0.77963  0.12905  0.47850  Biso   1.000  O
  O22      1.0000 0.77941  0.12000  0.98300  Biso   1.000  O
  O23      1.0000 0.72794  0.37630  0.03284  Biso   1.000  O
  O24      1.0000 0.72471  0.37124  0.52961  Biso   1.000  O
  Hf13     1.0000 0.63715  0.51864  0.30016  Biso   1.000  Hf
  Hf14     1.0000 0.63594  0.72359  0.79190  Biso   1.000  Hf
  Hf15     1.0000 0.85665  0.77281  0.20836  Biso   1.000  Hf
  Hf16     1.0000 0.85866  0.97958  0.70739  Biso   1.000  Hf
  O25      1.0000 0.52570  0.65126  0.14647  Biso   1.000  O
  O26      1.0000 0.52598  0.59113  0.63812  Biso   1.000  O
  O27      1.0000 0.96579  0.91707  0.34524  Biso   1.000  O
  O28      1.0000 0.96315  0.83886  0.84829  Biso   1.000  O
  O29      1.0000 0.77193  0.62614  0.48007  Biso   1.000  O
  O30      1.0000 0.77141  0.62081  0.98206  Biso   1.000  O
  O31      1.0000 0.72035  0.87726  0.02064  Biso   1.000  O
  O32      1.0000 0.72523  0.86777  0.51923  Biso   1.000  O
  Ru1      1.0000 0.40932  0.23757  0.66588  Biso   1.000  Ru
