data_image0
_cell_length_a       10.133
_cell_length_b       10.6005
_cell_length_c       5.04459
_cell_angle_alpha    90.3703
_cell_angle_beta     90.0439
_cell_angle_gamma    93.58

_symmetry_space_group_name_H-M    "P 1"
_symmetry_int_tables_number       1

loop_
  _symmetry_equiv_pos_as_xyz
  'x, y, z'

loop_
  _atom_site_label
  _atom_site_occupancy
  _atom_site_fract_x
  _atom_site_fract_y
  _atom_site_fract_z
  _atom_site_thermal_displace_type
  _atom_site_B_iso_or_equiv
  _atom_site_type_symbol
  Hf1      1.0000 0.10654  0.95456  0.26674  Biso   1.000  Hf
  Hf2      1.0000 0.13873  0.28992  0.79550  Biso   1.000  Hf
  Hf3      1.0000 0.36915  0.23966  0.27699  Biso   1.000  Hf
  Hf4      1.0000 0.35140  0.01787  0.77561  Biso   1.000  Hf
  O1       1.0000 0.97609  0.17952  0.95959  Biso   1.000  O
  O2       1.0000 0.95746  0.05976  0.46227  Biso   1.000  O
  O3       1.0000 0.01667  0.32793  0.47251  Biso   1.000  O
  O4       1.0000 0.03477  0.43192  0.97037  Biso   1.000  O
  O5       1.0000 0.23966  0.15744  0.57787  Biso   1.000  O
  O6       1.0000 0.23954  0.08734  0.07986  Biso   1.000  O
  O7       1.0000 0.29854  0.38035  0.01652  Biso   1.000  O
  O8       1.0000 0.27714  0.39886  0.53106  Biso   1.000  O
  Hf5      1.0000 0.15814  0.48556  0.27464  Biso   1.000  Hf
  Hf6      1.0000 0.13563  0.72787  0.70797  Biso   1.000  Hf
  Hf7      1.0000 0.36551  0.76684  0.20783  Biso   1.000  Hf
  Hf8      1.0000 0.39026  0.52152  0.77864  Biso   1.000  Hf
  O9       1.0000 0.98317  0.67315  0.96204  Biso   1.000  O
  O10      1.0000 0.03419  0.56840  0.52115  Biso   1.000  O
  O11      1.0000 0.00807  0.80683  0.45748  Biso   1.000  O
  O12      1.0000 0.96604  0.91494  0.99328  Biso   1.000  O
  O13      1.0000 0.27903  0.64222  0.48988  Biso   1.000  O
  O14      1.0000 0.24502  0.61220  0.99505  Biso   1.000  O
  O15      1.0000 0.22177  0.84997  0.99484  Biso   1.000  O
  O16      1.0000 0.25369  0.88804  0.50699  Biso   1.000  O
  Hf9      1.0000 0.61182  0.98679  0.28494  Biso   1.000  Hf
  Hf10     1.0000 0.62659  0.27016  0.77776  Biso   1.000  Hf
  Hf11     1.0000 0.85455  0.23678  0.28368  Biso   1.000  Hf
  Hf12     1.0000 0.84391  0.01512  0.77832  Biso   1.000  Hf
  O17      1.0000 0.46774  0.18029  0.94352  Biso   1.000  O
  O18      1.0000 0.46763  0.08088  0.46196  Biso   1.000  O
  O19      1.0000 0.53361  0.33099  0.44171  Biso   1.000  O
  O20      1.0000 0.54562  0.43110  0.94168  Biso   1.000  O
  O21      1.0000 0.72494  0.13973  0.53803  Biso   1.000  O
  O22      1.0000 0.72334  0.11310  0.03581  Biso   1.000  O
  O23      1.0000 0.77505  0.36142  0.02315  Biso   1.000  O
  O24      1.0000 0.77375  0.38997  0.52399  Biso   1.000  O
  Hf13     1.0000 0.65207  0.48548  0.27430  Biso   1.000  Hf
  Hf14     1.0000 0.63686  0.73453  0.69867  Biso   1.000  Hf
  Hf15     1.0000 0.85589  0.76225  0.19683  Biso   1.000  Hf
  Hf16     1.0000 0.88582  0.51440  0.77880  Biso   1.000  Hf
  O25      1.0000 0.48803  0.68087  0.95938  Biso   1.000  O
  O26      1.0000 0.53042  0.58215  0.49816  Biso   1.000  O
  O27      1.0000 0.51194  0.82969  0.46975  Biso   1.000  O
  O28      1.0000 0.46836  0.92795  0.01901  Biso   1.000  O
  O29      1.0000 0.77834  0.63765  0.48811  Biso   1.000  O
  O30      1.0000 0.74257  0.61236  0.99032  Biso   1.000  O
  O31      1.0000 0.71760  0.86197  0.99157  Biso   1.000  O
  O32      1.0000 0.75376  0.88770  0.49698  Biso   1.000  O
  Ru1      1.0000 0.10891  0.18959  0.27535  Biso   1.000  Ru
