data_image0
_cell_length_a       9.99479
_cell_length_b       10.192
_cell_length_c       5.2209
_cell_angle_alpha    89.8461
_cell_angle_beta     89.8266
_cell_angle_gamma    90.0383

_symmetry_space_group_name_H-M    "P 1"
_symmetry_int_tables_number       1

loop_
  _symmetry_equiv_pos_as_xyz
  'x, y, z'

loop_
  _atom_site_label
  _atom_site_occupancy
  _atom_site_fract_x
  _atom_site_fract_y
  _atom_site_fract_z
  _atom_site_thermal_displace_type
  _atom_site_B_iso_or_equiv
  _atom_site_type_symbol
  Ru1      1.0000 0.13973  0.02083  0.35312  Biso   1.000  Ru
  Hf1      1.0000 0.13797  0.22655  0.84630  Biso   1.000  Hf
  Hf2      1.0000 0.35922  0.26987  0.34682  Biso   1.000  Hf
  Hf3      1.0000 0.36101  0.47916  0.84453  Biso   1.000  Hf
  Hf4      1.0000 0.63825  0.02193  0.15438  Biso   1.000  Hf
  Hf5      1.0000 0.63827  0.22968  0.65735  Biso   1.000  Hf
  Hf6      1.0000 0.86405  0.26894  0.15924  Biso   1.000  Hf
  Hf7      1.0000 0.86105  0.47890  0.65842  Biso   1.000  Hf
  O1       1.0000 0.03141  0.15713  0.15564  Biso   1.000  O
  O2       1.0000 0.03428  0.08989  0.64088  Biso   1.000  O
  O3       1.0000 0.46613  0.41542  0.17074  Biso   1.000  O
  O4       1.0000 0.46542  0.33364  0.67023  Biso   1.000  O
  O5       1.0000 0.27661  0.12092  0.59559  Biso   1.000  O
  O6       1.0000 0.27095  0.12017  0.10707  Biso   1.000  O
  O7       1.0000 0.22337  0.37419  0.59132  Biso   1.000  O
  O8       1.0000 0.22398  0.37399  0.09044  Biso   1.000  O
  O9       1.0000 0.53214  0.16507  0.33498  Biso   1.000  O
  O10      1.0000 0.53012  0.08707  0.83729  Biso   1.000  O
  O11      1.0000 0.96820  0.41332  0.33650  Biso   1.000  O
  O12      1.0000 0.96835  0.33440  0.83564  Biso   1.000  O
  O13      1.0000 0.77666  0.12366  0.90476  Biso   1.000  O
  O14      1.0000 0.77518  0.12617  0.40742  Biso   1.000  O
  O15      1.0000 0.72411  0.37355  0.91228  Biso   1.000  O
  O16      1.0000 0.72381  0.37631  0.41160  Biso   1.000  O
  Hf8      1.0000 0.13922  0.52103  0.34439  Biso   1.000  Hf
  Hf9      1.0000 0.13859  0.73032  0.84256  Biso   1.000  Hf
  Hf10     1.0000 0.35887  0.77399  0.34199  Biso   1.000  Hf
  Hf11     1.0000 0.35948  0.97723  0.84567  Biso   1.000  Hf
  Hf12     1.0000 0.63865  0.52138  0.15955  Biso   1.000  Hf
  Hf13     1.0000 0.63846  0.72909  0.65660  Biso   1.000  Hf
  Hf14     1.0000 0.86341  0.77242  0.15422  Biso   1.000  Hf
  Hf15     1.0000 0.86189  0.98063  0.65189  Biso   1.000  Hf
  O17      1.0000 0.03199  0.66317  0.16287  Biso   1.000  O
  O18      1.0000 0.03237  0.58609  0.66496  Biso   1.000  O
  O19      1.0000 0.46875  0.91404  0.16599  Biso   1.000  O
  O20      1.0000 0.46565  0.83524  0.66732  Biso   1.000  O
  O21      1.0000 0.27656  0.62511  0.59147  Biso   1.000  O
  O22      1.0000 0.27654  0.62688  0.09079  Biso   1.000  O
  O23      1.0000 0.22039  0.87631  0.58438  Biso   1.000  O
  O24      1.0000 0.22164  0.87681  0.08919  Biso   1.000  O
  O25      1.0000 0.53289  0.66676  0.33268  Biso   1.000  O
  O26      1.0000 0.53404  0.58383  0.83238  Biso   1.000  O
  O27      1.0000 0.97599  0.91772  0.32904  Biso   1.000  O
  O28      1.0000 0.96784  0.83785  0.83143  Biso   1.000  O
  O29      1.0000 0.77730  0.62525  0.91171  Biso   1.000  O
  O30      1.0000 0.77695  0.62651  0.41100  Biso   1.000  O
  O31      1.0000 0.72332  0.87460  0.90730  Biso   1.000  O
  O32      1.0000 0.72895  0.87694  0.40809  Biso   1.000  O
