data_image0
_cell_length_a       5.10115
_cell_length_b       10.2542
_cell_length_c       10.5925
_cell_angle_alpha    89.8229
_cell_angle_beta     79.5956
_cell_angle_gamma    90.79

_symmetry_space_group_name_H-M    "P 1"
_symmetry_int_tables_number       1

loop_
  _symmetry_equiv_pos_as_xyz
  'x, y, z'

loop_
  _atom_site_label
  _atom_site_occupancy
  _atom_site_fract_x
  _atom_site_fract_y
  _atom_site_fract_z
  _atom_site_thermal_displace_type
  _atom_site_B_iso_or_equiv
  _atom_site_type_symbol
  Hf1      1.0000 0.27540  0.02079  0.14611  Biso   1.000  Hf
  Hf2      1.0000 0.29300  0.23746  0.39983  Biso   1.000  Hf
  Hf3      1.0000 0.71289  0.27102  0.09732  Biso   1.000  Hf
  Hf4      1.0000 0.70219  0.48212  0.35499  Biso   1.000  Hf
  O1       1.0000 0.05876  0.15597  0.06843  Biso   1.000  O
  O2       1.0000 0.10250  0.06603  0.33254  Biso   1.000  O
  O3       1.0000 0.94041  0.39001  0.19310  Biso   1.000  O
  O4       1.0000 0.96846  0.36434  0.44243  Biso   1.000  O
  O5       1.0000 0.57038  0.12613  0.23495  Biso   1.000  O
  O6       1.0000 0.58569  0.12410  0.48182  Biso   1.000  O
  O7       1.0000 0.44289  0.37929  0.00799  Biso   1.000  O
  O8       1.0000 0.42103  0.38084  0.25360  Biso   1.000  O
  Hf5      1.0000 0.27328  0.02272  0.64489  Biso   1.000  Hf
  Hf6      1.0000 0.27084  0.22783  0.89484  Biso   1.000  Hf
  Hf7      1.0000 0.72807  0.27686  0.60787  Biso   1.000  Hf
  Hf8      1.0000 0.71525  0.48032  0.85686  Biso   1.000  Hf
  O9       1.0000 0.07662  0.16698  0.57579  Biso   1.000  O
  O10      1.0000 0.05855  0.08923  0.82105  Biso   1.000  O
  O11      1.0000 0.93686  0.41086  0.68547  Biso   1.000  O
  O12      1.0000 0.93890  0.34446  0.92940  Biso   1.000  O
  O13      1.0000 0.54859  0.12872  0.73787  Biso   1.000  O
  O14      1.0000 0.54654  0.12279  0.98578  Biso   1.000  O
  O15      1.0000 0.45017  0.38221  0.51982  Biso   1.000  O
  O16      1.0000 0.44874  0.37301  0.76194  Biso   1.000  O
  Hf9      1.0000 0.26926  0.52116  0.14711  Biso   1.000  Hf
  Hf10     1.0000 0.26651  0.72604  0.39623  Biso   1.000  Hf
  Hf11     1.0000 0.71663  0.77091  0.10341  Biso   1.000  Hf
  Hf12     1.0000 0.72729  0.96910  0.35396  Biso   1.000  Hf
  O17      1.0000 0.04485  0.65579  0.07161  Biso   1.000  O
  O18      1.0000 0.04916  0.59408  0.31832  Biso   1.000  O
  O19      1.0000 0.93802  0.90913  0.17534  Biso   1.000  O
  O20      1.0000 0.92800  0.83156  0.42770  Biso   1.000  O
  O21      1.0000 0.54234  0.62653  0.23962  Biso   1.000  O
  O22      1.0000 0.53594  0.62498  0.49242  Biso   1.000  O
  O23      1.0000 0.44478  0.87861  0.01174  Biso   1.000  O
  O24      1.0000 0.45112  0.86678  0.25959  Biso   1.000  O
  Hf13     1.0000 0.27150  0.52459  0.64914  Biso   1.000  Hf
  Hf14     1.0000 0.26788  0.72902  0.89793  Biso   1.000  Hf
  Hf15     1.0000 0.71629  0.77138  0.60588  Biso   1.000  Hf
  Hf16     1.0000 0.71787  0.97848  0.85354  Biso   1.000  Hf
  O25      1.0000 0.05211  0.66006  0.57544  Biso   1.000  O
  O26      1.0000 0.05577  0.59249  0.82428  Biso   1.000  O
  O27      1.0000 0.93250  0.91289  0.67540  Biso   1.000  O
  O28      1.0000 0.93106  0.84012  0.92619  Biso   1.000  O
  O29      1.0000 0.54598  0.62901  0.74242  Biso   1.000  O
  O30      1.0000 0.53924  0.62357  0.99123  Biso   1.000  O
  O31      1.0000 0.44544  0.88038  0.51110  Biso   1.000  O
  O32      1.0000 0.44321  0.87249  0.76109  Biso   1.000  O
  Ru1      1.0000 0.82384  0.23668  0.32958  Biso   1.000  Ru
