data_image0
_cell_length_a       10.0589
_cell_length_b       5.16878
_cell_length_c       10.5395
_cell_angle_alpha    89.6394
_cell_angle_beta     90.6509
_cell_angle_gamma    90.1346

_symmetry_space_group_name_H-M    "P 1"
_symmetry_int_tables_number       1

loop_
  _symmetry_equiv_pos_as_xyz
  'x, y, z'

loop_
  _atom_site_label
  _atom_site_occupancy
  _atom_site_fract_x
  _atom_site_fract_y
  _atom_site_fract_z
  _atom_site_thermal_displace_type
  _atom_site_B_iso_or_equiv
  _atom_site_type_symbol
  Hf1      1.0000 0.13913  0.03345  0.17050  Biso   1.000  Hf
  Hf2      1.0000 0.13502  0.45635  0.42043  Biso   1.000  Hf
  Hf3      1.0000 0.35671  0.53470  0.17486  Biso   1.000  Hf
  Hf4      1.0000 0.36073  0.95990  0.42414  Biso   1.000  Hf
  Hf5      1.0000 0.63966  0.07318  0.07158  Biso   1.000  Hf
  Hf6      1.0000 0.63311  0.46784  0.34299  Biso   1.000  Hf
  Hf7      1.0000 0.88263  0.54127  0.06594  Biso   1.000  Hf
  Hf8      1.0000 0.86144  0.95767  0.33720  Biso   1.000  Hf
  O1       1.0000 0.04301  0.31780  0.07398  Biso   1.000  O
  O2       1.0000 0.02790  0.18296  0.32373  Biso   1.000  O
  O3       1.0000 0.46890  0.81953  0.07769  Biso   1.000  O
  O4       1.0000 0.45938  0.66869  0.33838  Biso   1.000  O
  O5       1.0000 0.27002  0.24392  0.29513  Biso   1.000  O
  O6       1.0000 0.28329  0.23993  0.04254  Biso   1.000  O
  O7       1.0000 0.21972  0.74373  0.29294  Biso   1.000  O
  O8       1.0000 0.22416  0.74303  0.04314  Biso   1.000  O
  O9       1.0000 0.51616  0.28582  0.19228  Biso   1.000  O
  O10      1.0000 0.52900  0.17689  0.43051  Biso   1.000  O
  O11      1.0000 0.96109  0.83227  0.16861  Biso   1.000  O
  O12      1.0000 0.96390  0.67024  0.41908  Biso   1.000  O
  O13      1.0000 0.77582  0.24325  0.45615  Biso   1.000  O
  O14      1.0000 0.76410  0.33392  0.19504  Biso   1.000  O
  O15      1.0000 0.72347  0.74044  0.47023  Biso   1.000  O
  O16      1.0000 0.70370  0.84944  0.23504  Biso   1.000  O
  Hf9      1.0000 0.13958  0.03653  0.66746  Biso   1.000  Hf
  Hf10     1.0000 0.14944  0.44692  0.91506  Biso   1.000  Hf
  Hf11     1.0000 0.36459  0.53480  0.66902  Biso   1.000  Hf
  Hf12     1.0000 0.36174  0.94664  0.91510  Biso   1.000  Hf
  Hf13     1.0000 0.63907  0.03955  0.58484  Biso   1.000  Hf
  Hf14     1.0000 0.63762  0.44925  0.83541  Biso   1.000  Hf
  Hf15     1.0000 0.86080  0.53625  0.58478  Biso   1.000  Hf
  Hf16     1.0000 0.86630  0.95623  0.82704  Biso   1.000  Hf
  O17      1.0000 0.03212  0.32282  0.57896  Biso   1.000  O
  O18      1.0000 0.03877  0.16729  0.82726  Biso   1.000  O
  O19      1.0000 0.46609  0.83075  0.58763  Biso   1.000  O
  O20      1.0000 0.46277  0.64648  0.83599  Biso   1.000  O
  O21      1.0000 0.27996  0.23783  0.79078  Biso   1.000  O
  O22      1.0000 0.27375  0.25075  0.54332  Biso   1.000  O
  O23      1.0000 0.22618  0.74039  0.78992  Biso   1.000  O
  O24      1.0000 0.22394  0.74987  0.54181  Biso   1.000  O
  O25      1.0000 0.53572  0.33233  0.66827  Biso   1.000  O
  O26      1.0000 0.53903  0.12396  0.89873  Biso   1.000  O
  O27      1.0000 0.96810  0.82839  0.66308  Biso   1.000  O
  O28      1.0000 0.97980  0.66770  0.90756  Biso   1.000  O
  O29      1.0000 0.79248  0.23861  0.94795  Biso   1.000  O
  O30      1.0000 0.77830  0.24452  0.70492  Biso   1.000  O
  O31      1.0000 0.73344  0.75421  0.96386  Biso   1.000  O
  O32      1.0000 0.72658  0.74398  0.71485  Biso   1.000  O
  Ru1      1.0000 0.62064  0.55834  0.09959  Biso   1.000  Ru
