data_image0
_cell_length_a       10.1523
_cell_length_b       10.2737
_cell_length_c       5.28367
_cell_angle_alpha    90.5473
_cell_angle_beta     90.6626
_cell_angle_gamma    88.9364

_symmetry_space_group_name_H-M    "P 1"
_symmetry_int_tables_number       1

loop_
  _symmetry_equiv_pos_as_xyz
  'x, y, z'

loop_
  _atom_site_label
  _atom_site_occupancy
  _atom_site_fract_x
  _atom_site_fract_y
  _atom_site_fract_z
  _atom_site_thermal_displace_type
  _atom_site_B_iso_or_equiv
  _atom_site_type_symbol
  Hf1      1.0000 0.13437  0.02141  0.34341  Biso   1.000  Hf
  Hf2      1.0000 0.14132  0.22885  0.84106  Biso   1.000  Hf
  Hf3      1.0000 0.35439  0.26374  0.35073  Biso   1.000  Hf
  Hf4      1.0000 0.36190  0.47808  0.84331  Biso   1.000  Hf
  Hf5      1.0000 0.63334  0.01266  0.16871  Biso   1.000  Hf
  Hf6      1.0000 0.63200  0.22075  0.74526  Biso   1.000  Hf
  Hf7      1.0000 0.87149  0.27899  0.13014  Biso   1.000  Hf
  Hf8      1.0000 0.87077  0.48495  0.63514  Biso   1.000  Hf
  O1       1.0000 0.03417  0.16310  0.15423  Biso   1.000  O
  O2       1.0000 0.02617  0.09325  0.65436  Biso   1.000  O
  O3       1.0000 0.47497  0.41284  0.17754  Biso   1.000  O
  O4       1.0000 0.45998  0.32436  0.68887  Biso   1.000  O
  O5       1.0000 0.26765  0.12254  0.59135  Biso   1.000  O
  O6       1.0000 0.27104  0.12219  0.08710  Biso   1.000  O
  O7       1.0000 0.22534  0.37568  0.59317  Biso   1.000  O
  O8       1.0000 0.23019  0.37501  0.08893  Biso   1.000  O
  O9       1.0000 0.49534  0.12215  0.35084  Biso   1.000  O
  O10      1.0000 0.52827  0.07073  0.84880  Biso   1.000  O
  O11      1.0000 0.98504  0.40873  0.34211  Biso   1.000  O
  O12      1.0000 0.97739  0.34739  0.83854  Biso   1.000  O
  O13      1.0000 0.78838  0.11231  0.93457  Biso   1.000  O
  O14      1.0000 0.74830  0.14086  0.43776  Biso   1.000  O
  O15      1.0000 0.73625  0.38243  0.86109  Biso   1.000  O
  O16      1.0000 0.75131  0.40150  0.35113  Biso   1.000  O
  Hf9      1.0000 0.14339  0.52212  0.34056  Biso   1.000  Hf
  Hf10     1.0000 0.13946  0.72956  0.84332  Biso   1.000  Hf
  Hf11     1.0000 0.36122  0.76872  0.34440  Biso   1.000  Hf
  Hf12     1.0000 0.35797  0.97183  0.84949  Biso   1.000  Hf
  Hf13     1.0000 0.64335  0.53262  0.13556  Biso   1.000  Hf
  Hf14     1.0000 0.64005  0.73049  0.65022  Biso   1.000  Hf
  Hf15     1.0000 0.86382  0.77447  0.15302  Biso   1.000  Hf
  Hf16     1.0000 0.86160  0.98036  0.66111  Biso   1.000  Hf
  O17      1.0000 0.03356  0.66271  0.15323  Biso   1.000  O
  O18      1.0000 0.03519  0.59460  0.65022  Biso   1.000  O
  O19      1.0000 0.46750  0.89497  0.14730  Biso   1.000  O
  O20      1.0000 0.46796  0.83662  0.65213  Biso   1.000  O
  O21      1.0000 0.27868  0.62188  0.59199  Biso   1.000  O
  O22      1.0000 0.27736  0.62411  0.08999  Biso   1.000  O
  O23      1.0000 0.22266  0.87227  0.59324  Biso   1.000  O
  O24      1.0000 0.22214  0.87444  0.09512  Biso   1.000  O
  O25      1.0000 0.53451  0.66207  0.33447  Biso   1.000  O
  O26      1.0000 0.53167  0.58562  0.82329  Biso   1.000  O
  O27      1.0000 0.96581  0.91662  0.33643  Biso   1.000  O
  O28      1.0000 0.96969  0.84178  0.83781  Biso   1.000  O
  O29      1.0000 0.77850  0.62808  0.89760  Biso   1.000  O
  O30      1.0000 0.78011  0.63697  0.40110  Biso   1.000  O
  O31      1.0000 0.72414  0.87178  0.91062  Biso   1.000  O
  O32      1.0000 0.72694  0.87867  0.41601  Biso   1.000  O
  Ru1      1.0000 0.61215  0.27241  0.28417  Biso   1.000  Ru
