data_image0
_cell_length_a       9.9964
_cell_length_b       5.09617
_cell_length_c       10.4415
_cell_angle_alpha    89.845
_cell_angle_beta     89.7798
_cell_angle_gamma    90.0413

_symmetry_space_group_name_H-M    "P 1"
_symmetry_int_tables_number       1

loop_
  _symmetry_equiv_pos_as_xyz
  'x, y, z'

loop_
  _atom_site_label
  _atom_site_occupancy
  _atom_site_fract_x
  _atom_site_fract_y
  _atom_site_fract_z
  _atom_site_thermal_displace_type
  _atom_site_B_iso_or_equiv
  _atom_site_type_symbol
  Ru1      1.0000 0.14010  0.04268  0.17748  Biso   1.000  Ru
  Hf1      1.0000 0.13923  0.46129  0.42011  Biso   1.000  Hf
  Hf2      1.0000 0.35719  0.54567  0.17182  Biso   1.000  Hf
  Hf3      1.0000 0.36083  0.95878  0.42166  Biso   1.000  Hf
  Hf4      1.0000 0.63822  0.04382  0.07812  Biso   1.000  Hf
  Hf5      1.0000 0.63775  0.45845  0.32734  Biso   1.000  Hf
  Hf6      1.0000 0.86680  0.53944  0.07951  Biso   1.000  Hf
  Hf7      1.0000 0.86182  0.96125  0.32621  Biso   1.000  Hf
  O1       1.0000 0.03222  0.31811  0.08197  Biso   1.000  O
  O2       1.0000 0.03532  0.17961  0.32275  Biso   1.000  O
  O3       1.0000 0.46800  0.82759  0.08402  Biso   1.000  O
  O4       1.0000 0.46432  0.66770  0.33434  Biso   1.000  O
  O5       1.0000 0.27653  0.24458  0.29550  Biso   1.000  O
  O6       1.0000 0.27065  0.24056  0.05345  Biso   1.000  O
  O7       1.0000 0.22075  0.75410  0.29284  Biso   1.000  O
  O8       1.0000 0.22214  0.75017  0.04526  Biso   1.000  O
  O9       1.0000 0.53182  0.33268  0.16656  Biso   1.000  O
  O10      1.0000 0.53339  0.16901  0.41644  Biso   1.000  O
  O11      1.0000 0.97624  0.83672  0.16592  Biso   1.000  O
  O12      1.0000 0.96840  0.67692  0.41634  Biso   1.000  O
  O13      1.0000 0.77766  0.24755  0.45304  Biso   1.000  O
  O14      1.0000 0.77529  0.25261  0.20442  Biso   1.000  O
  O15      1.0000 0.72315  0.74743  0.45437  Biso   1.000  O
  O16      1.0000 0.72948  0.75299  0.20480  Biso   1.000  O
  Hf8      1.0000 0.13885  0.04196  0.67200  Biso   1.000  Hf
  Hf9      1.0000 0.13733  0.45277  0.92441  Biso   1.000  Hf
  Hf10     1.0000 0.36125  0.54256  0.67258  Biso   1.000  Hf
  Hf11     1.0000 0.35956  0.95399  0.92358  Biso   1.000  Hf
  Hf12     1.0000 0.63879  0.04274  0.57867  Biso   1.000  Hf
  Hf13     1.0000 0.63894  0.45881  0.82960  Biso   1.000  Hf
  Hf14     1.0000 0.86090  0.54279  0.57730  Biso   1.000  Hf
  Hf15     1.0000 0.86092  0.95734  0.82868  Biso   1.000  Hf
  O17      1.0000 0.03026  0.31970  0.57593  Biso   1.000  O
  O18      1.0000 0.03052  0.17534  0.82878  Biso   1.000  O
  O19      1.0000 0.46663  0.83216  0.58475  Biso   1.000  O
  O20      1.0000 0.46651  0.66921  0.83491  Biso   1.000  O
  O21      1.0000 0.27671  0.24688  0.79849  Biso   1.000  O
  O22      1.0000 0.27683  0.25440  0.54578  Biso   1.000  O
  O23      1.0000 0.22322  0.74711  0.79488  Biso   1.000  O
  O24      1.0000 0.22340  0.75168  0.54436  Biso   1.000  O
  O25      1.0000 0.53337  0.33155  0.66699  Biso   1.000  O
  O26      1.0000 0.53105  0.17179  0.91811  Biso   1.000  O
  O27      1.0000 0.96870  0.82283  0.66814  Biso   1.000  O
  O28      1.0000 0.96846  0.67050  0.91827  Biso   1.000  O
  O29      1.0000 0.77636  0.25023  0.95493  Biso   1.000  O
  O30      1.0000 0.77665  0.25227  0.70449  Biso   1.000  O
  O31      1.0000 0.72408  0.74844  0.95528  Biso   1.000  O
  O32      1.0000 0.72343  0.75323  0.70484  Biso   1.000  O
