data_image0
_cell_length_a       10.0489
_cell_length_b       10.2619
_cell_length_c       10.5087
_cell_angle_alpha    89.5758
_cell_angle_beta     90.3786
_cell_angle_gamma    89.9435

_symmetry_space_group_name_H-M    "P 1"
_symmetry_int_tables_number       1

loop_
  _symmetry_equiv_pos_as_xyz
  'x, y, z'

loop_
  _atom_site_label
  _atom_site_occupancy
  _atom_site_fract_x
  _atom_site_fract_y
  _atom_site_fract_z
  _atom_site_thermal_displace_type
  _atom_site_B_iso_or_equiv
  _atom_site_type_symbol
  Hf1      1.0000 0.14185  0.01848  0.17131  Biso   1.000  Hf
  Hf2      1.0000 0.13549  0.22953  0.42132  Biso   1.000  Hf
  Hf3      1.0000 0.35835  0.26641  0.17502  Biso   1.000  Hf
  Hf4      1.0000 0.36047  0.48060  0.42212  Biso   1.000  Hf
  Hf5      1.0000 0.63405  0.01739  0.06745  Biso   1.000  Hf
  Hf6      1.0000 0.63411  0.23368  0.33999  Biso   1.000  Hf
  Hf7      1.0000 0.88031  0.26801  0.06843  Biso   1.000  Hf
  Hf8      1.0000 0.86070  0.48226  0.33540  Biso   1.000  Hf
  O1       1.0000 0.04348  0.16126  0.07643  Biso   1.000  O
  O2       1.0000 0.02737  0.09140  0.32590  Biso   1.000  O
  O3       1.0000 0.47298  0.41043  0.08096  Biso   1.000  O
  O4       1.0000 0.45993  0.33337  0.33794  Biso   1.000  O
  O5       1.0000 0.27067  0.12314  0.29663  Biso   1.000  O
  O6       1.0000 0.28249  0.12224  0.04257  Biso   1.000  O
  O7       1.0000 0.22047  0.37327  0.29326  Biso   1.000  O
  O8       1.0000 0.22629  0.37447  0.04324  Biso   1.000  O
  O9       1.0000 0.51545  0.13596  0.19204  Biso   1.000  O
  O10      1.0000 0.52863  0.08972  0.42972  Biso   1.000  O
  O11      1.0000 0.96105  0.41484  0.16878  Biso   1.000  O
  O12      1.0000 0.96543  0.33725  0.42015  Biso   1.000  O
  O13      1.0000 0.77672  0.12281  0.45305  Biso   1.000  O
  O14      1.0000 0.76082  0.14808  0.19227  Biso   1.000  O
  O15      1.0000 0.72401  0.37185  0.46884  Biso   1.000  O
  O16      1.0000 0.70469  0.41050  0.23514  Biso   1.000  O
  Hf9      1.0000 0.13996  0.02003  0.66927  Biso   1.000  Hf
  Hf10     1.0000 0.14841  0.22541  0.91596  Biso   1.000  Hf
  Hf11     1.0000 0.36382  0.27045  0.66978  Biso   1.000  Hf
  Hf12     1.0000 0.36245  0.47822  0.91934  Biso   1.000  Hf
  Hf13     1.0000 0.63843  0.02183  0.58182  Biso   1.000  Hf
  Hf14     1.0000 0.63698  0.22338  0.83521  Biso   1.000  Hf
  Hf15     1.0000 0.86110  0.26993  0.58408  Biso   1.000  Hf
  Hf16     1.0000 0.86263  0.47970  0.82970  Biso   1.000  Hf
  O17      1.0000 0.03233  0.16294  0.58085  Biso   1.000  O
  O18      1.0000 0.03800  0.08404  0.82944  Biso   1.000  O
  O19      1.0000 0.46664  0.41659  0.58429  Biso   1.000  O
  O20      1.0000 0.46709  0.33380  0.83404  Biso   1.000  O
  O21      1.0000 0.28013  0.12141  0.79212  Biso   1.000  O
  O22      1.0000 0.27504  0.12653  0.54441  Biso   1.000  O
  O23      1.0000 0.22614  0.37259  0.79213  Biso   1.000  O
  O24      1.0000 0.22319  0.37662  0.54346  Biso   1.000  O
  O25      1.0000 0.53424  0.16664  0.66845  Biso   1.000  O
  O26      1.0000 0.53758  0.06022  0.89593  Biso   1.000  O
  O27      1.0000 0.96629  0.41559  0.66700  Biso   1.000  O
  O28      1.0000 0.97609  0.33456  0.91015  Biso   1.000  O
  O29      1.0000 0.79138  0.11661  0.94713  Biso   1.000  O
  O30      1.0000 0.77702  0.12400  0.70309  Biso   1.000  O
  O31      1.0000 0.73033  0.37720  0.96588  Biso   1.000  O
  O32      1.0000 0.72480  0.37502  0.71494  Biso   1.000  O
  Hf17     1.0000 0.13723  0.51997  0.17106  Biso   1.000  Hf
  Hf18     1.0000 0.13739  0.72927  0.42058  Biso   1.000  Hf
  Hf19     1.0000 0.35920  0.77108  0.17223  Biso   1.000  Hf
  Hf20     1.0000 0.36235  0.97930  0.42401  Biso   1.000  Hf
  Hf21     1.0000 0.64508  0.53589  0.08349  Biso   1.000  Hf
  Hf22     1.0000 0.63877  0.73225  0.33032  Biso   1.000  Hf
  Hf23     1.0000 0.86459  0.77620  0.07860  Biso   1.000  Hf
  Hf24     1.0000 0.86038  0.98022  0.32811  Biso   1.000  Hf
  O33      1.0000 0.03325  0.66376  0.08090  Biso   1.000  O
  O34      1.0000 0.03309  0.58837  0.32955  Biso   1.000  O
  O35      1.0000 0.46523  0.90855  0.07759  Biso   1.000  O
  O36      1.0000 0.46721  0.83887  0.33168  Biso   1.000  O
  O37      1.0000 0.27487  0.62348  0.29459  Biso   1.000  O
  O38      1.0000 0.27770  0.62289  0.04549  Biso   1.000  O
  O39      1.0000 0.22328  0.87326  0.29530  Biso   1.000  O
  O40      1.0000 0.22149  0.87305  0.04537  Biso   1.000  O
  O41      1.0000 0.53159  0.66683  0.17059  Biso   1.000  O
  O42      1.0000 0.53177  0.58816  0.42010  Biso   1.000  O
  O43      1.0000 0.96736  0.91876  0.16673  Biso   1.000  O
  O44      1.0000 0.96523  0.83850  0.41543  Biso   1.000  O
  O45      1.0000 0.77495  0.62460  0.45684  Biso   1.000  O
  O46      1.0000 0.78134  0.64056  0.20647  Biso   1.000  O
  O47      1.0000 0.72278  0.87470  0.45614  Biso   1.000  O
  O48      1.0000 0.72428  0.88477  0.20560  Biso   1.000  O
  Hf25     1.0000 0.13805  0.52008  0.66987  Biso   1.000  Hf
  Hf26     1.0000 0.13943  0.72656  0.92086  Biso   1.000  Hf
  Hf27     1.0000 0.36153  0.76821  0.67093  Biso   1.000  Hf
  Hf28     1.0000 0.36081  0.97256  0.91739  Biso   1.000  Hf
  Hf29     1.0000 0.63891  0.52028  0.58152  Biso   1.000  Hf
  Hf30     1.0000 0.63927  0.72783  0.82802  Biso   1.000  Hf
  Hf31     1.0000 0.86068  0.77184  0.57875  Biso   1.000  Hf
  Hf32     1.0000 0.86476  0.97719  0.82603  Biso   1.000  Hf
  O49      1.0000 0.03144  0.66408  0.57980  Biso   1.000  O
  O50      1.0000 0.03332  0.58557  0.83025  Biso   1.000  O
  O51      1.0000 0.46746  0.91283  0.58542  Biso   1.000  O
  O52      1.0000 0.46353  0.82450  0.83352  Biso   1.000  O
  O53      1.0000 0.27605  0.62076  0.79401  Biso   1.000  O
  O54      1.0000 0.27429  0.62601  0.54427  Biso   1.000  O
  O55      1.0000 0.22349  0.87094  0.79319  Biso   1.000  O
  O56      1.0000 0.22421  0.87575  0.54355  Biso   1.000  O
  O57      1.0000 0.53304  0.66299  0.66817  Biso   1.000  O
  O58      1.0000 0.53458  0.58464  0.91974  Biso   1.000  O
  O59      1.0000 0.96924  0.91367  0.66365  Biso   1.000  O
  O60      1.0000 0.97108  0.83548  0.91635  Biso   1.000  O
  O61      1.0000 0.77968  0.62572  0.95531  Biso   1.000  O
  O62      1.0000 0.77744  0.62515  0.70557  Biso   1.000  O
  O63      1.0000 0.72599  0.87038  0.95415  Biso   1.000  O
  O64      1.0000 0.72531  0.87372  0.70537  Biso   1.000  O
  Ru1      1.0000 0.61902  0.26997  0.09640  Biso   1.000  Ru
