data_image0
_cell_length_a       9.99398
_cell_length_b       10.1584
_cell_length_c       9.99396
_cell_angle_alpha    89.9999
_cell_angle_beta     90
_cell_angle_gamma    90

_symmetry_space_group_name_H-M    "P 1"
_symmetry_int_tables_number       1

loop_
  _symmetry_equiv_pos_as_xyz
  'x, y, z'

loop_
  _atom_site_label
  _atom_site_occupancy
  _atom_site_fract_x
  _atom_site_fract_y
  _atom_site_fract_z
  _atom_site_thermal_displace_type
  _atom_site_B_iso_or_equiv
  _atom_site_type_symbol
  Ru1      1.0000 0.12491  0.00005  0.12491  Biso   1.000  Ru
  Hf1      1.0000 0.12507  0.24871  0.37285  Biso   1.000  Hf
  Hf2      1.0000 0.37285  0.24871  0.12507  Biso   1.000  Hf
  Hf3      1.0000 0.37338  0.99899  0.37338  Biso   1.000  Hf
  O1       1.0000 0.99948  0.13908  0.99948  Biso   1.000  O
  O2       1.0000 0.00551  0.10546  0.24430  Biso   1.000  O
  O3       1.0000 0.99747  0.35506  0.25235  Biso   1.000  O
  O4       1.0000 0.00153  0.39373  0.00153  Biso   1.000  O
  O5       1.0000 0.25034  0.13908  0.25034  Biso   1.000  O
  O6       1.0000 0.24430  0.10546  0.00551  Biso   1.000  O
  O7       1.0000 0.25235  0.35506  0.99746  Biso   1.000  O
  O8       1.0000 0.24829  0.39373  0.24829  Biso   1.000  O
  Hf4      1.0000 0.12491  0.00005  0.62491  Biso   1.000  Hf
  Hf5      1.0000 0.12475  0.24871  0.87697  Biso   1.000  Hf
  Hf6      1.0000 0.37517  0.25012  0.62498  Biso   1.000  Hf
  Hf7      1.0000 0.37338  0.00112  0.87643  Biso   1.000  Hf
  O9       1.0000 0.99583  0.14715  0.49443  Biso   1.000  O
  O10      1.0000 0.00179  0.10329  0.74781  Biso   1.000  O
  O11      1.0000 0.99794  0.35234  0.75263  Biso   1.000  O
  O12      1.0000 0.00064  0.39706  0.50136  Biso   1.000  O
  O13      1.0000 0.25399  0.14715  0.75539  Biso   1.000  O
  O14      1.0000 0.24803  0.10329  0.50200  Biso   1.000  O
  O15      1.0000 0.25188  0.35234  0.49719  Biso   1.000  O
  O16      1.0000 0.24917  0.39706  0.74846  Biso   1.000  O
  Hf8      1.0000 0.12491  0.50005  0.12491  Biso   1.000  Hf
  Hf9      1.0000 0.12474  0.75140  0.37285  Biso   1.000  Hf
  Hf10     1.0000 0.37284  0.75140  0.12474  Biso   1.000  Hf
  Hf11     1.0000 0.37499  0.49941  0.37499  Biso   1.000  Hf
  O17      1.0000 0.99746  0.64505  0.99747  Biso   1.000  O
  O18      1.0000 0.00152  0.60638  0.24829  Biso   1.000  O
  O19      1.0000 0.99948  0.86103  0.25034  Biso   1.000  O
  O20      1.0000 0.00551  0.89465  0.00551  Biso   1.000  O
  O21      1.0000 0.25235  0.64505  0.25235  Biso   1.000  O
  O22      1.0000 0.24829  0.60638  0.00153  Biso   1.000  O
  O23      1.0000 0.25034  0.86103  0.99948  Biso   1.000  O
  O24      1.0000 0.24431  0.89464  0.24431  Biso   1.000  O
  Hf12     1.0000 0.12491  0.50005  0.62491  Biso   1.000  Hf
  Hf13     1.0000 0.12507  0.75140  0.87697  Biso   1.000  Hf
  Hf14     1.0000 0.37517  0.74999  0.62484  Biso   1.000  Hf
  Hf15     1.0000 0.37499  0.50069  0.87483  Biso   1.000  Hf
  O25      1.0000 0.99794  0.64777  0.49719  Biso   1.000  O
  O26      1.0000 0.00064  0.60304  0.74846  Biso   1.000  O
  O27      1.0000 0.99583  0.85296  0.75539  Biso   1.000  O
  O28      1.0000 0.00178  0.89681  0.50200  Biso   1.000  O
  O29      1.0000 0.25188  0.64777  0.75263  Biso   1.000  O
  O30      1.0000 0.24917  0.60304  0.50136  Biso   1.000  O
  O31      1.0000 0.25399  0.85295  0.49443  Biso   1.000  O
  O32      1.0000 0.24803  0.89681  0.74781  Biso   1.000  O
  Hf16     1.0000 0.62491  0.00005  0.12491  Biso   1.000  Hf
  Hf17     1.0000 0.62498  0.25012  0.37517  Biso   1.000  Hf
  Hf18     1.0000 0.87697  0.24870  0.12474  Biso   1.000  Hf
  Hf19     1.0000 0.87643  0.00112  0.37338  Biso   1.000  Hf
  O33      1.0000 0.49443  0.14715  0.99583  Biso   1.000  O
  O34      1.0000 0.50201  0.10329  0.24803  Biso   1.000  O
  O35      1.0000 0.49719  0.35234  0.25188  Biso   1.000  O
  O36      1.0000 0.50136  0.39707  0.00065  Biso   1.000  O
  O37      1.0000 0.75539  0.14715  0.25399  Biso   1.000  O
  O38      1.0000 0.74781  0.10329  0.00178  Biso   1.000  O
  O39      1.0000 0.75263  0.35234  0.99794  Biso   1.000  O
  O40      1.0000 0.74845  0.39706  0.24917  Biso   1.000  O
  Hf20     1.0000 0.62491  0.00005  0.62491  Biso   1.000  Hf
  Hf21     1.0000 0.62484  0.25012  0.87465  Biso   1.000  Hf
  Hf22     1.0000 0.87465  0.25012  0.62484  Biso   1.000  Hf
  Hf23     1.0000 0.87643  0.99899  0.87643  Biso   1.000  Hf
  O41      1.0000 0.49628  0.14658  0.49628  Biso   1.000  O
  O42      1.0000 0.50163  0.10362  0.74819  Biso   1.000  O
  O43      1.0000 0.49826  0.35386  0.75156  Biso   1.000  O
  O44      1.0000 0.50107  0.39638  0.50107  Biso   1.000  O
  O45      1.0000 0.75354  0.14658  0.75354  Biso   1.000  O
  O46      1.0000 0.74819  0.10363  0.50163  Biso   1.000  O
  O47      1.0000 0.75156  0.35386  0.49826  Biso   1.000  O
  O48      1.0000 0.74874  0.39638  0.74874  Biso   1.000  O
  Hf24     1.0000 0.62491  0.50005  0.12491  Biso   1.000  Hf
  Hf25     1.0000 0.62484  0.74999  0.37517  Biso   1.000  Hf
  Hf26     1.0000 0.87697  0.75140  0.12507  Biso   1.000  Hf
  Hf27     1.0000 0.87483  0.50069  0.37499  Biso   1.000  Hf
  O49      1.0000 0.49719  0.64777  0.99794  Biso   1.000  O
  O50      1.0000 0.50136  0.60304  0.24917  Biso   1.000  O
  O51      1.0000 0.49443  0.85295  0.25399  Biso   1.000  O
  O52      1.0000 0.50201  0.89681  0.00178  Biso   1.000  O
  O53      1.0000 0.75263  0.64777  0.25188  Biso   1.000  O
  O54      1.0000 0.74845  0.60304  0.00065  Biso   1.000  O
  O55      1.0000 0.75539  0.85295  0.99583  Biso   1.000  O
  O56      1.0000 0.74781  0.89681  0.24803  Biso   1.000  O
  Hf28     1.0000 0.62491  0.50005  0.62491  Biso   1.000  Hf
  Hf29     1.0000 0.62498  0.74999  0.87465  Biso   1.000  Hf
  Hf30     1.0000 0.87465  0.74999  0.62498  Biso   1.000  Hf
  Hf31     1.0000 0.87483  0.49941  0.87483  Biso   1.000  Hf
  O57      1.0000 0.49826  0.64625  0.49826  Biso   1.000  O
  O58      1.0000 0.50107  0.60373  0.74874  Biso   1.000  O
  O59      1.0000 0.49628  0.85353  0.75353  Biso   1.000  O
  O60      1.0000 0.50163  0.89648  0.50163  Biso   1.000  O
  O61      1.0000 0.75156  0.64625  0.75156  Biso   1.000  O
  O62      1.0000 0.74874  0.60373  0.50107  Biso   1.000  O
  O63      1.0000 0.75354  0.85353  0.49628  Biso   1.000  O
  O64      1.0000 0.74819  0.89648  0.74819  Biso   1.000  O
