data_image0
_cell_length_a       10.2263
_cell_length_b       10.3331
_cell_length_c       5.3193
_cell_angle_alpha    90.7763
_cell_angle_beta     90.894
_cell_angle_gamma    89.0527

_symmetry_space_group_name_H-M    "P 1"
_symmetry_int_tables_number       1

loop_
  _symmetry_equiv_pos_as_xyz
  'x, y, z'

loop_
  _atom_site_label
  _atom_site_occupancy
  _atom_site_fract_x
  _atom_site_fract_y
  _atom_site_fract_z
  _atom_site_thermal_displace_type
  _atom_site_B_iso_or_equiv
  _atom_site_type_symbol
  Zr1      1.0000 0.13512  0.02197  0.34361  Biso   1.000  Zr
  Zr2      1.0000 0.14267  0.22914  0.84166  Biso   1.000  Zr
  Zr3      1.0000 0.35641  0.26488  0.35226  Biso   1.000  Zr
  Zr4      1.0000 0.36148  0.47869  0.84353  Biso   1.000  Zr
  Zr5      1.0000 0.63493  0.01376  0.16979  Biso   1.000  Zr
  Zr6      1.0000 0.62866  0.21674  0.73062  Biso   1.000  Zr
  Zr7      1.0000 0.87138  0.27732  0.12582  Biso   1.000  Zr
  Zr8      1.0000 0.87040  0.48288  0.63452  Biso   1.000  Zr
  O1       1.0000 0.03359  0.15979  0.14688  Biso   1.000  O
  O2       1.0000 0.02589  0.09531  0.64977  Biso   1.000  O
  O3       1.0000 0.47638  0.41195  0.17687  Biso   1.000  O
  O4       1.0000 0.46011  0.32729  0.68860  Biso   1.000  O
  O5       1.0000 0.26808  0.12262  0.59355  Biso   1.000  O
  O6       1.0000 0.27238  0.12248  0.09172  Biso   1.000  O
  O7       1.0000 0.22643  0.37578  0.59212  Biso   1.000  O
  O8       1.0000 0.23137  0.37476  0.08934  Biso   1.000  O
  O9       1.0000 0.50289  0.12626  0.37319  Biso   1.000  O
  O10      1.0000 0.52447  0.07339  0.86221  Biso   1.000  O
  O11      1.0000 0.98644  0.40524  0.34611  Biso   1.000  O
  O12      1.0000 0.97966  0.34912  0.84133  Biso   1.000  O
  O13      1.0000 0.78503  0.11256  0.92538  Biso   1.000  O
  O14      1.0000 0.75152  0.14435  0.42500  Biso   1.000  O
  O15      1.0000 0.73528  0.37871  0.85492  Biso   1.000  O
  O16      1.0000 0.75313  0.40199  0.34302  Biso   1.000  O
  Zr9      1.0000 0.14231  0.52149  0.33971  Biso   1.000  Zr
  Zr10     1.0000 0.13922  0.72846  0.84312  Biso   1.000  Zr
  Zr11     1.0000 0.36119  0.76933  0.34633  Biso   1.000  Zr
  Zr12     1.0000 0.35693  0.97097  0.85281  Biso   1.000  Zr
  Zr13     1.0000 0.64302  0.53332  0.13389  Biso   1.000  Zr
  Zr14     1.0000 0.64053  0.73056  0.65037  Biso   1.000  Zr
  Zr15     1.0000 0.86392  0.77381  0.15453  Biso   1.000  Zr
  Zr16     1.0000 0.86400  0.97944  0.66259  Biso   1.000  Zr
  O17      1.0000 0.03186  0.66013  0.14858  Biso   1.000  O
  O18      1.0000 0.03298  0.59593  0.64570  Biso   1.000  O
  O19      1.0000 0.46727  0.89674  0.15278  Biso   1.000  O
  O20      1.0000 0.46913  0.83802  0.65424  Biso   1.000  O
  O21      1.0000 0.27693  0.62226  0.59287  Biso   1.000  O
  O22      1.0000 0.27585  0.62427  0.09113  Biso   1.000  O
  O23      1.0000 0.22315  0.87225  0.59494  Biso   1.000  O
  O24      1.0000 0.22260  0.87400  0.09650  Biso   1.000  O
  O25      1.0000 0.53367  0.66196  0.33608  Biso   1.000  O
  O26      1.0000 0.53034  0.58752  0.82482  Biso   1.000  O
  O27      1.0000 0.96798  0.91420  0.33932  Biso   1.000  O
  O28      1.0000 0.97080  0.84298  0.84130  Biso   1.000  O
  O29      1.0000 0.77769  0.62737  0.89548  Biso   1.000  O
  O30      1.0000 0.77891  0.63710  0.40045  Biso   1.000  O
  O31      1.0000 0.72529  0.87154  0.91388  Biso   1.000  O
  O32      1.0000 0.72859  0.87995  0.41891  Biso   1.000  O
  Ru1      1.0000 0.61462  0.27457  0.27692  Biso   1.000  Ru
