data_image0
_cell_length_a       10.2495
_cell_length_b       5.18505
_cell_length_c       10.6313
_cell_angle_alpha    89.6859
_cell_angle_beta     79.7425
_cell_angle_gamma    90.7855

_symmetry_space_group_name_H-M    "P 1"
_symmetry_int_tables_number       1

loop_
  _symmetry_equiv_pos_as_xyz
  'x, y, z'

loop_
  _atom_site_label
  _atom_site_occupancy
  _atom_site_fract_x
  _atom_site_fract_y
  _atom_site_fract_z
  _atom_site_thermal_displace_type
  _atom_site_B_iso_or_equiv
  _atom_site_type_symbol
  Zr1      1.0000 0.13439  0.04705  0.14275  Biso   1.000  Zr
  Zr2      1.0000 0.13681  0.47154  0.39451  Biso   1.000  Zr
  Zr3      1.0000 0.35570  0.54010  0.09681  Biso   1.000  Zr
  Zr4      1.0000 0.35106  0.94186  0.35447  Biso   1.000  Zr
  O1       1.0000 0.03118  0.34080  0.07543  Biso   1.000  O
  O2       1.0000 0.03265  0.18273  0.32227  Biso   1.000  O
  O3       1.0000 0.47545  0.75884  0.19513  Biso   1.000  O
  O4       1.0000 0.48200  0.71080  0.44346  Biso   1.000  O
  O5       1.0000 0.27979  0.25364  0.23853  Biso   1.000  O
  O6       1.0000 0.28308  0.25774  0.48296  Biso   1.000  O
  O7       1.0000 0.22328  0.76175  0.00530  Biso   1.000  O
  O8       1.0000 0.20773  0.75927  0.24986  Biso   1.000  O
  Zr5      1.0000 0.13493  0.05133  0.64708  Biso   1.000  Zr
  Zr6      1.0000 0.13385  0.46148  0.89429  Biso   1.000  Zr
  Zr7      1.0000 0.36088  0.55203  0.60899  Biso   1.000  Zr
  Zr8      1.0000 0.36007  0.96045  0.85481  Biso   1.000  Zr
  O9       1.0000 0.03389  0.33347  0.57543  Biso   1.000  O
  O10      1.0000 0.02989  0.17240  0.82712  Biso   1.000  O
  O11      1.0000 0.46998  0.81798  0.68406  Biso   1.000  O
  O12      1.0000 0.47162  0.69076  0.93204  Biso   1.000  O
  O13      1.0000 0.27284  0.25919  0.73957  Biso   1.000  O
  O14      1.0000 0.27051  0.24792  0.98665  Biso   1.000  O
  O15      1.0000 0.21978  0.76999  0.51740  Biso   1.000  O
  O16      1.0000 0.22433  0.74781  0.76027  Biso   1.000  O
  Zr9      1.0000 0.63897  0.03501  0.14751  Biso   1.000  Zr
  Zr10     1.0000 0.64175  0.45464  0.40010  Biso   1.000  Zr
  Zr11     1.0000 0.85969  0.54388  0.10570  Biso   1.000  Zr
  Zr12     1.0000 0.86147  0.96097  0.35453  Biso   1.000  Zr
  O17      1.0000 0.52318  0.28928  0.06798  Biso   1.000  O
  O18      1.0000 0.54151  0.13694  0.32638  Biso   1.000  O
  O19      1.0000 0.96317  0.84005  0.16981  Biso   1.000  O
  O20      1.0000 0.96728  0.68497  0.42628  Biso   1.000  O
  O21      1.0000 0.77530  0.25326  0.23788  Biso   1.000  O
  O22      1.0000 0.77711  0.24254  0.49132  Biso   1.000  O
  O23      1.0000 0.72270  0.75170  0.01305  Biso   1.000  O
  O24      1.0000 0.72857  0.73809  0.26241  Biso   1.000  O
  Zr13     1.0000 0.63863  0.04520  0.64601  Biso   1.000  Zr
  Zr14     1.0000 0.63644  0.45149  0.89802  Biso   1.000  Zr
  Zr15     1.0000 0.86123  0.54816  0.60642  Biso   1.000  Zr
  Zr16     1.0000 0.85748  0.95615  0.85673  Biso   1.000  Zr
  O25      1.0000 0.53009  0.32142  0.57585  Biso   1.000  O
  O26      1.0000 0.52850  0.18754  0.82006  Biso   1.000  O
  O27      1.0000 0.96595  0.83135  0.67672  Biso   1.000  O
  O28      1.0000 0.96364  0.67211  0.92227  Biso   1.000  O
  O29      1.0000 0.77407  0.25723  0.74120  Biso   1.000  O
  O30      1.0000 0.77234  0.24225  0.99087  Biso   1.000  O
  O31      1.0000 0.72724  0.75567  0.51378  Biso   1.000  O
  O32      1.0000 0.72356  0.74357  0.76253  Biso   1.000  O
  Ru1      1.0000 0.40575  0.46579  0.33237  Biso   1.000  Ru
