data_image0
_cell_length_a       5.0625
_cell_length_b       10.5401
_cell_length_c       10.1165
_cell_angle_alpha    89.4809
_cell_angle_beta     90.2225
_cell_angle_gamma    90.0633

_symmetry_space_group_name_H-M    "P 1"
_symmetry_int_tables_number       1

loop_
  _symmetry_equiv_pos_as_xyz
  'x, y, z'

loop_
  _atom_site_label
  _atom_site_occupancy
  _atom_site_fract_x
  _atom_site_fract_y
  _atom_site_fract_z
  _atom_site_thermal_displace_type
  _atom_site_B_iso_or_equiv
  _atom_site_type_symbol
  Zr1      1.0000 0.26068  0.01688  0.11742  Biso   1.000  Zr
  Zr2      1.0000 0.26226  0.22895  0.38413  Biso   1.000  Zr
  Zr3      1.0000 0.69255  0.25259  0.12078  Biso   1.000  Zr
  Zr4      1.0000 0.74046  0.48533  0.37531  Biso   1.000  Zr
  O1       1.0000 0.00914  0.17158  0.22230  Biso   1.000  O
  O2       1.0000 0.06843  0.06363  0.45329  Biso   1.000  O
  O3       1.0000 0.91728  0.44285  0.19823  Biso   1.000  O
  O4       1.0000 0.93986  0.32145  0.45215  Biso   1.000  O
  O5       1.0000 0.50704  0.11028  0.25050  Biso   1.000  O
  O6       1.0000 0.54560  0.13374  0.49778  Biso   1.000  O
  O7       1.0000 0.46909  0.38428  0.49981  Biso   1.000  O
  O8       1.0000 0.44831  0.35979  0.25183  Biso   1.000  O
  Zr5      1.0000 0.27466  0.01180  0.62501  Biso   1.000  Zr
  Zr6      1.0000 0.28410  0.22348  0.86788  Biso   1.000  Zr
  Zr7      1.0000 0.74055  0.26498  0.62532  Biso   1.000  Zr
  Zr8      1.0000 0.73739  0.48494  0.87450  Biso   1.000  Zr
  O9       1.0000 0.07500  0.17870  0.69168  Biso   1.000  O
  O10      1.0000 0.08820  0.05839  0.93510  Biso   1.000  O
  O11      1.0000 0.94363  0.42997  0.70295  Biso   1.000  O
  O12      1.0000 0.93852  0.30871  0.94801  Biso   1.000  O
  O13      1.0000 0.54806  0.11114  0.74407  Biso   1.000  O
  O14      1.0000 0.57631  0.11785  0.98902  Biso   1.000  O
  O15      1.0000 0.46483  0.39245  0.99793  Biso   1.000  O
  O16      1.0000 0.47647  0.36293  0.74894  Biso   1.000  O
  Zr9      1.0000 0.26240  0.53783  0.12396  Biso   1.000  Zr
  Zr10     1.0000 0.27192  0.73792  0.37751  Biso   1.000  Zr
  Zr11     1.0000 0.72714  0.76919  0.12660  Biso   1.000  Zr
  Zr12     1.0000 0.73618  0.98671  0.37131  Biso   1.000  Zr
  O17      1.0000 0.06419  0.69072  0.20163  Biso   1.000  O
  O18      1.0000 0.06589  0.56964  0.44941  Biso   1.000  O
  O19      1.0000 0.92670  0.93437  0.19254  Biso   1.000  O
  O20      1.0000 0.93378  0.81851  0.44425  Biso   1.000  O
  O21      1.0000 0.53957  0.62165  0.25158  Biso   1.000  O
  O22      1.0000 0.53687  0.63415  0.49953  Biso   1.000  O
  O23      1.0000 0.47059  0.88505  0.49701  Biso   1.000  O
  O24      1.0000 0.46105  0.86714  0.24806  Biso   1.000  O
  Zr13     1.0000 0.27305  0.51274  0.62505  Biso   1.000  Zr
  Zr14     1.0000 0.26943  0.73682  0.87113  Biso   1.000  Zr
  Zr15     1.0000 0.74309  0.76269  0.62127  Biso   1.000  Zr
  Zr16     1.0000 0.74361  0.97610  0.87194  Biso   1.000  Zr
  O25      1.0000 0.07469  0.67996  0.69444  Biso   1.000  O
  O26      1.0000 0.06587  0.57146  0.94586  Biso   1.000  O
  O27      1.0000 0.94751  0.92513  0.69623  Biso   1.000  O
  O28      1.0000 0.93801  0.81487  0.94865  Biso   1.000  O
  O29      1.0000 0.54175  0.61195  0.74856  Biso   1.000  O
  O30      1.0000 0.53843  0.63984  0.99640  Biso   1.000  O
  O31      1.0000 0.46277  0.88155  0.99732  Biso   1.000  O
  O32      1.0000 0.47758  0.86134  0.74585  Biso   1.000  O
  Ru1      1.0000 0.18741  0.30507  0.10773  Biso   1.000  Ru
