data_image0
_cell_length_a       10.0995
_cell_length_b       10.5868
_cell_length_c       5.0655
_cell_angle_alpha    89.7638
_cell_angle_beta     90.2636
_cell_angle_gamma    90.2908

_symmetry_space_group_name_H-M    "P 1"
_symmetry_int_tables_number       1

loop_
  _symmetry_equiv_pos_as_xyz
  'x, y, z'

loop_
  _atom_site_label
  _atom_site_occupancy
  _atom_site_fract_x
  _atom_site_fract_y
  _atom_site_fract_z
  _atom_site_thermal_displace_type
  _atom_site_B_iso_or_equiv
  _atom_site_type_symbol
  Zr1      1.0000 0.13587  0.01490  0.24334  Biso   1.000  Zr
  Zr2      1.0000 0.14156  0.21699  0.75380  Biso   1.000  Zr
  Zr3      1.0000 0.36883  0.26061  0.23671  Biso   1.000  Zr
  Zr4      1.0000 0.37012  0.48471  0.74141  Biso   1.000  Zr
  O1       1.0000 0.01203  0.16970  0.43477  Biso   1.000  O
  O2       1.0000 0.03532  0.05993  0.90108  Biso   1.000  O
  O3       1.0000 0.46872  0.43033  0.39410  Biso   1.000  O
  O4       1.0000 0.46809  0.31706  0.88846  Biso   1.000  O
  O5       1.0000 0.26795  0.10593  0.49147  Biso   1.000  O
  O6       1.0000 0.29002  0.11998  0.97845  Biso   1.000  O
  O7       1.0000 0.23959  0.40003  0.01016  Biso   1.000  O
  O8       1.0000 0.24037  0.35187  0.51169  Biso   1.000  O
  Zr5      1.0000 0.12957  0.54026  0.23544  Biso   1.000  Zr
  Zr6      1.0000 0.13323  0.74249  0.74535  Biso   1.000  Zr
  Zr7      1.0000 0.36955  0.76445  0.24607  Biso   1.000  Zr
  Zr8      1.0000 0.37062  0.97843  0.74425  Biso   1.000  Zr
  O9       1.0000 0.03097  0.69172  0.39591  Biso   1.000  O
  O10      1.0000 0.03059  0.57490  0.88741  Biso   1.000  O
  O11      1.0000 0.46920  0.92821  0.38491  Biso   1.000  O
  O12      1.0000 0.47006  0.81523  0.89134  Biso   1.000  O
  O13      1.0000 0.27049  0.61688  0.49311  Biso   1.000  O
  O14      1.0000 0.26834  0.64367  0.98575  Biso   1.000  O
  O15      1.0000 0.23248  0.88354  0.99427  Biso   1.000  O
  O16      1.0000 0.23564  0.86279  0.49136  Biso   1.000  O
  Zr9      1.0000 0.63276  0.01226  0.24367  Biso   1.000  Zr
  Zr10     1.0000 0.62942  0.22972  0.74633  Biso   1.000  Zr
  Zr11     1.0000 0.85083  0.26248  0.25335  Biso   1.000  Zr
  Zr12     1.0000 0.86537  0.48427  0.75269  Biso   1.000  Zr
  O17      1.0000 0.53262  0.17670  0.39238  Biso   1.000  O
  O18      1.0000 0.53984  0.06278  0.88535  Biso   1.000  O
  O19      1.0000 0.96152  0.44078  0.40366  Biso   1.000  O
  O20      1.0000 0.97413  0.31420  0.91441  Biso   1.000  O
  O21      1.0000 0.76210  0.11171  0.49522  Biso   1.000  O
  O22      1.0000 0.76945  0.13346  0.99247  Biso   1.000  O
  O23      1.0000 0.73067  0.38306  0.00025  Biso   1.000  O
  O24      1.0000 0.72863  0.36479  0.50468  Biso   1.000  O
  Zr13     1.0000 0.63340  0.51472  0.25216  Biso   1.000  Zr
  Zr14     1.0000 0.63532  0.73270  0.74854  Biso   1.000  Zr
  Zr15     1.0000 0.86399  0.76810  0.24722  Biso   1.000  Zr
  Zr16     1.0000 0.86751  0.98398  0.74332  Biso   1.000  Zr
  O25      1.0000 0.53495  0.67963  0.39438  Biso   1.000  O
  O26      1.0000 0.53277  0.56701  0.89597  Biso   1.000  O
  O27      1.0000 0.96831  0.93061  0.39762  Biso   1.000  O
  O28      1.0000 0.96565  0.81859  0.89564  Biso   1.000  O
  O29      1.0000 0.76809  0.61436  0.50161  Biso   1.000  O
  O30      1.0000 0.76739  0.63381  0.99968  Biso   1.000  O
  O31      1.0000 0.73353  0.88399  0.99333  Biso   1.000  O
  O32      1.0000 0.73201  0.86387  0.49494  Biso   1.000  O
  Ru1      1.0000 0.10445  0.30692  0.22605  Biso   1.000  Ru
