data_image0
_cell_length_a       10.2552
_cell_length_b       10.3469
_cell_length_c       5.31372
_cell_angle_alpha    89.9078
_cell_angle_beta     79.8108
_cell_angle_gamma    90.8626

_symmetry_space_group_name_H-M    "P 1"
_symmetry_int_tables_number       1

loop_
  _symmetry_equiv_pos_as_xyz
  'x, y, z'

loop_
  _atom_site_label
  _atom_site_occupancy
  _atom_site_fract_x
  _atom_site_fract_y
  _atom_site_fract_z
  _atom_site_thermal_displace_type
  _atom_site_B_iso_or_equiv
  _atom_site_type_symbol
  Zr1      1.0000 0.13617  0.02224  0.29460  Biso   1.000  Zr
  Zr2      1.0000 0.13882  0.23576  0.78516  Biso   1.000  Zr
  Zr3      1.0000 0.35570  0.27766  0.19686  Biso   1.000  Zr
  Zr4      1.0000 0.34864  0.48383  0.70818  Biso   1.000  Zr
  O1       1.0000 0.03996  0.16721  0.14971  Biso   1.000  O
  O2       1.0000 0.03486  0.08657  0.64824  Biso   1.000  O
  O3       1.0000 0.47477  0.38428  0.40188  Biso   1.000  O
  O4       1.0000 0.48377  0.36503  0.88851  Biso   1.000  O
  O5       1.0000 0.28209  0.12958  0.47524  Biso   1.000  O
  O6       1.0000 0.28716  0.12535  0.95693  Biso   1.000  O
  O7       1.0000 0.21563  0.38635  0.02081  Biso   1.000  O
  O8       1.0000 0.20972  0.38158  0.49916  Biso   1.000  O
  Zr5      1.0000 0.13310  0.52694  0.28935  Biso   1.000  Zr
  Zr6      1.0000 0.13215  0.73178  0.79426  Biso   1.000  Zr
  Zr7      1.0000 0.35966  0.76920  0.20939  Biso   1.000  Zr
  Zr8      1.0000 0.36486  0.96827  0.70861  Biso   1.000  Zr
  O9       1.0000 0.02523  0.66853  0.15166  Biso   1.000  O
  O10      1.0000 0.02732  0.59170  0.65198  Biso   1.000  O
  O11      1.0000 0.46854  0.90791  0.35012  Biso   1.000  O
  O12      1.0000 0.46606  0.82998  0.85368  Biso   1.000  O
  O13      1.0000 0.27112  0.63024  0.48261  Biso   1.000  O
  O14      1.0000 0.26665  0.62721  0.98329  Biso   1.000  O
  O15      1.0000 0.22533  0.88129  0.02360  Biso   1.000  O
  O16      1.0000 0.22306  0.87170  0.52031  Biso   1.000  O
  Zr9      1.0000 0.63975  0.02101  0.28776  Biso   1.000  Zr
  Zr10     1.0000 0.64302  0.22871  0.80483  Biso   1.000  Zr
  Zr11     1.0000 0.86421  0.27208  0.21467  Biso   1.000  Zr
  Zr12     1.0000 0.85960  0.47827  0.71511  Biso   1.000  Zr
  O17      1.0000 0.53053  0.15937  0.14838  Biso   1.000  O
  O18      1.0000 0.54717  0.06653  0.66101  Biso   1.000  O
  O19      1.0000 0.96234  0.41845  0.34962  Biso   1.000  O
  O20      1.0000 0.96665  0.33836  0.84843  Biso   1.000  O
  O21      1.0000 0.77926  0.12852  0.47835  Biso   1.000  O
  O22      1.0000 0.77888  0.12007  0.98285  Biso   1.000  O
  O23      1.0000 0.72841  0.37612  0.03316  Biso   1.000  O
  O24      1.0000 0.72548  0.37144  0.52984  Biso   1.000  O
  Zr13     1.0000 0.63674  0.51857  0.29945  Biso   1.000  Zr
  Zr14     1.0000 0.63576  0.72330  0.79104  Biso   1.000  Zr
  Zr15     1.0000 0.85675  0.77275  0.20882  Biso   1.000  Zr
  Zr16     1.0000 0.85901  0.97950  0.70783  Biso   1.000  Zr
  O25      1.0000 0.52427  0.64912  0.14359  Biso   1.000  O
  O26      1.0000 0.52499  0.59235  0.63522  Biso   1.000  O
  O27      1.0000 0.96720  0.91603  0.34638  Biso   1.000  O
  O28      1.0000 0.96409  0.84010  0.84982  Biso   1.000  O
  O29      1.0000 0.77070  0.62579  0.47998  Biso   1.000  O
  O30      1.0000 0.77035  0.62108  0.98228  Biso   1.000  O
  O31      1.0000 0.72130  0.87673  0.02006  Biso   1.000  O
  O32      1.0000 0.72599  0.86836  0.51916  Biso   1.000  O
  Ru1      1.0000 0.40851  0.23731  0.66823  Biso   1.000  Ru
