data_image0
_cell_length_a       10.1578
_cell_length_b       10.3178
_cell_length_c       5.23034
_cell_angle_alpha    89.7835
_cell_angle_beta     80.1586
_cell_angle_gamma    90.0166

_symmetry_space_group_name_H-M    "P 1"
_symmetry_int_tables_number       1

loop_
  _symmetry_equiv_pos_as_xyz
  'x, y, z'

loop_
  _atom_site_label
  _atom_site_occupancy
  _atom_site_fract_x
  _atom_site_fract_y
  _atom_site_fract_z
  _atom_site_thermal_displace_type
  _atom_site_B_iso_or_equiv
  _atom_site_type_symbol
  Ru1      1.0000 0.14039  0.02138  0.30141  Biso   1.000  Ru
  Zr1      1.0000 0.13921  0.52157  0.29189  Biso   1.000  Zr
  Zr2      1.0000 0.63789  0.02139  0.29075  Biso   1.000  Zr
  Zr3      1.0000 0.63945  0.52188  0.29095  Biso   1.000  Zr
  Zr4      1.0000 0.13839  0.22668  0.79542  Biso   1.000  Zr
  Zr5      1.0000 0.13855  0.73064  0.78965  Biso   1.000  Zr
  Zr6      1.0000 0.63782  0.22898  0.79138  Biso   1.000  Zr
  Zr7      1.0000 0.63924  0.72883  0.79273  Biso   1.000  Zr
  Zr8      1.0000 0.35931  0.27091  0.21487  Biso   1.000  Zr
  Zr9      1.0000 0.35882  0.77457  0.20790  Biso   1.000  Zr
  Zr10     1.0000 0.86402  0.26880  0.20972  Biso   1.000  Zr
  Zr11     1.0000 0.86415  0.77361  0.20722  Biso   1.000  Zr
  Zr12     1.0000 0.36083  0.47930  0.71047  Biso   1.000  Zr
  Zr13     1.0000 0.35849  0.97799  0.71046  Biso   1.000  Zr
  Zr14     1.0000 0.86088  0.47862  0.70977  Biso   1.000  Zr
  Zr15     1.0000 0.86195  0.98072  0.70425  Biso   1.000  Zr
  O1       1.0000 0.03403  0.16016  0.14999  Biso   1.000  O
  O2       1.0000 0.03495  0.66765  0.15718  Biso   1.000  O
  O3       1.0000 0.53623  0.17169  0.16649  Biso   1.000  O
  O4       1.0000 0.53549  0.67094  0.16311  Biso   1.000  O
  O5       1.0000 0.03784  0.08547  0.62922  Biso   1.000  O
  O6       1.0000 0.03522  0.58160  0.66029  Biso   1.000  O
  O7       1.0000 0.53443  0.07879  0.66674  Biso   1.000  O
  O8       1.0000 0.53713  0.57799  0.66574  Biso   1.000  O
  O9       1.0000 0.46347  0.42107  0.33721  Biso   1.000  O
  O10      1.0000 0.46480  0.91877  0.34084  Biso   1.000  O
  O11      1.0000 0.96555  0.41774  0.34109  Biso   1.000  O
  O12      1.0000 0.97476  0.92115  0.33007  Biso   1.000  O
  O13      1.0000 0.46003  0.32598  0.83749  Biso   1.000  O
  O14      1.0000 0.46262  0.82837  0.83531  Biso   1.000  O
  O15      1.0000 0.96578  0.32973  0.84061  Biso   1.000  O
  O16      1.0000 0.96500  0.83352  0.83654  Biso   1.000  O
  O17      1.0000 0.27684  0.12610  0.48791  Biso   1.000  O
  O18      1.0000 0.27633  0.63129  0.48269  Biso   1.000  O
  O19      1.0000 0.77448  0.12869  0.48090  Biso   1.000  O
  O20      1.0000 0.77665  0.63002  0.48203  Biso   1.000  O
  O21      1.0000 0.27081  0.11527  0.00443  Biso   1.000  O
  O22      1.0000 0.27597  0.62195  0.98179  Biso   1.000  O
  O23      1.0000 0.77617  0.12079  0.97773  Biso   1.000  O
  O24      1.0000 0.77743  0.62224  0.98253  Biso   1.000  O
  O25      1.0000 0.22315  0.37798  0.02114  Biso   1.000  O
  O26      1.0000 0.22021  0.88168  0.01714  Biso   1.000  O
  O27      1.0000 0.72454  0.37874  0.01909  Biso   1.000  O
  O28      1.0000 0.72369  0.87939  0.01809  Biso   1.000  O
  O29      1.0000 0.22392  0.37098  0.52110  Biso   1.000  O
  O30      1.0000 0.21941  0.87484  0.51065  Biso   1.000  O
  O31      1.0000 0.72418  0.37086  0.51906  Biso   1.000  O
  O32      1.0000 0.72953  0.87271  0.51695  Biso   1.000  O
