data_image0
_cell_length_a       10.124
_cell_length_b       10.3344
_cell_length_c       10.5667
_cell_angle_alpha    89.5854
_cell_angle_beta     90.3332
_cell_angle_gamma    89.9028

_symmetry_space_group_name_H-M    "P 1"
_symmetry_int_tables_number       1

loop_
  _symmetry_equiv_pos_as_xyz
  'x, y, z'

loop_
  _atom_site_label
  _atom_site_occupancy
  _atom_site_fract_x
  _atom_site_fract_y
  _atom_site_fract_z
  _atom_site_thermal_displace_type
  _atom_site_B_iso_or_equiv
  _atom_site_type_symbol
  Zr1      1.0000 0.14139  0.01911  0.17095  Biso   1.000  Zr
  Zr2      1.0000 0.13575  0.22967  0.42108  Biso   1.000  Zr
  Zr3      1.0000 0.35884  0.26653  0.17444  Biso   1.000  Zr
  Zr4      1.0000 0.36062  0.48056  0.42197  Biso   1.000  Zr
  Zr5      1.0000 0.63417  0.01675  0.06745  Biso   1.000  Zr
  Zr6      1.0000 0.63365  0.23292  0.34000  Biso   1.000  Zr
  Zr7      1.0000 0.87931  0.27015  0.07185  Biso   1.000  Zr
  Zr8      1.0000 0.86146  0.48246  0.33545  Biso   1.000  Zr
  O1       1.0000 0.04081  0.16009  0.07519  Biso   1.000  O
  O2       1.0000 0.02588  0.09324  0.32451  Biso   1.000  O
  O3       1.0000 0.47472  0.40900  0.07989  Biso   1.000  O
  O4       1.0000 0.46170  0.33505  0.33663  Biso   1.000  O
  O5       1.0000 0.26968  0.12377  0.29649  Biso   1.000  O
  O6       1.0000 0.28059  0.12209  0.04277  Biso   1.000  O
  O7       1.0000 0.22231  0.37424  0.29374  Biso   1.000  O
  O8       1.0000 0.22762  0.37435  0.04324  Biso   1.000  O
  O9       1.0000 0.51496  0.13561  0.19195  Biso   1.000  O
  O10      1.0000 0.52756  0.09030  0.43061  Biso   1.000  O
  O11      1.0000 0.96545  0.41424  0.17023  Biso   1.000  O
  O12      1.0000 0.96695  0.33876  0.42116  Biso   1.000  O
  O13      1.0000 0.77578  0.12326  0.45278  Biso   1.000  O
  O14      1.0000 0.75822  0.14697  0.19099  Biso   1.000  O
  O15      1.0000 0.72516  0.37303  0.46753  Biso   1.000  O
  O16      1.0000 0.71244  0.40475  0.22945  Biso   1.000  O
  Zr9      1.0000 0.13967  0.02028  0.66927  Biso   1.000  Zr
  Zr10     1.0000 0.14726  0.22573  0.91616  Biso   1.000  Zr
  Zr11     1.0000 0.36369  0.27053  0.66973  Biso   1.000  Zr
  Zr12     1.0000 0.36241  0.47805  0.91894  Biso   1.000  Zr
  Zr13     1.0000 0.63825  0.02172  0.58186  Biso   1.000  Zr
  Zr14     1.0000 0.63726  0.22334  0.83481  Biso   1.000  Zr
  Zr15     1.0000 0.86103  0.27004  0.58381  Biso   1.000  Zr
  Zr16     1.0000 0.86249  0.47931  0.82995  Biso   1.000  Zr
  O17      1.0000 0.03113  0.16172  0.57935  Biso   1.000  O
  O18      1.0000 0.03663  0.08585  0.82831  Biso   1.000  O
  O19      1.0000 0.46767  0.41552  0.58341  Biso   1.000  O
  O20      1.0000 0.46787  0.33505  0.83336  Biso   1.000  O
  O21      1.0000 0.27885  0.12199  0.79233  Biso   1.000  O
  O22      1.0000 0.27401  0.12613  0.54447  Biso   1.000  O
  O23      1.0000 0.22660  0.37300  0.79245  Biso   1.000  O
  O24      1.0000 0.22431  0.37613  0.54373  Biso   1.000  O
  O25      1.0000 0.53324  0.16578  0.66905  Biso   1.000  O
  O26      1.0000 0.53648  0.06107  0.89707  Biso   1.000  O
  O27      1.0000 0.96733  0.41415  0.66818  Biso   1.000  O
  O28      1.0000 0.97568  0.33637  0.91281  Biso   1.000  O
  O29      1.0000 0.78972  0.11745  0.94665  Biso   1.000  O
  O30      1.0000 0.77612  0.12365  0.70251  Biso   1.000  O
  O31      1.0000 0.72848  0.37541  0.96705  Biso   1.000  O
  O32      1.0000 0.72588  0.37478  0.71451  Biso   1.000  O
  Zr17     1.0000 0.13876  0.52060  0.17106  Biso   1.000  Zr
  Zr18     1.0000 0.13760  0.72938  0.42047  Biso   1.000  Zr
  Zr19     1.0000 0.35918  0.77140  0.17201  Biso   1.000  Zr
  Zr20     1.0000 0.36215  0.97918  0.42369  Biso   1.000  Zr
  Zr21     1.0000 0.64473  0.53589  0.08305  Biso   1.000  Zr
  Zr22     1.0000 0.63882  0.73247  0.33064  Biso   1.000  Zr
  Zr23     1.0000 0.86478  0.77592  0.07914  Biso   1.000  Zr
  Zr24     1.0000 0.86067  0.98014  0.32842  Biso   1.000  Zr
  O33      1.0000 0.03251  0.66245  0.08002  Biso   1.000  O
  O34      1.0000 0.03258  0.58979  0.32890  Biso   1.000  O
  O35      1.0000 0.46557  0.90739  0.07687  Biso   1.000  O
  O36      1.0000 0.46810  0.83981  0.33088  Biso   1.000  O
  O37      1.0000 0.27449  0.62441  0.29508  Biso   1.000  O
  O38      1.0000 0.27712  0.62297  0.04543  Biso   1.000  O
  O39      1.0000 0.22417  0.87412  0.29534  Biso   1.000  O
  O40      1.0000 0.22197  0.87272  0.04549  Biso   1.000  O
  O41      1.0000 0.53079  0.66541  0.17168  Biso   1.000  O
  O42      1.0000 0.53148  0.58865  0.42035  Biso   1.000  O
  O43      1.0000 0.96853  0.91709  0.16790  Biso   1.000  O
  O44      1.0000 0.96632  0.83994  0.41653  Biso   1.000  O
  O45      1.0000 0.77430  0.62528  0.45665  Biso   1.000  O
  O46      1.0000 0.77977  0.63925  0.20653  Biso   1.000  O
  O47      1.0000 0.72377  0.87512  0.45615  Biso   1.000  O
  O48      1.0000 0.72574  0.88383  0.20577  Biso   1.000  O
  Zr25     1.0000 0.13789  0.52017  0.66975  Biso   1.000  Zr
  Zr26     1.0000 0.13911  0.72657  0.92070  Biso   1.000  Zr
  Zr27     1.0000 0.36142  0.76839  0.67074  Biso   1.000  Zr
  Zr28     1.0000 0.36044  0.97272  0.91745  Biso   1.000  Zr
  Zr29     1.0000 0.63901  0.52043  0.58143  Biso   1.000  Zr
  Zr30     1.0000 0.63918  0.72787  0.82785  Biso   1.000  Zr
  Zr31     1.0000 0.86083  0.77211  0.57915  Biso   1.000  Zr
  Zr32     1.0000 0.86422  0.97767  0.82682  Biso   1.000  Zr
  O49      1.0000 0.03056  0.66306  0.57882  Biso   1.000  O
  O50      1.0000 0.03179  0.58681  0.82909  Biso   1.000  O
  O51      1.0000 0.46819  0.91166  0.58429  Biso   1.000  O
  O52      1.0000 0.46434  0.82565  0.83230  Biso   1.000  O
  O53      1.0000 0.27486  0.62112  0.79417  Biso   1.000  O
  O54      1.0000 0.27342  0.62558  0.54445  Biso   1.000  O
  O55      1.0000 0.22417  0.87147  0.79334  Biso   1.000  O
  O56      1.0000 0.22506  0.87544  0.54371  Biso   1.000  O
  O57      1.0000 0.53212  0.66186  0.66883  Biso   1.000  O
  O58      1.0000 0.53365  0.58603  0.92062  Biso   1.000  O
  O59      1.0000 0.96993  0.91263  0.66499  Biso   1.000  O
  O60      1.0000 0.97183  0.83684  0.91775  Biso   1.000  O
  O61      1.0000 0.77869  0.62528  0.95521  Biso   1.000  O
  O62      1.0000 0.77642  0.62483  0.70540  Biso   1.000  O
  O63      1.0000 0.72698  0.87009  0.95409  Biso   1.000  O
  O64      1.0000 0.72600  0.87369  0.70544  Biso   1.000  O
  Ru1      1.0000 0.61800  0.26894  0.09763  Biso   1.000  Ru
