data_image0
_cell_length_a       10.01
_cell_length_b       5.19148
_cell_length_c       10.0335
_cell_angle_alpha    89.7409
_cell_angle_beta     89.8507
_cell_angle_gamma    90.0794

_symmetry_space_group_name_H-M    "P 1"
_symmetry_int_tables_number       1

loop_
  _symmetry_equiv_pos_as_xyz
  'x, y, z'

loop_
  _atom_site_label
  _atom_site_occupancy
  _atom_site_fract_x
  _atom_site_fract_y
  _atom_site_fract_z
  _atom_site_thermal_displace_type
  _atom_site_B_iso_or_equiv
  _atom_site_type_symbol
  Ru1      1.0000 0.13834  0.04039  0.12086  Biso   1.000  Ru
  Zr1      1.0000 0.13400  0.03162  0.62672  Biso   1.000  Zr
  Zr2      1.0000 0.63473  0.03247  0.12503  Biso   1.000  Zr
  Zr3      1.0000 0.63377  0.03151  0.62335  Biso   1.000  Zr
  Zr4      1.0000 0.13149  0.46949  0.37330  Biso   1.000  Zr
  Zr5      1.0000 0.13413  0.46684  0.87916  Biso   1.000  Zr
  Zr6      1.0000 0.63463  0.47186  0.37373  Biso   1.000  Zr
  Zr7      1.0000 0.63292  0.46749  0.87485  Biso   1.000  Zr
  Zr8      1.0000 0.36410  0.53715  0.12653  Biso   1.000  Zr
  Zr9      1.0000 0.36624  0.53267  0.62504  Biso   1.000  Zr
  Zr10     1.0000 0.87177  0.53026  0.12387  Biso   1.000  Zr
  Zr11     1.0000 0.86615  0.53065  0.62586  Biso   1.000  Zr
  Zr12     1.0000 0.36478  0.97116  0.37432  Biso   1.000  Zr
  Zr13     1.0000 0.36470  0.96634  0.87692  Biso   1.000  Zr
  Zr14     1.0000 0.87091  0.97308  0.37128  Biso   1.000  Zr
  Zr15     1.0000 0.86630  0.96887  0.87609  Biso   1.000  Zr
  O1       1.0000 0.03467  0.34633  0.19845  Biso   1.000  O
  O2       1.0000 0.03186  0.35943  0.70426  Biso   1.000  O
  O3       1.0000 0.53399  0.36786  0.19392  Biso   1.000  O
  O4       1.0000 0.53604  0.36966  0.69290  Biso   1.000  O
  O5       1.0000 0.03299  0.13934  0.45222  Biso   1.000  O
  O6       1.0000 0.03480  0.13049  0.96253  Biso   1.000  O
  O7       1.0000 0.53493  0.13585  0.44325  Biso   1.000  O
  O8       1.0000 0.53583  0.12856  0.94283  Biso   1.000  O
  O9       1.0000 0.46558  0.86644  0.19479  Biso   1.000  O
  O10      1.0000 0.46343  0.86878  0.69383  Biso   1.000  O
  O11      1.0000 0.97625  0.85780  0.19315  Biso   1.000  O
  O12      1.0000 0.96593  0.86433  0.69767  Biso   1.000  O
  O13      1.0000 0.46367  0.63539  0.44247  Biso   1.000  O
  O14      1.0000 0.45888  0.62600  0.94338  Biso   1.000  O
  O15      1.0000 0.96625  0.63615  0.44715  Biso   1.000  O
  O16      1.0000 0.96263  0.62949  0.94178  Biso   1.000  O
  O17      1.0000 0.26474  0.23392  0.24448  Biso   1.000  O
  O18      1.0000 0.26950  0.23491  0.75001  Biso   1.000  O
  O19      1.0000 0.76871  0.23484  0.24782  Biso   1.000  O
  O20      1.0000 0.76826  0.23246  0.74860  Biso   1.000  O
  O21      1.0000 0.26932  0.26910  0.49667  Biso   1.000  O
  O22      1.0000 0.27012  0.25482  0.00198  Biso   1.000  O
  O23      1.0000 0.76959  0.26963  0.49754  Biso   1.000  O
  O24      1.0000 0.76938  0.26632  0.99788  Biso   1.000  O
  O25      1.0000 0.23050  0.76801  0.49948  Biso   1.000  O
  O26      1.0000 0.22409  0.76487  0.00326  Biso   1.000  O
  O27      1.0000 0.73196  0.77007  0.49629  Biso   1.000  O
  O28      1.0000 0.72940  0.76531  0.99715  Biso   1.000  O
  O29      1.0000 0.22688  0.74748  0.24753  Biso   1.000  O
  O30      1.0000 0.23002  0.73174  0.75121  Biso   1.000  O
  O31      1.0000 0.73634  0.73510  0.24611  Biso   1.000  O
  O32      1.0000 0.73046  0.73406  0.74790  Biso   1.000  O
