data_image0
_cell_length_a       10.0819
_cell_length_b       10.2827
_cell_length_c       10.5029
_cell_angle_alpha    89.9294
_cell_angle_beta     89.8852
_cell_angle_gamma    90.0096

_symmetry_space_group_name_H-M    "P 1"
_symmetry_int_tables_number       1

loop_
  _symmetry_equiv_pos_as_xyz
  'x, y, z'

loop_
  _atom_site_label
  _atom_site_occupancy
  _atom_site_fract_x
  _atom_site_fract_y
  _atom_site_fract_z
  _atom_site_thermal_displace_type
  _atom_site_B_iso_or_equiv
  _atom_site_type_symbol
  Ru1      1.0000 0.13994  0.02104  0.17753  Biso   1.000  Ru
  Zr1      1.0000 0.13870  0.02110  0.67104  Biso   1.000  Zr
  Zr2      1.0000 0.13907  0.52123  0.17117  Biso   1.000  Zr
  Zr3      1.0000 0.13890  0.52088  0.67199  Biso   1.000  Zr
  Zr4      1.0000 0.13973  0.22997  0.42005  Biso   1.000  Zr
  Zr5      1.0000 0.13673  0.22507  0.92450  Biso   1.000  Zr
  Zr6      1.0000 0.13796  0.72950  0.42079  Biso   1.000  Zr
  Zr7      1.0000 0.13923  0.72997  0.92144  Biso   1.000  Zr
  Zr8      1.0000 0.35984  0.26978  0.17215  Biso   1.000  Zr
  Zr9      1.0000 0.36104  0.27152  0.67227  Biso   1.000  Zr
  Zr10     1.0000 0.35847  0.77457  0.17071  Biso   1.000  Zr
  Zr11     1.0000 0.36145  0.77091  0.67115  Biso   1.000  Zr
  Zr12     1.0000 0.36127  0.47984  0.42143  Biso   1.000  Zr
  Zr13     1.0000 0.36103  0.47841  0.92169  Biso   1.000  Zr
  Zr14     1.0000 0.36062  0.97887  0.42106  Biso   1.000  Zr
  Zr15     1.0000 0.35988  0.97759  0.92277  Biso   1.000  Zr
  Zr16     1.0000 0.63840  0.02193  0.07781  Biso   1.000  Zr
  Zr17     1.0000 0.63849  0.02115  0.57826  Biso   1.000  Zr
  Zr18     1.0000 0.63871  0.52131  0.07946  Biso   1.000  Zr
  Zr19     1.0000 0.63892  0.52125  0.57957  Biso   1.000  Zr
  Zr20     1.0000 0.63834  0.22916  0.32863  Biso   1.000  Zr
  Zr21     1.0000 0.63886  0.22954  0.82916  Biso   1.000  Zr
  Zr22     1.0000 0.63820  0.72904  0.32783  Biso   1.000  Zr
  Zr23     1.0000 0.63888  0.72894  0.82976  Biso   1.000  Zr
  Zr24     1.0000 0.86455  0.26845  0.08048  Biso   1.000  Zr
  Zr25     1.0000 0.86142  0.27107  0.57823  Biso   1.000  Zr
  Zr26     1.0000 0.86442  0.77261  0.07813  Biso   1.000  Zr
  Zr27     1.0000 0.86065  0.77130  0.57813  Biso   1.000  Zr
  Zr28     1.0000 0.86084  0.47931  0.32841  Biso   1.000  Zr
  Zr29     1.0000 0.86148  0.47853  0.82991  Biso   1.000  Zr
  Zr30     1.0000 0.86245  0.98024  0.32664  Biso   1.000  Zr
  Zr31     1.0000 0.86069  0.97906  0.82785  Biso   1.000  Zr
  O1       1.0000 0.03211  0.15931  0.08311  Biso   1.000  O
  O2       1.0000 0.03050  0.16010  0.57637  Biso   1.000  O
  O3       1.0000 0.03230  0.66350  0.08208  Biso   1.000  O
  O4       1.0000 0.03134  0.66359  0.58148  Biso   1.000  O
  O5       1.0000 0.03647  0.08788  0.32240  Biso   1.000  O
  O6       1.0000 0.03006  0.08743  0.82833  Biso   1.000  O
  O7       1.0000 0.03197  0.58616  0.33202  Biso   1.000  O
  O8       1.0000 0.03218  0.58576  0.83284  Biso   1.000  O
  O9       1.0000 0.46718  0.41459  0.08444  Biso   1.000  O
  O10      1.0000 0.46693  0.41586  0.58403  Biso   1.000  O
  O11      1.0000 0.46889  0.91379  0.08232  Biso   1.000  O
  O12      1.0000 0.46752  0.91508  0.58373  Biso   1.000  O
  O13      1.0000 0.46569  0.33341  0.33458  Biso   1.000  O
  O14      1.0000 0.46771  0.33545  0.83368  Biso   1.000  O
  O15      1.0000 0.46616  0.83574  0.33280  Biso   1.000  O
  O16      1.0000 0.46678  0.83460  0.83424  Biso   1.000  O
  O17      1.0000 0.27547  0.12136  0.29478  Biso   1.000  O
  O18      1.0000 0.27558  0.12398  0.79844  Biso   1.000  O
  O19      1.0000 0.27541  0.62586  0.29534  Biso   1.000  O
  O20      1.0000 0.27587  0.62412  0.79530  Biso   1.000  O
  O21      1.0000 0.26901  0.11851  0.05442  Biso   1.000  O
  O22      1.0000 0.27603  0.12653  0.54557  Biso   1.000  O
  O23      1.0000 0.27584  0.62661  0.04505  Biso   1.000  O
  O24      1.0000 0.27549  0.62601  0.54525  Biso   1.000  O
  O25      1.0000 0.22454  0.37496  0.29494  Biso   1.000  O
  O26      1.0000 0.22431  0.37397  0.79547  Biso   1.000  O
  O27      1.0000 0.22069  0.87749  0.29229  Biso   1.000  O
  O28      1.0000 0.22427  0.87421  0.79426  Biso   1.000  O
  O29      1.0000 0.22530  0.37361  0.04526  Biso   1.000  O
  O30      1.0000 0.22407  0.37560  0.54468  Biso   1.000  O
  O31      1.0000 0.22118  0.87766  0.04526  Biso   1.000  O
  O32      1.0000 0.22447  0.87548  0.54428  Biso   1.000  O
  O33      1.0000 0.53201  0.16492  0.16732  Biso   1.000  O
  O34      1.0000 0.53228  0.16497  0.66737  Biso   1.000  O
  O35      1.0000 0.53194  0.66623  0.16650  Biso   1.000  O
  O36      1.0000 0.53311  0.66559  0.66683  Biso   1.000  O
  O37      1.0000 0.53236  0.08506  0.41704  Biso   1.000  O
  O38      1.0000 0.52951  0.08757  0.91888  Biso   1.000  O
  O39      1.0000 0.53288  0.58492  0.41653  Biso   1.000  O
  O40      1.0000 0.53330  0.58408  0.91662  Biso   1.000  O
  O41      1.0000 0.96817  0.41488  0.16740  Biso   1.000  O
  O42      1.0000 0.96862  0.41226  0.66844  Biso   1.000  O
  O43      1.0000 0.97745  0.91833  0.16478  Biso   1.000  O
  O44      1.0000 0.96827  0.91327  0.66694  Biso   1.000  O
  O45      1.0000 0.96796  0.33569  0.41664  Biso   1.000  O
  O46      1.0000 0.96891  0.33436  0.91884  Biso   1.000  O
  O47      1.0000 0.96821  0.83789  0.41655  Biso   1.000  O
  O48      1.0000 0.96774  0.83585  0.91657  Biso   1.000  O
  O49      1.0000 0.77434  0.12438  0.95402  Biso   1.000  O
  O50      1.0000 0.77709  0.12373  0.45313  Biso   1.000  O
  O51      1.0000 0.77674  0.62547  0.95608  Biso   1.000  O
  O52      1.0000 0.77532  0.62446  0.45492  Biso   1.000  O
  O53      1.0000 0.77465  0.12552  0.20459  Biso   1.000  O
  O54      1.0000 0.77534  0.12587  0.70396  Biso   1.000  O
  O55      1.0000 0.77567  0.62633  0.20509  Biso   1.000  O
  O56      1.0000 0.77607  0.62560  0.70569  Biso   1.000  O
  O57      1.0000 0.72532  0.37432  0.95566  Biso   1.000  O
  O58      1.0000 0.72419  0.37378  0.45563  Biso   1.000  O
  O59      1.0000 0.72424  0.87468  0.95480  Biso   1.000  O
  O60      1.0000 0.72415  0.87447  0.45391  Biso   1.000  O
  O61      1.0000 0.72478  0.37550  0.20557  Biso   1.000  O
  O62      1.0000 0.72448  0.37614  0.70539  Biso   1.000  O
  O63      1.0000 0.73029  0.87667  0.20459  Biso   1.000  O
  O64      1.0000 0.72412  0.87590  0.70465  Biso   1.000  O
