data_image0
_cell_length_a       10.3072
_cell_length_b       5.32242
_cell_length_c       10.4503
_cell_angle_alpha    84.3321
_cell_angle_beta     85.7867
_cell_angle_gamma    78.6499

_symmetry_space_group_name_H-M    "P 1"
_symmetry_int_tables_number       1

loop_
  _symmetry_equiv_pos_as_xyz
  'x, y, z'

loop_
  _atom_site_label
  _atom_site_occupancy
  _atom_site_fract_x
  _atom_site_fract_y
  _atom_site_fract_z
  _atom_site_thermal_displace_type
  _atom_site_B_iso_or_equiv
  _atom_site_type_symbol
  Hf1      1.0000 0.14071  0.08065  0.10046  Biso   1.000  Hf
  Hf2      1.0000 0.14540  0.48463  0.41339  Biso   1.000  Hf
  Hf3      1.0000 0.36097  0.47394  0.14845  Biso   1.000  Hf
  Hf4      1.0000 0.35338  0.92745  0.35665  Biso   1.000  Hf
  O1       1.0000 0.02589  0.36740  0.97684  Biso   1.000  O
  O2       1.0000 0.96492  0.11046  0.21610  Biso   1.000  O
  O3       1.0000 0.97336  0.59027  0.32519  Biso   1.000  O
  O4       1.0000 0.03627  0.90568  0.95376  Biso   1.000  O
  O5       1.0000 0.22786  0.26166  0.25844  Biso   1.000  O
  O6       1.0000 0.28821  0.26317  0.99796  Biso   1.000  O
  O7       1.0000 0.28792  0.76897  0.99872  Biso   1.000  O
  O8       1.0000 0.22868  0.76916  0.26175  Biso   1.000  O
  Hf5      1.0000 0.11102  0.97673  0.60773  Biso   1.000  Hf
  Hf6      1.0000 0.16445  0.57787  0.88688  Biso   1.000  Hf
  Hf7      1.0000 0.39991  0.52267  0.64598  Biso   1.000  Hf
  Hf8      1.0000 0.37177  0.01786  0.85220  Biso   1.000  Hf
  O9       1.0000 0.01223  0.31056  0.51818  Biso   1.000  O
  O10      1.0000 0.99939  0.19069  0.74109  Biso   1.000  O
  O11      1.0000 0.01518  0.69936  0.74919  Biso   1.000  O
  O12      1.0000 0.99083  0.81496  0.50804  Biso   1.000  O
  O13      1.0000 0.26457  0.34295  0.75404  Biso   1.000  O
  O14      1.0000 0.25179  0.14642  0.49703  Biso   1.000  O
  O15      1.0000 0.25454  0.66782  0.51422  Biso   1.000  O
  O16      1.0000 0.25796  0.83104  0.74725  Biso   1.000  O
  Hf9      1.0000 0.62768  0.01343  0.10162  Biso   1.000  Hf
  Hf10     1.0000 0.63087  0.48300  0.39690  Biso   1.000  Hf
  Hf11     1.0000 0.82789  0.41275  0.12929  Biso   1.000  Hf
  Hf12     1.0000 0.84452  0.91528  0.36290  Biso   1.000  Hf
  O17      1.0000 0.53376  0.39437  0.02997  Biso   1.000  O
  O18      1.0000 0.46544  0.09951  0.22015  Biso   1.000  O
  O19      1.0000 0.47066  0.59211  0.27863  Biso   1.000  O
  O20      1.0000 0.53070  0.89978  0.96668  Biso   1.000  O
  O21      1.0000 0.70962  0.22040  0.25459  Biso   1.000  O
  O22      1.0000 0.77060  0.20080  0.99764  Biso   1.000  O
  O23      1.0000 0.76709  0.71230  0.99124  Biso   1.000  O
  O24      1.0000 0.72233  0.72293  0.24619  Biso   1.000  O
  Hf13     1.0000 0.61017  0.97636  0.60310  Biso   1.000  Hf
  Hf14     1.0000 0.64311  0.56173  0.88940  Biso   1.000  Hf
  Hf15     1.0000 0.89775  0.52630  0.64846  Biso   1.000  Hf
  Hf16     1.0000 0.87170  0.00534  0.84419  Biso   1.000  Hf
  O25      1.0000 0.50048  0.30052  0.50778  Biso   1.000  O
  O26      1.0000 0.50884  0.19870  0.74325  Biso   1.000  O
  O27      1.0000 0.51024  0.71228  0.74843  Biso   1.000  O
  O28      1.0000 0.49872  0.78884  0.49680  Biso   1.000  O
  O29      1.0000 0.76119  0.34698  0.75967  Biso   1.000  O
  O30      1.0000 0.74497  0.15862  0.49330  Biso   1.000  O
  O31      1.0000 0.75053  0.66885  0.50244  Biso   1.000  O
  O32      1.0000 0.75545  0.83350  0.73833  Biso   1.000  O
  Sb1      1.0000 0.02684  0.65134  0.13338  Biso   1.000  Sb
