data_image0
_cell_length_a       5.10584
_cell_length_b       10.4515
_cell_length_c       10.413
_cell_angle_alpha    89.1009
_cell_angle_beta     94.3766
_cell_angle_gamma    97.9723

_symmetry_space_group_name_H-M    "P 1"
_symmetry_int_tables_number       1

loop_
  _symmetry_equiv_pos_as_xyz
  'x, y, z'

loop_
  _atom_site_label
  _atom_site_occupancy
  _atom_site_fract_x
  _atom_site_fract_y
  _atom_site_fract_z
  _atom_site_thermal_displace_type
  _atom_site_B_iso_or_equiv
  _atom_site_type_symbol
  Hf1      1.0000 0.39394  0.96639  0.11084  Biso   1.000  Hf
  Hf2      1.0000 0.19010  0.24862  0.37544  Biso   1.000  Hf
  Hf3      1.0000 0.61659  0.29060  0.14132  Biso   1.000  Hf
  Hf4      1.0000 0.69885  0.02451  0.40628  Biso   1.000  Hf
  O1       1.0000 0.97296  0.19054  0.93061  Biso   1.000  O
  O2       1.0000 0.03757  0.06647  0.32154  Biso   1.000  O
  O3       1.0000 0.87229  0.35189  0.30731  Biso   1.000  O
  O4       1.0000 0.88752  0.41447  0.04374  Biso   1.000  O
  O5       1.0000 0.51326  0.12471  0.24948  Biso   1.000  O
  O6       1.0000 0.49729  0.13228  0.00268  Biso   1.000  O
  O7       1.0000 0.39523  0.37897  0.99514  Biso   1.000  O
  O8       1.0000 0.40033  0.39642  0.25167  Biso   1.000  O
  Hf5      1.0000 0.29368  0.98088  0.63716  Biso   1.000  Hf
  Hf6      1.0000 0.31170  0.23249  0.84588  Biso   1.000  Hf
  Hf7      1.0000 0.71689  0.27613  0.61500  Biso   1.000  Hf
  Hf8      1.0000 0.82046  0.00837  0.87672  Biso   1.000  Hf
  O9       1.0000 0.92119  0.19091  0.49826  Biso   1.000  O
  O10      1.0000 0.08939  0.06608  0.75391  Biso   1.000  O
  O11      1.0000 0.08351  0.31891  0.71385  Biso   1.000  O
  O12      1.0000 0.92324  0.46335  0.54565  Biso   1.000  O
  O13      1.0000 0.57624  0.13513  0.74627  Biso   1.000  O
  O14      1.0000 0.43431  0.12188  0.50587  Biso   1.000  O
  O15      1.0000 0.43822  0.37041  0.50409  Biso   1.000  O
  O16      1.0000 0.56888  0.39024  0.75980  Biso   1.000  O
  Hf9      1.0000 0.23107  0.51552  0.11090  Biso   1.000  Hf
  Hf10     1.0000 0.26713  0.73467  0.35711  Biso   1.000  Hf
  Hf11     1.0000 0.77947  0.74147  0.14125  Biso   1.000  Hf
  Hf12     1.0000 0.71705  0.51051  0.38478  Biso   1.000  Hf
  O17      1.0000 0.02317  0.66282  0.00717  Biso   1.000  O
  O18      1.0000 0.98739  0.59417  0.24499  Biso   1.000  O
  O19      1.0000 0.12300  0.84252  0.20841  Biso   1.000  O
  O20      1.0000 0.13825  0.90509  0.94486  Biso   1.000  O
  O21      1.0000 0.49758  0.63523  0.24786  Biso   1.000  O
  O22      1.0000 0.51296  0.62176  0.00429  Biso   1.000  O
  O23      1.0000 0.61023  0.86058  0.00050  Biso   1.000  O
  O24      1.0000 0.61529  0.87801  0.25703  Biso   1.000  O
  Hf13     1.0000 0.27604  0.49233  0.65161  Biso   1.000  Hf
  Hf14     1.0000 0.29350  0.74649  0.86738  Biso   1.000  Hf
  Hf15     1.0000 0.73454  0.76467  0.60054  Biso   1.000  Hf
  Hf16     1.0000 0.74344  0.52234  0.89504  Biso   1.000  Hf
  O25      1.0000 0.92342  0.69718  0.44967  Biso   1.000  O
  O26      1.0000 0.08713  0.55983  0.80248  Biso   1.000  O
  O27      1.0000 0.08733  0.79365  0.70650  Biso   1.000  O
  O28      1.0000 0.92706  0.93810  0.53831  Biso   1.000  O
  O29      1.0000 0.56294  0.64140  0.75147  Biso   1.000  O
  O30      1.0000 0.44762  0.61561  0.50068  Biso   1.000  O
  O31      1.0000 0.44169  0.86676  0.49237  Biso   1.000  O
  O32      1.0000 0.57234  0.88660  0.74807  Biso   1.000  O
  Sb1      1.0000 0.00529  0.12851  0.12607  Biso   1.000  Sb
