data_image0
_cell_length_a       10.1161
_cell_length_b       10.2839
_cell_length_c       10.4568
_cell_angle_alpha    90.0129
_cell_angle_beta     80.4564
_cell_angle_gamma    89.9516

_symmetry_space_group_name_H-M    "P 1"
_symmetry_int_tables_number       1

loop_
  _symmetry_equiv_pos_as_xyz
  'x, y, z'

loop_
  _atom_site_label
  _atom_site_occupancy
  _atom_site_fract_x
  _atom_site_fract_y
  _atom_site_fract_z
  _atom_site_thermal_displace_type
  _atom_site_B_iso_or_equiv
  _atom_site_type_symbol
  Sb1      1.0000 0.13013  0.01919  0.15074  Biso   1.000  Sb
  Hf1      1.0000 0.13988  0.22998  0.39673  Biso   1.000  Hf
  Hf2      1.0000 0.36054  0.27078  0.10335  Biso   1.000  Hf
  Hf3      1.0000 0.36062  0.47853  0.35340  Biso   1.000  Hf
  O1       1.0000 0.03735  0.17238  0.07943  Biso   1.000  O
  O2       1.0000 0.03303  0.08107  0.33152  Biso   1.000  O
  O3       1.0000 0.46364  0.41921  0.16962  Biso   1.000  O
  O4       1.0000 0.46370  0.33041  0.41943  Biso   1.000  O
  O5       1.0000 0.27823  0.13140  0.24354  Biso   1.000  O
  O6       1.0000 0.27688  0.12080  0.49071  Biso   1.000  O
  O7       1.0000 0.22367  0.38017  0.00874  Biso   1.000  O
  O8       1.0000 0.22242  0.37149  0.25899  Biso   1.000  O
  Hf4      1.0000 0.13905  0.02104  0.64542  Biso   1.000  Hf
  Hf5      1.0000 0.14067  0.22892  0.89409  Biso   1.000  Hf
  Hf6      1.0000 0.36161  0.27147  0.60389  Biso   1.000  Hf
  Hf7      1.0000 0.36184  0.47884  0.85416  Biso   1.000  Hf
  O9       1.0000 0.03584  0.16898  0.57950  Biso   1.000  O
  O10      1.0000 0.03676  0.08040  0.83007  Biso   1.000  O
  O11      1.0000 0.46459  0.41933  0.66974  Biso   1.000  O
  O12      1.0000 0.46587  0.33229  0.92002  Biso   1.000  O
  O13      1.0000 0.27671  0.12918  0.73839  Biso   1.000  O
  O14      1.0000 0.28233  0.12602  0.98370  Biso   1.000  O
  O15      1.0000 0.22324  0.37908  0.50916  Biso   1.000  O
  O16      1.0000 0.22432  0.37118  0.75881  Biso   1.000  O
  Hf8      1.0000 0.13880  0.52153  0.14524  Biso   1.000  Hf
  Hf9      1.0000 0.13818  0.72769  0.39646  Biso   1.000  Hf
  Hf10     1.0000 0.36227  0.77126  0.10362  Biso   1.000  Hf
  Hf11     1.0000 0.36173  0.97857  0.35443  Biso   1.000  Hf
  O17      1.0000 0.03634  0.67088  0.08056  Biso   1.000  O
  O18      1.0000 0.03557  0.58057  0.33009  Biso   1.000  O
  O19      1.0000 0.46409  0.91970  0.17005  Biso   1.000  O
  O20      1.0000 0.46428  0.83018  0.42028  Biso   1.000  O
  O21      1.0000 0.27646  0.62847  0.24009  Biso   1.000  O
  O22      1.0000 0.27636  0.62050  0.49047  Biso   1.000  O
  O23      1.0000 0.22729  0.87643  0.00506  Biso   1.000  O
  O24      1.0000 0.22499  0.86788  0.26080  Biso   1.000  O
  Hf12     1.0000 0.13914  0.52146  0.64606  Biso   1.000  Hf
  Hf13     1.0000 0.13946  0.72895  0.89516  Biso   1.000  Hf
  Hf14     1.0000 0.36121  0.77155  0.60409  Biso   1.000  Hf
  Hf15     1.0000 0.36158  0.97936  0.85365  Biso   1.000  Hf
  O25      1.0000 0.03576  0.66927  0.58069  Biso   1.000  O
  O26      1.0000 0.03639  0.57999  0.83033  Biso   1.000  O
  O27      1.0000 0.46440  0.91943  0.66957  Biso   1.000  O
  O28      1.0000 0.46611  0.83169  0.91977  Biso   1.000  O
  O29      1.0000 0.27680  0.62925  0.74022  Biso   1.000  O
  O30      1.0000 0.27683  0.62071  0.99025  Biso   1.000  O
  O31      1.0000 0.22347  0.87897  0.50937  Biso   1.000  O
  O32      1.0000 0.22346  0.87085  0.75836  Biso   1.000  O
  Hf16     1.0000 0.63865  0.02138  0.14577  Biso   1.000  Hf
  Hf17     1.0000 0.63829  0.22901  0.39603  Biso   1.000  Hf
  Hf18     1.0000 0.86018  0.27162  0.10460  Biso   1.000  Hf
  Hf19     1.0000 0.86126  0.47838  0.35409  Biso   1.000  Hf
  O33      1.0000 0.53650  0.16973  0.08039  Biso   1.000  O
  O34      1.0000 0.53697  0.07966  0.33099  Biso   1.000  O
  O35      1.0000 0.96326  0.42021  0.16949  Biso   1.000  O
  O36      1.0000 0.96407  0.33080  0.42005  Biso   1.000  O
  O37      1.0000 0.77621  0.12929  0.24119  Biso   1.000  O
  O38      1.0000 0.77590  0.12084  0.49149  Biso   1.000  O
  O39      1.0000 0.72374  0.37908  0.00972  Biso   1.000  O
  O40      1.0000 0.72306  0.37076  0.25968  Biso   1.000  O
  Hf20     1.0000 0.63854  0.02172  0.64684  Biso   1.000  Hf
  Hf21     1.0000 0.63919  0.22876  0.89603  Biso   1.000  Hf
  Hf22     1.0000 0.86136  0.27151  0.60437  Biso   1.000  Hf
  Hf23     1.0000 0.86202  0.47799  0.85416  Biso   1.000  Hf
  O41      1.0000 0.53613  0.16973  0.58038  Biso   1.000  O
  O42      1.0000 0.53711  0.08072  0.83003  Biso   1.000  O
  O43      1.0000 0.96476  0.41889  0.67001  Biso   1.000  O
  O44      1.0000 0.96423  0.33019  0.92040  Biso   1.000  O
  O45      1.0000 0.77733  0.12938  0.74069  Biso   1.000  O
  O46      1.0000 0.77696  0.12080  0.99086  Biso   1.000  O
  O47      1.0000 0.72350  0.37895  0.50958  Biso   1.000  O
  O48      1.0000 0.72402  0.37094  0.75959  Biso   1.000  O
  Hf24     1.0000 0.63802  0.52058  0.14574  Biso   1.000  Hf
  Hf25     1.0000 0.63794  0.72729  0.39613  Biso   1.000  Hf
  Hf26     1.0000 0.85948  0.76873  0.10315  Biso   1.000  Hf
  Hf27     1.0000 0.85556  0.97777  0.35763  Biso   1.000  Hf
  O49      1.0000 0.53677  0.66931  0.07982  Biso   1.000  O
  O50      1.0000 0.53536  0.58006  0.32997  Biso   1.000  O
  O51      1.0000 0.95607  0.92048  0.17146  Biso   1.000  O
  O52      1.0000 0.96355  0.83128  0.41994  Biso   1.000  O
  O53      1.0000 0.77576  0.62835  0.24039  Biso   1.000  O
  O54      1.0000 0.77665  0.62069  0.49045  Biso   1.000  O
  O55      1.0000 0.72350  0.87900  0.00961  Biso   1.000  O
  O56      1.0000 0.72222  0.86984  0.26039  Biso   1.000  O
  Hf28     1.0000 0.63912  0.52127  0.64597  Biso   1.000  Hf
  Hf29     1.0000 0.63924  0.72882  0.89530  Biso   1.000  Hf
  Hf30     1.0000 0.86119  0.77131  0.60458  Biso   1.000  Hf
  Hf31     1.0000 0.86191  0.97884  0.85436  Biso   1.000  Hf
  O57      1.0000 0.53580  0.66880  0.58019  Biso   1.000  O
  O58      1.0000 0.53625  0.58119  0.82976  Biso   1.000  O
  O59      1.0000 0.96400  0.91932  0.66990  Biso   1.000  O
  O60      1.0000 0.96423  0.83052  0.92019  Biso   1.000  O
  O61      1.0000 0.77709  0.62905  0.74035  Biso   1.000  O
  O62      1.0000 0.77688  0.62032  0.99026  Biso   1.000  O
  O63      1.0000 0.72215  0.87859  0.51056  Biso   1.000  O
  O64      1.0000 0.72410  0.87097  0.75962  Biso   1.000  O
