data_image0
_cell_length_a       10.357
_cell_length_b       5.19371
_cell_length_c       10.6638
_cell_angle_alpha    93.0005
_cell_angle_beta     77.7646
_cell_angle_gamma    91.2808

_symmetry_space_group_name_H-M    "P 1"
_symmetry_int_tables_number       1

loop_
  _symmetry_equiv_pos_as_xyz
  'x, y, z'

loop_
  _atom_site_label
  _atom_site_occupancy
  _atom_site_fract_x
  _atom_site_fract_y
  _atom_site_fract_z
  _atom_site_thermal_displace_type
  _atom_site_B_iso_or_equiv
  _atom_site_type_symbol
  Hf1      1.0000 0.12352  0.08176  0.14336  Biso   1.000  Hf
  Hf2      1.0000 0.13436  0.43743  0.40547  Biso   1.000  Hf
  Hf3      1.0000 0.33459  0.61947  0.08874  Biso   1.000  Hf
  Hf4      1.0000 0.37860  0.92008  0.36379  Biso   1.000  Hf
  O1       1.0000 0.01537  0.31581  0.05917  Biso   1.000  O
  O2       1.0000 0.03627  0.13380  0.34122  Biso   1.000  O
  O3       1.0000 0.49393  0.82175  0.18188  Biso   1.000  O
  O4       1.0000 0.47932  0.61989  0.43044  Biso   1.000  O
  O5       1.0000 0.18878  0.42825  0.21217  Biso   1.000  O
  O6       1.0000 0.27423  0.22120  0.48649  Biso   1.000  O
  O7       1.0000 0.20676  0.79772  0.99723  Biso   1.000  O
  O8       1.0000 0.26110  0.91165  0.22976  Biso   1.000  O
  Hf5      1.0000 0.13501  0.03171  0.64277  Biso   1.000  Hf
  Hf6      1.0000 0.12912  0.46585  0.88857  Biso   1.000  Hf
  Hf7      1.0000 0.36530  0.52734  0.60678  Biso   1.000  Hf
  Hf8      1.0000 0.35180  0.98154  0.84739  Biso   1.000  Hf
  O9       1.0000 0.02929  0.31025  0.58271  Biso   1.000  O
  O10      1.0000 0.02624  0.17275  0.82110  Biso   1.000  O
  O11      1.0000 0.46152  0.84181  0.66672  Biso   1.000  O
  O12      1.0000 0.45958  0.71743  0.91575  Biso   1.000  O
  O13      1.0000 0.26869  0.25254  0.73278  Biso   1.000  O
  O14      1.0000 0.26228  0.28278  0.97666  Biso   1.000  O
  O15      1.0000 0.23153  0.73339  0.50472  Biso   1.000  O
  O16      1.0000 0.22168  0.73996  0.75258  Biso   1.000  O
  Hf9      1.0000 0.66700  0.00960  0.17141  Biso   1.000  Hf
  Hf10     1.0000 0.65833  0.42974  0.41199  Biso   1.000  Hf
  Hf11     1.0000 0.85790  0.53263  0.10422  Biso   1.000  Hf
  Hf12     1.0000 0.87045  0.92972  0.36606  Biso   1.000  Hf
  O17      1.0000 0.48607  0.35664  0.05325  Biso   1.000  O
  O18      1.0000 0.56243  0.08025  0.38063  Biso   1.000  O
  O19      1.0000 0.96517  0.82473  0.17598  Biso   1.000  O
  O20      1.0000 0.97164  0.64991  0.43269  Biso   1.000  O
  O21      1.0000 0.79689  0.24234  0.25576  Biso   1.000  O
  O22      1.0000 0.78245  0.22046  0.50433  Biso   1.000  O
  O23      1.0000 0.72502  0.74455  0.01810  Biso   1.000  O
  O24      1.0000 0.73458  0.72142  0.27159  Biso   1.000  O
  Hf13     1.0000 0.63592  0.04046  0.65125  Biso   1.000  Hf
  Hf14     1.0000 0.62415  0.46990  0.90127  Biso   1.000  Hf
  Hf15     1.0000 0.85950  0.52894  0.61662  Biso   1.000  Hf
  Hf16     1.0000 0.85522  0.95758  0.86171  Biso   1.000  Hf
  O25      1.0000 0.54115  0.34397  0.59510  Biso   1.000  O
  O26      1.0000 0.52469  0.18738  0.82286  Biso   1.000  O
  O27      1.0000 0.96479  0.81648  0.68007  Biso   1.000  O
  O28      1.0000 0.95935  0.67864  0.92532  Biso   1.000  O
  O29      1.0000 0.77023  0.26068  0.75341  Biso   1.000  O
  O30      1.0000 0.75249  0.23684  0.00614  Biso   1.000  O
  O31      1.0000 0.73317  0.73467  0.52166  Biso   1.000  O
  O32      1.0000 0.71939  0.75003  0.76935  Biso   1.000  O
  Sb1      1.0000 0.47445  0.38622  0.24595  Biso   1.000  Sb
