data_image0
_cell_length_a       10.0979
_cell_length_b       5.23164
_cell_length_c       10.307
_cell_angle_alpha    94.1989
_cell_angle_beta     95.1239
_cell_angle_gamma    87.3442

_symmetry_space_group_name_H-M    "P 1"
_symmetry_int_tables_number       1

loop_
  _symmetry_equiv_pos_as_xyz
  'x, y, z'

loop_
  _atom_site_label
  _atom_site_occupancy
  _atom_site_fract_x
  _atom_site_fract_y
  _atom_site_fract_z
  _atom_site_thermal_displace_type
  _atom_site_B_iso_or_equiv
  _atom_site_type_symbol
  Hf1      1.0000 0.16614  0.13194  0.09258  Biso   1.000  Hf
  Hf2      1.0000 0.09814  0.43539  0.37813  Biso   1.000  Hf
  Hf3      1.0000 0.37440  0.57702  0.12368  Biso   1.000  Hf
  Hf4      1.0000 0.35190  0.97433  0.37399  Biso   1.000  Hf
  O1       1.0000 0.01649  0.23901  0.21063  Biso   1.000  O
  O2       1.0000 0.01927  0.11324  0.44335  Biso   1.000  O
  O3       1.0000 0.47542  0.88579  0.21523  Biso   1.000  O
  O4       1.0000 0.45954  0.64976  0.43766  Biso   1.000  O
  O5       1.0000 0.27681  0.32724  0.24560  Biso   1.000  O
  O6       1.0000 0.25245  0.25177  0.49164  Biso   1.000  O
  O7       1.0000 0.22307  0.75351  0.47365  Biso   1.000  O
  O8       1.0000 0.23446  0.83054  0.21463  Biso   1.000  O
  Hf5      1.0000 0.12886  0.01363  0.61017  Biso   1.000  Hf
  Hf6      1.0000 0.16278  0.47381  0.84212  Biso   1.000  Hf
  Hf7      1.0000 0.37885  0.51994  0.59808  Biso   1.000  Hf
  Hf8      1.0000 0.38183  0.97278  0.85647  Biso   1.000  Hf
  O9       1.0000 0.04942  0.36287  0.67242  Biso   1.000  O
  O10      1.0000 0.06303  0.16521  0.90833  Biso   1.000  O
  O11      1.0000 0.47111  0.86256  0.68611  Biso   1.000  O
  O12      1.0000 0.50130  0.69703  0.97453  Biso   1.000  O
  O13      1.0000 0.27722  0.21307  0.73365  Biso   1.000  O
  O14      1.0000 0.30512  0.29061  0.98196  Biso   1.000  O
  O15      1.0000 0.25668  0.79598  0.97014  Biso   1.000  O
  O16      1.0000 0.24586  0.71746  0.72247  Biso   1.000  O
  Hf9      1.0000 0.61641  0.99569  0.10895  Biso   1.000  Hf
  Hf10     1.0000 0.62371  0.44048  0.38795  Biso   1.000  Hf
  Hf11     1.0000 0.83400  0.44011  0.17389  Biso   1.000  Hf
  Hf12     1.0000 0.84962  0.91930  0.41125  Biso   1.000  Hf
  O17      1.0000 0.53963  0.36333  0.18969  Biso   1.000  O
  O18      1.0000 0.50978  0.17078  0.47316  Biso   1.000  O
  O19      1.0000 0.97222  0.70879  0.26476  Biso   1.000  O
  O20      1.0000 0.95091  0.59747  0.47856  Biso   1.000  O
  O21      1.0000 0.75313  0.15265  0.26726  Biso   1.000  O
  O22      1.0000 0.75947  0.24721  0.51840  Biso   1.000  O
  O23      1.0000 0.71486  0.74464  0.52545  Biso   1.000  O
  O24      1.0000 0.72430  0.67777  0.28712  Biso   1.000  O
  Hf13     1.0000 0.63280  0.04379  0.64157  Biso   1.000  Hf
  Hf14     1.0000 0.65248  0.47528  0.89213  Biso   1.000  Hf
  Hf15     1.0000 0.86827  0.54085  0.65230  Biso   1.000  Hf
  Hf16     1.0000 0.88935  0.99586  0.86951  Biso   1.000  Hf
  O25      1.0000 0.53352  0.38123  0.71496  Biso   1.000  O
  O26      1.0000 0.54782  0.15601  0.93666  Biso   1.000  O
  O27      1.0000 0.95091  0.90853  0.67227  Biso   1.000  O
  O28      1.0000 0.97302  0.63554  0.85722  Biso   1.000  O
  O29      1.0000 0.77787  0.26544  0.76388  Biso   1.000  O
  O30      1.0000 0.78051  0.21746  0.00919  Biso   1.000  O
  O31      1.0000 0.75198  0.70986  0.04032  Biso   1.000  O
  O32      1.0000 0.72915  0.77199  0.77670  Biso   1.000  O
  Sb1      1.0000 0.03383  0.68584  0.07519  Biso   1.000  Sb
