data_image0
_cell_length_a       10.1925
_cell_length_b       10.4995
_cell_length_c       5.29577
_cell_angle_alpha    93.3271
_cell_angle_beta     93.8681
_cell_angle_gamma    87.1076

_symmetry_space_group_name_H-M    "P 1"
_symmetry_int_tables_number       1

loop_
  _symmetry_equiv_pos_as_xyz
  'x, y, z'

loop_
  _atom_site_label
  _atom_site_occupancy
  _atom_site_fract_x
  _atom_site_fract_y
  _atom_site_fract_z
  _atom_site_thermal_displace_type
  _atom_site_B_iso_or_equiv
  _atom_site_type_symbol
  Hf1      1.0000 0.13044  0.01723  0.36346  Biso   1.000  Hf
  Hf2      1.0000 0.14535  0.22929  0.88491  Biso   1.000  Hf
  Hf3      1.0000 0.34322  0.24787  0.41758  Biso   1.000  Hf
  Hf4      1.0000 0.38005  0.49912  0.81322  Biso   1.000  Hf
  Hf5      1.0000 0.62561  0.00090  0.19702  Biso   1.000  Hf
  Hf6      1.0000 0.66244  0.25214  0.59265  Biso   1.000  Hf
  Hf7      1.0000 0.86031  0.27073  0.12531  Biso   1.000  Hf
  Hf8      1.0000 0.87523  0.48278  0.64676  Biso   1.000  Hf
  O1       1.0000 0.02852  0.16195  0.17241  Biso   1.000  O
  O2       1.0000 0.03499  0.08539  0.68085  Biso   1.000  O
  O3       1.0000 0.48932  0.44902  0.11738  Biso   1.000  O
  O4       1.0000 0.48327  0.36841  0.57354  Biso   1.000  O
  O5       1.0000 0.26838  0.11319  0.63115  Biso   1.000  O
  O6       1.0000 0.26420  0.10444  0.13490  Biso   1.000  O
  O7       1.0000 0.22926  0.37333  0.65178  Biso   1.000  O
  O8       1.0000 0.22198  0.35803  0.16659  Biso   1.000  O
  O9       1.0000 0.52240  0.13159  0.43669  Biso   1.000  O
  O10      1.0000 0.51635  0.05100  0.89284  Biso   1.000  O
  O11      1.0000 0.97068  0.41463  0.32938  Biso   1.000  O
  O12      1.0000 0.97715  0.33807  0.83782  Biso   1.000  O
  O13      1.0000 0.78369  0.14198  0.84364  Biso   1.000  O
  O14      1.0000 0.77642  0.12667  0.35846  Biso   1.000  O
  O15      1.0000 0.74146  0.39557  0.87532  Biso   1.000  O
  O16      1.0000 0.73729  0.38682  0.37908  Biso   1.000  O
  Hf9      1.0000 0.13559  0.51538  0.33996  Biso   1.000  Hf
  Hf10     1.0000 0.13754  0.72696  0.84645  Biso   1.000  Hf
  Hf11     1.0000 0.35870  0.76241  0.35748  Biso   1.000  Hf
  Hf12     1.0000 0.34939  0.95959  0.88258  Biso   1.000  Hf
  Hf13     1.0000 0.65628  0.54042  0.12764  Biso   1.000  Hf
  Hf14     1.0000 0.64697  0.73760  0.65274  Biso   1.000  Hf
  Hf15     1.0000 0.86812  0.77306  0.16377  Biso   1.000  Hf
  Hf16     1.0000 0.87008  0.98463  0.67025  Biso   1.000  Hf
  O17      1.0000 0.03790  0.66172  0.16067  Biso   1.000  O
  O18      1.0000 0.03921  0.58420  0.66283  Biso   1.000  O
  O19      1.0000 0.46110  0.89750  0.19990  Biso   1.000  O
  O20      1.0000 0.46483  0.82912  0.68077  Biso   1.000  O
  O21      1.0000 0.27381  0.62466  0.57456  Biso   1.000  O
  O22      1.0000 0.27663  0.61848  0.07556  Biso   1.000  O
  O23      1.0000 0.21756  0.86611  0.60969  Biso   1.000  O
  O24      1.0000 0.21942  0.86503  0.11475  Biso   1.000  O
  O25      1.0000 0.54083  0.67089  0.32946  Biso   1.000  O
  O26      1.0000 0.54457  0.60251  0.81033  Biso   1.000  O
  O27      1.0000 0.96646  0.91582  0.34739  Biso   1.000  O
  O28      1.0000 0.96776  0.83830  0.84955  Biso   1.000  O
  O29      1.0000 0.78625  0.63498  0.89547  Biso   1.000  O
  O30      1.0000 0.78810  0.63390  0.40053  Biso   1.000  O
  O31      1.0000 0.72903  0.88153  0.93466  Biso   1.000  O
  O32      1.0000 0.73186  0.87535  0.43566  Biso   1.000  O
  Sb1      1.0000 0.50284  0.25001  0.00513  Biso   1.000  Sb
