data_image0
_cell_length_a       10.1326
_cell_length_b       10.3349
_cell_length_c       10.1134
_cell_angle_alpha    89.9664
_cell_angle_beta     91.7988
_cell_angle_gamma    88.7286

_symmetry_space_group_name_H-M    "P 1"
_symmetry_int_tables_number       1

loop_
  _symmetry_equiv_pos_as_xyz
  'x, y, z'

loop_
  _atom_site_label
  _atom_site_occupancy
  _atom_site_fract_x
  _atom_site_fract_y
  _atom_site_fract_z
  _atom_site_thermal_displace_type
  _atom_site_B_iso_or_equiv
  _atom_site_type_symbol
  Hf1      1.0000 0.11166  0.98146  0.11777  Biso   1.000  Hf
  Hf2      1.0000 0.10524  0.24126  0.42128  Biso   1.000  Hf
  Hf3      1.0000 0.36539  0.23253  0.12895  Biso   1.000  Hf
  Hf4      1.0000 0.34964  0.01819  0.39001  Biso   1.000  Hf
  O1       1.0000 0.98840  0.14591  0.00779  Biso   1.000  O
  O2       1.0000 0.97249  0.05724  0.24581  Biso   1.000  O
  O3       1.0000 0.90815  0.27349  0.34222  Biso   1.000  O
  O4       1.0000 0.07001  0.43574  0.99264  Biso   1.000  O
  O5       1.0000 0.24124  0.16735  0.28356  Biso   1.000  O
  O6       1.0000 0.24824  0.07953  0.01052  Biso   1.000  O
  O7       1.0000 0.30965  0.32787  0.95299  Biso   1.000  O
  O8       1.0000 0.26080  0.44381  0.19484  Biso   1.000  O
  Hf5      1.0000 0.10904  0.99149  0.63025  Biso   1.000  Hf
  Hf6      1.0000 0.13510  0.24127  0.89672  Biso   1.000  Hf
  Hf7      1.0000 0.38179  0.27134  0.63051  Biso   1.000  Hf
  Hf8      1.0000 0.37956  0.02240  0.86099  Biso   1.000  Hf
  O9       1.0000 0.98135  0.12570  0.52827  Biso   1.000  O
  O10      1.0000 0.01812  0.10407  0.76919  Biso   1.000  O
  O11      1.0000 0.01455  0.34975  0.77112  Biso   1.000  O
  O12      1.0000 0.00206  0.39466  0.52464  Biso   1.000  O
  O13      1.0000 0.26954  0.16999  0.76233  Biso   1.000  O
  O14      1.0000 0.23265  0.11164  0.52651  Biso   1.000  O
  O15      1.0000 0.24772  0.36430  0.48634  Biso   1.000  O
  O16      1.0000 0.28489  0.42807  0.72252  Biso   1.000  O
  Hf9      1.0000 0.13475  0.60125  0.11992  Biso   1.000  Hf
  Hf10     1.0000 0.14378  0.76128  0.38601  Biso   1.000  Hf
  Hf11     1.0000 0.39971  0.73582  0.10070  Biso   1.000  Hf
  Hf12     1.0000 0.38595  0.49733  0.35118  Biso   1.000  Hf
  O17      1.0000 0.99810  0.66557  0.97723  Biso   1.000  O
  O18      1.0000 0.00385  0.51022  0.23484  Biso   1.000  O
  O19      1.0000 0.02850  0.75972  0.21903  Biso   1.000  O
  O20      1.0000 0.96425  0.90213  0.00760  Biso   1.000  O
  O21      1.0000 0.27722  0.67435  0.25231  Biso   1.000  O
  O22      1.0000 0.27153  0.60787  0.96641  Biso   1.000  O
  O23      1.0000 0.20902  0.81549  0.04065  Biso   1.000  O
  O24      1.0000 0.21472  0.92031  0.28245  Biso   1.000  O
  Hf13     1.0000 0.14534  0.51635  0.60867  Biso   1.000  Hf
  Hf14     1.0000 0.13082  0.75706  0.85391  Biso   1.000  Hf
  Hf15     1.0000 0.39244  0.73988  0.60123  Biso   1.000  Hf
  Hf16     1.0000 0.40275  0.48302  0.88012  Biso   1.000  Hf
  O25      1.0000 0.01464  0.63978  0.48151  Biso   1.000  O
  O26      1.0000 0.00084  0.60467  0.73427  Biso   1.000  O
  O27      1.0000 0.98094  0.85859  0.73993  Biso   1.000  O
  O28      1.0000 0.99836  0.88543  0.48390  Biso   1.000  O
  O29      1.0000 0.23358  0.67948  0.70954  Biso   1.000  O
  O30      1.0000 0.26700  0.61176  0.48176  Biso   1.000  O
  O31      1.0000 0.25086  0.86851  0.52499  Biso   1.000  O
  O32      1.0000 0.22114  0.92082  0.79209  Biso   1.000  O
  Hf17     1.0000 0.60709  0.98612  0.12802  Biso   1.000  Hf
  Hf18     1.0000 0.62136  0.25851  0.39419  Biso   1.000  Hf
  Hf19     1.0000 0.84692  0.21595  0.14973  Biso   1.000  Hf
  Hf20     1.0000 0.85209  0.00947  0.39345  Biso   1.000  Hf
  O33      1.0000 0.50004  0.13485  0.99933  Biso   1.000  O
  O34      1.0000 0.45508  0.06512  0.23004  Biso   1.000  O
  O35      1.0000 0.46874  0.32356  0.27544  Biso   1.000  O
  O36      1.0000 0.53422  0.38484  0.00975  Biso   1.000  O
  O37      1.0000 0.70567  0.12248  0.26370  Biso   1.000  O
  O38      1.0000 0.74220  0.09490  0.01400  Biso   1.000  O
  O39      1.0000 0.78495  0.35229  0.00535  Biso   1.000  O
  O40      1.0000 0.71947  0.38415  0.25451  Biso   1.000  O
  Hf21     1.0000 0.60658  0.99779  0.61336  Biso   1.000  Hf
  Hf22     1.0000 0.62882  0.24454  0.89447  Biso   1.000  Hf
  Hf23     1.0000 0.87843  0.26910  0.64602  Biso   1.000  Hf
  Hf24     1.0000 0.87334  0.01768  0.86971  Biso   1.000  Hf
  O41      1.0000 0.48296  0.14850  0.49548  Biso   1.000  O
  O42      1.0000 0.51518  0.11871  0.74718  Biso   1.000  O
  O43      1.0000 0.52828  0.36085  0.75381  Biso   1.000  O
  O44      1.0000 0.49916  0.40382  0.50661  Biso   1.000  O
  O45      1.0000 0.77381  0.17716  0.77815  Biso   1.000  O
  O46      1.0000 0.73238  0.11431  0.51798  Biso   1.000  O
  O47      1.0000 0.74235  0.36216  0.51603  Biso   1.000  O
  O48      1.0000 0.77854  0.42923  0.74487  Biso   1.000  O
  Hf25     1.0000 0.65618  0.50574  0.10545  Biso   1.000  Hf
  Hf26     1.0000 0.64650  0.74390  0.36460  Biso   1.000  Hf
  Hf27     1.0000 0.85752  0.75364  0.10469  Biso   1.000  Hf
  Hf28     1.0000 0.87229  0.47106  0.37161  Biso   1.000  Hf
  O49      1.0000 0.52373  0.63424  0.98215  Biso   1.000  O
  O50      1.0000 0.51090  0.58071  0.22577  Biso   1.000  O
  O51      1.0000 0.52569  0.82627  0.22590  Biso   1.000  O
  O52      1.0000 0.46501  0.88675  0.98827  Biso   1.000  O
  O53      1.0000 0.76464  0.63379  0.24018  Biso   1.000  O
  O54      1.0000 0.77097  0.60647  0.98328  Biso   1.000  O
  O55      1.0000 0.70803  0.84661  0.00844  Biso   1.000  O
  O56      1.0000 0.76844  0.88335  0.25252  Biso   1.000  O
  Hf29     1.0000 0.63668  0.51123  0.62352  Biso   1.000  Hf
  Hf30     1.0000 0.61652  0.76381  0.85044  Biso   1.000  Hf
  Hf31     1.0000 0.88767  0.73576  0.60376  Biso   1.000  Hf
  Hf32     1.0000 0.91187  0.49832  0.88028  Biso   1.000  Hf
  O57      1.0000 0.51709  0.64458  0.47910  Biso   1.000  O
  O58      1.0000 0.49356  0.61314  0.73578  Biso   1.000  O
  O59      1.0000 0.47822  0.86949  0.73389  Biso   1.000  O
  O60      1.0000 0.49573  0.89282  0.48078  Biso   1.000  O
  O61      1.0000 0.73429  0.67884  0.71964  Biso   1.000  O
  O62      1.0000 0.76516  0.60273  0.48931  Biso   1.000  O
  O63      1.0000 0.74731  0.86043  0.50433  Biso   1.000  O
  O64      1.0000 0.72064  0.92792  0.76812  Biso   1.000  O
  Sb1      1.0000 0.10337  0.31558  0.16100  Biso   1.000  Sb
