data_image0
_cell_length_a       10.2808
_cell_length_b       10.4601
_cell_length_c       5.2581
_cell_angle_alpha    89.0454
_cell_angle_beta     78.8763
_cell_angle_gamma    89.0089

_symmetry_space_group_name_H-M    "P 1"
_symmetry_int_tables_number       1

loop_
  _symmetry_equiv_pos_as_xyz
  'x, y, z'

loop_
  _atom_site_label
  _atom_site_occupancy
  _atom_site_fract_x
  _atom_site_fract_y
  _atom_site_fract_z
  _atom_site_thermal_displace_type
  _atom_site_B_iso_or_equiv
  _atom_site_type_symbol
  Hf1      1.0000 0.13152  0.01733  0.28619  Biso   1.000  Hf
  Hf2      1.0000 0.13828  0.22615  0.77632  Biso   1.000  Hf
  Hf3      1.0000 0.35483  0.26986  0.17878  Biso   1.000  Hf
  Hf4      1.0000 0.35524  0.48859  0.71115  Biso   1.000  Hf
  O1       1.0000 0.03740  0.17108  0.15949  Biso   1.000  O
  O2       1.0000 0.02840  0.08075  0.66170  Biso   1.000  O
  O3       1.0000 0.46969  0.42228  0.36623  Biso   1.000  O
  O4       1.0000 0.48212  0.38745  0.90590  Biso   1.000  O
  O5       1.0000 0.26172  0.11685  0.46235  Biso   1.000  O
  O6       1.0000 0.26675  0.10997  0.97090  Biso   1.000  O
  O7       1.0000 0.21778  0.38026  0.00235  Biso   1.000  O
  O8       1.0000 0.21892  0.37184  0.49974  Biso   1.000  O
  Hf5      1.0000 0.13876  0.52030  0.29107  Biso   1.000  Hf
  Hf6      1.0000 0.13185  0.72716  0.79477  Biso   1.000  Hf
  Hf7      1.0000 0.35616  0.76826  0.20185  Biso   1.000  Hf
  Hf8      1.0000 0.34643  0.96327  0.69909  Biso   1.000  Hf
  O9       1.0000 0.02821  0.66678  0.16161  Biso   1.000  O
  O10      1.0000 0.03577  0.58288  0.65932  Biso   1.000  O
  O11      1.0000 0.45711  0.91389  0.31819  Biso   1.000  O
  O12      1.0000 0.45291  0.82057  0.83238  Biso   1.000  O
  O13      1.0000 0.27235  0.62767  0.48017  Biso   1.000  O
  O14      1.0000 0.26864  0.62243  0.98504  Biso   1.000  O
  O15      1.0000 0.21440  0.87259  0.01653  Biso   1.000  O
  O16      1.0000 0.21539  0.86395  0.51178  Biso   1.000  O
  Hf9      1.0000 0.63214  0.01115  0.29271  Biso   1.000  Hf
  Hf10     1.0000 0.67482  0.24584  0.83509  Biso   1.000  Hf
  Hf11     1.0000 0.86880  0.27388  0.23705  Biso   1.000  Hf
  Hf12     1.0000 0.86633  0.48534  0.72142  Biso   1.000  Hf
  O17      1.0000 0.53085  0.16312  0.12685  Biso   1.000  O
  O18      1.0000 0.52522  0.04152  0.65710  Biso   1.000  O
  O19      1.0000 0.96849  0.42088  0.34768  Biso   1.000  O
  O20      1.0000 0.96075  0.32827  0.84513  Biso   1.000  O
  O21      1.0000 0.77509  0.13405  0.51322  Biso   1.000  O
  O22      1.0000 0.78270  0.11567  0.01729  Biso   1.000  O
  O23      1.0000 0.73405  0.38471  0.05779  Biso   1.000  O
  O24      1.0000 0.73584  0.38275  0.54748  Biso   1.000  O
  Hf13     1.0000 0.63716  0.53050  0.30524  Biso   1.000  Hf
  Hf14     1.0000 0.63399  0.72944  0.79176  Biso   1.000  Hf
  Hf15     1.0000 0.85856  0.77304  0.21041  Biso   1.000  Hf
  Hf16     1.0000 0.85776  0.97975  0.71121  Biso   1.000  Hf
  O25      1.0000 0.53107  0.66708  0.15320  Biso   1.000  O
  O26      1.0000 0.52880  0.59652  0.64859  Biso   1.000  O
  O27      1.0000 0.95775  0.91811  0.34469  Biso   1.000  O
  O28      1.0000 0.96091  0.83175  0.84358  Biso   1.000  O
  O29      1.0000 0.77434  0.63261  0.48776  Biso   1.000  O
  O30      1.0000 0.77297  0.62467  0.98564  Biso   1.000  O
  O31      1.0000 0.71828  0.87772  0.01674  Biso   1.000  O
  O32      1.0000 0.72087  0.87249  0.51673  Biso   1.000  O
  Sb1      1.0000 0.47312  0.23697  0.60272  Biso   1.000  Sb
