data_image0
_cell_length_a       10.1337
_cell_length_b       5.14103
_cell_length_c       10.4809
_cell_angle_alpha    90.0166
_cell_angle_beta     80.4897
_cell_angle_gamma    89.881

_symmetry_space_group_name_H-M    "P 1"
_symmetry_int_tables_number       1

loop_
  _symmetry_equiv_pos_as_xyz
  'x, y, z'

loop_
  _atom_site_label
  _atom_site_occupancy
  _atom_site_fract_x
  _atom_site_fract_y
  _atom_site_fract_z
  _atom_site_thermal_displace_type
  _atom_site_B_iso_or_equiv
  _atom_site_type_symbol
  Sb1      1.0000 0.13021  0.03793  0.15024  Biso   1.000  Sb
  Hf1      1.0000 0.13902  0.45790  0.39712  Biso   1.000  Hf
  Hf2      1.0000 0.36156  0.54135  0.10279  Biso   1.000  Hf
  Hf3      1.0000 0.36148  0.95663  0.35367  Biso   1.000  Hf
  O1       1.0000 0.03631  0.34148  0.07790  Biso   1.000  O
  O2       1.0000 0.03221  0.16452  0.33037  Biso   1.000  O
  O3       1.0000 0.46422  0.83716  0.17089  Biso   1.000  O
  O4       1.0000 0.46478  0.66307  0.42119  Biso   1.000  O
  O5       1.0000 0.27730  0.26239  0.24253  Biso   1.000  O
  O6       1.0000 0.27647  0.24112  0.49031  Biso   1.000  O
  O7       1.0000 0.22767  0.75399  0.00491  Biso   1.000  O
  O8       1.0000 0.22444  0.73716  0.26014  Biso   1.000  O
  Hf4      1.0000 0.13932  0.04225  0.64547  Biso   1.000  Hf
  Hf5      1.0000 0.14110  0.45788  0.89347  Biso   1.000  Hf
  Hf6      1.0000 0.36162  0.54328  0.60384  Biso   1.000  Hf
  Hf7      1.0000 0.36243  0.95892  0.85360  Biso   1.000  Hf
  O9       1.0000 0.03516  0.33564  0.57918  Biso   1.000  O
  O10      1.0000 0.03660  0.16190  0.82893  Biso   1.000  O
  O11      1.0000 0.46556  0.83620  0.67067  Biso   1.000  O
  O12      1.0000 0.46895  0.67023  0.92113  Biso   1.000  O
  O13      1.0000 0.27669  0.25808  0.73797  Biso   1.000  O
  O14      1.0000 0.28180  0.25210  0.98390  Biso   1.000  O
  O15      1.0000 0.22355  0.75751  0.50914  Biso   1.000  O
  O16      1.0000 0.22467  0.74265  0.75797  Biso   1.000  O
  Hf8      1.0000 0.63769  0.04126  0.14566  Biso   1.000  Hf
  Hf9      1.0000 0.63742  0.45550  0.39637  Biso   1.000  Hf
  Hf10     1.0000 0.85848  0.53790  0.10350  Biso   1.000  Hf
  Hf11     1.0000 0.85576  0.95517  0.35755  Biso   1.000  Hf
  O17      1.0000 0.53681  0.33717  0.07897  Biso   1.000  O
  O18      1.0000 0.53564  0.16117  0.32971  Biso   1.000  O
  O19      1.0000 0.95634  0.83958  0.17233  Biso   1.000  O
  O20      1.0000 0.96411  0.66550  0.42130  Biso   1.000  O
  O21      1.0000 0.77510  0.25661  0.24083  Biso   1.000  O
  O22      1.0000 0.77581  0.24177  0.49117  Biso   1.000  O
  O23      1.0000 0.72420  0.75762  0.01011  Biso   1.000  O
  O24      1.0000 0.72225  0.73969  0.26081  Biso   1.000  O
  Hf12     1.0000 0.63874  0.04334  0.64697  Biso   1.000  Hf
  Hf13     1.0000 0.63940  0.45822  0.89550  Biso   1.000  Hf
  Hf14     1.0000 0.86155  0.54296  0.60483  Biso   1.000  Hf
  Hf15     1.0000 0.86295  0.95658  0.85433  Biso   1.000  Hf
  O25      1.0000 0.53535  0.33587  0.57933  Biso   1.000  O
  O26      1.0000 0.53648  0.16576  0.82848  Biso   1.000  O
  O27      1.0000 0.96538  0.83514  0.67118  Biso   1.000  O
  O28      1.0000 0.96528  0.66314  0.92231  Biso   1.000  O
  O29      1.0000 0.77751  0.25834  0.74030  Biso   1.000  O
  O30      1.0000 0.77700  0.24094  0.99030  Biso   1.000  O
  O31      1.0000 0.72254  0.75679  0.51083  Biso   1.000  O
  O32      1.0000 0.72505  0.74263  0.75997  Biso   1.000  O
