data_image0
_cell_length_a       9.97868
_cell_length_b       10.3873
_cell_length_c       5.00889
_cell_angle_alpha    90.0474
_cell_angle_beta     89.84
_cell_angle_gamma    89.9292

_symmetry_space_group_name_H-M    "P 1"
_symmetry_int_tables_number       1

loop_
  _symmetry_equiv_pos_as_xyz
  'x, y, z'

loop_
  _atom_site_label
  _atom_site_occupancy
  _atom_site_fract_x
  _atom_site_fract_y
  _atom_site_fract_z
  _atom_site_thermal_displace_type
  _atom_site_B_iso_or_equiv
  _atom_site_type_symbol
  Sb1      1.0000 0.12657  0.01853  0.23963  Biso   1.000  Sb
  Hf1      1.0000 0.13682  0.23626  0.74968  Biso   1.000  Hf
  Hf2      1.0000 0.36709  0.26705  0.25425  Biso   1.000  Hf
  Hf3      1.0000 0.36641  0.48408  0.75293  Biso   1.000  Hf
  O1       1.0000 0.03618  0.18713  0.38717  Biso   1.000  O
  O2       1.0000 0.03495  0.06682  0.87844  Biso   1.000  O
  O3       1.0000 0.46446  0.43400  0.39051  Biso   1.000  O
  O4       1.0000 0.46381  0.31571  0.88837  Biso   1.000  O
  O5       1.0000 0.27680  0.12344  0.50902  Biso   1.000  O
  O6       1.0000 0.26963  0.13308  0.00058  Biso   1.000  O
  O7       1.0000 0.23011  0.38282  0.99976  Biso   1.000  O
  O8       1.0000 0.22932  0.36958  0.49874  Biso   1.000  O
  Hf4      1.0000 0.13381  0.51679  0.25189  Biso   1.000  Hf
  Hf5      1.0000 0.13438  0.73279  0.75308  Biso   1.000  Hf
  Hf6      1.0000 0.36684  0.76554  0.25439  Biso   1.000  Hf
  Hf7      1.0000 0.36619  0.98320  0.75091  Biso   1.000  Hf
  O9       1.0000 0.03663  0.68539  0.38752  Biso   1.000  O
  O10      1.0000 0.03561  0.56557  0.88957  Biso   1.000  O
  O11      1.0000 0.46506  0.93408  0.39003  Biso   1.000  O
  O12      1.0000 0.46579  0.81629  0.89411  Biso   1.000  O
  O13      1.0000 0.26997  0.61572  0.49998  Biso   1.000  O
  O14      1.0000 0.27081  0.63201  0.00075  Biso   1.000  O
  O15      1.0000 0.23049  0.87997  0.00047  Biso   1.000  O
  O16      1.0000 0.23590  0.86255  0.51067  Biso   1.000  O
  Hf8      1.0000 0.63350  0.01623  0.25130  Biso   1.000  Hf
  Hf9      1.0000 0.63350  0.23310  0.75140  Biso   1.000  Hf
  Hf10     1.0000 0.86399  0.26731  0.24994  Biso   1.000  Hf
  Hf11     1.0000 0.86649  0.48292  0.75151  Biso   1.000  Hf
  O17      1.0000 0.53836  0.18523  0.38561  Biso   1.000  O
  O18      1.0000 0.53715  0.06563  0.88784  Biso   1.000  O
  O19      1.0000 0.96374  0.43388  0.38903  Biso   1.000  O
  O20      1.0000 0.96434  0.31620  0.88916  Biso   1.000  O
  O21      1.0000 0.76991  0.11751  0.49931  Biso   1.000  O
  O22      1.0000 0.77106  0.13190  0.99886  Biso   1.000  O
  O23      1.0000 0.72948  0.38199  0.99979  Biso   1.000  O
  O24      1.0000 0.72937  0.36772  0.50021  Biso   1.000  O
  Hf12     1.0000 0.63397  0.51616  0.25292  Biso   1.000  Hf
  Hf13     1.0000 0.63342  0.73302  0.75268  Biso   1.000  Hf
  Hf14     1.0000 0.86551  0.76409  0.24909  Biso   1.000  Hf
  Hf15     1.0000 0.86229  0.98266  0.75202  Biso   1.000  Hf
  O25      1.0000 0.53631  0.68311  0.39267  Biso   1.000  O
  O26      1.0000 0.53607  0.56559  0.89150  Biso   1.000  O
  O27      1.0000 0.95605  0.93524  0.38043  Biso   1.000  O
  O28      1.0000 0.96387  0.81676  0.88721  Biso   1.000  O
  O29      1.0000 0.77089  0.61675  0.49862  Biso   1.000  O
  O30      1.0000 0.76997  0.63170  0.99827  Biso   1.000  O
  O31      1.0000 0.72877  0.88140  0.99991  Biso   1.000  O
  O32      1.0000 0.72969  0.86656  0.49984  Biso   1.000  O
