data_image0
_cell_length_a       10.1918
_cell_length_b       10.3497
_cell_length_c       10.4974
_cell_angle_alpha    89.7439
_cell_angle_beta     79.658
_cell_angle_gamma    89.7277

_symmetry_space_group_name_H-M    "P 1"
_symmetry_int_tables_number       1

loop_
  _symmetry_equiv_pos_as_xyz
  'x, y, z'

loop_
  _atom_site_label
  _atom_site_occupancy
  _atom_site_fract_x
  _atom_site_fract_y
  _atom_site_fract_z
  _atom_site_thermal_displace_type
  _atom_site_B_iso_or_equiv
  _atom_site_type_symbol
  Hf1      1.0000 0.13157  0.01956  0.14229  Biso   1.000  Hf
  Hf2      1.0000 0.14200  0.22652  0.39227  Biso   1.000  Hf
  Hf3      1.0000 0.34943  0.26913  0.09746  Biso   1.000  Hf
  Hf4      1.0000 0.35475  0.49005  0.35432  Biso   1.000  Hf
  O1       1.0000 0.03199  0.16846  0.07712  Biso   1.000  O
  O2       1.0000 0.03119  0.08074  0.32986  Biso   1.000  O
  O3       1.0000 0.46184  0.42727  0.16837  Biso   1.000  O
  O4       1.0000 0.48714  0.39097  0.44910  Biso   1.000  O
  O5       1.0000 0.26392  0.11723  0.23279  Biso   1.000  O
  O6       1.0000 0.27340  0.10934  0.48835  Biso   1.000  O
  O7       1.0000 0.21817  0.38026  0.00444  Biso   1.000  O
  O8       1.0000 0.21484  0.37374  0.25432  Biso   1.000  O
  Hf5      1.0000 0.13862  0.01941  0.64567  Biso   1.000  Hf
  Hf6      1.0000 0.13506  0.22859  0.89132  Biso   1.000  Hf
  Hf7      1.0000 0.36573  0.27633  0.60115  Biso   1.000  Hf
  Hf8      1.0000 0.35985  0.47714  0.85519  Biso   1.000  Hf
  O9       1.0000 0.04121  0.17030  0.58054  Biso   1.000  O
  O10      1.0000 0.03256  0.08202  0.82837  Biso   1.000  O
  O11      1.0000 0.46978  0.40842  0.68488  Biso   1.000  O
  O12      1.0000 0.46487  0.33510  0.92748  Biso   1.000  O
  O13      1.0000 0.27505  0.13024  0.73631  Biso   1.000  O
  O14      1.0000 0.27096  0.12291  0.98497  Biso   1.000  O
  O15      1.0000 0.22476  0.37822  0.50757  Biso   1.000  O
  O16      1.0000 0.22437  0.37210  0.75691  Biso   1.000  O
  Hf9      1.0000 0.13829  0.52146  0.14351  Biso   1.000  Hf
  Hf10     1.0000 0.13400  0.72804  0.39747  Biso   1.000  Hf
  Hf11     1.0000 0.35807  0.77045  0.10022  Biso   1.000  Hf
  Hf12     1.0000 0.35101  0.96229  0.35385  Biso   1.000  Hf
  O17      1.0000 0.03364  0.66981  0.07899  Biso   1.000  O
  O18      1.0000 0.03680  0.58295  0.32764  Biso   1.000  O
  O19      1.0000 0.46112  0.91133  0.16725  Biso   1.000  O
  O20      1.0000 0.45639  0.82179  0.42312  Biso   1.000  O
  O21      1.0000 0.27389  0.63027  0.23972  Biso   1.000  O
  O22      1.0000 0.27037  0.62242  0.49289  Biso   1.000  O
  O23      1.0000 0.22236  0.87983  0.00716  Biso   1.000  O
  O24      1.0000 0.21642  0.86541  0.25722  Biso   1.000  O
  Hf13     1.0000 0.13809  0.52215  0.64732  Biso   1.000  Hf
  Hf14     1.0000 0.13659  0.72857  0.89578  Biso   1.000  Hf
  Hf15     1.0000 0.36049  0.77075  0.60644  Biso   1.000  Hf
  Hf16     1.0000 0.36001  0.98037  0.85132  Biso   1.000  Hf
  O25      1.0000 0.02904  0.66502  0.57999  Biso   1.000  O
  O26      1.0000 0.03325  0.58306  0.83015  Biso   1.000  O
  O27      1.0000 0.46426  0.91932  0.66850  Biso   1.000  O
  O28      1.0000 0.46361  0.83399  0.91712  Biso   1.000  O
  O29      1.0000 0.27451  0.62784  0.74061  Biso   1.000  O
  O30      1.0000 0.27405  0.62146  0.98952  Biso   1.000  O
  O31      1.0000 0.21744  0.87215  0.51191  Biso   1.000  O
  O32      1.0000 0.22346  0.87147  0.75971  Biso   1.000  O
  Hf17     1.0000 0.63681  0.01321  0.14717  Biso   1.000  Hf
  Hf18     1.0000 0.67559  0.24147  0.41174  Biso   1.000  Hf
  Hf19     1.0000 0.85966  0.27318  0.10797  Biso   1.000  Hf
  Hf20     1.0000 0.86731  0.48322  0.35622  Biso   1.000  Hf
  O33      1.0000 0.52487  0.15488  0.07410  Biso   1.000  O
  O34      1.0000 0.53135  0.04568  0.33463  Biso   1.000  O
  O35      1.0000 0.96614  0.42015  0.16892  Biso   1.000  O
  O36      1.0000 0.96513  0.32886  0.42144  Biso   1.000  O
  O37      1.0000 0.77505  0.12954  0.24718  Biso   1.000  O
  O38      1.0000 0.78893  0.11512  0.50068  Biso   1.000  O
  O39      1.0000 0.72080  0.37764  0.01652  Biso   1.000  O
  O40      1.0000 0.73390  0.37946  0.26599  Biso   1.000  O
  Hf21     1.0000 0.63791  0.02264  0.64674  Biso   1.000  Hf
  Hf22     1.0000 0.63718  0.22770  0.89951  Biso   1.000  Hf
  Hf23     1.0000 0.87013  0.27122  0.61322  Biso   1.000  Hf
  Hf24     1.0000 0.85917  0.47906  0.85785  Biso   1.000  Hf
  O41      1.0000 0.54142  0.17149  0.57197  Biso   1.000  O
  O42      1.0000 0.53132  0.08749  0.82479  Biso   1.000  O
  O43      1.0000 0.96713  0.41850  0.67531  Biso   1.000  O
  O44      1.0000 0.96109  0.33159  0.92178  Biso   1.000  O
  O45      1.0000 0.77474  0.12970  0.74553  Biso   1.000  O
  O46      1.0000 0.77257  0.12015  0.99552  Biso   1.000  O
  O47      1.0000 0.73740  0.38353  0.52140  Biso   1.000  O
  O48      1.0000 0.72565  0.37169  0.76681  Biso   1.000  O
  Hf25     1.0000 0.63696  0.52640  0.14687  Biso   1.000  Hf
  Hf26     1.0000 0.63672  0.72779  0.39631  Biso   1.000  Hf
  Hf27     1.0000 0.85971  0.77033  0.10418  Biso   1.000  Hf
  Hf28     1.0000 0.85991  0.97685  0.35502  Biso   1.000  Hf
  O49      1.0000 0.53303  0.66821  0.07356  Biso   1.000  O
  O50      1.0000 0.52932  0.59654  0.31931  Biso   1.000  O
  O51      1.0000 0.95988  0.91655  0.17170  Biso   1.000  O
  O52      1.0000 0.96155  0.83027  0.42193  Biso   1.000  O
  O53      1.0000 0.77645  0.63012  0.24168  Biso   1.000  O
  O54      1.0000 0.77328  0.62252  0.49084  Biso   1.000  O
  O55      1.0000 0.72200  0.87726  0.00951  Biso   1.000  O
  O56      1.0000 0.72227  0.86910  0.25931  Biso   1.000  O
  Hf29     1.0000 0.63602  0.52248  0.64983  Biso   1.000  Hf
  Hf30     1.0000 0.63589  0.72890  0.89489  Biso   1.000  Hf
  Hf31     1.0000 0.85819  0.77252  0.60511  Biso   1.000  Hf
  Hf32     1.0000 0.85948  0.97883  0.85478  Biso   1.000  Hf
  O57      1.0000 0.53200  0.66469  0.58023  Biso   1.000  O
  O58      1.0000 0.53140  0.58451  0.82943  Biso   1.000  O
  O59      1.0000 0.96280  0.91820  0.67092  Biso   1.000  O
  O60      1.0000 0.96377  0.83291  0.92076  Biso   1.000  O
  O61      1.0000 0.77313  0.62931  0.74119  Biso   1.000  O
  O62      1.0000 0.77439  0.62159  0.99107  Biso   1.000  O
  O63      1.0000 0.71984  0.87874  0.50995  Biso   1.000  O
  O64      1.0000 0.72227  0.87321  0.76021  Biso   1.000  O
  Sb1      1.0000 0.46960  0.23876  0.30498  Biso   1.000  Sb
