data_image0
_cell_length_a       10.048
_cell_length_b       5.12158
_cell_length_c       10.4819
_cell_angle_alpha    89.8952
_cell_angle_beta     90.1871
_cell_angle_gamma    89.8664

_symmetry_space_group_name_H-M    "P 1"
_symmetry_int_tables_number       1

loop_
  _symmetry_equiv_pos_as_xyz
  'x, y, z'

loop_
  _atom_site_label
  _atom_site_occupancy
  _atom_site_fract_x
  _atom_site_fract_y
  _atom_site_fract_z
  _atom_site_thermal_displace_type
  _atom_site_B_iso_or_equiv
  _atom_site_type_symbol
  Sb1      1.0000 0.12992  0.03729  0.17509  Biso   1.000  Sb
  Hf1      1.0000 0.13880  0.45948  0.42304  Biso   1.000  Hf
  Hf2      1.0000 0.36118  0.54103  0.16942  Biso   1.000  Hf
  Hf3      1.0000 0.36210  0.95890  0.42136  Biso   1.000  Hf
  Hf4      1.0000 0.63831  0.04154  0.07829  Biso   1.000  Hf
  Hf5      1.0000 0.63698  0.45802  0.32847  Biso   1.000  Hf
  Hf6      1.0000 0.85920  0.53844  0.07752  Biso   1.000  Hf
  Hf7      1.0000 0.85548  0.95716  0.33155  Biso   1.000  Hf
  O1       1.0000 0.03397  0.33527  0.08202  Biso   1.000  O
  O2       1.0000 0.03050  0.16975  0.33447  Biso   1.000  O
  O3       1.0000 0.46851  0.83072  0.08310  Biso   1.000  O
  O4       1.0000 0.46788  0.67296  0.33240  Biso   1.000  O
  O5       1.0000 0.27739  0.25416  0.29806  Biso   1.000  O
  O6       1.0000 0.28200  0.26098  0.03948  Biso   1.000  O
  O7       1.0000 0.22409  0.74461  0.29543  Biso   1.000  O
  O8       1.0000 0.22831  0.74602  0.04080  Biso   1.000  O
  O9       1.0000 0.53357  0.33053  0.16639  Biso   1.000  O
  O10      1.0000 0.53311  0.16988  0.41722  Biso   1.000  O
  O11      1.0000 0.95928  0.83306  0.16781  Biso   1.000  O
  O12      1.0000 0.96603  0.67142  0.41724  Biso   1.000  O
  O13      1.0000 0.77562  0.24739  0.45605  Biso   1.000  O
  O14      1.0000 0.77566  0.25201  0.20576  Biso   1.000  O
  O15      1.0000 0.72226  0.74669  0.45627  Biso   1.000  O
  O16      1.0000 0.72285  0.75162  0.20612  Biso   1.000  O
  Hf8      1.0000 0.13911  0.04168  0.67133  Biso   1.000  Hf
  Hf9      1.0000 0.14152  0.45780  0.91963  Biso   1.000  Hf
  Hf10     1.0000 0.36170  0.54226  0.67119  Biso   1.000  Hf
  Hf11     1.0000 0.36235  0.95774  0.92117  Biso   1.000  Hf
  Hf12     1.0000 0.63830  0.04233  0.57984  Biso   1.000  Hf
  Hf13     1.0000 0.63903  0.45763  0.82822  Biso   1.000  Hf
  Hf14     1.0000 0.86139  0.54210  0.57929  Biso   1.000  Hf
  Hf15     1.0000 0.86296  0.95692  0.82894  Biso   1.000  Hf
  O17      1.0000 0.03253  0.32955  0.58309  Biso   1.000  O
  O18      1.0000 0.03397  0.16827  0.83288  Biso   1.000  O
  O19      1.0000 0.46715  0.83124  0.58345  Biso   1.000  O
  O20      1.0000 0.46831  0.66964  0.83208  Biso   1.000  O
  O21      1.0000 0.27685  0.24659  0.79276  Biso   1.000  O
  O22      1.0000 0.27611  0.25220  0.54538  Biso   1.000  O
  O23      1.0000 0.22464  0.74721  0.79330  Biso   1.000  O
  O24      1.0000 0.22393  0.75278  0.54440  Biso   1.000  O
  O25      1.0000 0.53355  0.33106  0.66637  Biso   1.000  O
  O26      1.0000 0.53495  0.16797  0.91567  Biso   1.000  O
  O27      1.0000 0.96757  0.82857  0.66735  Biso   1.000  O
  O28      1.0000 0.96812  0.67000  0.91874  Biso   1.000  O
  O29      1.0000 0.77727  0.24641  0.95526  Biso   1.000  O
  O30      1.0000 0.77683  0.25219  0.70542  Biso   1.000  O
  O31      1.0000 0.72420  0.74644  0.95533  Biso   1.000  O
  O32      1.0000 0.72466  0.75249  0.70553  Biso   1.000  O
