data_image0
_cell_length_a       10.0704
_cell_length_b       10.2329
_cell_length_c       10.0703
_cell_angle_alpha    89.9979
_cell_angle_beta     90.0011
_cell_angle_gamma    89.9999

_symmetry_space_group_name_H-M    "P 1"
_symmetry_int_tables_number       1

loop_
  _symmetry_equiv_pos_as_xyz
  'x, y, z'

loop_
  _atom_site_label
  _atom_site_occupancy
  _atom_site_fract_x
  _atom_site_fract_y
  _atom_site_fract_z
  _atom_site_thermal_displace_type
  _atom_site_B_iso_or_equiv
  _atom_site_type_symbol
  Sb1      1.0000 0.12494  0.99990  0.12495  Biso   1.000  Sb
  Zr1      1.0000 0.12494  0.99990  0.62494  Biso   1.000  Zr
  Zr2      1.0000 0.12495  0.49991  0.12494  Biso   1.000  Zr
  Zr3      1.0000 0.12495  0.49991  0.62494  Biso   1.000  Zr
  Zr4      1.0000 0.62494  0.99991  0.12494  Biso   1.000  Zr
  Zr5      1.0000 0.62494  0.99991  0.62494  Biso   1.000  Zr
  Zr6      1.0000 0.62495  0.49992  0.12494  Biso   1.000  Zr
  Zr7      1.0000 0.62495  0.49991  0.62494  Biso   1.000  Zr
  Zr8      1.0000 0.12527  0.25100  0.37549  Biso   1.000  Zr
  Zr9      1.0000 0.12463  0.25100  0.87440  Biso   1.000  Zr
  Zr10     1.0000 0.12463  0.74881  0.37549  Biso   1.000  Zr
  Zr11     1.0000 0.12528  0.74881  0.87439  Biso   1.000  Zr
  Zr12     1.0000 0.62540  0.24968  0.37473  Biso   1.000  Zr
  Zr13     1.0000 0.62450  0.24968  0.87516  Biso   1.000  Zr
  Zr14     1.0000 0.62450  0.75013  0.37473  Biso   1.000  Zr
  Zr15     1.0000 0.62540  0.75014  0.87515  Biso   1.000  Zr
  Zr16     1.0000 0.37550  0.25100  0.12527  Biso   1.000  Zr
  Zr17     1.0000 0.37474  0.24967  0.62539  Biso   1.000  Zr
  Zr18     1.0000 0.37550  0.74881  0.12462  Biso   1.000  Zr
  Zr19     1.0000 0.37474  0.75013  0.62450  Biso   1.000  Zr
  Zr20     1.0000 0.87440  0.25100  0.12462  Biso   1.000  Zr
  Zr21     1.0000 0.87517  0.24967  0.62450  Biso   1.000  Zr
  Zr22     1.0000 0.87440  0.74881  0.12526  Biso   1.000  Zr
  Zr23     1.0000 0.87516  0.75013  0.62539  Biso   1.000  Zr
  Zr24     1.0000 0.37570  0.00137  0.37571  Biso   1.000  Zr
  Zr25     1.0000 0.37571  0.99845  0.87418  Biso   1.000  Zr
  Zr26     1.0000 0.37528  0.50001  0.37528  Biso   1.000  Zr
  Zr27     1.0000 0.37528  0.49979  0.87461  Biso   1.000  Zr
  Zr28     1.0000 0.87418  0.99844  0.37571  Biso   1.000  Zr
  Zr29     1.0000 0.87418  0.00137  0.87418  Biso   1.000  Zr
  Zr30     1.0000 0.87461  0.49980  0.37528  Biso   1.000  Zr
  Zr31     1.0000 0.87461  0.50001  0.87461  Biso   1.000  Zr
  O1       1.0000 0.99548  0.14827  0.99548  Biso   1.000  O
  O2       1.0000 0.99919  0.14630  0.49840  Biso   1.000  O
  O3       1.0000 0.99999  0.64625  0.99999  Biso   1.000  O
  O4       1.0000 0.99939  0.64584  0.50044  Biso   1.000  O
  O5       1.0000 0.49841  0.14630  0.99919  Biso   1.000  O
  O6       1.0000 0.49927  0.14648  0.49927  Biso   1.000  O
  O7       1.0000 0.50044  0.64584  0.99938  Biso   1.000  O
  O8       1.0000 0.49927  0.64641  0.49926  Biso   1.000  O
  O9       1.0000 0.00010  0.10539  0.24979  Biso   1.000  O
  O10      1.0000 0.99983  0.10364  0.74799  Biso   1.000  O
  O11      1.0000 0.99984  0.60272  0.25004  Biso   1.000  O
  O12      1.0000 0.00044  0.60354  0.75015  Biso   1.000  O
  O13      1.0000 0.50190  0.10364  0.25006  Biso   1.000  O
  O14      1.0000 0.50054  0.10338  0.74936  Biso   1.000  O
  O15      1.0000 0.49974  0.60354  0.24944  Biso   1.000  O
  O16      1.0000 0.50034  0.60350  0.74954  Biso   1.000  O
  O17      1.0000 0.99999  0.35357  0.24990  Biso   1.000  O
  O18      1.0000 0.99939  0.35397  0.74945  Biso   1.000  O
  O19      1.0000 0.99549  0.85154  0.25439  Biso   1.000  O
  O20      1.0000 0.99919  0.85351  0.75147  Biso   1.000  O
  O21      1.0000 0.50044  0.35397  0.25050  Biso   1.000  O
  O22      1.0000 0.49928  0.35340  0.75061  Biso   1.000  O
  O23      1.0000 0.49841  0.85351  0.25069  Biso   1.000  O
  O24      1.0000 0.49927  0.85333  0.75062  Biso   1.000  O
  O25      1.0000 0.99985  0.39709  0.99984  Biso   1.000  O
  O26      1.0000 0.00044  0.39627  0.49973  Biso   1.000  O
  O27      1.0000 0.00010  0.89442  0.00009  Biso   1.000  O
  O28      1.0000 0.99983  0.89617  0.50189  Biso   1.000  O
  O29      1.0000 0.49974  0.39627  0.00044  Biso   1.000  O
  O30      1.0000 0.50034  0.39631  0.50034  Biso   1.000  O
  O31      1.0000 0.50190  0.89618  0.99982  Biso   1.000  O
  O32      1.0000 0.50054  0.89642  0.50052  Biso   1.000  O
  O33      1.0000 0.25440  0.14827  0.25440  Biso   1.000  O
  O34      1.0000 0.25071  0.14630  0.75148  Biso   1.000  O
  O35      1.0000 0.24989  0.64625  0.24988  Biso   1.000  O
  O36      1.0000 0.25049  0.64584  0.74943  Biso   1.000  O
  O37      1.0000 0.75148  0.14630  0.25070  Biso   1.000  O
  O38      1.0000 0.75063  0.14649  0.75062  Biso   1.000  O
  O39      1.0000 0.74944  0.64584  0.25049  Biso   1.000  O
  O40      1.0000 0.75061  0.64641  0.75060  Biso   1.000  O
  O41      1.0000 0.24979  0.10538  0.00010  Biso   1.000  O
  O42      1.0000 0.25007  0.10364  0.50190  Biso   1.000  O
  O43      1.0000 0.25005  0.60272  0.99983  Biso   1.000  O
  O44      1.0000 0.24944  0.60354  0.49972  Biso   1.000  O
  O45      1.0000 0.74799  0.10364  0.99982  Biso   1.000  O
  O46      1.0000 0.74936  0.10339  0.50053  Biso   1.000  O
  O47      1.0000 0.75015  0.60354  0.00043  Biso   1.000  O
  O48      1.0000 0.74954  0.60349  0.50034  Biso   1.000  O
  O49      1.0000 0.24990  0.35356  0.99999  Biso   1.000  O
  O50      1.0000 0.25050  0.35397  0.50044  Biso   1.000  O
  O51      1.0000 0.25440  0.85154  0.99549  Biso   1.000  O
  O52      1.0000 0.25070  0.85351  0.49841  Biso   1.000  O
  O53      1.0000 0.74945  0.35397  0.99939  Biso   1.000  O
  O54      1.0000 0.75061  0.35341  0.49928  Biso   1.000  O
  O55      1.0000 0.75149  0.85352  0.99918  Biso   1.000  O
  O56      1.0000 0.75063  0.85333  0.49926  Biso   1.000  O
  O57      1.0000 0.25004  0.39709  0.25004  Biso   1.000  O
  O58      1.0000 0.24945  0.39627  0.75015  Biso   1.000  O
  O59      1.0000 0.24979  0.89442  0.24979  Biso   1.000  O
  O60      1.0000 0.25007  0.89617  0.74799  Biso   1.000  O
  O61      1.0000 0.75015  0.39627  0.24945  Biso   1.000  O
  O62      1.0000 0.74955  0.39632  0.74955  Biso   1.000  O
  O63      1.0000 0.74799  0.89618  0.25006  Biso   1.000  O
  O64      1.0000 0.74936  0.89642  0.74935  Biso   1.000  O
