data_image0
_cell_length_a       10.4326
_cell_length_b       5.19627
_cell_length_c       10.6502
_cell_angle_alpha    90.4048
_cell_angle_beta     78.0376
_cell_angle_gamma    90.1072

_symmetry_space_group_name_H-M    "P 1"
_symmetry_int_tables_number       1

loop_
  _symmetry_equiv_pos_as_xyz
  'x, y, z'

loop_
  _atom_site_label
  _atom_site_occupancy
  _atom_site_fract_x
  _atom_site_fract_y
  _atom_site_fract_z
  _atom_site_thermal_displace_type
  _atom_site_B_iso_or_equiv
  _atom_site_type_symbol
  Zr1      1.0000 0.12645  0.04560  0.14290  Biso   1.000  Zr
  Zr2      1.0000 0.13829  0.45801  0.39094  Biso   1.000  Zr
  Zr3      1.0000 0.33521  0.54529  0.08682  Biso   1.000  Zr
  Zr4      1.0000 0.36064  0.95966  0.35308  Biso   1.000  Zr
  O1       1.0000 0.02508  0.33024  0.07272  Biso   1.000  O
  O2       1.0000 0.02734  0.17481  0.32973  Biso   1.000  O
  O3       1.0000 0.47319  0.86021  0.17627  Biso   1.000  O
  O4       1.0000 0.47343  0.65810  0.42972  Biso   1.000  O
  O5       1.0000 0.25431  0.24551  0.22870  Biso   1.000  O
  O6       1.0000 0.27416  0.25152  0.48460  Biso   1.000  O
  O7       1.0000 0.21207  0.77163  0.00008  Biso   1.000  O
  O8       1.0000 0.21701  0.74641  0.25166  Biso   1.000  O
  Zr5      1.0000 0.13625  0.04413  0.64221  Biso   1.000  Zr
  Zr6      1.0000 0.12717  0.46122  0.88955  Biso   1.000  Zr
  Zr7      1.0000 0.36125  0.54275  0.60581  Biso   1.000  Zr
  Zr8      1.0000 0.35591  0.96520  0.84848  Biso   1.000  Zr
  O9       1.0000 0.03403  0.32892  0.57716  Biso   1.000  O
  O10      1.0000 0.02539  0.17593  0.82471  Biso   1.000  O
  O11      1.0000 0.46333  0.84020  0.67039  Biso   1.000  O
  O12      1.0000 0.45908  0.68704  0.92044  Biso   1.000  O
  O13      1.0000 0.26822  0.25559  0.73432  Biso   1.000  O
  O14      1.0000 0.26285  0.25727  0.98019  Biso   1.000  O
  O15      1.0000 0.22771  0.75934  0.50641  Biso   1.000  O
  O16      1.0000 0.22237  0.74396  0.75522  Biso   1.000  O
  Zr9      1.0000 0.65220  0.03294  0.16141  Biso   1.000  Zr
  Zr10     1.0000 0.65801  0.45094  0.41341  Biso   1.000  Zr
  Zr11     1.0000 0.85625  0.54118  0.10963  Biso   1.000  Zr
  Zr12     1.0000 0.86495  0.95290  0.36295  Biso   1.000  Zr
  O17      1.0000 0.50990  0.32269  0.05849  Biso   1.000  O
  O18      1.0000 0.55021  0.11015  0.37403  Biso   1.000  O
  O19      1.0000 0.96422  0.81960  0.17890  Biso   1.000  O
  O20      1.0000 0.96921  0.66934  0.42981  Biso   1.000  O
  O21      1.0000 0.78815  0.25352  0.25232  Biso   1.000  O
  O22      1.0000 0.78262  0.23559  0.50457  Biso   1.000  O
  O23      1.0000 0.72031  0.75285  0.01791  Biso   1.000  O
  O24      1.0000 0.73172  0.75045  0.26982  Biso   1.000  O
  Zr13     1.0000 0.63567  0.04601  0.65117  Biso   1.000  Zr
  Zr14     1.0000 0.63071  0.46055  0.89836  Biso   1.000  Zr
  Zr15     1.0000 0.86443  0.54331  0.61316  Biso   1.000  Zr
  Zr16     1.0000 0.85478  0.96065  0.85993  Biso   1.000  Zr
  O25      1.0000 0.53806  0.35077  0.59201  Biso   1.000  O
  O26      1.0000 0.52598  0.17751  0.82555  Biso   1.000  O
  O27      1.0000 0.96619  0.82898  0.67911  Biso   1.000  O
  O28      1.0000 0.95987  0.67825  0.92673  Biso   1.000  O
  O29      1.0000 0.77057  0.26145  0.75028  Biso   1.000  O
  O30      1.0000 0.76523  0.24671  0.00131  Biso   1.000  O
  O31      1.0000 0.73088  0.74966  0.52043  Biso   1.000  O
  O32      1.0000 0.72262  0.75232  0.76733  Biso   1.000  O
  Sb1      1.0000 0.48786  0.44333  0.25428  Biso   1.000  Sb
