data_image0
_cell_length_a       10.1875
_cell_length_b       10.359
_cell_length_c       10.5068
_cell_angle_alpha    90.0139
_cell_angle_beta     80.5088
_cell_angle_gamma    89.9361

_symmetry_space_group_name_H-M    "P 1"
_symmetry_int_tables_number       1

loop_
  _symmetry_equiv_pos_as_xyz
  'x, y, z'

loop_
  _atom_site_label
  _atom_site_occupancy
  _atom_site_fract_x
  _atom_site_fract_y
  _atom_site_fract_z
  _atom_site_thermal_displace_type
  _atom_site_B_iso_or_equiv
  _atom_site_type_symbol
  Sb1      1.0000 0.13035  0.01900  0.15109  Biso   1.000  Sb
  Zr1      1.0000 0.13897  0.02099  0.64483  Biso   1.000  Zr
  Zr2      1.0000 0.13876  0.52153  0.14483  Biso   1.000  Zr
  Zr3      1.0000 0.13915  0.52143  0.64561  Biso   1.000  Zr
  Zr4      1.0000 0.63853  0.02136  0.14523  Biso   1.000  Zr
  Zr5      1.0000 0.63847  0.02162  0.64636  Biso   1.000  Zr
  Zr6      1.0000 0.63807  0.52051  0.14518  Biso   1.000  Zr
  Zr7      1.0000 0.63913  0.52121  0.64556  Biso   1.000  Zr
  Zr8      1.0000 0.13978  0.23009  0.39610  Biso   1.000  Zr
  Zr9      1.0000 0.14074  0.22873  0.89377  Biso   1.000  Zr
  Zr10     1.0000 0.13805  0.72793  0.39592  Biso   1.000  Zr
  Zr11     1.0000 0.13940  0.72926  0.89480  Biso   1.000  Zr
  Zr12     1.0000 0.63831  0.22908  0.39549  Biso   1.000  Zr
  Zr13     1.0000 0.63926  0.22889  0.89558  Biso   1.000  Zr
  Zr14     1.0000 0.63798  0.72742  0.39562  Biso   1.000  Zr
  Zr15     1.0000 0.63907  0.72893  0.89494  Biso   1.000  Zr
  Zr16     1.0000 0.36050  0.27076  0.10369  Biso   1.000  Zr
  Zr17     1.0000 0.36166  0.27148  0.60435  Biso   1.000  Zr
  Zr18     1.0000 0.36200  0.77135  0.10404  Biso   1.000  Zr
  Zr19     1.0000 0.36128  0.77149  0.60459  Biso   1.000  Zr
  Zr20     1.0000 0.86074  0.27115  0.10517  Biso   1.000  Zr
  Zr21     1.0000 0.86139  0.27144  0.60488  Biso   1.000  Zr
  Zr22     1.0000 0.85973  0.76893  0.10368  Biso   1.000  Zr
  Zr23     1.0000 0.86114  0.77122  0.60514  Biso   1.000  Zr
  Zr24     1.0000 0.36075  0.47871  0.35390  Biso   1.000  Zr
  Zr25     1.0000 0.36181  0.47899  0.85463  Biso   1.000  Zr
  Zr26     1.0000 0.36167  0.97866  0.35484  Biso   1.000  Zr
  Zr27     1.0000 0.36144  0.97969  0.85423  Biso   1.000  Zr
  Zr28     1.0000 0.86125  0.47845  0.35455  Biso   1.000  Zr
  Zr29     1.0000 0.86221  0.47801  0.85485  Biso   1.000  Zr
  Zr30     1.0000 0.85577  0.97782  0.35788  Biso   1.000  Zr
  Zr31     1.0000 0.86195  0.97891  0.85484  Biso   1.000  Zr
  O1       1.0000 0.03751  0.17120  0.08006  Biso   1.000  O
  O2       1.0000 0.03552  0.16885  0.57926  Biso   1.000  O
  O3       1.0000 0.03595  0.67074  0.08069  Biso   1.000  O
  O4       1.0000 0.03545  0.66924  0.58075  Biso   1.000  O
  O5       1.0000 0.53620  0.16978  0.08055  Biso   1.000  O
  O6       1.0000 0.53590  0.16980  0.58045  Biso   1.000  O
  O7       1.0000 0.53631  0.66942  0.08005  Biso   1.000  O
  O8       1.0000 0.53554  0.66886  0.58032  Biso   1.000  O
  O9       1.0000 0.03348  0.08043  0.33084  Biso   1.000  O
  O10      1.0000 0.03636  0.08051  0.82989  Biso   1.000  O
  O11      1.0000 0.03534  0.58049  0.33030  Biso   1.000  O
  O12      1.0000 0.03619  0.58003  0.83053  Biso   1.000  O
  O13      1.0000 0.53646  0.07980  0.33102  Biso   1.000  O
  O14      1.0000 0.53683  0.08069  0.83025  Biso   1.000  O
  O15      1.0000 0.53519  0.58001  0.33013  Biso   1.000  O
  O16      1.0000 0.53593  0.58117  0.82995  Biso   1.000  O
  O17      1.0000 0.46397  0.41933  0.16945  Biso   1.000  O
  O18      1.0000 0.46492  0.41940  0.66962  Biso   1.000  O
  O19      1.0000 0.46426  0.91962  0.17005  Biso   1.000  O
  O20      1.0000 0.46462  0.91958  0.66943  Biso   1.000  O
  O21      1.0000 0.96379  0.42002  0.16946  Biso   1.000  O
  O22      1.0000 0.96519  0.41872  0.67004  Biso   1.000  O
  O23      1.0000 0.95756  0.92058  0.17083  Biso   1.000  O
  O24      1.0000 0.96432  0.91928  0.66973  Biso   1.000  O
  O25      1.0000 0.46408  0.33046  0.41930  Biso   1.000  O
  O26      1.0000 0.46609  0.33218  0.91983  Biso   1.000  O
  O27      1.0000 0.46455  0.83014  0.42007  Biso   1.000  O
  O28      1.0000 0.46584  0.83148  0.91967  Biso   1.000  O
  O29      1.0000 0.96438  0.33071  0.41987  Biso   1.000  O
  O30      1.0000 0.96477  0.33004  0.92059  Biso   1.000  O
  O31      1.0000 0.96366  0.83119  0.41989  Biso   1.000  O
  O32      1.0000 0.96435  0.83036  0.91992  Biso   1.000  O
  O33      1.0000 0.27653  0.13039  0.24253  Biso   1.000  O
  O34      1.0000 0.27606  0.12901  0.73838  Biso   1.000  O
  O35      1.0000 0.27568  0.62868  0.24025  Biso   1.000  O
  O36      1.0000 0.27612  0.62910  0.74029  Biso   1.000  O
  O37      1.0000 0.77550  0.12891  0.24122  Biso   1.000  O
  O38      1.0000 0.77662  0.12921  0.74070  Biso   1.000  O
  O39      1.0000 0.77517  0.62816  0.24040  Biso   1.000  O
  O40      1.0000 0.77640  0.62884  0.74050  Biso   1.000  O
  O41      1.0000 0.27627  0.12117  0.49044  Biso   1.000  O
  O42      1.0000 0.28145  0.12592  0.98414  Biso   1.000  O
  O43      1.0000 0.27569  0.62080  0.49052  Biso   1.000  O
  O44      1.0000 0.27608  0.62115  0.99032  Biso   1.000  O
  O45      1.0000 0.77539  0.12093  0.49139  Biso   1.000  O
  O46      1.0000 0.77632  0.12098  0.99090  Biso   1.000  O
  O47      1.0000 0.77595  0.62084  0.49053  Biso   1.000  O
  O48      1.0000 0.77612  0.62056  0.99036  Biso   1.000  O
  O49      1.0000 0.22438  0.38006  0.00872  Biso   1.000  O
  O50      1.0000 0.22397  0.37894  0.50908  Biso   1.000  O
  O51      1.0000 0.22686  0.87728  0.00596  Biso   1.000  O
  O52      1.0000 0.22418  0.87879  0.50923  Biso   1.000  O
  O53      1.0000 0.72467  0.37873  0.00978  Biso   1.000  O
  O54      1.0000 0.72424  0.37871  0.50958  Biso   1.000  O
  O55      1.0000 0.72408  0.87880  0.00960  Biso   1.000  O
  O56      1.0000 0.72273  0.87836  0.51052  Biso   1.000  O
  O57      1.0000 0.22337  0.37162  0.25895  Biso   1.000  O
  O58      1.0000 0.22505  0.37133  0.75883  Biso   1.000  O
  O59      1.0000 0.22443  0.86908  0.26033  Biso   1.000  O
  O60      1.0000 0.22413  0.87111  0.75844  Biso   1.000  O
  O61      1.0000 0.72394  0.37087  0.25961  Biso   1.000  O
  O62      1.0000 0.72479  0.37121  0.75965  Biso   1.000  O
  O63      1.0000 0.72334  0.87010  0.26020  Biso   1.000  O
  O64      1.0000 0.72470  0.87121  0.75966  Biso   1.000  O
