data_image0
_cell_length_a       10.118
_cell_length_b       5.15622
_cell_length_c       10.5352
_cell_angle_alpha    89.8916
_cell_angle_beta     90.1945
_cell_angle_gamma    89.842

_symmetry_space_group_name_H-M    "P 1"
_symmetry_int_tables_number       1

loop_
  _symmetry_equiv_pos_as_xyz
  'x, y, z'

loop_
  _atom_site_label
  _atom_site_occupancy
  _atom_site_fract_x
  _atom_site_fract_y
  _atom_site_fract_z
  _atom_site_thermal_displace_type
  _atom_site_B_iso_or_equiv
  _atom_site_type_symbol
  Sb1      1.0000 0.13015  0.03716  0.17538  Biso   1.000  Sb
  Zr1      1.0000 0.13913  0.04183  0.67102  Biso   1.000  Zr
  Zr2      1.0000 0.13866  0.45992  0.42257  Biso   1.000  Zr
  Zr3      1.0000 0.14150  0.45771  0.91967  Biso   1.000  Zr
  Zr4      1.0000 0.36081  0.54126  0.16914  Biso   1.000  Zr
  Zr5      1.0000 0.36175  0.54250  0.67097  Biso   1.000  Zr
  Zr6      1.0000 0.36204  0.95941  0.42108  Biso   1.000  Zr
  Zr7      1.0000 0.36215  0.95795  0.92106  Biso   1.000  Zr
  Zr8      1.0000 0.63833  0.04156  0.07848  Biso   1.000  Zr
  Zr9      1.0000 0.63834  0.04237  0.58017  Biso   1.000  Zr
  Zr10     1.0000 0.63694  0.45808  0.32865  Biso   1.000  Zr
  Zr11     1.0000 0.63911  0.45781  0.82867  Biso   1.000  Zr
  Zr12     1.0000 0.85993  0.53818  0.07802  Biso   1.000  Zr
  Zr13     1.0000 0.86132  0.54202  0.57961  Biso   1.000  Zr
  Zr14     1.0000 0.85565  0.95721  0.33160  Biso   1.000  Zr
  Zr15     1.0000 0.86313  0.95682  0.82936  Biso   1.000  Zr
  O1       1.0000 0.03335  0.33037  0.08159  Biso   1.000  O
  O2       1.0000 0.03181  0.32775  0.58203  Biso   1.000  O
  O3       1.0000 0.03071  0.16991  0.33318  Biso   1.000  O
  O4       1.0000 0.03326  0.16995  0.83200  Biso   1.000  O
  O5       1.0000 0.46900  0.82978  0.08259  Biso   1.000  O
  O6       1.0000 0.46775  0.83054  0.58302  Biso   1.000  O
  O7       1.0000 0.46808  0.67362  0.33204  Biso   1.000  O
  O8       1.0000 0.46893  0.67073  0.83177  Biso   1.000  O
  O9       1.0000 0.27588  0.25456  0.29720  Biso   1.000  O
  O10      1.0000 0.27602  0.24774  0.79286  Biso   1.000  O
  O11      1.0000 0.28049  0.25976  0.04020  Biso   1.000  O
  O12      1.0000 0.27535  0.25185  0.54518  Biso   1.000  O
  O13      1.0000 0.22409  0.74728  0.29487  Biso   1.000  O
  O14      1.0000 0.22560  0.74824  0.79352  Biso   1.000  O
  O15      1.0000 0.22770  0.74759  0.04163  Biso   1.000  O
  O16      1.0000 0.22485  0.75214  0.54432  Biso   1.000  O
  O17      1.0000 0.53293  0.32992  0.16671  Biso   1.000  O
  O18      1.0000 0.53302  0.33024  0.66679  Biso   1.000  O
  O19      1.0000 0.53245  0.17091  0.41754  Biso   1.000  O
  O20      1.0000 0.53419  0.16925  0.91615  Biso   1.000  O
  O21      1.0000 0.96137  0.83167  0.16806  Biso   1.000  O
  O22      1.0000 0.96844  0.82666  0.66806  Biso   1.000  O
  O23      1.0000 0.96653  0.67260  0.41778  Biso   1.000  O
  O24      1.0000 0.96886  0.67080  0.91950  Biso   1.000  O
  O25      1.0000 0.77641  0.24745  0.95535  Biso   1.000  O
  O26      1.0000 0.77490  0.24793  0.45589  Biso   1.000  O
  O27      1.0000 0.77476  0.25073  0.20573  Biso   1.000  O
  O28      1.0000 0.77605  0.25129  0.70545  Biso   1.000  O
  O29      1.0000 0.72532  0.74725  0.95549  Biso   1.000  O
  O30      1.0000 0.72298  0.74738  0.45631  Biso   1.000  O
  O31      1.0000 0.72438  0.75048  0.20610  Biso   1.000  O
  O32      1.0000 0.72559  0.75181  0.70565  Biso   1.000  O
