data_image0
_cell_length_a       10.0507
_cell_length_b       10.4451
_cell_length_c       5.04015
_cell_angle_alpha    90.0384
_cell_angle_beta     89.7897
_cell_angle_gamma    89.927

_symmetry_space_group_name_H-M    "P 1"
_symmetry_int_tables_number       1

loop_
  _symmetry_equiv_pos_as_xyz
  'x, y, z'

loop_
  _atom_site_label
  _atom_site_occupancy
  _atom_site_fract_x
  _atom_site_fract_y
  _atom_site_fract_z
  _atom_site_thermal_displace_type
  _atom_site_B_iso_or_equiv
  _atom_site_type_symbol
  Sb1      1.0000 0.12658  0.01878  0.23823  Biso   1.000  Sb
  Zr1      1.0000 0.13357  0.51602  0.25098  Biso   1.000  Zr
  Zr2      1.0000 0.63310  0.01534  0.25012  Biso   1.000  Zr
  Zr3      1.0000 0.63380  0.51555  0.25199  Biso   1.000  Zr
  Zr4      1.0000 0.13639  0.23683  0.74876  Biso   1.000  Zr
  Zr5      1.0000 0.13410  0.73372  0.75213  Biso   1.000  Zr
  Zr6      1.0000 0.63318  0.23367  0.75053  Biso   1.000  Zr
  Zr7      1.0000 0.63305  0.73394  0.75144  Biso   1.000  Zr
  Zr8      1.0000 0.36725  0.26634  0.25333  Biso   1.000  Zr
  Zr9      1.0000 0.36655  0.76494  0.25399  Biso   1.000  Zr
  Zr10     1.0000 0.86404  0.26631  0.24875  Biso   1.000  Zr
  Zr11     1.0000 0.86607  0.76352  0.24749  Biso   1.000  Zr
  Zr12     1.0000 0.36653  0.48495  0.75200  Biso   1.000  Zr
  Zr13     1.0000 0.36570  0.98387  0.75049  Biso   1.000  Zr
  Zr14     1.0000 0.86651  0.48367  0.75038  Biso   1.000  Zr
  Zr15     1.0000 0.86271  0.98329  0.75025  Biso   1.000  Zr
  O1       1.0000 0.03549  0.18523  0.38727  Biso   1.000  O
  O2       1.0000 0.03574  0.68455  0.38762  Biso   1.000  O
  O3       1.0000 0.53738  0.18459  0.38605  Biso   1.000  O
  O4       1.0000 0.53522  0.68256  0.39330  Biso   1.000  O
  O5       1.0000 0.03396  0.06702  0.88309  Biso   1.000  O
  O6       1.0000 0.03465  0.56604  0.89013  Biso   1.000  O
  O7       1.0000 0.53584  0.06625  0.88838  Biso   1.000  O
  O8       1.0000 0.53522  0.56611  0.89186  Biso   1.000  O
  O9       1.0000 0.46508  0.43347  0.39071  Biso   1.000  O
  O10      1.0000 0.46585  0.93331  0.39125  Biso   1.000  O
  O11      1.0000 0.96464  0.43273  0.38967  Biso   1.000  O
  O12      1.0000 0.95814  0.93480  0.37881  Biso   1.000  O
  O13      1.0000 0.46434  0.31617  0.88861  Biso   1.000  O
  O14      1.0000 0.46597  0.81673  0.89486  Biso   1.000  O
  O15      1.0000 0.96499  0.31655  0.88939  Biso   1.000  O
  O16      1.0000 0.96394  0.81694  0.88572  Biso   1.000  O
  O17      1.0000 0.27480  0.12186  0.50639  Biso   1.000  O
  O18      1.0000 0.26879  0.61522  0.49849  Biso   1.000  O
  O19      1.0000 0.76883  0.11664  0.49709  Biso   1.000  O
  O20      1.0000 0.76978  0.61601  0.49667  Biso   1.000  O
  O21      1.0000 0.26781  0.13349  0.99973  Biso   1.000  O
  O22      1.0000 0.26965  0.63280  0.99915  Biso   1.000  O
  O23      1.0000 0.76983  0.13249  0.99655  Biso   1.000  O
  O24      1.0000 0.76871  0.63253  0.99640  Biso   1.000  O
  O25      1.0000 0.23098  0.38345  0.99794  Biso   1.000  O
  O26      1.0000 0.23020  0.88119  0.00033  Biso   1.000  O
  O27      1.0000 0.73047  0.38258  0.99808  Biso   1.000  O
  O28      1.0000 0.72960  0.88230  0.99716  Biso   1.000  O
  O29      1.0000 0.23034  0.36870  0.49713  Biso   1.000  O
  O30      1.0000 0.23587  0.86268  0.50862  Biso   1.000  O
  O31      1.0000 0.73029  0.36688  0.49829  Biso   1.000  O
  O32      1.0000 0.73107  0.86588  0.49723  Biso   1.000  O
