data_image0
_cell_length_a       10.0754
_cell_length_b       10.2353
_cell_length_c       5.03882
_cell_angle_alpha    89.9978
_cell_angle_beta     89.9992
_cell_angle_gamma    89.9989

_symmetry_space_group_name_H-M    "P 1"
_symmetry_int_tables_number       1

loop_
  _symmetry_equiv_pos_as_xyz
  'x, y, z'

loop_
  _atom_site_label
  _atom_site_occupancy
  _atom_site_fract_x
  _atom_site_fract_y
  _atom_site_fract_z
  _atom_site_thermal_displace_type
  _atom_site_B_iso_or_equiv
  _atom_site_type_symbol
  Sb1      1.0000 0.12495  0.00006  0.25103  Biso   1.000  Sb
  Zr1      1.0000 0.12496  0.50009  0.25103  Biso   1.000  Zr
  Zr2      1.0000 0.62496  0.00009  0.25103  Biso   1.000  Zr
  Zr3      1.0000 0.62496  0.50008  0.25102  Biso   1.000  Zr
  Zr4      1.0000 0.12497  0.25167  0.75104  Biso   1.000  Zr
  Zr5      1.0000 0.12496  0.74850  0.75104  Biso   1.000  Zr
  Zr6      1.0000 0.62496  0.24917  0.75103  Biso   1.000  Zr
  Zr7      1.0000 0.62496  0.75099  0.75102  Biso   1.000  Zr
  Zr8      1.0000 0.37565  0.25119  0.25252  Biso   1.000  Zr
  Zr9      1.0000 0.37566  0.74898  0.24956  Biso   1.000  Zr
  Zr10     1.0000 0.87428  0.25119  0.24954  Biso   1.000  Zr
  Zr11     1.0000 0.87427  0.74898  0.25250  Biso   1.000  Zr
  Zr12     1.0000 0.37536  0.00009  0.75104  Biso   1.000  Zr
  Zr13     1.0000 0.37534  0.50008  0.75103  Biso   1.000  Zr
  Zr14     1.0000 0.87455  0.00009  0.75101  Biso   1.000  Zr
  Zr15     1.0000 0.87458  0.50008  0.75102  Biso   1.000  Zr
  O1       1.0000 0.99691  0.14699  0.99373  Biso   1.000  O
  O2       1.0000 0.99993  0.64559  0.00350  Biso   1.000  O
  O3       1.0000 0.49924  0.14670  0.00144  Biso   1.000  O
  O4       1.0000 0.50014  0.64609  0.99902  Biso   1.000  O
  O5       1.0000 0.99972  0.10615  0.50019  Biso   1.000  O
  O6       1.0000 0.00018  0.60358  0.50266  Biso   1.000  O
  O7       1.0000 0.50149  0.10373  0.50186  Biso   1.000  O
  O8       1.0000 0.49976  0.60373  0.49936  Biso   1.000  O
  O9       1.0000 0.99992  0.35458  0.49859  Biso   1.000  O
  O10      1.0000 0.99693  0.85317  0.50825  Biso   1.000  O
  O11      1.0000 0.50013  0.35408  0.50307  Biso   1.000  O
  O12      1.0000 0.49925  0.85347  0.50065  Biso   1.000  O
  O13      1.0000 0.00017  0.39659  0.99944  Biso   1.000  O
  O14      1.0000 0.99971  0.89401  0.00180  Biso   1.000  O
  O15      1.0000 0.49975  0.39644  0.00272  Biso   1.000  O
  O16      1.0000 0.50148  0.89644  0.00024  Biso   1.000  O
  O17      1.0000 0.25302  0.14700  0.50836  Biso   1.000  O
  O18      1.0000 0.25000  0.64559  0.49859  Biso   1.000  O
  O19      1.0000 0.75069  0.14670  0.50066  Biso   1.000  O
  O20      1.0000 0.74979  0.64609  0.50305  Biso   1.000  O
  O21      1.0000 0.25021  0.10615  0.00189  Biso   1.000  O
  O22      1.0000 0.24975  0.60358  0.99943  Biso   1.000  O
  O23      1.0000 0.74844  0.10373  0.00023  Biso   1.000  O
  O24      1.0000 0.75017  0.60372  0.00271  Biso   1.000  O
  O25      1.0000 0.25000  0.35458  0.00348  Biso   1.000  O
  O26      1.0000 0.25300  0.85317  0.99380  Biso   1.000  O
  O27      1.0000 0.74979  0.35407  0.99901  Biso   1.000  O
  O28      1.0000 0.75068  0.85347  0.00140  Biso   1.000  O
  O29      1.0000 0.24975  0.39659  0.50264  Biso   1.000  O
  O30      1.0000 0.25021  0.89402  0.50025  Biso   1.000  O
  O31      1.0000 0.75016  0.39644  0.49936  Biso   1.000  O
  O32      1.0000 0.74845  0.89643  0.50181  Biso   1.000  O
