data_image0
_cell_length_a       10.2289
_cell_length_b       5.19926
_cell_length_c       10.634
_cell_angle_alpha    89.4561
_cell_angle_beta     92.6299
_cell_angle_gamma    90.1491

_symmetry_space_group_name_H-M    "P 1"
_symmetry_int_tables_number       1

loop_
  _symmetry_equiv_pos_as_xyz
  'x, y, z'

loop_
  _atom_site_label
  _atom_site_occupancy
  _atom_site_fract_x
  _atom_site_fract_y
  _atom_site_fract_z
  _atom_site_thermal_displace_type
  _atom_site_B_iso_or_equiv
  _atom_site_type_symbol
  Zr1      1.0000 0.12885  0.04344  0.17777  Biso   1.000  Zr
  Zr2      1.0000 0.13850  0.45208  0.42823  Biso   1.000  Zr
  Zr3      1.0000 0.34135  0.54979  0.19193  Biso   1.000  Zr
  Zr4      1.0000 0.36428  0.95324  0.42659  Biso   1.000  Zr
  Zr5      1.0000 0.63971  0.03420  0.07692  Biso   1.000  Zr
  Zr6      1.0000 0.63745  0.46042  0.33111  Biso   1.000  Zr
  Zr7      1.0000 0.86056  0.53934  0.07468  Biso   1.000  Zr
  Zr8      1.0000 0.85946  0.95797  0.32640  Biso   1.000  Zr
  O1       1.0000 0.02912  0.33201  0.08503  Biso   1.000  O
  O2       1.0000 0.02706  0.17299  0.33600  Biso   1.000  O
  O3       1.0000 0.45122  0.88845  0.13218  Biso   1.000  O
  O4       1.0000 0.46165  0.64871  0.34965  Biso   1.000  O
  O5       1.0000 0.26617  0.25202  0.30400  Biso   1.000  O
  O6       1.0000 0.26255  0.24006  0.05557  Biso   1.000  O
  O7       1.0000 0.21613  0.75397  0.30917  Biso   1.000  O
  O8       1.0000 0.20950  0.75404  0.05959  Biso   1.000  O
  O9       1.0000 0.52225  0.34300  0.17592  Biso   1.000  O
  O10      1.0000 0.53454  0.16093  0.41475  Biso   1.000  O
  O11      1.0000 0.96069  0.83016  0.16892  Biso   1.000  O
  O12      1.0000 0.97032  0.67038  0.41870  Biso   1.000  O
  O13      1.0000 0.77690  0.24977  0.45011  Biso   1.000  O
  O14      1.0000 0.77050  0.24731  0.20062  Biso   1.000  O
  O15      1.0000 0.72995  0.74892  0.45223  Biso   1.000  O
  O16      1.0000 0.72244  0.74080  0.20419  Biso   1.000  O
  Zr9      1.0000 0.14920  0.03544  0.67608  Biso   1.000  Zr
  Zr10     1.0000 0.14220  0.46231  0.92562  Biso   1.000  Zr
  Zr11     1.0000 0.37028  0.53453  0.67296  Biso   1.000  Zr
  Zr12     1.0000 0.34629  0.96725  0.94050  Biso   1.000  Zr
  Zr13     1.0000 0.64507  0.03493  0.57195  Biso   1.000  Zr
  Zr14     1.0000 0.66499  0.45803  0.80596  Biso   1.000  Zr
  Zr15     1.0000 0.87368  0.54226  0.57494  Biso   1.000  Zr
  Zr16     1.0000 0.87663  0.96309  0.82786  Biso   1.000  Zr
  O17      1.0000 0.04023  0.32428  0.58629  Biso   1.000  O
  O18      1.0000 0.04779  0.16167  0.83719  Biso   1.000  O
  O19      1.0000 0.47719  0.81996  0.58023  Biso   1.000  O
  O20      1.0000 0.49342  0.67725  0.80942  Biso   1.000  O
  O21      1.0000 0.28291  0.25387  0.80053  Biso   1.000  O
  O22      1.0000 0.28001  0.23996  0.54995  Biso   1.000  O
  O23      1.0000 0.23632  0.74450  0.80519  Biso   1.000  O
  O24      1.0000 0.23169  0.74306  0.55452  Biso   1.000  O
  O25      1.0000 0.54185  0.31079  0.66458  Biso   1.000  O
  O26      1.0000 0.52418  0.13816  0.92218  Biso   1.000  O
  O27      1.0000 0.98069  0.82450  0.66833  Biso   1.000  O
  O28      1.0000 0.97403  0.66144  0.91492  Biso   1.000  O
  O29      1.0000 0.78556  0.25709  0.94178  Biso   1.000  O
  O30      1.0000 0.79026  0.24158  0.69355  Biso   1.000  O
  O31      1.0000 0.74892  0.78376  0.94994  Biso   1.000  O
  O32      1.0000 0.74227  0.74520  0.69841  Biso   1.000  O
  Sb1      1.0000 0.51190  0.55145  0.00211  Biso   1.000  Sb
