data_image0
_cell_length_a       5.15636
_cell_length_b       10.5177
_cell_length_c       10.4845
_cell_angle_alpha    89.0675
_cell_angle_beta     93.9293
_cell_angle_gamma    98.3395

_symmetry_space_group_name_H-M    "P 1"
_symmetry_int_tables_number       1

loop_
  _symmetry_equiv_pos_as_xyz
  'x, y, z'

loop_
  _atom_site_label
  _atom_site_occupancy
  _atom_site_fract_x
  _atom_site_fract_y
  _atom_site_fract_z
  _atom_site_thermal_displace_type
  _atom_site_B_iso_or_equiv
  _atom_site_type_symbol
  Zr1      1.0000 0.38814  0.96286  0.11142  Biso   1.000  Zr
  Zr2      1.0000 0.15210  0.27870  0.39268  Biso   1.000  Zr
  Zr3      1.0000 0.59417  0.28252  0.13680  Biso   1.000  Zr
  Zr4      1.0000 0.70833  0.02513  0.40455  Biso   1.000  Zr
  O1       1.0000 0.97037  0.18690  0.92772  Biso   1.000  O
  O2       1.0000 0.04231  0.09699  0.32254  Biso   1.000  O
  O3       1.0000 0.84254  0.34690  0.29852  Biso   1.000  O
  O4       1.0000 0.88062  0.41313  0.04260  Biso   1.000  O
  O5       1.0000 0.52661  0.11305  0.24074  Biso   1.000  O
  O6       1.0000 0.49445  0.12729  0.99721  Biso   1.000  O
  O7       1.0000 0.39124  0.37876  0.99071  Biso   1.000  O
  O8       1.0000 0.38771  0.39636  0.25255  Biso   1.000  O
  Zr5      1.0000 0.29213  0.98122  0.63311  Biso   1.000  Zr
  Zr6      1.0000 0.30661  0.22984  0.84365  Biso   1.000  Zr
  Zr7      1.0000 0.72039  0.26905  0.61621  Biso   1.000  Zr
  Zr8      1.0000 0.81573  0.00595  0.87739  Biso   1.000  Zr
  O9       1.0000 0.94171  0.17360  0.51987  Biso   1.000  O
  O10      1.0000 0.08422  0.06285  0.75155  Biso   1.000  O
  O11      1.0000 0.07899  0.32376  0.71897  Biso   1.000  O
  O12      1.0000 0.98268  0.43204  0.51295  Biso   1.000  O
  O13      1.0000 0.57009  0.13411  0.74594  Biso   1.000  O
  O14      1.0000 0.45487  0.11898  0.50417  Biso   1.000  O
  O15      1.0000 0.46931  0.37348  0.50723  Biso   1.000  O
  O16      1.0000 0.56788  0.39025  0.75626  Biso   1.000  O
  Zr9      1.0000 0.22558  0.51327  0.10969  Biso   1.000  Zr
  Zr10     1.0000 0.27204  0.73178  0.35782  Biso   1.000  Zr
  Zr11     1.0000 0.77987  0.74190  0.13870  Biso   1.000  Zr
  Zr12     1.0000 0.71934  0.50900  0.38387  Biso   1.000  Zr
  O17      1.0000 0.02149  0.65895  0.00540  Biso   1.000  O
  O18      1.0000 0.98903  0.59416  0.24481  Biso   1.000  O
  O19      1.0000 0.11858  0.84208  0.21546  Biso   1.000  O
  O20      1.0000 0.12649  0.90158  0.94834  Biso   1.000  O
  O21      1.0000 0.50199  0.63364  0.24734  Biso   1.000  O
  O22      1.0000 0.50884  0.62043  0.00346  Biso   1.000  O
  O23      1.0000 0.60182  0.85839  0.99885  Biso   1.000  O
  O24      1.0000 0.61700  0.87409  0.25535  Biso   1.000  O
  Zr13     1.0000 0.28346  0.49177  0.65300  Biso   1.000  Zr
  Zr14     1.0000 0.28744  0.74667  0.86486  Biso   1.000  Zr
  Zr15     1.0000 0.73673  0.76411  0.59988  Biso   1.000  Zr
  Zr16     1.0000 0.73802  0.52002  0.89613  Biso   1.000  Zr
  O25      1.0000 0.94398  0.67960  0.46368  Biso   1.000  O
  O26      1.0000 0.07261  0.56310  0.79209  Biso   1.000  O
  O27      1.0000 0.07989  0.79979  0.71025  Biso   1.000  O
  O28      1.0000 0.94383  0.92666  0.52244  Biso   1.000  O
  O29      1.0000 0.55667  0.64089  0.75137  Biso   1.000  O
  O30      1.0000 0.46227  0.61405  0.49974  Biso   1.000  O
  O31      1.0000 0.45117  0.86362  0.49266  Biso   1.000  O
  O32      1.0000 0.56770  0.88710  0.74520  Biso   1.000  O
  Sb1      1.0000 0.01467  0.13711  0.12695  Biso   1.000  Sb
