data_image0
_cell_length_a       5.03884
_cell_length_b       10.2353
_cell_length_c       10.0754
_cell_angle_alpha    89.9966
_cell_angle_beta     89.9994
_cell_angle_gamma    89.999

_symmetry_space_group_name_H-M    "P 1"
_symmetry_int_tables_number       1

loop_
  _symmetry_equiv_pos_as_xyz
  'x, y, z'

loop_
  _atom_site_label
  _atom_site_occupancy
  _atom_site_fract_x
  _atom_site_fract_y
  _atom_site_fract_z
  _atom_site_thermal_displace_type
  _atom_site_B_iso_or_equiv
  _atom_site_type_symbol
  Sb1      1.0000 0.25100  0.00005  0.12495  Biso   1.000  Sb
  Zr1      1.0000 0.25100  0.00007  0.62496  Biso   1.000  Zr
  Zr2      1.0000 0.25101  0.50008  0.12496  Biso   1.000  Zr
  Zr3      1.0000 0.25101  0.50007  0.62496  Biso   1.000  Zr
  Zr4      1.0000 0.25252  0.25118  0.37565  Biso   1.000  Zr
  Zr5      1.0000 0.24955  0.25118  0.87428  Biso   1.000  Zr
  Zr6      1.0000 0.24956  0.74897  0.37565  Biso   1.000  Zr
  Zr7      1.0000 0.25251  0.74897  0.87427  Biso   1.000  Zr
  Zr8      1.0000 0.75104  0.25166  0.12497  Biso   1.000  Zr
  Zr9      1.0000 0.75103  0.24917  0.62496  Biso   1.000  Zr
  Zr10     1.0000 0.75103  0.74850  0.12496  Biso   1.000  Zr
  Zr11     1.0000 0.75103  0.75098  0.62496  Biso   1.000  Zr
  Zr12     1.0000 0.75102  0.00009  0.37537  Biso   1.000  Zr
  Zr13     1.0000 0.75100  0.00008  0.87455  Biso   1.000  Zr
  Zr14     1.0000 0.75102  0.50008  0.37534  Biso   1.000  Zr
  Zr15     1.0000 0.75100  0.50007  0.87458  Biso   1.000  Zr
  O1       1.0000 0.99374  0.14699  0.99692  Biso   1.000  O
  O2       1.0000 0.00143  0.14669  0.49925  Biso   1.000  O
  O3       1.0000 0.00348  0.64558  0.99993  Biso   1.000  O
  O4       1.0000 0.99900  0.64608  0.50013  Biso   1.000  O
  O5       1.0000 0.00189  0.10615  0.25022  Biso   1.000  O
  O6       1.0000 0.00023  0.10372  0.74845  Biso   1.000  O
  O7       1.0000 0.99943  0.60358  0.24975  Biso   1.000  O
  O8       1.0000 0.00271  0.60372  0.75017  Biso   1.000  O
  O9       1.0000 0.00346  0.35457  0.25000  Biso   1.000  O
  O10      1.0000 0.99899  0.35407  0.74979  Biso   1.000  O
  O11      1.0000 0.99378  0.85317  0.25299  Biso   1.000  O
  O12      1.0000 0.00139  0.85346  0.75068  Biso   1.000  O
  O13      1.0000 0.99942  0.39658  0.00017  Biso   1.000  O
  O14      1.0000 0.00271  0.39643  0.49975  Biso   1.000  O
  O15      1.0000 0.00181  0.89401  0.99971  Biso   1.000  O
  O16      1.0000 0.00023  0.89643  0.50148  Biso   1.000  O
  O17      1.0000 0.50833  0.14699  0.25302  Biso   1.000  O
  O18      1.0000 0.50065  0.14669  0.75069  Biso   1.000  O
  O19      1.0000 0.49857  0.64559  0.24999  Biso   1.000  O
  O20      1.0000 0.50304  0.64608  0.74979  Biso   1.000  O
  O21      1.0000 0.50019  0.10615  0.99972  Biso   1.000  O
  O22      1.0000 0.50184  0.10372  0.50149  Biso   1.000  O
  O23      1.0000 0.50263  0.60358  0.00017  Biso   1.000  O
  O24      1.0000 0.49934  0.60372  0.49975  Biso   1.000  O
  O25      1.0000 0.49858  0.35457  0.99993  Biso   1.000  O
  O26      1.0000 0.50305  0.35407  0.50014  Biso   1.000  O
  O27      1.0000 0.50825  0.85317  0.99693  Biso   1.000  O
  O28      1.0000 0.50064  0.85347  0.49925  Biso   1.000  O
  O29      1.0000 0.50262  0.39659  0.24975  Biso   1.000  O
  O30      1.0000 0.49933  0.39643  0.75017  Biso   1.000  O
  O31      1.0000 0.50024  0.89401  0.25022  Biso   1.000  O
  O32      1.0000 0.50180  0.89642  0.74845  Biso   1.000  O
