data_image0
_cell_length_a       10.2091
_cell_length_b       10.5139
_cell_length_c       5.29275
_cell_angle_alpha    90.968
_cell_angle_beta     92.4422
_cell_angle_gamma    89.0269

_symmetry_space_group_name_H-M    "P 1"
_symmetry_int_tables_number       1

loop_
  _symmetry_equiv_pos_as_xyz
  'x, y, z'

loop_
  _atom_site_label
  _atom_site_occupancy
  _atom_site_fract_x
  _atom_site_fract_y
  _atom_site_fract_z
  _atom_site_thermal_displace_type
  _atom_site_B_iso_or_equiv
  _atom_site_type_symbol
  Zr1      1.0000 0.13335  0.01631  0.35788  Biso   1.000  Zr
  Zr2      1.0000 0.13647  0.22746  0.87239  Biso   1.000  Zr
  Zr3      1.0000 0.33401  0.25573  0.39421  Biso   1.000  Zr
  Zr4      1.0000 0.36650  0.49134  0.84227  Biso   1.000  Zr
  Zr5      1.0000 0.64381  0.00818  0.16117  Biso   1.000  Zr
  Zr6      1.0000 0.64931  0.23292  0.61530  Biso   1.000  Zr
  Zr7      1.0000 0.85813  0.27204  0.14586  Biso   1.000  Zr
  Zr8      1.0000 0.87018  0.48150  0.65441  Biso   1.000  Zr
  O1       1.0000 0.03035  0.16672  0.18094  Biso   1.000  O
  O2       1.0000 0.03344  0.08206  0.67921  Biso   1.000  O
  O3       1.0000 0.47852  0.45487  0.16279  Biso   1.000  O
  O4       1.0000 0.47530  0.34012  0.63507  Biso   1.000  O
  O5       1.0000 0.26763  0.12015  0.62509  Biso   1.000  O
  O6       1.0000 0.26480  0.11118  0.12024  Biso   1.000  O
  O7       1.0000 0.22233  0.37638  0.62689  Biso   1.000  O
  O8       1.0000 0.22553  0.37150  0.12555  Biso   1.000  O
  O9       1.0000 0.51987  0.11778  0.39423  Biso   1.000  O
  O10      1.0000 0.52480  0.07605  0.86115  Biso   1.000  O
  O11      1.0000 0.96991  0.41606  0.33144  Biso   1.000  O
  O12      1.0000 0.97020  0.33223  0.83543  Biso   1.000  O
  O13      1.0000 0.77843  0.12553  0.88537  Biso   1.000  O
  O14      1.0000 0.78151  0.12263  0.39097  Biso   1.000  O
  O15      1.0000 0.73997  0.39312  0.89712  Biso   1.000  O
  O16      1.0000 0.73385  0.38240  0.40564  Biso   1.000  O
  Zr9      1.0000 0.13855  0.51890  0.34290  Biso   1.000  Zr
  Zr10     1.0000 0.13986  0.72911  0.84249  Biso   1.000  Zr
  Zr11     1.0000 0.36439  0.76924  0.34817  Biso   1.000  Zr
  Zr12     1.0000 0.35902  0.96888  0.86391  Biso   1.000  Zr
  Zr13     1.0000 0.65320  0.53731  0.14048  Biso   1.000  Zr
  Zr14     1.0000 0.64394  0.73340  0.64874  Biso   1.000  Zr
  Zr15     1.0000 0.86890  0.77119  0.15855  Biso   1.000  Zr
  Zr16     1.0000 0.86488  0.98102  0.66438  Biso   1.000  Zr
  O17      1.0000 0.03785  0.66522  0.16716  Biso   1.000  O
  O18      1.0000 0.03946  0.58392  0.66863  Biso   1.000  O
  O19      1.0000 0.47232  0.90037  0.16264  Biso   1.000  O
  O20      1.0000 0.47019  0.83614  0.66492  Biso   1.000  O
  O21      1.0000 0.27813  0.62512  0.58423  Biso   1.000  O
  O22      1.0000 0.27498  0.62276  0.08426  Biso   1.000  O
  O23      1.0000 0.22478  0.87110  0.60079  Biso   1.000  O
  O24      1.0000 0.22550  0.86962  0.10367  Biso   1.000  O
  O25      1.0000 0.54212  0.67582  0.32326  Biso   1.000  O
  O26      1.0000 0.53824  0.59151  0.81024  Biso   1.000  O
  O27      1.0000 0.96780  0.91632  0.33553  Biso   1.000  O
  O28      1.0000 0.97062  0.83489  0.83716  Biso   1.000  O
  O29      1.0000 0.78256  0.63376  0.89860  Biso   1.000  O
  O30      1.0000 0.78520  0.63049  0.40362  Biso   1.000  O
  O31      1.0000 0.73142  0.87654  0.91242  Biso   1.000  O
  O32      1.0000 0.73246  0.87361  0.41511  Biso   1.000  O
  Sb1      1.0000 0.52413  0.25969  0.06806  Biso   1.000  Sb
