data_image0
_cell_length_a       10.1224
_cell_length_b       10.6416
_cell_length_c       5.13173
_cell_angle_alpha    88.1685
_cell_angle_beta     92.3201
_cell_angle_gamma    90.8287

_symmetry_space_group_name_H-M    "P 1"
_symmetry_int_tables_number       1

loop_
  _symmetry_equiv_pos_as_xyz
  'x, y, z'

loop_
  _atom_site_label
  _atom_site_occupancy
  _atom_site_fract_x
  _atom_site_fract_y
  _atom_site_fract_z
  _atom_site_thermal_displace_type
  _atom_site_B_iso_or_equiv
  _atom_site_type_symbol
  Zr1      1.0000 0.11232  0.97398  0.21627  Biso   1.000  Zr
  Zr2      1.0000 0.14209  0.19675  0.62626  Biso   1.000  Zr
  Zr3      1.0000 0.37241  0.26194  0.21551  Biso   1.000  Zr
  Zr4      1.0000 0.37945  0.48018  0.72345  Biso   1.000  Zr
  O1       1.0000 0.00829  0.13706  0.32261  Biso   1.000  O
  O2       1.0000 0.04101  0.05987  0.85944  Biso   1.000  O
  O3       1.0000 0.47073  0.42364  0.39481  Biso   1.000  O
  O4       1.0000 0.48570  0.32238  0.91177  Biso   1.000  O
  O5       1.0000 0.26472  0.09040  0.40170  Biso   1.000  O
  O6       1.0000 0.30548  0.14702  0.88009  Biso   1.000  O
  O7       1.0000 0.26371  0.42655  0.03393  Biso   1.000  O
  O8       1.0000 0.23798  0.36010  0.51913  Biso   1.000  O
  Zr5      1.0000 0.12717  0.53347  0.27178  Biso   1.000  Zr
  Zr6      1.0000 0.12983  0.74725  0.75534  Biso   1.000  Zr
  Zr7      1.0000 0.37195  0.76777  0.25366  Biso   1.000  Zr
  Zr8      1.0000 0.37691  0.98889  0.72377  Biso   1.000  Zr
  O9       1.0000 0.02857  0.68247  0.42637  Biso   1.000  O
  O10      1.0000 0.02888  0.57196  0.90219  Biso   1.000  O
  O11      1.0000 0.47868  0.92418  0.40393  Biso   1.000  O
  O12      1.0000 0.47125  0.81962  0.90757  Biso   1.000  O
  O13      1.0000 0.26555  0.61649  0.53868  Biso   1.000  O
  O14      1.0000 0.24137  0.66384  0.04573  Biso   1.000  O
  O15      1.0000 0.24450  0.89790  0.97357  Biso   1.000  O
  O16      1.0000 0.23676  0.85631  0.48385  Biso   1.000  O
  Zr9      1.0000 0.63721  0.01672  0.26551  Biso   1.000  Zr
  Zr10     1.0000 0.63769  0.23028  0.77590  Biso   1.000  Zr
  Zr11     1.0000 0.85064  0.27548  0.31926  Biso   1.000  Zr
  Zr12     1.0000 0.86953  0.48609  0.74795  Biso   1.000  Zr
  O17      1.0000 0.52731  0.17245  0.41714  Biso   1.000  O
  O18      1.0000 0.54481  0.06330  0.91013  Biso   1.000  O
  O19      1.0000 0.93449  0.46800  0.37219  Biso   1.000  O
  O20      1.0000 0.96060  0.29974  0.68513  Biso   1.000  O
  O21      1.0000 0.76495  0.11469  0.53425  Biso   1.000  O
  O22      1.0000 0.77386  0.13976  0.03680  Biso   1.000  O
  O23      1.0000 0.74710  0.38359  0.01657  Biso   1.000  O
  O24      1.0000 0.71317  0.37050  0.52129  Biso   1.000  O
  Zr13     1.0000 0.63490  0.51511  0.25797  Biso   1.000  Zr
  Zr14     1.0000 0.62775  0.73461  0.76579  Biso   1.000  Zr
  Zr15     1.0000 0.85771  0.76182  0.28607  Biso   1.000  Zr
  Zr16     1.0000 0.86333  0.98200  0.77316  Biso   1.000  Zr
  O25      1.0000 0.52829  0.67123  0.41865  Biso   1.000  O
  O26      1.0000 0.52777  0.57273  0.92011  Biso   1.000  O
  O27      1.0000 0.97396  0.90759  0.47368  Biso   1.000  O
  O28      1.0000 0.98734  0.83262  0.98891  Biso   1.000  O
  O29      1.0000 0.76004  0.61936  0.52763  Biso   1.000  O
  O30      1.0000 0.76322  0.64086  0.01987  Biso   1.000  O
  O31      1.0000 0.73896  0.88568  0.02699  Biso   1.000  O
  O32      1.0000 0.73349  0.86589  0.52459  Biso   1.000  O
  Sb1      1.0000 0.09054  0.28898  0.07856  Biso   1.000  Sb
