data_image0
_cell_length_a       10.1044
_cell_length_b       10.3159
_cell_length_c       10.5147
_cell_angle_alpha    89.9627
_cell_angle_beta     90.1135
_cell_angle_gamma    89.9268

_symmetry_space_group_name_H-M    "P 1"
_symmetry_int_tables_number       1

loop_
  _symmetry_equiv_pos_as_xyz
  'x, y, z'

loop_
  _atom_site_label
  _atom_site_occupancy
  _atom_site_fract_x
  _atom_site_fract_y
  _atom_site_fract_z
  _atom_site_thermal_displace_type
  _atom_site_B_iso_or_equiv
  _atom_site_type_symbol
  Sb1      1.0000 0.12974  0.01867  0.17631  Biso   1.000  Sb
  Zr1      1.0000 0.13894  0.02074  0.67055  Biso   1.000  Zr
  Zr2      1.0000 0.13866  0.52132  0.17090  Biso   1.000  Zr
  Zr3      1.0000 0.13887  0.52116  0.67140  Biso   1.000  Zr
  Zr4      1.0000 0.13974  0.23070  0.42226  Biso   1.000  Zr
  Zr5      1.0000 0.14120  0.22900  0.91990  Biso   1.000  Zr
  Zr6      1.0000 0.13768  0.72847  0.42149  Biso   1.000  Zr
  Zr7      1.0000 0.13960  0.72921  0.92049  Biso   1.000  Zr
  Zr8      1.0000 0.36029  0.27073  0.16979  Biso   1.000  Zr
  Zr9      1.0000 0.36193  0.27120  0.67098  Biso   1.000  Zr
  Zr10     1.0000 0.36191  0.77107  0.16956  Biso   1.000  Zr
  Zr11     1.0000 0.36129  0.77108  0.67080  Biso   1.000  Zr
  Zr12     1.0000 0.36113  0.47930  0.42061  Biso   1.000  Zr
  Zr13     1.0000 0.36145  0.47887  0.92122  Biso   1.000  Zr
  Zr14     1.0000 0.36188  0.97944  0.42122  Biso   1.000  Zr
  Zr15     1.0000 0.36177  0.97955  0.92063  Biso   1.000  Zr
  Zr16     1.0000 0.63892  0.02129  0.07878  Biso   1.000  Zr
  Zr17     1.0000 0.63820  0.02116  0.58040  Biso   1.000  Zr
  Zr18     1.0000 0.63841  0.52039  0.07869  Biso   1.000  Zr
  Zr19     1.0000 0.63886  0.52086  0.57903  Biso   1.000  Zr
  Zr20     1.0000 0.63766  0.22961  0.32885  Biso   1.000  Zr
  Zr21     1.0000 0.63935  0.22893  0.82929  Biso   1.000  Zr
  Zr22     1.0000 0.63783  0.72813  0.32894  Biso   1.000  Zr
  Zr23     1.0000 0.63861  0.72894  0.82860  Biso   1.000  Zr
  Zr24     1.0000 0.86112  0.27106  0.07949  Biso   1.000  Zr
  Zr25     1.0000 0.86137  0.27108  0.57916  Biso   1.000  Zr
  Zr26     1.0000 0.86024  0.76890  0.07787  Biso   1.000  Zr
  Zr27     1.0000 0.86100  0.77081  0.57967  Biso   1.000  Zr
  Zr28     1.0000 0.86122  0.47889  0.32895  Biso   1.000  Zr
  Zr29     1.0000 0.86222  0.47813  0.82919  Biso   1.000  Zr
  Zr30     1.0000 0.85524  0.97849  0.33199  Biso   1.000  Zr
  Zr31     1.0000 0.86226  0.97916  0.82949  Biso   1.000  Zr
  O1       1.0000 0.03505  0.16761  0.08405  Biso   1.000  O
  O2       1.0000 0.03275  0.16528  0.58277  Biso   1.000  O
  O3       1.0000 0.03322  0.66685  0.08399  Biso   1.000  O
  O4       1.0000 0.03253  0.66560  0.58411  Biso   1.000  O
  O5       1.0000 0.03119  0.08354  0.33468  Biso   1.000  O
  O6       1.0000 0.03379  0.08429  0.83350  Biso   1.000  O
  O7       1.0000 0.03237  0.58434  0.33403  Biso   1.000  O
  O8       1.0000 0.03322  0.58358  0.83381  Biso   1.000  O
  O9       1.0000 0.46726  0.41558  0.08363  Biso   1.000  O
  O10      1.0000 0.46724  0.41603  0.58354  Biso   1.000  O
  O11      1.0000 0.46846  0.91600  0.08367  Biso   1.000  O
  O12      1.0000 0.46695  0.91619  0.58421  Biso   1.000  O
  O13      1.0000 0.46686  0.33454  0.33373  Biso   1.000  O
  O14      1.0000 0.46778  0.33421  0.83369  Biso   1.000  O
  O15      1.0000 0.46668  0.83437  0.33336  Biso   1.000  O
  O16      1.0000 0.46779  0.83419  0.83282  Biso   1.000  O
  O17      1.0000 0.27631  0.12617  0.29703  Biso   1.000  O
  O18      1.0000 0.27592  0.12401  0.79240  Biso   1.000  O
  O19      1.0000 0.27518  0.62485  0.29467  Biso   1.000  O
  O20      1.0000 0.27593  0.62422  0.79448  Biso   1.000  O
  O21      1.0000 0.28240  0.13137  0.03855  Biso   1.000  O
  O22      1.0000 0.27604  0.12615  0.54475  Biso   1.000  O
  O23      1.0000 0.27564  0.62479  0.04478  Biso   1.000  O
  O24      1.0000 0.27510  0.62556  0.54474  Biso   1.000  O
  O25      1.0000 0.22395  0.37504  0.29472  Biso   1.000  O
  O26      1.0000 0.22526  0.37434  0.79447  Biso   1.000  O
  O27      1.0000 0.22377  0.87330  0.29474  Biso   1.000  O
  O28      1.0000 0.22457  0.87403  0.79331  Biso   1.000  O
  O29      1.0000 0.22348  0.37741  0.04456  Biso   1.000  O
  O30      1.0000 0.22453  0.37597  0.54474  Biso   1.000  O
  O31      1.0000 0.22875  0.87222  0.04079  Biso   1.000  O
  O32      1.0000 0.22442  0.87580  0.54405  Biso   1.000  O
  O33      1.0000 0.53339  0.16637  0.16583  Biso   1.000  O
  O34      1.0000 0.53344  0.16632  0.66608  Biso   1.000  O
  O35      1.0000 0.53294  0.66539  0.16592  Biso   1.000  O
  O36      1.0000 0.53315  0.66573  0.66572  Biso   1.000  O
  O37      1.0000 0.53342  0.08397  0.41639  Biso   1.000  O
  O38      1.0000 0.53518  0.08317  0.91494  Biso   1.000  O
  O39      1.0000 0.53260  0.58402  0.41605  Biso   1.000  O
  O40      1.0000 0.53292  0.58426  0.91618  Biso   1.000  O
  O41      1.0000 0.96644  0.41651  0.16618  Biso   1.000  O
  O42      1.0000 0.96785  0.41491  0.66663  Biso   1.000  O
  O43      1.0000 0.96061  0.91665  0.16694  Biso   1.000  O
  O44      1.0000 0.96704  0.91551  0.66645  Biso   1.000  O
  O45      1.0000 0.96703  0.33434  0.41650  Biso   1.000  O
  O46      1.0000 0.96759  0.33366  0.91726  Biso   1.000  O
  O47      1.0000 0.96588  0.83483  0.41641  Biso   1.000  O
  O48      1.0000 0.96763  0.83427  0.91684  Biso   1.000  O
  O49      1.0000 0.77685  0.12427  0.95590  Biso   1.000  O
  O50      1.0000 0.77507  0.12389  0.45625  Biso   1.000  O
  O51      1.0000 0.77573  0.62355  0.95512  Biso   1.000  O
  O52      1.0000 0.77538  0.62417  0.45529  Biso   1.000  O
  O53      1.0000 0.77549  0.12577  0.20627  Biso   1.000  O
  O54      1.0000 0.77606  0.12583  0.70570  Biso   1.000  O
  O55      1.0000 0.77507  0.62537  0.20511  Biso   1.000  O
  O56      1.0000 0.77590  0.62550  0.70534  Biso   1.000  O
  O57      1.0000 0.72484  0.37399  0.95555  Biso   1.000  O
  O58      1.0000 0.72447  0.37412  0.45537  Biso   1.000  O
  O59      1.0000 0.72480  0.87380  0.95549  Biso   1.000  O
  O60      1.0000 0.72245  0.87351  0.45652  Biso   1.000  O
  O61      1.0000 0.72428  0.37559  0.20530  Biso   1.000  O
  O62      1.0000 0.72498  0.37572  0.70535  Biso   1.000  O
  O63      1.0000 0.72373  0.87541  0.20643  Biso   1.000  O
  O64      1.0000 0.72480  0.87584  0.70580  Biso   1.000  O
