data_image0
_cell_length_a       10.0491
_cell_length_b       5.22291
_cell_length_c       10.0842
_cell_angle_alpha    90.0449
_cell_angle_beta     89.8519
_cell_angle_gamma    89.9257

_symmetry_space_group_name_H-M    "P 1"
_symmetry_int_tables_number       1

loop_
  _symmetry_equiv_pos_as_xyz
  'x, y, z'

loop_
  _atom_site_label
  _atom_site_occupancy
  _atom_site_fract_x
  _atom_site_fract_y
  _atom_site_fract_z
  _atom_site_thermal_displace_type
  _atom_site_B_iso_or_equiv
  _atom_site_type_symbol
  Sb1      1.0000 0.12727  0.03745  0.11953  Biso   1.000  Sb
  Zr1      1.0000 0.13383  0.03193  0.62568  Biso   1.000  Zr
  Zr2      1.0000 0.63369  0.03135  0.12640  Biso   1.000  Zr
  Zr3      1.0000 0.63301  0.03102  0.62386  Biso   1.000  Zr
  Zr4      1.0000 0.13634  0.46853  0.37670  Biso   1.000  Zr
  Zr5      1.0000 0.13343  0.47290  0.87386  Biso   1.000  Zr
  Zr6      1.0000 0.63401  0.46904  0.37514  Biso   1.000  Zr
  Zr7      1.0000 0.63247  0.46725  0.87476  Biso   1.000  Zr
  Zr8      1.0000 0.36638  0.53003  0.12674  Biso   1.000  Zr
  Zr9      1.0000 0.36650  0.53178  0.62578  Biso   1.000  Zr
  Zr10     1.0000 0.86352  0.52922  0.12345  Biso   1.000  Zr
  Zr11     1.0000 0.86657  0.53100  0.62408  Biso   1.000  Zr
  Zr12     1.0000 0.36603  0.96728  0.37531  Biso   1.000  Zr
  Zr13     1.0000 0.36720  0.96930  0.87513  Biso   1.000  Zr
  Zr14     1.0000 0.86704  0.96949  0.37632  Biso   1.000  Zr
  Zr15     1.0000 0.86279  0.96552  0.87338  Biso   1.000  Zr
  O1       1.0000 0.03517  0.37013  0.19405  Biso   1.000  O
  O2       1.0000 0.03531  0.36786  0.69412  Biso   1.000  O
  O3       1.0000 0.53734  0.36802  0.19436  Biso   1.000  O
  O4       1.0000 0.53480  0.36588  0.69516  Biso   1.000  O
  O5       1.0000 0.03596  0.13189  0.44473  Biso   1.000  O
  O6       1.0000 0.03252  0.13582  0.94271  Biso   1.000  O
  O7       1.0000 0.53597  0.13328  0.44408  Biso   1.000  O
  O8       1.0000 0.53456  0.13369  0.94569  Biso   1.000  O
  O9       1.0000 0.46640  0.86613  0.19545  Biso   1.000  O
  O10      1.0000 0.46495  0.86756  0.69539  Biso   1.000  O
  O11      1.0000 0.96112  0.86640  0.19326  Biso   1.000  O
  O12      1.0000 0.96458  0.86662  0.69469  Biso   1.000  O
  O13      1.0000 0.46698  0.63428  0.44770  Biso   1.000  O
  O14      1.0000 0.46477  0.63429  0.94381  Biso   1.000  O
  O15      1.0000 0.96558  0.63334  0.44464  Biso   1.000  O
  O16      1.0000 0.96401  0.63524  0.94449  Biso   1.000  O
  O17      1.0000 0.27265  0.23759  0.25122  Biso   1.000  O
  O18      1.0000 0.26915  0.23445  0.74937  Biso   1.000  O
  O19      1.0000 0.76993  0.23327  0.24863  Biso   1.000  O
  O20      1.0000 0.76864  0.23201  0.74743  Biso   1.000  O
  O21      1.0000 0.26996  0.26596  0.50036  Biso   1.000  O
  O22      1.0000 0.26784  0.26847  0.99832  Biso   1.000  O
  O23      1.0000 0.76950  0.26708  0.49820  Biso   1.000  O
  O24      1.0000 0.76887  0.26437  0.99760  Biso   1.000  O
  O25      1.0000 0.23118  0.76611  0.50030  Biso   1.000  O
  O26      1.0000 0.23075  0.76186  0.99852  Biso   1.000  O
  O27      1.0000 0.73163  0.76697  0.49862  Biso   1.000  O
  O28      1.0000 0.72904  0.76438  0.99832  Biso   1.000  O
  O29      1.0000 0.23620  0.72545  0.25298  Biso   1.000  O
  O30      1.0000 0.23068  0.73555  0.74881  Biso   1.000  O
  O31      1.0000 0.73196  0.73370  0.24872  Biso   1.000  O
  O32      1.0000 0.73019  0.73200  0.74810  Biso   1.000  O
