data_image0
_cell_length_a       10.0403
_cell_length_b       10.4382
_cell_length_c       10.0716
_cell_angle_alpha    90.0299
_cell_angle_beta     89.9083
_cell_angle_gamma    89.9677

_symmetry_space_group_name_H-M    "P 1"
_symmetry_int_tables_number       1

loop_
  _symmetry_equiv_pos_as_xyz
  'x, y, z'

loop_
  _atom_site_label
  _atom_site_occupancy
  _atom_site_fract_x
  _atom_site_fract_y
  _atom_site_fract_z
  _atom_site_thermal_displace_type
  _atom_site_B_iso_or_equiv
  _atom_site_type_symbol
  Sb1      1.0000 0.12675  0.01936  0.11858  Biso   1.000  Sb
  Zr1      1.0000 0.13392  0.01558  0.62628  Biso   1.000  Zr
  Zr2      1.0000 0.13367  0.51568  0.12593  Biso   1.000  Zr
  Zr3      1.0000 0.13375  0.51605  0.62529  Biso   1.000  Zr
  Zr4      1.0000 0.63419  0.01567  0.12615  Biso   1.000  Zr
  Zr5      1.0000 0.63292  0.01546  0.62449  Biso   1.000  Zr
  Zr6      1.0000 0.63382  0.51579  0.12636  Biso   1.000  Zr
  Zr7      1.0000 0.63378  0.51559  0.62524  Biso   1.000  Zr
  Zr8      1.0000 0.13599  0.23413  0.37664  Biso   1.000  Zr
  Zr9      1.0000 0.13399  0.23741  0.87356  Biso   1.000  Zr
  Zr10     1.0000 0.13491  0.73420  0.37613  Biso   1.000  Zr
  Zr11     1.0000 0.13335  0.73369  0.87586  Biso   1.000  Zr
  Zr12     1.0000 0.63366  0.23412  0.37531  Biso   1.000  Zr
  Zr13     1.0000 0.63340  0.23395  0.87540  Biso   1.000  Zr
  Zr14     1.0000 0.63421  0.73455  0.37592  Biso   1.000  Zr
  Zr15     1.0000 0.63282  0.73365  0.87538  Biso   1.000  Zr
  Zr16     1.0000 0.36655  0.26629  0.12658  Biso   1.000  Zr
  Zr17     1.0000 0.36675  0.26561  0.62560  Biso   1.000  Zr
  Zr18     1.0000 0.36664  0.76458  0.12639  Biso   1.000  Zr
  Zr19     1.0000 0.36600  0.76598  0.62624  Biso   1.000  Zr
  Zr20     1.0000 0.86396  0.26655  0.12499  Biso   1.000  Zr
  Zr21     1.0000 0.86610  0.26557  0.62501  Biso   1.000  Zr
  Zr22     1.0000 0.86594  0.76386  0.12460  Biso   1.000  Zr
  Zr23     1.0000 0.86654  0.76554  0.62484  Biso   1.000  Zr
  Zr24     1.0000 0.36633  0.48439  0.37585  Biso   1.000  Zr
  Zr25     1.0000 0.36643  0.48475  0.87574  Biso   1.000  Zr
  Zr26     1.0000 0.36553  0.98351  0.37516  Biso   1.000  Zr
  Zr27     1.0000 0.36675  0.98450  0.87558  Biso   1.000  Zr
  Zr28     1.0000 0.86676  0.48397  0.37566  Biso   1.000  Zr
  Zr29     1.0000 0.86583  0.48417  0.87513  Biso   1.000  Zr
  Zr30     1.0000 0.86627  0.98494  0.37653  Biso   1.000  Zr
  Zr31     1.0000 0.86271  0.98259  0.87415  Biso   1.000  Zr
  O1       1.0000 0.03610  0.18575  0.19318  Biso   1.000  O
  O2       1.0000 0.03557  0.18416  0.69424  Biso   1.000  O
  O3       1.0000 0.03599  0.68466  0.19423  Biso   1.000  O
  O4       1.0000 0.03557  0.68383  0.69403  Biso   1.000  O
  O5       1.0000 0.53770  0.18482  0.19275  Biso   1.000  O
  O6       1.0000 0.53560  0.18363  0.69431  Biso   1.000  O
  O7       1.0000 0.53616  0.68341  0.19566  Biso   1.000  O
  O8       1.0000 0.53501  0.68310  0.69517  Biso   1.000  O
  O9       1.0000 0.03618  0.06602  0.44370  Biso   1.000  O
  O10      1.0000 0.03366  0.06710  0.94164  Biso   1.000  O
  O11      1.0000 0.03588  0.56556  0.44457  Biso   1.000  O
  O12      1.0000 0.03457  0.56648  0.94470  Biso   1.000  O
  O13      1.0000 0.53598  0.06625  0.44375  Biso   1.000  O
  O14      1.0000 0.53564  0.06613  0.94441  Biso   1.000  O
  O15      1.0000 0.53601  0.56605  0.44445  Biso   1.000  O
  O16      1.0000 0.53500  0.56635  0.94571  Biso   1.000  O
  O17      1.0000 0.46473  0.43362  0.19501  Biso   1.000  O
  O18      1.0000 0.46477  0.43372  0.69457  Biso   1.000  O
  O19      1.0000 0.46600  0.93342  0.19443  Biso   1.000  O
  O20      1.0000 0.46421  0.93398  0.69515  Biso   1.000  O
  O21      1.0000 0.96399  0.43334  0.19421  Biso   1.000  O
  O22      1.0000 0.96487  0.43340  0.69466  Biso   1.000  O
  O23      1.0000 0.95895  0.93494  0.19077  Biso   1.000  O
  O24      1.0000 0.96360  0.93389  0.69383  Biso   1.000  O
  O25      1.0000 0.46454  0.31614  0.44466  Biso   1.000  O
  O26      1.0000 0.46412  0.31616  0.94369  Biso   1.000  O
  O27      1.0000 0.46646  0.81675  0.44731  Biso   1.000  O
  O28      1.0000 0.46349  0.81618  0.94384  Biso   1.000  O
  O29      1.0000 0.96485  0.31590  0.44410  Biso   1.000  O
  O30      1.0000 0.96420  0.31655  0.94434  Biso   1.000  O
  O31      1.0000 0.96484  0.81651  0.44379  Biso   1.000  O
  O32      1.0000 0.96364  0.81662  0.94366  Biso   1.000  O
  O33      1.0000 0.27484  0.12127  0.25220  Biso   1.000  O
  O34      1.0000 0.26959  0.11745  0.74945  Biso   1.000  O
  O35      1.0000 0.26941  0.61493  0.24902  Biso   1.000  O
  O36      1.0000 0.26908  0.61692  0.74927  Biso   1.000  O
  O37      1.0000 0.76992  0.11752  0.24936  Biso   1.000  O
  O38      1.0000 0.76878  0.11634  0.74820  Biso   1.000  O
  O39      1.0000 0.77010  0.61647  0.24886  Biso   1.000  O
  O40      1.0000 0.76938  0.61665  0.74863  Biso   1.000  O
  O41      1.0000 0.26939  0.13266  0.50078  Biso   1.000  O
  O42      1.0000 0.26846  0.13458  0.99802  Biso   1.000  O
  O43      1.0000 0.27024  0.63298  0.49940  Biso   1.000  O
  O44      1.0000 0.26914  0.63272  0.99925  Biso   1.000  O
  O45      1.0000 0.76959  0.13309  0.49882  Biso   1.000  O
  O46      1.0000 0.76979  0.13252  0.99845  Biso   1.000  O
  O47      1.0000 0.76969  0.63312  0.49881  Biso   1.000  O
  O48      1.0000 0.76879  0.63245  0.99853  Biso   1.000  O
  O49      1.0000 0.23081  0.38281  0.49927  Biso   1.000  O
  O50      1.0000 0.23055  0.38381  0.99883  Biso   1.000  O
  O51      1.0000 0.23055  0.88291  0.50078  Biso   1.000  O
  O52      1.0000 0.23035  0.88120  0.99925  Biso   1.000  O
  O53      1.0000 0.73086  0.38292  0.49899  Biso   1.000  O
  O54      1.0000 0.73006  0.38276  0.99907  Biso   1.000  O
  O55      1.0000 0.73123  0.88328  0.49911  Biso   1.000  O
  O56      1.0000 0.72872  0.88200  0.99856  Biso   1.000  O
  O57      1.0000 0.22992  0.36789  0.24927  Biso   1.000  O
  O58      1.0000 0.23089  0.36772  0.74850  Biso   1.000  O
  O59      1.0000 0.23707  0.86131  0.25379  Biso   1.000  O
  O60      1.0000 0.22999  0.86721  0.74986  Biso   1.000  O
  O61      1.0000 0.73011  0.36748  0.24924  Biso   1.000  O
  O62      1.0000 0.73060  0.36654  0.74895  Biso   1.000  O
  O63      1.0000 0.73173  0.86659  0.24920  Biso   1.000  O
  O64      1.0000 0.72975  0.86630  0.74846  Biso   1.000  O
