data_image0
_cell_length_a       10.0764
_cell_length_b       5.11728
_cell_length_c       10.0764
_cell_angle_alpha    90.0008
_cell_angle_beta     89.9971
_cell_angle_gamma    90.0008

_symmetry_space_group_name_H-M    "P 1"
_symmetry_int_tables_number       1

loop_
  _symmetry_equiv_pos_as_xyz
  'x, y, z'

loop_
  _atom_site_label
  _atom_site_occupancy
  _atom_site_fract_x
  _atom_site_fract_y
  _atom_site_fract_z
  _atom_site_thermal_displace_type
  _atom_site_B_iso_or_equiv
  _atom_site_type_symbol
  Sb1      1.0000 0.12492  0.00031  0.12492  Biso   1.000  Sb
  Zr1      1.0000 0.12492  0.00033  0.62492  Biso   1.000  Zr
  Zr2      1.0000 0.62492  0.00032  0.12492  Biso   1.000  Zr
  Zr3      1.0000 0.62492  0.00033  0.62492  Biso   1.000  Zr
  Zr4      1.0000 0.12492  0.50033  0.37549  Biso   1.000  Zr
  Zr5      1.0000 0.12491  0.50034  0.87435  Biso   1.000  Zr
  Zr6      1.0000 0.62492  0.50033  0.37439  Biso   1.000  Zr
  Zr7      1.0000 0.62492  0.50034  0.87544  Biso   1.000  Zr
  Zr8      1.0000 0.37549  0.50033  0.12492  Biso   1.000  Zr
  Zr9      1.0000 0.37439  0.50033  0.62492  Biso   1.000  Zr
  Zr10     1.0000 0.87435  0.50034  0.12491  Biso   1.000  Zr
  Zr11     1.0000 0.87544  0.50034  0.62491  Biso   1.000  Zr
  Zr12     1.0000 0.37604  0.00246  0.37604  Biso   1.000  Zr
  Zr13     1.0000 0.37604  0.99820  0.87381  Biso   1.000  Zr
  Zr14     1.0000 0.87381  0.99820  0.37604  Biso   1.000  Zr
  Zr15     1.0000 0.87380  0.00246  0.87380  Biso   1.000  Zr
  O1       1.0000 0.99770  0.29401  0.99770  Biso   1.000  O
  O2       1.0000 0.99962  0.29198  0.50015  Biso   1.000  O
  O3       1.0000 0.50015  0.29198  0.99962  Biso   1.000  O
  O4       1.0000 0.49929  0.29336  0.49929  Biso   1.000  O
  O5       1.0000 0.99936  0.21217  0.25047  Biso   1.000  O
  O6       1.0000 0.99987  0.20802  0.74930  Biso   1.000  O
  O7       1.0000 0.50054  0.20802  0.24996  Biso   1.000  O
  O8       1.0000 0.50045  0.20761  0.74937  Biso   1.000  O
  O9       1.0000 0.99771  0.70665  0.25213  Biso   1.000  O
  O10      1.0000 0.99962  0.70868  0.74968  Biso   1.000  O
  O11      1.0000 0.50016  0.70868  0.25021  Biso   1.000  O
  O12      1.0000 0.49929  0.70731  0.75055  Biso   1.000  O
  O13      1.0000 0.99936  0.78851  0.99936  Biso   1.000  O
  O14      1.0000 0.99987  0.79265  0.50053  Biso   1.000  O
  O15      1.0000 0.50053  0.79265  0.99987  Biso   1.000  O
  O16      1.0000 0.50046  0.79306  0.50046  Biso   1.000  O
  O17      1.0000 0.25214  0.29401  0.25213  Biso   1.000  O
  O18      1.0000 0.25021  0.29198  0.74968  Biso   1.000  O
  O19      1.0000 0.74968  0.29198  0.25021  Biso   1.000  O
  O20      1.0000 0.75055  0.29336  0.75055  Biso   1.000  O
  O21      1.0000 0.25047  0.21217  0.99936  Biso   1.000  O
  O22      1.0000 0.24997  0.20802  0.50054  Biso   1.000  O
  O23      1.0000 0.74930  0.20802  0.99986  Biso   1.000  O
  O24      1.0000 0.74937  0.20761  0.50045  Biso   1.000  O
  O25      1.0000 0.25213  0.70665  0.99771  Biso   1.000  O
  O26      1.0000 0.25021  0.70868  0.50016  Biso   1.000  O
  O27      1.0000 0.74968  0.70868  0.99962  Biso   1.000  O
  O28      1.0000 0.75055  0.70731  0.49929  Biso   1.000  O
  O29      1.0000 0.25048  0.78850  0.25048  Biso   1.000  O
  O30      1.0000 0.24997  0.79266  0.74931  Biso   1.000  O
  O31      1.0000 0.74931  0.79265  0.24997  Biso   1.000  O
  O32      1.0000 0.74938  0.79306  0.74937  Biso   1.000  O
