data_image0
_cell_length_a       9.97631
_cell_length_b       10.3256
_cell_length_c       5.00891
_cell_angle_alpha    90.0434
_cell_angle_beta     90.0084
_cell_angle_gamma    90.0497

_symmetry_space_group_name_H-M    "P 1"
_symmetry_int_tables_number       1

loop_
  _symmetry_equiv_pos_as_xyz
  'x, y, z'

loop_
  _atom_site_label
  _atom_site_occupancy
  _atom_site_fract_x
  _atom_site_fract_y
  _atom_site_fract_z
  _atom_site_thermal_displace_type
  _atom_site_B_iso_or_equiv
  _atom_site_type_symbol
  Sc1      1.0000 0.13504  0.01708  0.24968  Biso   1.000  Sc
  Hf1      1.0000 0.13487  0.23036  0.75166  Biso   1.000  Hf
  Hf2      1.0000 0.36356  0.26432  0.25282  Biso   1.000  Hf
  Hf3      1.0000 0.36555  0.48290  0.75178  Biso   1.000  Hf
  O1       1.0000 0.03400  0.18502  0.39378  Biso   1.000  O
  O2       1.0000 0.03443  0.06744  0.88642  Biso   1.000  O
  O3       1.0000 0.46440  0.43340  0.38986  Biso   1.000  O
  O4       1.0000 0.46449  0.31596  0.88864  Biso   1.000  O
  O5       1.0000 0.27303  0.12007  0.50143  Biso   1.000  O
  O6       1.0000 0.27185  0.13187  0.99873  Biso   1.000  O
  O7       1.0000 0.22982  0.38172  0.99953  Biso   1.000  O
  O8       1.0000 0.22862  0.36833  0.49916  Biso   1.000  O
  Hf4      1.0000 0.13527  0.51623  0.25163  Biso   1.000  Hf
  Hf5      1.0000 0.13638  0.73539  0.75343  Biso   1.000  Hf
  Hf6      1.0000 0.36462  0.76810  0.25251  Biso   1.000  Hf
  Hf7      1.0000 0.36183  0.98396  0.75262  Biso   1.000  Hf
  O9       1.0000 0.03614  0.68399  0.38911  Biso   1.000  O
  O10      1.0000 0.03619  0.56618  0.88969  Biso   1.000  O
  O11      1.0000 0.46511  0.93433  0.39027  Biso   1.000  O
  O12      1.0000 0.46602  0.81701  0.89220  Biso   1.000  O
  O13      1.0000 0.27067  0.61717  0.49939  Biso   1.000  O
  O14      1.0000 0.27157  0.63146  0.99948  Biso   1.000  O
  O15      1.0000 0.22978  0.88048  0.00089  Biso   1.000  O
  O16      1.0000 0.23241  0.86593  0.50337  Biso   1.000  O
  Hf8      1.0000 0.63379  0.01603  0.24809  Biso   1.000  Hf
  Hf9      1.0000 0.63385  0.23333  0.74955  Biso   1.000  Hf
  Hf10     1.0000 0.86656  0.26525  0.25004  Biso   1.000  Hf
  Hf11     1.0000 0.86589  0.48401  0.75196  Biso   1.000  Hf
  O17      1.0000 0.53672  0.18475  0.38533  Biso   1.000  O
  O18      1.0000 0.53555  0.06588  0.88640  Biso   1.000  O
  O19      1.0000 0.96430  0.43489  0.38874  Biso   1.000  O
  O20      1.0000 0.96496  0.31735  0.89031  Biso   1.000  O
  O21      1.0000 0.76974  0.11684  0.49606  Biso   1.000  O
  O22      1.0000 0.77027  0.13339  0.99587  Biso   1.000  O
  O23      1.0000 0.72915  0.38299  0.99722  Biso   1.000  O
  O24      1.0000 0.73033  0.36734  0.49763  Biso   1.000  O
  Hf12     1.0000 0.63420  0.51629  0.25130  Biso   1.000  Hf
  Hf13     1.0000 0.63442  0.73437  0.75079  Biso   1.000  Hf
  Hf14     1.0000 0.86671  0.76802  0.25096  Biso   1.000  Hf
  Hf15     1.0000 0.86818  0.98399  0.74720  Biso   1.000  Hf
  O25      1.0000 0.53535  0.68345  0.38997  Biso   1.000  O
  O26      1.0000 0.53582  0.56605  0.88905  Biso   1.000  O
  O27      1.0000 0.96424  0.93287  0.39033  Biso   1.000  O
  O28      1.0000 0.96409  0.81508  0.88722  Biso   1.000  O
  O29      1.0000 0.77091  0.61751  0.49783  Biso   1.000  O
  O30      1.0000 0.77031  0.63265  0.99811  Biso   1.000  O
  O31      1.0000 0.73076  0.88301  0.99613  Biso   1.000  O
  O32      1.0000 0.72813  0.86702  0.49575  Biso   1.000  O
