data_image0
_cell_length_a       10.0472
_cell_length_b       10.2132
_cell_length_c       5.21816
_cell_angle_alpha    89.9515
_cell_angle_beta     89.9293
_cell_angle_gamma    90.0148

_symmetry_space_group_name_H-M    "P 1"
_symmetry_int_tables_number       1

loop_
  _symmetry_equiv_pos_as_xyz
  'x, y, z'

loop_
  _atom_site_label
  _atom_site_occupancy
  _atom_site_fract_x
  _atom_site_fract_y
  _atom_site_fract_z
  _atom_site_thermal_displace_type
  _atom_site_B_iso_or_equiv
  _atom_site_type_symbol
  Sc1      1.0000 0.13899  0.01979  0.34642  Biso   1.000  Sc
  Hf1      1.0000 0.13993  0.22621  0.84536  Biso   1.000  Hf
  Hf2      1.0000 0.35820  0.26784  0.34452  Biso   1.000  Hf
  Hf3      1.0000 0.36050  0.47809  0.84470  Biso   1.000  Hf
  Hf4      1.0000 0.63890  0.02087  0.15458  Biso   1.000  Hf
  Hf5      1.0000 0.63873  0.22910  0.65583  Biso   1.000  Hf
  Hf6      1.0000 0.86193  0.26989  0.15512  Biso   1.000  Hf
  Hf7      1.0000 0.86043  0.47969  0.65661  Biso   1.000  Hf
  O1       1.0000 0.03230  0.16620  0.16905  Biso   1.000  O
  O2       1.0000 0.03086  0.08584  0.67162  Biso   1.000  O
  O3       1.0000 0.46711  0.41375  0.16824  Biso   1.000  O
  O4       1.0000 0.46760  0.33517  0.66777  Biso   1.000  O
  O5       1.0000 0.27731  0.12480  0.59499  Biso   1.000  O
  O6       1.0000 0.27820  0.12730  0.08966  Biso   1.000  O
  O7       1.0000 0.22345  0.37400  0.59219  Biso   1.000  O
  O8       1.0000 0.22313  0.37636  0.09239  Biso   1.000  O
  O9       1.0000 0.53267  0.16515  0.33170  Biso   1.000  O
  O10      1.0000 0.53293  0.08469  0.83116  Biso   1.000  O
  O11      1.0000 0.96720  0.41637  0.33025  Biso   1.000  O
  O12      1.0000 0.96760  0.33545  0.82996  Biso   1.000  O
  O13      1.0000 0.77588  0.12476  0.90803  Biso   1.000  O
  O14      1.0000 0.77560  0.12606  0.40817  Biso   1.000  O
  O15      1.0000 0.72371  0.37435  0.90819  Biso   1.000  O
  O16      1.0000 0.72428  0.37621  0.40872  Biso   1.000  O
  Hf8      1.0000 0.14022  0.52078  0.34489  Biso   1.000  Hf
  Hf9      1.0000 0.14167  0.73085  0.84412  Biso   1.000  Hf
  Hf10     1.0000 0.35956  0.77296  0.34359  Biso   1.000  Hf
  Hf11     1.0000 0.35805  0.98012  0.84363  Biso   1.000  Hf
  Hf12     1.0000 0.63825  0.52052  0.15675  Biso   1.000  Hf
  Hf13     1.0000 0.63840  0.72991  0.65570  Biso   1.000  Hf
  Hf14     1.0000 0.86092  0.77168  0.15647  Biso   1.000  Hf
  Hf15     1.0000 0.86259  0.97954  0.65271  Biso   1.000  Hf
  O17      1.0000 0.03277  0.66550  0.17017  Biso   1.000  O
  O18      1.0000 0.03274  0.58493  0.67002  Biso   1.000  O
  O19      1.0000 0.46864  0.91466  0.16675  Biso   1.000  O
  O20      1.0000 0.46820  0.83643  0.66665  Biso   1.000  O
  O21      1.0000 0.27667  0.62344  0.59206  Biso   1.000  O
  O22      1.0000 0.27626  0.62511  0.09262  Biso   1.000  O
  O23      1.0000 0.22477  0.87267  0.59132  Biso   1.000  O
  O24      1.0000 0.22655  0.87390  0.08819  Biso   1.000  O
  O25      1.0000 0.53196  0.66455  0.33311  Biso   1.000  O
  O26      1.0000 0.53193  0.58526  0.83327  Biso   1.000  O
  O27      1.0000 0.96582  0.91494  0.33056  Biso   1.000  O
  O28      1.0000 0.96785  0.83404  0.83021  Biso   1.000  O
  O29      1.0000 0.77549  0.62390  0.90869  Biso   1.000  O
  O30      1.0000 0.77594  0.62628  0.40871  Biso   1.000  O
  O31      1.0000 0.72483  0.87432  0.90733  Biso   1.000  O
  O32      1.0000 0.72246  0.87577  0.40723  Biso   1.000  O
