data_image0
_cell_length_a       10.1371
_cell_length_b       10.3344
_cell_length_c       5.28851
_cell_angle_alpha    90.0938
_cell_angle_beta     79.2106
_cell_angle_gamma    91.1187

_symmetry_space_group_name_H-M    "P 1"
_symmetry_int_tables_number       1

loop_
  _symmetry_equiv_pos_as_xyz
  'x, y, z'

loop_
  _atom_site_label
  _atom_site_occupancy
  _atom_site_fract_x
  _atom_site_fract_y
  _atom_site_fract_z
  _atom_site_thermal_displace_type
  _atom_site_B_iso_or_equiv
  _atom_site_type_symbol
  Hf1      1.0000 0.13987  0.02295  0.29570  Biso   1.000  Hf
  Hf2      1.0000 0.13362  0.23073  0.78871  Biso   1.000  Hf
  Hf3      1.0000 0.34028  0.27791  0.18142  Biso   1.000  Hf
  Hf4      1.0000 0.34951  0.48674  0.70512  Biso   1.000  Hf
  O1       1.0000 0.03747  0.17183  0.16529  Biso   1.000  O
  O2       1.0000 0.03869  0.07921  0.65953  Biso   1.000  O
  O3       1.0000 0.45479  0.42533  0.33692  Biso   1.000  O
  O4       1.0000 0.46396  0.34005  0.85105  Biso   1.000  O
  O5       1.0000 0.28859  0.13374  0.48351  Biso   1.000  O
  O6       1.0000 0.27333  0.12199  0.97482  Biso   1.000  O
  O7       1.0000 0.20772  0.38745  0.00501  Biso   1.000  O
  O8       1.0000 0.20944  0.37457  0.50754  Biso   1.000  O
  Hf5      1.0000 0.13313  0.52489  0.29521  Biso   1.000  Hf
  Hf6      1.0000 0.13500  0.72951  0.79659  Biso   1.000  Hf
  Hf7      1.0000 0.35995  0.77356  0.20931  Biso   1.000  Hf
  Hf8      1.0000 0.35847  0.97622  0.71029  Biso   1.000  Hf
  O9       1.0000 0.03014  0.66830  0.16185  Biso   1.000  O
  O10      1.0000 0.02884  0.58276  0.66439  Biso   1.000  O
  O11      1.0000 0.46618  0.91564  0.35123  Biso   1.000  O
  O12      1.0000 0.46397  0.83227  0.84801  Biso   1.000  O
  O13      1.0000 0.27114  0.63121  0.48497  Biso   1.000  O
  O14      1.0000 0.27160  0.62581  0.98444  Biso   1.000  O
  O15      1.0000 0.22220  0.88018  0.02310  Biso   1.000  O
  O16      1.0000 0.22061  0.87107  0.51976  Biso   1.000  O
  Hf9      1.0000 0.64506  0.01333  0.30478  Biso   1.000  Hf
  Hf10     1.0000 0.65428  0.22217  0.82847  Biso   1.000  Hf
  Hf11     1.0000 0.86095  0.26934  0.22119  Biso   1.000  Hf
  Hf12     1.0000 0.85469  0.47713  0.71421  Biso   1.000  Hf
  O17      1.0000 0.53061  0.16002  0.15885  Biso   1.000  O
  O18      1.0000 0.53978  0.07476  0.67298  Biso   1.000  O
  O19      1.0000 0.95588  0.42086  0.35037  Biso   1.000  O
  O20      1.0000 0.95710  0.32824  0.84462  Biso   1.000  O
  O21      1.0000 0.78512  0.12551  0.50235  Biso   1.000  O
  O22      1.0000 0.78685  0.11263  0.00489  Biso   1.000  O
  O23      1.0000 0.72123  0.37809  0.03507  Biso   1.000  O
  O24      1.0000 0.70597  0.36633  0.52638  Biso   1.000  O
  Hf13     1.0000 0.63610  0.52385  0.29962  Biso   1.000  Hf
  Hf14     1.0000 0.63462  0.72652  0.80060  Biso   1.000  Hf
  Hf15     1.0000 0.85957  0.77056  0.21333  Biso   1.000  Hf
  Hf16     1.0000 0.86144  0.97518  0.71470  Biso   1.000  Hf
  O25      1.0000 0.53060  0.66781  0.16190  Biso   1.000  O
  O26      1.0000 0.52839  0.58443  0.65868  Biso   1.000  O
  O27      1.0000 0.96572  0.91731  0.34553  Biso   1.000  O
  O28      1.0000 0.96443  0.83178  0.84807  Biso   1.000  O
  O29      1.0000 0.77395  0.62900  0.49016  Biso   1.000  O
  O30      1.0000 0.77237  0.61989  0.98682  Biso   1.000  O
  O31      1.0000 0.72297  0.87427  0.02547  Biso   1.000  O
  O32      1.0000 0.72342  0.86887  0.52495  Biso   1.000  O
  Sc1      1.0000 0.49728  0.25004  0.50494  Biso   1.000  Sc
