data_image0
_cell_length_a       5.07528
_cell_length_b       10.3393
_cell_length_c       10.1023
_cell_angle_alpha    90.7188
_cell_angle_beta     90.5753
_cell_angle_gamma    92.5637

_symmetry_space_group_name_H-M    "P 1"
_symmetry_int_tables_number       1

loop_
  _symmetry_equiv_pos_as_xyz
  'x, y, z'

loop_
  _atom_site_label
  _atom_site_occupancy
  _atom_site_fract_x
  _atom_site_fract_y
  _atom_site_fract_z
  _atom_site_thermal_displace_type
  _atom_site_B_iso_or_equiv
  _atom_site_type_symbol
  Hf1      1.0000 0.25103  0.97507  0.08859  Biso   1.000  Hf
  Hf2      1.0000 0.24051  0.23747  0.38304  Biso   1.000  Hf
  Hf3      1.0000 0.69373  0.25159  0.10691  Biso   1.000  Hf
  Hf4      1.0000 0.75121  0.48142  0.36366  Biso   1.000  Hf
  O1       1.0000 0.92138  0.17729  0.25764  Biso   1.000  O
  O2       1.0000 0.02093  0.08225  0.47777  Biso   1.000  O
  O3       1.0000 0.94746  0.41850  0.19544  Biso   1.000  O
  O4       1.0000 0.94981  0.33670  0.46729  Biso   1.000  O
  O5       1.0000 0.42467  0.11513  0.22712  Biso   1.000  O
  O6       1.0000 0.51798  0.13468  0.48267  Biso   1.000  O
  O7       1.0000 0.47281  0.38683  0.49093  Biso   1.000  O
  O8       1.0000 0.44858  0.36514  0.24105  Biso   1.000  O
  Hf5      1.0000 0.26373  0.98077  0.59328  Biso   1.000  Hf
  Hf6      1.0000 0.23294  0.25895  0.83480  Biso   1.000  Hf
  Hf7      1.0000 0.72635  0.26004  0.61299  Biso   1.000  Hf
  Hf8      1.0000 0.75154  0.48374  0.87753  Biso   1.000  Hf
  O9       1.0000 0.93314  0.16050  0.74341  Biso   1.000  O
  O10      1.0000 0.94031  0.08548  0.00818  Biso   1.000  O
  O11      1.0000 0.00587  0.40804  0.71992  Biso   1.000  O
  O12      1.0000 0.92812  0.32462  0.95391  Biso   1.000  O
  O13      1.0000 0.44608  0.11608  0.72599  Biso   1.000  O
  O14      1.0000 0.43483  0.13510  0.97404  Biso   1.000  O
  O15      1.0000 0.44638  0.38480  0.98932  Biso   1.000  O
  O16      1.0000 0.50707  0.37106  0.73599  Biso   1.000  O
  Hf9      1.0000 0.28030  0.52421  0.12351  Biso   1.000  Hf
  Hf10     1.0000 0.30681  0.73632  0.37384  Biso   1.000  Hf
  Hf11     1.0000 0.76777  0.76639  0.12663  Biso   1.000  Hf
  Hf12     1.0000 0.71940  0.01996  0.33905  Biso   1.000  Hf
  O17      1.0000 0.07827  0.67468  0.20973  Biso   1.000  O
  O18      1.0000 0.08114  0.57446  0.44801  Biso   1.000  O
  O19      1.0000 0.97336  0.91976  0.22653  Biso   1.000  O
  O20      1.0000 0.05633  0.82599  0.49390  Biso   1.000  O
  O21      1.0000 0.56474  0.61941  0.24732  Biso   1.000  O
  O22      1.0000 0.56352  0.63712  0.49569  Biso   1.000  O
  O23      1.0000 0.54980  0.88804  0.48303  Biso   1.000  O
  O24      1.0000 0.48375  0.86582  0.23302  Biso   1.000  O
  Hf13     1.0000 0.28279  0.51796  0.61687  Biso   1.000  Hf
  Hf14     1.0000 0.30487  0.73169  0.87080  Biso   1.000  Hf
  Hf15     1.0000 0.77087  0.76585  0.62723  Biso   1.000  Hf
  Hf16     1.0000 0.71414  0.01835  0.84770  Biso   1.000  Hf
  O25      1.0000 0.07731  0.66785  0.70693  Biso   1.000  O
  O26      1.0000 0.08296  0.57498  0.95232  Biso   1.000  O
  O27      1.0000 0.97032  0.92121  0.72657  Biso   1.000  O
  O28      1.0000 0.04302  0.82652  0.98518  Biso   1.000  O
  O29      1.0000 0.56080  0.61395  0.74544  Biso   1.000  O
  O30      1.0000 0.56828  0.63433  0.99469  Biso   1.000  O
  O31      1.0000 0.54012  0.88230  0.98187  Biso   1.000  O
  O32      1.0000 0.48309  0.86282  0.73419  Biso   1.000  O
  Sc1      1.0000 0.19057  0.24975  0.10706  Biso   1.000  Sc
