data_image0
_cell_length_a       10.0088
_cell_length_b       10.3913
_cell_length_c       10.0601
_cell_angle_alpha    89.7799
_cell_angle_beta     90.0091
_cell_angle_gamma    89.7148

_symmetry_space_group_name_H-M    "P 1"
_symmetry_int_tables_number       1

loop_
  _symmetry_equiv_pos_as_xyz
  'x, y, z'

loop_
  _atom_site_label
  _atom_site_occupancy
  _atom_site_fract_x
  _atom_site_fract_y
  _atom_site_fract_z
  _atom_site_thermal_displace_type
  _atom_site_B_iso_or_equiv
  _atom_site_type_symbol
  Hf1      1.0000 0.12830  0.00512  0.12241  Biso   1.000  Hf
  Hf2      1.0000 0.13130  0.22936  0.38796  Biso   1.000  Hf
  Hf3      1.0000 0.37871  0.27204  0.11833  Biso   1.000  Hf
  Hf4      1.0000 0.36636  0.48418  0.37417  Biso   1.000  Hf
  O1       1.0000 0.99836  0.15725  0.23272  Biso   1.000  O
  O2       1.0000 0.03588  0.06249  0.45788  Biso   1.000  O
  O3       1.0000 0.46792  0.43731  0.19614  Biso   1.000  O
  O4       1.0000 0.46665  0.31908  0.44649  Biso   1.000  O
  O5       1.0000 0.25163  0.12298  0.24325  Biso   1.000  O
  O6       1.0000 0.27432  0.13100  0.49894  Biso   1.000  O
  O7       1.0000 0.23164  0.38286  0.49896  Biso   1.000  O
  O8       1.0000 0.23272  0.36982  0.24885  Biso   1.000  O
  Hf5      1.0000 0.13537  0.01019  0.62708  Biso   1.000  Hf
  Hf6      1.0000 0.13434  0.23511  0.85351  Biso   1.000  Hf
  Hf7      1.0000 0.37207  0.26725  0.62230  Biso   1.000  Hf
  Hf8      1.0000 0.36876  0.48705  0.87249  Biso   1.000  Hf
  O9       1.0000 0.03269  0.17697  0.68949  Biso   1.000  O
  O10      1.0000 0.03148  0.06797  0.94782  Biso   1.000  O
  O11      1.0000 0.46898  0.43404  0.69366  Biso   1.000  O
  O12      1.0000 0.46959  0.32064  0.94036  Biso   1.000  O
  O13      1.0000 0.27133  0.11568  0.74555  Biso   1.000  O
  O14      1.0000 0.26093  0.14312  0.99731  Biso   1.000  O
  O15      1.0000 0.23450  0.39215  0.99587  Biso   1.000  O
  O16      1.0000 0.23759  0.36871  0.74460  Biso   1.000  O
  Hf9      1.0000 0.13850  0.52962  0.12509  Biso   1.000  Hf
  Hf10     1.0000 0.13457  0.73456  0.37735  Biso   1.000  Hf
  Hf11     1.0000 0.36867  0.76761  0.12417  Biso   1.000  Hf
  Hf12     1.0000 0.36378  0.98746  0.37151  Biso   1.000  Hf
  O17      1.0000 0.03137  0.68183  0.20236  Biso   1.000  O
  O18      1.0000 0.03568  0.56729  0.44714  Biso   1.000  O
  O19      1.0000 0.45963  0.93609  0.19336  Biso   1.000  O
  O20      1.0000 0.46634  0.82072  0.44419  Biso   1.000  O
  O21      1.0000 0.27516  0.62266  0.24937  Biso   1.000  O
  O22      1.0000 0.27089  0.63311  0.49913  Biso   1.000  O
  O23      1.0000 0.23274  0.88312  0.49775  Biso   1.000  O
  O24      1.0000 0.22976  0.86613  0.24877  Biso   1.000  O
  Hf13     1.0000 0.13488  0.51635  0.62444  Biso   1.000  Hf
  Hf14     1.0000 0.13271  0.73497  0.87210  Biso   1.000  Hf
  Hf15     1.0000 0.36946  0.76686  0.62333  Biso   1.000  Hf
  Hf16     1.0000 0.36642  0.98568  0.87546  Biso   1.000  Hf
  O25      1.0000 0.03574  0.68168  0.69424  Biso   1.000  O
  O26      1.0000 0.03481  0.56976  0.94728  Biso   1.000  O
  O27      1.0000 0.46706  0.93354  0.69719  Biso   1.000  O
  O28      1.0000 0.46825  0.81998  0.94551  Biso   1.000  O
  O29      1.0000 0.27048  0.61715  0.74702  Biso   1.000  O
  O30      1.0000 0.27106  0.63930  0.99637  Biso   1.000  O
  O31      1.0000 0.23242  0.88420  0.99674  Biso   1.000  O
  O32      1.0000 0.23429  0.86503  0.74850  Biso   1.000  O
  Hf17     1.0000 0.63026  0.01245  0.12421  Biso   1.000  Hf
  Hf18     1.0000 0.63190  0.23153  0.37678  Biso   1.000  Hf
  Hf19     1.0000 0.84962  0.26134  0.12850  Biso   1.000  Hf
  Hf20     1.0000 0.86980  0.48144  0.37374  Biso   1.000  Hf
  O33      1.0000 0.53112  0.17881  0.20236  Biso   1.000  O
  O34      1.0000 0.53240  0.06706  0.44820  Biso   1.000  O
  O35      1.0000 0.97367  0.42040  0.19630  Biso   1.000  O
  O36      1.0000 0.96655  0.32027  0.45434  Biso   1.000  O
  O37      1.0000 0.75511  0.11091  0.25031  Biso   1.000  O
  O38      1.0000 0.77067  0.13501  0.49789  Biso   1.000  O
  O39      1.0000 0.73238  0.38443  0.50010  Biso   1.000  O
  O40      1.0000 0.72709  0.36903  0.25276  Biso   1.000  O
  Hf21     1.0000 0.63522  0.01420  0.62325  Biso   1.000  Hf
  Hf22     1.0000 0.63562  0.23239  0.87285  Biso   1.000  Hf
  Hf23     1.0000 0.86355  0.26630  0.62549  Biso   1.000  Hf
  Hf24     1.0000 0.86909  0.48091  0.87838  Biso   1.000  Hf
  O41      1.0000 0.53844  0.18313  0.69471  Biso   1.000  O
  O42      1.0000 0.53019  0.07160  0.94801  Biso   1.000  O
  O43      1.0000 0.97289  0.42694  0.70518  Biso   1.000  O
  O44      1.0000 0.96944  0.31243  0.95464  Biso   1.000  O
  O45      1.0000 0.77121  0.11485  0.74797  Biso   1.000  O
  O46      1.0000 0.76724  0.12880  0.99801  Biso   1.000  O
  O47      1.0000 0.72784  0.38210  0.99903  Biso   1.000  O
  O48      1.0000 0.73304  0.36706  0.75033  Biso   1.000  O
  Hf25     1.0000 0.63471  0.51844  0.12517  Biso   1.000  Hf
  Hf26     1.0000 0.63476  0.73501  0.37559  Biso   1.000  Hf
  Hf27     1.0000 0.86284  0.76287  0.12585  Biso   1.000  Hf
  Hf28     1.0000 0.87271  0.98925  0.36923  Biso   1.000  Hf
  O49      1.0000 0.53831  0.68644  0.19414  Biso   1.000  O
  O50      1.0000 0.53500  0.56880  0.44507  Biso   1.000  O
  O51      1.0000 0.96127  0.92443  0.19425  Biso   1.000  O
  O52      1.0000 0.96726  0.81903  0.44657  Biso   1.000  O
  O53      1.0000 0.77142  0.61479  0.24836  Biso   1.000  O
  O54      1.0000 0.77123  0.63387  0.49779  Biso   1.000  O
  O55      1.0000 0.73415  0.88606  0.49615  Biso   1.000  O
  O56      1.0000 0.72813  0.86488  0.24734  Biso   1.000  O
  Hf29     1.0000 0.63646  0.51734  0.62411  Biso   1.000  Hf
  Hf30     1.0000 0.63529  0.73350  0.87396  Biso   1.000  Hf
  Hf31     1.0000 0.86716  0.76656  0.62305  Biso   1.000  Hf
  Hf32     1.0000 0.86704  0.98172  0.87609  Biso   1.000  Hf
  O57      1.0000 0.53743  0.68396  0.69470  Biso   1.000  O
  O58      1.0000 0.53517  0.56968  0.94607  Biso   1.000  O
  O59      1.0000 0.96942  0.92782  0.70184  Biso   1.000  O
  O60      1.0000 0.96718  0.81650  0.94973  Biso   1.000  O
  O61      1.0000 0.77309  0.61479  0.74886  Biso   1.000  O
  O62      1.0000 0.77067  0.63108  0.99762  Biso   1.000  O
  O63      1.0000 0.72973  0.88085  0.99761  Biso   1.000  O
  O64      1.0000 0.73168  0.86551  0.74701  Biso   1.000  O
  Sc1      1.0000 0.11405  0.26853  0.11351  Biso   1.000  Sc
