data_image0
_cell_length_a       10.1524
_cell_length_b       5.12335
_cell_length_c       10.4373
_cell_angle_alpha    89.993
_cell_angle_beta     80.0886
_cell_angle_gamma    90.0314

_symmetry_space_group_name_H-M    "P 1"
_symmetry_int_tables_number       1

loop_
  _symmetry_equiv_pos_as_xyz
  'x, y, z'

loop_
  _atom_site_label
  _atom_site_occupancy
  _atom_site_fract_x
  _atom_site_fract_y
  _atom_site_fract_z
  _atom_site_thermal_displace_type
  _atom_site_B_iso_or_equiv
  _atom_site_type_symbol
  Sc1      1.0000 0.13923  0.03977  0.14675  Biso   1.000  Sc
  Hf1      1.0000 0.14068  0.45514  0.39360  Biso   1.000  Hf
  Hf2      1.0000 0.35704  0.53966  0.10459  Biso   1.000  Hf
  Hf3      1.0000 0.35856  0.95817  0.35216  Biso   1.000  Hf
  O1       1.0000 0.03460  0.33731  0.07984  Biso   1.000  O
  O2       1.0000 0.03337  0.16696  0.33141  Biso   1.000  O
  O3       1.0000 0.46626  0.83207  0.17023  Biso   1.000  O
  O4       1.0000 0.46504  0.66552  0.42073  Biso   1.000  O
  O5       1.0000 0.27834  0.25662  0.24223  Biso   1.000  O
  O6       1.0000 0.27605  0.24258  0.49142  Biso   1.000  O
  O7       1.0000 0.22539  0.75506  0.00763  Biso   1.000  O
  O8       1.0000 0.22486  0.73862  0.25959  Biso   1.000  O
  Hf4      1.0000 0.13968  0.04283  0.64609  Biso   1.000  Hf
  Hf5      1.0000 0.14053  0.45755  0.89854  Biso   1.000  Hf
  Hf6      1.0000 0.36008  0.54352  0.60414  Biso   1.000  Hf
  Hf7      1.0000 0.35914  0.95800  0.85630  Biso   1.000  Hf
  O9       1.0000 0.03491  0.33692  0.58034  Biso   1.000  O
  O10      1.0000 0.03456  0.16409  0.83009  Biso   1.000  O
  O11      1.0000 0.46532  0.83513  0.67087  Biso   1.000  O
  O12      1.0000 0.46734  0.66785  0.92078  Biso   1.000  O
  O13      1.0000 0.27608  0.25794  0.74083  Biso   1.000  O
  O14      1.0000 0.27903  0.24502  0.98917  Biso   1.000  O
  O15      1.0000 0.22343  0.75828  0.50935  Biso   1.000  O
  O16      1.0000 0.22356  0.74331  0.75895  Biso   1.000  O
  Hf8      1.0000 0.63894  0.04124  0.14603  Biso   1.000  Hf
  Hf9      1.0000 0.63873  0.45825  0.39564  Biso   1.000  Hf
  Hf10     1.0000 0.86238  0.54217  0.10417  Biso   1.000  Hf
  Hf11     1.0000 0.86251  0.95886  0.35222  Biso   1.000  Hf
  O17      1.0000 0.53438  0.33453  0.07967  Biso   1.000  O
  O18      1.0000 0.53420  0.16439  0.32967  Biso   1.000  O
  O19      1.0000 0.96350  0.83635  0.17010  Biso   1.000  O
  O20      1.0000 0.96567  0.66433  0.41960  Biso   1.000  O
  O21      1.0000 0.77548  0.25797  0.24074  Biso   1.000  O
  O22      1.0000 0.77553  0.24355  0.49069  Biso   1.000  O
  O23      1.0000 0.72414  0.75725  0.00899  Biso   1.000  O
  O24      1.0000 0.72230  0.74226  0.25960  Biso   1.000  O
  Hf12     1.0000 0.63902  0.04224  0.64588  Biso   1.000  Hf
  Hf13     1.0000 0.63900  0.45797  0.89664  Biso   1.000  Hf
  Hf14     1.0000 0.86074  0.54216  0.60340  Biso   1.000  Hf
  Hf15     1.0000 0.86066  0.95783  0.85425  Biso   1.000  Hf
  O25      1.0000 0.53414  0.33565  0.58003  Biso   1.000  O
  O26      1.0000 0.53500  0.16463  0.82974  Biso   1.000  O
  O27      1.0000 0.96504  0.83709  0.66937  Biso   1.000  O
  O28      1.0000 0.96514  0.66374  0.91907  Biso   1.000  O
  O29      1.0000 0.77634  0.25767  0.74037  Biso   1.000  O
  O30      1.0000 0.77592  0.24141  0.99041  Biso   1.000  O
  O31      1.0000 0.72402  0.75814  0.50914  Biso   1.000  O
  O32      1.0000 0.72413  0.74239  0.75893  Biso   1.000  O
