data_image0
_cell_length_a       10.0202
_cell_length_b       10.2484
_cell_length_c       10.5365
_cell_angle_alpha    89.9388
_cell_angle_beta     90.6742
_cell_angle_gamma    90.3597

_symmetry_space_group_name_H-M    "P 1"
_symmetry_int_tables_number       1

loop_
  _symmetry_equiv_pos_as_xyz
  'x, y, z'

loop_
  _atom_site_label
  _atom_site_occupancy
  _atom_site_fract_x
  _atom_site_fract_y
  _atom_site_fract_z
  _atom_site_thermal_displace_type
  _atom_site_B_iso_or_equiv
  _atom_site_type_symbol
  Hf1      1.0000 0.13946  0.02118  0.17200  Biso   1.000  Hf
  Hf2      1.0000 0.13806  0.22764  0.42627  Biso   1.000  Hf
  Hf3      1.0000 0.34891  0.27522  0.19263  Biso   1.000  Hf
  Hf4      1.0000 0.36119  0.48183  0.42637  Biso   1.000  Hf
  Hf5      1.0000 0.64634  0.01533  0.07739  Biso   1.000  Hf
  Hf6      1.0000 0.63905  0.22730  0.33017  Biso   1.000  Hf
  Hf7      1.0000 0.86086  0.26890  0.07933  Biso   1.000  Hf
  Hf8      1.0000 0.86122  0.47855  0.32851  Biso   1.000  Hf
  O1       1.0000 0.03808  0.16536  0.08365  Biso   1.000  O
  O2       1.0000 0.03279  0.08649  0.33230  Biso   1.000  O
  O3       1.0000 0.46089  0.42492  0.09413  Biso   1.000  O
  O4       1.0000 0.46708  0.33511  0.34197  Biso   1.000  O
  O5       1.0000 0.27295  0.12252  0.30034  Biso   1.000  O
  O6       1.0000 0.29137  0.13462  0.04262  Biso   1.000  O
  O7       1.0000 0.21581  0.37985  0.30544  Biso   1.000  O
  O8       1.0000 0.21708  0.38075  0.05073  Biso   1.000  O
  O9       1.0000 0.52832  0.16108  0.17413  Biso   1.000  O
  O10      1.0000 0.53304  0.08326  0.41803  Biso   1.000  O
  O11      1.0000 0.96536  0.41460  0.16915  Biso   1.000  O
  O12      1.0000 0.96878  0.33667  0.41927  Biso   1.000  O
  O13      1.0000 0.77750  0.12398  0.45242  Biso   1.000  O
  O14      1.0000 0.77877  0.12598  0.20423  Biso   1.000  O
  O15      1.0000 0.72450  0.37403  0.45530  Biso   1.000  O
  O16      1.0000 0.72139  0.37471  0.20621  Biso   1.000  O
  Hf9      1.0000 0.14164  0.02145  0.67407  Biso   1.000  Hf
  Hf10     1.0000 0.14200  0.23110  0.92325  Biso   1.000  Hf
  Hf11     1.0000 0.36381  0.27270  0.67242  Biso   1.000  Hf
  Hf12     1.0000 0.35652  0.48468  0.92520  Biso   1.000  Hf
  Hf13     1.0000 0.64166  0.01818  0.57622  Biso   1.000  Hf
  Hf14     1.0000 0.65396  0.22478  0.80996  Biso   1.000  Hf
  Hf15     1.0000 0.86480  0.27236  0.57631  Biso   1.000  Hf
  Hf16     1.0000 0.86339  0.47882  0.83059  Biso   1.000  Hf
  O17      1.0000 0.03408  0.16333  0.58331  Biso   1.000  O
  O18      1.0000 0.03751  0.08540  0.83344  Biso   1.000  O
  O19      1.0000 0.46983  0.41675  0.58456  Biso   1.000  O
  O20      1.0000 0.47454  0.33893  0.82846  Biso   1.000  O
  O21      1.0000 0.28147  0.12530  0.79636  Biso   1.000  O
  O22      1.0000 0.27836  0.12598  0.54727  Biso   1.000  O
  O23      1.0000 0.22409  0.37402  0.79835  Biso   1.000  O
  O24      1.0000 0.22536  0.37602  0.55016  Biso   1.000  O
  O25      1.0000 0.53579  0.16490  0.66062  Biso   1.000  O
  O26      1.0000 0.54198  0.07508  0.90845  Biso   1.000  O
  O27      1.0000 0.97007  0.41351  0.67029  Biso   1.000  O
  O28      1.0000 0.96479  0.33465  0.91894  Biso   1.000  O
  O29      1.0000 0.78579  0.11926  0.95185  Biso   1.000  O
  O30      1.0000 0.78705  0.12016  0.69714  Biso   1.000  O
  O31      1.0000 0.71151  0.36540  0.95995  Biso   1.000  O
  O32      1.0000 0.72991  0.37748  0.70224  Biso   1.000  O
  Hf17     1.0000 0.13813  0.52301  0.17368  Biso   1.000  Hf
  Hf18     1.0000 0.13892  0.72922  0.42273  Biso   1.000  Hf
  Hf19     1.0000 0.36302  0.77301  0.17404  Biso   1.000  Hf
  Hf20     1.0000 0.36170  0.97726  0.42475  Biso   1.000  Hf
  Hf21     1.0000 0.63999  0.52278  0.08007  Biso   1.000  Hf
  Hf22     1.0000 0.63985  0.72909  0.32886  Biso   1.000  Hf
  Hf23     1.0000 0.86349  0.76948  0.07990  Biso   1.000  Hf
  Hf24     1.0000 0.86289  0.97888  0.32941  Biso   1.000  Hf
  O33      1.0000 0.03376  0.66469  0.08290  Biso   1.000  O
  O34      1.0000 0.03086  0.58818  0.33303  Biso   1.000  O
  O35      1.0000 0.46989  0.91568  0.08331  Biso   1.000  O
  O36      1.0000 0.46922  0.83631  0.33447  Biso   1.000  O
  O37      1.0000 0.27672  0.62603  0.29683  Biso   1.000  O
  O38      1.0000 0.27634  0.62990  0.04578  Biso   1.000  O
  O39      1.0000 0.22441  0.87420  0.29721  Biso   1.000  O
  O40      1.0000 0.22413  0.87844  0.04770  Biso   1.000  O
  O41      1.0000 0.53416  0.66773  0.16829  Biso   1.000  O
  O42      1.0000 0.53309  0.58735  0.41877  Biso   1.000  O
  O43      1.0000 0.96932  0.91430  0.16894  Biso   1.000  O
  O44      1.0000 0.96896  0.83680  0.41955  Biso   1.000  O
  O45      1.0000 0.77791  0.62409  0.45481  Biso   1.000  O
  O46      1.0000 0.77727  0.62574  0.20548  Biso   1.000  O
  O47      1.0000 0.72584  0.87369  0.45594  Biso   1.000  O
  O48      1.0000 0.72758  0.87423  0.20662  Biso   1.000  O
  Hf25     1.0000 0.13996  0.52112  0.67317  Biso   1.000  Hf
  Hf26     1.0000 0.13937  0.73052  0.92268  Biso   1.000  Hf
  Hf27     1.0000 0.36302  0.77091  0.67373  Biso   1.000  Hf
  Hf28     1.0000 0.36288  0.97723  0.92252  Biso   1.000  Hf
  Hf29     1.0000 0.64116  0.52274  0.57783  Biso   1.000  Hf
  Hf30     1.0000 0.63984  0.72700  0.82854  Biso   1.000  Hf
  Hf31     1.0000 0.86394  0.77079  0.57985  Biso   1.000  Hf
  Hf32     1.0000 0.86474  0.97700  0.82891  Biso   1.000  Hf
  O49      1.0000 0.03390  0.66321  0.58304  Biso   1.000  O
  O50      1.0000 0.03354  0.58571  0.83365  Biso   1.000  O
  O51      1.0000 0.46977  0.91266  0.58382  Biso   1.000  O
  O52      1.0000 0.46870  0.83228  0.83429  Biso   1.000  O
  O53      1.0000 0.27528  0.62577  0.79597  Biso   1.000  O
  O54      1.0000 0.27702  0.62631  0.54664  Biso   1.000  O
  O55      1.0000 0.22559  0.87427  0.79711  Biso   1.000  O
  O56      1.0000 0.22495  0.87591  0.54778  Biso   1.000  O
  O57      1.0000 0.53364  0.66369  0.66811  Biso   1.000  O
  O58      1.0000 0.53297  0.58433  0.91927  Biso   1.000  O
  O59      1.0000 0.97200  0.91182  0.66956  Biso   1.000  O
  O60      1.0000 0.96911  0.83531  0.91969  Biso   1.000  O
  O61      1.0000 0.77873  0.62158  0.95488  Biso   1.000  O
  O62      1.0000 0.77846  0.62580  0.70537  Biso   1.000  O
  O63      1.0000 0.72652  0.87011  0.95680  Biso   1.000  O
  O64      1.0000 0.72615  0.87398  0.70575  Biso   1.000  O
  Sc1      1.0000 0.50143  0.25000  0.00129  Biso   1.000  Sc
