data_image0
_cell_length_a       10.0475
_cell_length_b       10.2161
_cell_length_c       10.0475
_cell_angle_alpha    90.0001
_cell_angle_beta     90
_cell_angle_gamma    90

_symmetry_space_group_name_H-M    "P 1"
_symmetry_int_tables_number       1

loop_
  _symmetry_equiv_pos_as_xyz
  'x, y, z'

loop_
  _atom_site_label
  _atom_site_occupancy
  _atom_site_fract_x
  _atom_site_fract_y
  _atom_site_fract_z
  _atom_site_thermal_displace_type
  _atom_site_B_iso_or_equiv
  _atom_site_type_symbol
  Hf1      1.0000 0.12491  0.97812  0.12491  Biso   1.000  Hf
  Hf2      1.0000 0.12491  0.25005  0.38935  Biso   1.000  Hf
  Hf3      1.0000 0.38935  0.25005  0.12491  Biso   1.000  Hf
  Hf4      1.0000 0.37415  0.00559  0.37415  Biso   1.000  Hf
  O1       1.0000 0.98989  0.15037  0.98989  Biso   1.000  O
  O2       1.0000 0.00713  0.10358  0.24268  Biso   1.000  O
  O3       1.0000 0.98989  0.34974  0.25992  Biso   1.000  O
  O4       1.0000 0.00713  0.39653  0.00713  Biso   1.000  O
  O5       1.0000 0.25992  0.15036  0.25992  Biso   1.000  O
  O6       1.0000 0.24268  0.10358  0.00712  Biso   1.000  O
  O7       1.0000 0.25992  0.34974  0.98989  Biso   1.000  O
  O8       1.0000 0.24269  0.39652  0.24269  Biso   1.000  O
  Hf5      1.0000 0.12491  0.99486  0.62491  Biso   1.000  Hf
  Hf6      1.0000 0.12491  0.25005  0.86046  Biso   1.000  Hf
  Hf7      1.0000 0.37701  0.25006  0.62490  Biso   1.000  Hf
  Hf8      1.0000 0.37138  0.00444  0.87844  Biso   1.000  Hf
  O9       1.0000 0.99232  0.14377  0.49755  Biso   1.000  O
  O10      1.0000 0.00232  0.10358  0.74468  Biso   1.000  O
  O11      1.0000 0.99232  0.35633  0.75226  Biso   1.000  O
  O12      1.0000 0.00232  0.39653  0.50514  Biso   1.000  O
  O13      1.0000 0.25750  0.14377  0.75226  Biso   1.000  O
  O14      1.0000 0.24750  0.10357  0.50514  Biso   1.000  O
  O15      1.0000 0.25750  0.35633  0.49755  Biso   1.000  O
  O16      1.0000 0.24750  0.39653  0.74467  Biso   1.000  O
  Hf9      1.0000 0.12491  0.52199  0.12491  Biso   1.000  Hf
  Hf10     1.0000 0.12491  0.75005  0.37980  Biso   1.000  Hf
  Hf11     1.0000 0.37980  0.75005  0.12491  Biso   1.000  Hf
  Hf12     1.0000 0.37137  0.49567  0.37137  Biso   1.000  Hf
  O17      1.0000 0.00050  0.64882  0.00050  Biso   1.000  O
  O18      1.0000 0.99637  0.60673  0.25345  Biso   1.000  O
  O19      1.0000 0.00050  0.85129  0.24932  Biso   1.000  O
  O20      1.0000 0.99637  0.89338  0.99637  Biso   1.000  O
  O21      1.0000 0.24932  0.64882  0.24932  Biso   1.000  O
  O22      1.0000 0.25345  0.60673  0.99637  Biso   1.000  O
  O23      1.0000 0.24932  0.85129  0.00050  Biso   1.000  O
  O24      1.0000 0.25345  0.89337  0.25345  Biso   1.000  O
  Hf13     1.0000 0.12491  0.50525  0.62491  Biso   1.000  Hf
  Hf14     1.0000 0.12491  0.75005  0.87002  Biso   1.000  Hf
  Hf15     1.0000 0.37709  0.75005  0.62491  Biso   1.000  Hf
  Hf16     1.0000 0.37415  0.49452  0.87566  Biso   1.000  Hf
  O25      1.0000 0.99910  0.64654  0.50272  Biso   1.000  O
  O26      1.0000 0.00238  0.60395  0.75331  Biso   1.000  O
  O27      1.0000 0.99910  0.85357  0.74710  Biso   1.000  O
  O28      1.0000 0.00238  0.89616  0.49651  Biso   1.000  O
  O29      1.0000 0.25071  0.64654  0.74710  Biso   1.000  O
  O30      1.0000 0.24744  0.60394  0.49651  Biso   1.000  O
  O31      1.0000 0.25071  0.85357  0.50272  Biso   1.000  O
  O32      1.0000 0.24744  0.89616  0.75331  Biso   1.000  O
  Hf17     1.0000 0.62491  0.99486  0.12491  Biso   1.000  Hf
  Hf18     1.0000 0.62491  0.25005  0.37702  Biso   1.000  Hf
  Hf19     1.0000 0.86046  0.25005  0.12491  Biso   1.000  Hf
  Hf20     1.0000 0.87844  0.00444  0.37138  Biso   1.000  Hf
  O33      1.0000 0.49755  0.14377  0.99232  Biso   1.000  O
  O34      1.0000 0.50514  0.10357  0.24750  Biso   1.000  O
  O35      1.0000 0.49755  0.35633  0.25750  Biso   1.000  O
  O36      1.0000 0.50514  0.39653  0.00232  Biso   1.000  O
  O37      1.0000 0.75226  0.14377  0.25750  Biso   1.000  O
  O38      1.0000 0.74468  0.10357  0.00232  Biso   1.000  O
  O39      1.0000 0.75226  0.35634  0.99232  Biso   1.000  O
  O40      1.0000 0.74468  0.39653  0.24750  Biso   1.000  O
  Hf21     1.0000 0.62491  0.99811  0.62491  Biso   1.000  Hf
  Hf22     1.0000 0.62491  0.25005  0.87281  Biso   1.000  Hf
  Hf23     1.0000 0.87280  0.25005  0.62491  Biso   1.000  Hf
  Hf24     1.0000 0.87567  0.00559  0.87567  Biso   1.000  Hf
  O41      1.0000 0.49628  0.14833  0.49629  Biso   1.000  O
  O42      1.0000 0.50227  0.10165  0.74754  Biso   1.000  O
  O43      1.0000 0.49629  0.35178  0.75353  Biso   1.000  O
  O44      1.0000 0.50227  0.39846  0.50227  Biso   1.000  O
  O45      1.0000 0.75353  0.14833  0.75353  Biso   1.000  O
  O46      1.0000 0.74754  0.10164  0.50227  Biso   1.000  O
  O47      1.0000 0.75353  0.35178  0.49629  Biso   1.000  O
  O48      1.0000 0.74755  0.39846  0.74755  Biso   1.000  O
  Hf25     1.0000 0.62491  0.50525  0.12491  Biso   1.000  Hf
  Hf26     1.0000 0.62491  0.75005  0.37710  Biso   1.000  Hf
  Hf27     1.0000 0.87002  0.75005  0.12491  Biso   1.000  Hf
  Hf28     1.0000 0.87567  0.49452  0.37415  Biso   1.000  Hf
  O49      1.0000 0.50272  0.64654  0.99910  Biso   1.000  O
  O50      1.0000 0.49651  0.60395  0.24744  Biso   1.000  O
  O51      1.0000 0.50272  0.85357  0.25071  Biso   1.000  O
  O52      1.0000 0.49651  0.89616  0.00238  Biso   1.000  O
  O53      1.0000 0.74710  0.64654  0.25072  Biso   1.000  O
  O54      1.0000 0.75331  0.60395  0.00238  Biso   1.000  O
  O55      1.0000 0.74710  0.85357  0.99911  Biso   1.000  O
  O56      1.0000 0.75331  0.89616  0.24744  Biso   1.000  O
  Hf29     1.0000 0.62491  0.50199  0.62491  Biso   1.000  Hf
  Hf30     1.0000 0.62491  0.75006  0.87273  Biso   1.000  Hf
  Hf31     1.0000 0.87272  0.75005  0.62491  Biso   1.000  Hf
  Hf32     1.0000 0.87844  0.49567  0.87844  Biso   1.000  Hf
  O57      1.0000 0.49857  0.64794  0.49857  Biso   1.000  O
  O58      1.0000 0.50015  0.60162  0.74967  Biso   1.000  O
  O59      1.0000 0.49857  0.85217  0.75125  Biso   1.000  O
  O60      1.0000 0.50015  0.89849  0.50015  Biso   1.000  O
  O61      1.0000 0.75125  0.64794  0.75125  Biso   1.000  O
  O62      1.0000 0.74967  0.60162  0.50015  Biso   1.000  O
  O63      1.0000 0.75125  0.85217  0.49857  Biso   1.000  O
  O64      1.0000 0.74967  0.89848  0.74967  Biso   1.000  O
  Sc1      1.0000 0.12491  0.25005  0.12491  Biso   1.000  Sc
