data_image0
_cell_length_a       10.1522
_cell_length_b       10.2466
_cell_length_c       5.2192
_cell_angle_alpha    89.9994
_cell_angle_beta     80.0905
_cell_angle_gamma    90.0288

_symmetry_space_group_name_H-M    "P 1"
_symmetry_int_tables_number       1

loop_
  _symmetry_equiv_pos_as_xyz
  'x, y, z'

loop_
  _atom_site_label
  _atom_site_occupancy
  _atom_site_fract_x
  _atom_site_fract_y
  _atom_site_fract_z
  _atom_site_thermal_displace_type
  _atom_site_B_iso_or_equiv
  _atom_site_type_symbol
  Sc1      1.0000 0.13893  0.02014  0.29378  Biso   1.000  Sc
  Hf1      1.0000 0.13989  0.22598  0.79271  Biso   1.000  Hf
  Hf2      1.0000 0.35800  0.26808  0.20981  Biso   1.000  Hf
  Hf3      1.0000 0.36035  0.47788  0.70825  Biso   1.000  Hf
  O1       1.0000 0.03443  0.16880  0.15931  Biso   1.000  O
  O2       1.0000 0.03300  0.08327  0.66246  Biso   1.000  O
  O3       1.0000 0.46513  0.41630  0.34134  Biso   1.000  O
  O4       1.0000 0.46573  0.33286  0.84181  Biso   1.000  O
  O5       1.0000 0.27783  0.12916  0.48553  Biso   1.000  O
  O6       1.0000 0.27831  0.12291  0.98020  Biso   1.000  O
  O7       1.0000 0.22366  0.37903  0.01915  Biso   1.000  O
  O8       1.0000 0.22293  0.37134  0.51910  Biso   1.000  O
  Hf4      1.0000 0.14022  0.52112  0.29192  Biso   1.000  Hf
  Hf5      1.0000 0.14152  0.73062  0.79138  Biso   1.000  Hf
  Hf6      1.0000 0.35921  0.77341  0.20788  Biso   1.000  Hf
  Hf7      1.0000 0.35780  0.98009  0.70900  Biso   1.000  Hf
  O9       1.0000 0.03483  0.66781  0.16048  Biso   1.000  O
  O10      1.0000 0.03473  0.58262  0.66015  Biso   1.000  O
  O11      1.0000 0.46638  0.91728  0.34124  Biso   1.000  O
  O12      1.0000 0.46673  0.83399  0.84159  Biso   1.000  O
  O13      1.0000 0.27655  0.62820  0.48093  Biso   1.000  O
  O14      1.0000 0.27658  0.62077  0.98124  Biso   1.000  O
  O15      1.0000 0.22519  0.87745  0.01513  Biso   1.000  O
  O16      1.0000 0.22551  0.86977  0.51843  Biso   1.000  O
  Hf8      1.0000 0.63920  0.02097  0.29215  Biso   1.000  Hf
  Hf9      1.0000 0.63888  0.22872  0.79210  Biso   1.000  Hf
  Hf10     1.0000 0.86200  0.27009  0.20653  Biso   1.000  Hf
  Hf11     1.0000 0.86045  0.47921  0.70812  Biso   1.000  Hf
  O17      1.0000 0.53462  0.16777  0.15996  Biso   1.000  O
  O18      1.0000 0.53497  0.08218  0.65967  Biso   1.000  O
  O19      1.0000 0.96517  0.41877  0.33905  Biso   1.000  O
  O20      1.0000 0.96549  0.33289  0.83860  Biso   1.000  O
  O21      1.0000 0.77595  0.12893  0.48112  Biso   1.000  O
  O22      1.0000 0.77574  0.12150  0.98093  Biso   1.000  O
  O23      1.0000 0.72380  0.37896  0.01822  Biso   1.000  O
  O24      1.0000 0.72401  0.37129  0.51856  Biso   1.000  O
  Hf12     1.0000 0.63848  0.52086  0.29143  Biso   1.000  Hf
  Hf13     1.0000 0.63870  0.72938  0.79238  Biso   1.000  Hf
  Hf14     1.0000 0.86095  0.77201  0.20866  Biso   1.000  Hf
  Hf15     1.0000 0.86246  0.97914  0.70469  Biso   1.000  Hf
  O25      1.0000 0.53389  0.66728  0.15893  Biso   1.000  O
  O26      1.0000 0.53417  0.58251  0.65874  Biso   1.000  O
  O27      1.0000 0.96360  0.91755  0.34030  Biso   1.000  O
  O28      1.0000 0.96554  0.83146  0.83905  Biso   1.000  O
  O29      1.0000 0.77586  0.62882  0.48086  Biso   1.000  O
  O30      1.0000 0.77574  0.62103  0.98095  Biso   1.000  O
  O31      1.0000 0.72445  0.87880  0.01786  Biso   1.000  O
  O32      1.0000 0.72245  0.87100  0.51835  Biso   1.000  O
