data_image0
_cell_length_a       10.1321
_cell_length_b       10.2595
_cell_length_c       10.4449
_cell_angle_alpha    90.0016
_cell_angle_beta     80.2008
_cell_angle_gamma    90.0124

_symmetry_space_group_name_H-M    "P 1"
_symmetry_int_tables_number       1

loop_
  _symmetry_equiv_pos_as_xyz
  'x, y, z'

loop_
  _atom_site_label
  _atom_site_occupancy
  _atom_site_fract_x
  _atom_site_fract_y
  _atom_site_fract_z
  _atom_site_thermal_displace_type
  _atom_site_B_iso_or_equiv
  _atom_site_type_symbol
  Sc1      1.0000 0.13823  0.02024  0.14697  Biso   1.000  Sc
  Hf1      1.0000 0.13939  0.22718  0.39434  Biso   1.000  Hf
  Hf2      1.0000 0.35874  0.26832  0.10463  Biso   1.000  Hf
  Hf3      1.0000 0.36063  0.47819  0.35376  Biso   1.000  Hf
  O1       1.0000 0.03499  0.16899  0.07938  Biso   1.000  O
  O2       1.0000 0.03397  0.08274  0.33152  Biso   1.000  O
  O3       1.0000 0.46477  0.41681  0.17055  Biso   1.000  O
  O4       1.0000 0.46495  0.33181  0.42063  Biso   1.000  O
  O5       1.0000 0.27844  0.12966  0.24263  Biso   1.000  O
  O6       1.0000 0.27606  0.12106  0.49141  Biso   1.000  O
  O7       1.0000 0.22351  0.37903  0.00957  Biso   1.000  O
  O8       1.0000 0.22267  0.37129  0.25923  Biso   1.000  O
  Hf4      1.0000 0.13913  0.02149  0.64573  Biso   1.000  Hf
  Hf5      1.0000 0.13920  0.22712  0.89794  Biso   1.000  Hf
  Hf6      1.0000 0.36019  0.27114  0.60441  Biso   1.000  Hf
  Hf7      1.0000 0.36065  0.47825  0.85447  Biso   1.000  Hf
  O9       1.0000 0.03519  0.16893  0.58013  Biso   1.000  O
  O10      1.0000 0.03462  0.08157  0.82955  Biso   1.000  O
  O11      1.0000 0.46487  0.41825  0.67021  Biso   1.000  O
  O12      1.0000 0.46540  0.33233  0.92035  Biso   1.000  O
  O13      1.0000 0.27605  0.12856  0.74054  Biso   1.000  O
  O14      1.0000 0.27910  0.12295  0.98892  Biso   1.000  O
  O15      1.0000 0.22374  0.37913  0.50947  Biso   1.000  O
  O16      1.0000 0.22372  0.37097  0.75978  Biso   1.000  O
  Hf8      1.0000 0.13970  0.52110  0.14561  Biso   1.000  Hf
  Hf9      1.0000 0.14020  0.72890  0.39514  Biso   1.000  Hf
  Hf10     1.0000 0.35921  0.77283  0.10410  Biso   1.000  Hf
  Hf11     1.0000 0.35900  0.97949  0.35258  Biso   1.000  Hf
  O17      1.0000 0.03500  0.66800  0.07979  Biso   1.000  O
  O18      1.0000 0.03484  0.58220  0.32950  Biso   1.000  O
  O19      1.0000 0.46592  0.91791  0.16998  Biso   1.000  O
  O20      1.0000 0.46467  0.83223  0.42033  Biso   1.000  O
  O21      1.0000 0.27655  0.62772  0.24014  Biso   1.000  O
  O22      1.0000 0.27660  0.62119  0.49044  Biso   1.000  O
  O23      1.0000 0.22540  0.87743  0.00751  Biso   1.000  O
  O24      1.0000 0.22562  0.86888  0.26001  Biso   1.000  O
  Hf12     1.0000 0.13936  0.52138  0.64618  Biso   1.000  Hf
  Hf13     1.0000 0.14017  0.73030  0.89642  Biso   1.000  Hf
  Hf14     1.0000 0.36097  0.77203  0.60392  Biso   1.000  Hf
  Hf15     1.0000 0.35965  0.97930  0.85591  Biso   1.000  Hf
  O25      1.0000 0.03535  0.66840  0.58010  Biso   1.000  O
  O26      1.0000 0.03539  0.58175  0.83026  Biso   1.000  O
  O27      1.0000 0.46492  0.91823  0.67070  Biso   1.000  O
  O28      1.0000 0.46656  0.83301  0.92060  Biso   1.000  O
  O29      1.0000 0.27658  0.62949  0.74073  Biso   1.000  O
  O30      1.0000 0.27657  0.62058  0.99058  Biso   1.000  O
  O31      1.0000 0.22321  0.87911  0.50941  Biso   1.000  O
  O32      1.0000 0.22335  0.87168  0.75870  Biso   1.000  O
  Hf16     1.0000 0.63928  0.02117  0.14613  Biso   1.000  Hf
  Hf17     1.0000 0.63905  0.22831  0.39578  Biso   1.000  Hf
  Hf18     1.0000 0.86246  0.27016  0.10370  Biso   1.000  Hf
  Hf19     1.0000 0.86051  0.47897  0.35396  Biso   1.000  Hf
  O33      1.0000 0.53536  0.16827  0.07980  Biso   1.000  O
  O34      1.0000 0.53491  0.08180  0.32972  Biso   1.000  O
  O35      1.0000 0.96472  0.41887  0.17002  Biso   1.000  O
  O36      1.0000 0.96495  0.33237  0.41990  Biso   1.000  O
  O37      1.0000 0.77601  0.12894  0.24063  Biso   1.000  O
  O38      1.0000 0.77592  0.12153  0.49065  Biso   1.000  O
  O39      1.0000 0.72378  0.37873  0.00929  Biso   1.000  O
  O40      1.0000 0.72370  0.37105  0.25969  Biso   1.000  O
  Hf20     1.0000 0.63899  0.02118  0.64584  Biso   1.000  Hf
  Hf21     1.0000 0.63892  0.22901  0.89613  Biso   1.000  Hf
  Hf22     1.0000 0.86100  0.27125  0.60373  Biso   1.000  Hf
  Hf23     1.0000 0.86108  0.47886  0.85429  Biso   1.000  Hf
  O41      1.0000 0.53471  0.16823  0.58002  Biso   1.000  O
  O42      1.0000 0.53561  0.08164  0.82994  Biso   1.000  O
  O43      1.0000 0.96484  0.41880  0.66985  Biso   1.000  O
  O44      1.0000 0.96505  0.33200  0.91972  Biso   1.000  O
  O45      1.0000 0.77656  0.12900  0.74046  Biso   1.000  O
  O46      1.0000 0.77637  0.12096  0.99038  Biso   1.000  O
  O47      1.0000 0.72343  0.37919  0.50943  Biso   1.000  O
  O48      1.0000 0.72374  0.37122  0.75919  Biso   1.000  O
  Hf24     1.0000 0.63857  0.52077  0.14570  Biso   1.000  Hf
  Hf25     1.0000 0.63870  0.72940  0.39569  Biso   1.000  Hf
  Hf26     1.0000 0.86114  0.77222  0.10466  Biso   1.000  Hf
  Hf27     1.0000 0.86316  0.97904  0.35240  Biso   1.000  Hf
  O49      1.0000 0.53432  0.66754  0.07952  Biso   1.000  O
  O50      1.0000 0.53476  0.58173  0.32971  Biso   1.000  O
  O51      1.0000 0.96331  0.91747  0.17083  Biso   1.000  O
  O52      1.0000 0.96535  0.83126  0.42021  Biso   1.000  O
  O53      1.0000 0.77600  0.62897  0.24053  Biso   1.000  O
  O54      1.0000 0.77620  0.62127  0.49050  Biso   1.000  O
  O55      1.0000 0.72382  0.87887  0.00931  Biso   1.000  O
  O56      1.0000 0.72192  0.87102  0.25953  Biso   1.000  O
  Hf28     1.0000 0.63898  0.52139  0.64584  Biso   1.000  Hf
  Hf29     1.0000 0.63894  0.72867  0.89637  Biso   1.000  Hf
  Hf30     1.0000 0.86097  0.77121  0.60392  Biso   1.000  Hf
  Hf31     1.0000 0.86064  0.97866  0.85412  Biso   1.000  Hf
  O57      1.0000 0.53499  0.66842  0.57979  Biso   1.000  O
  O58      1.0000 0.53486  0.58204  0.82948  Biso   1.000  O
  O59      1.0000 0.96463  0.91857  0.66979  Biso   1.000  O
  O60      1.0000 0.96463  0.83132  0.91968  Biso   1.000  O
  O61      1.0000 0.77634  0.62890  0.74041  Biso   1.000  O
  O62      1.0000 0.77600  0.62068  0.99047  Biso   1.000  O
  O63      1.0000 0.72404  0.87889  0.50927  Biso   1.000  O
  O64      1.0000 0.72380  0.87098  0.75929  Biso   1.000  O
