data_image0
_cell_length_a       10.1162
_cell_length_b       5.12561
_cell_length_c       10.5705
_cell_angle_alpha    90.1193
_cell_angle_beta     90.9394
_cell_angle_gamma    89.6532

_symmetry_space_group_name_H-M    "P 1"
_symmetry_int_tables_number       1

loop_
  _symmetry_equiv_pos_as_xyz
  'x, y, z'

loop_
  _atom_site_label
  _atom_site_occupancy
  _atom_site_fract_x
  _atom_site_fract_y
  _atom_site_fract_z
  _atom_site_thermal_displace_type
  _atom_site_B_iso_or_equiv
  _atom_site_type_symbol
  Hf1      1.0000 0.14050  0.04076  0.17603  Biso   1.000  Hf
  Hf2      1.0000 0.13545  0.45647  0.42549  Biso   1.000  Hf
  Hf3      1.0000 0.35263  0.53225  0.18161  Biso   1.000  Hf
  Hf4      1.0000 0.36122  0.95365  0.42751  Biso   1.000  Hf
  Hf5      1.0000 0.64001  0.02491  0.07746  Biso   1.000  Hf
  Hf6      1.0000 0.63535  0.45116  0.33418  Biso   1.000  Hf
  Hf7      1.0000 0.88130  0.55199  0.07305  Biso   1.000  Hf
  Hf8      1.0000 0.85857  0.96161  0.32448  Biso   1.000  Hf
  O1       1.0000 0.03730  0.31435  0.07742  Biso   1.000  O
  O2       1.0000 0.02631  0.18627  0.32871  Biso   1.000  O
  O3       1.0000 0.46796  0.80179  0.08229  Biso   1.000  O
  O4       1.0000 0.46839  0.68040  0.33026  Biso   1.000  O
  O5       1.0000 0.27011  0.24680  0.30252  Biso   1.000  O
  O6       1.0000 0.27626  0.24457  0.04933  Biso   1.000  O
  O7       1.0000 0.22193  0.74709  0.30205  Biso   1.000  O
  O8       1.0000 0.22440  0.74950  0.04894  Biso   1.000  O
  O9       1.0000 0.51360  0.28271  0.18764  Biso   1.000  O
  O10      1.0000 0.52664  0.17977  0.42841  Biso   1.000  O
  O11      1.0000 0.97340  0.82813  0.17447  Biso   1.000  O
  O12      1.0000 0.96824  0.68521  0.42133  Biso   1.000  O
  O13      1.0000 0.77548  0.24595  0.45307  Biso   1.000  O
  O14      1.0000 0.76426  0.26302  0.19862  Biso   1.000  O
  O15      1.0000 0.72464  0.74966  0.45383  Biso   1.000  O
  O16      1.0000 0.72631  0.74216  0.20347  Biso   1.000  O
  Hf9      1.0000 0.13848  0.04219  0.67438  Biso   1.000  Hf
  Hf10     1.0000 0.14514  0.45754  0.92215  Biso   1.000  Hf
  Hf11     1.0000 0.36230  0.54202  0.67501  Biso   1.000  Hf
  Hf12     1.0000 0.36411  0.96054  0.92535  Biso   1.000  Hf
  Hf13     1.0000 0.63965  0.03867  0.57597  Biso   1.000  Hf
  Hf14     1.0000 0.64522  0.46163  0.81159  Biso   1.000  Hf
  Hf15     1.0000 0.86444  0.54783  0.57587  Biso   1.000  Hf
  Hf16     1.0000 0.86346  0.96789  0.82874  Biso   1.000  Hf
  O17      1.0000 0.03147  0.32355  0.58050  Biso   1.000  O
  O18      1.0000 0.03348  0.18156  0.83031  Biso   1.000  O
  O19      1.0000 0.47277  0.80774  0.57889  Biso   1.000  O
  O20      1.0000 0.47571  0.69113  0.82764  Biso   1.000  O
  O21      1.0000 0.27738  0.24860  0.79842  Biso   1.000  O
  O22      1.0000 0.27420  0.24951  0.54953  Biso   1.000  O
  O23      1.0000 0.22876  0.74891  0.79859  Biso   1.000  O
  O24      1.0000 0.22546  0.75093  0.55005  Biso   1.000  O
  O25      1.0000 0.52674  0.30442  0.67353  Biso   1.000  O
  O26      1.0000 0.52523  0.20394  0.93281  Biso   1.000  O
  O27      1.0000 0.97086  0.82439  0.67170  Biso   1.000  O
  O28      1.0000 0.97747  0.68194  0.91737  Biso   1.000  O
  O29      1.0000 0.76830  0.26909  0.95255  Biso   1.000  O
  O30      1.0000 0.77985  0.24936  0.69767  Biso   1.000  O
  O31      1.0000 0.73178  0.75994  0.94969  Biso   1.000  O
  O32      1.0000 0.72969  0.75393  0.70108  Biso   1.000  O
  Sc1      1.0000 0.61664  0.51319  0.06372  Biso   1.000  Sc
