data_image0
_cell_length_a       10.0779
_cell_length_b       5.09691
_cell_length_c       10.0779
_cell_angle_alpha    90.0001
_cell_angle_beta     90
_cell_angle_gamma    90.0001

_symmetry_space_group_name_H-M    "P 1"
_symmetry_int_tables_number       1

loop_
  _symmetry_equiv_pos_as_xyz
  'x, y, z'

loop_
  _atom_site_label
  _atom_site_occupancy
  _atom_site_fract_x
  _atom_site_fract_y
  _atom_site_fract_z
  _atom_site_thermal_displace_type
  _atom_site_B_iso_or_equiv
  _atom_site_type_symbol
  Hf1      1.0000 0.12491  0.00011  0.12491  Biso   1.000  Hf
  Hf2      1.0000 0.12491  0.50011  0.39222  Biso   1.000  Hf
  Hf3      1.0000 0.39221  0.50011  0.12491  Biso   1.000  Hf
  Hf4      1.0000 0.36990  0.99838  0.36990  Biso   1.000  Hf
  O1       1.0000 0.99507  0.28043  0.99506  Biso   1.000  O
  O2       1.0000 0.00238  0.23055  0.24742  Biso   1.000  O
  O3       1.0000 0.99507  0.71979  0.25475  Biso   1.000  O
  O4       1.0000 0.00238  0.76966  0.00239  Biso   1.000  O
  O5       1.0000 0.25475  0.28043  0.25475  Biso   1.000  O
  O6       1.0000 0.24743  0.23055  0.00239  Biso   1.000  O
  O7       1.0000 0.25475  0.71979  0.99506  Biso   1.000  O
  O8       1.0000 0.24743  0.76967  0.24742  Biso   1.000  O
  Hf5      1.0000 0.12491  0.00011  0.62491  Biso   1.000  Hf
  Hf6      1.0000 0.12491  0.50011  0.85760  Biso   1.000  Hf
  Hf7      1.0000 0.37968  0.50011  0.62491  Biso   1.000  Hf
  Hf8      1.0000 0.36990  0.00183  0.87992  Biso   1.000  Hf
  O9       1.0000 0.99110  0.28241  0.49927  Biso   1.000  O
  O10      1.0000 0.00543  0.21389  0.74762  Biso   1.000  O
  O11      1.0000 0.99110  0.71781  0.75055  Biso   1.000  O
  O12      1.0000 0.00542  0.78632  0.50219  Biso   1.000  O
  O13      1.0000 0.25872  0.28241  0.75054  Biso   1.000  O
  O14      1.0000 0.24439  0.21389  0.50220  Biso   1.000  O
  O15      1.0000 0.25872  0.71781  0.49927  Biso   1.000  O
  O16      1.0000 0.24439  0.78633  0.74762  Biso   1.000  O
  Hf9      1.0000 0.62491  0.00011  0.12491  Biso   1.000  Hf
  Hf10     1.0000 0.62491  0.50011  0.37968  Biso   1.000  Hf
  Hf11     1.0000 0.85760  0.50011  0.12491  Biso   1.000  Hf
  Hf12     1.0000 0.87992  0.00183  0.36990  Biso   1.000  Hf
  O17      1.0000 0.49928  0.28241  0.99110  Biso   1.000  O
  O18      1.0000 0.50219  0.21389  0.24439  Biso   1.000  O
  O19      1.0000 0.49928  0.71780  0.25872  Biso   1.000  O
  O20      1.0000 0.50219  0.78633  0.00543  Biso   1.000  O
  O21      1.0000 0.75054  0.28241  0.25872  Biso   1.000  O
  O22      1.0000 0.74763  0.21389  0.00543  Biso   1.000  O
  O23      1.0000 0.75054  0.71780  0.99110  Biso   1.000  O
  O24      1.0000 0.74763  0.78633  0.24439  Biso   1.000  O
  Hf13     1.0000 0.62491  0.00011  0.62491  Biso   1.000  Hf
  Hf14     1.0000 0.62491  0.50011  0.87013  Biso   1.000  Hf
  Hf15     1.0000 0.87014  0.50011  0.62491  Biso   1.000  Hf
  Hf16     1.0000 0.87992  0.99838  0.87992  Biso   1.000  Hf
  O25      1.0000 0.49283  0.29101  0.49282  Biso   1.000  O
  O26      1.0000 0.50412  0.20994  0.74569  Biso   1.000  O
  O27      1.0000 0.49283  0.70920  0.75699  Biso   1.000  O
  O28      1.0000 0.50412  0.79027  0.50412  Biso   1.000  O
  O29      1.0000 0.75699  0.29101  0.75699  Biso   1.000  O
  O30      1.0000 0.74570  0.20994  0.50412  Biso   1.000  O
  O31      1.0000 0.75699  0.70920  0.49283  Biso   1.000  O
  O32      1.0000 0.74570  0.79027  0.74569  Biso   1.000  O
  Sc1      1.0000 0.12491  0.50011  0.12491  Biso   1.000  Sc
