data_image0
_cell_length_a       5.0843
_cell_length_b       10.2932
_cell_length_c       10.6031
_cell_angle_alpha    90.0894
_cell_angle_beta     78.7522
_cell_angle_gamma    91.0207

_symmetry_space_group_name_H-M    "P 1"
_symmetry_int_tables_number       1

loop_
  _symmetry_equiv_pos_as_xyz
  'x, y, z'

loop_
  _atom_site_label
  _atom_site_occupancy
  _atom_site_fract_x
  _atom_site_fract_y
  _atom_site_fract_z
  _atom_site_thermal_displace_type
  _atom_site_B_iso_or_equiv
  _atom_site_type_symbol
  Hf1      1.0000 0.28660  0.01884  0.15120  Biso   1.000  Hf
  Hf2      1.0000 0.31668  0.22750  0.41351  Biso   1.000  Hf
  Hf3      1.0000 0.67200  0.27250  0.09159  Biso   1.000  Hf
  Hf4      1.0000 0.70208  0.48115  0.35391  Biso   1.000  Hf
  O1       1.0000 0.04206  0.16284  0.07369  Biso   1.000  O
  O2       1.0000 0.09290  0.07694  0.33620  Biso   1.000  O
  O3       1.0000 0.89578  0.42306  0.16890  Biso   1.000  O
  O4       1.0000 0.94663  0.33716  0.43141  Biso   1.000  O
  O5       1.0000 0.60118  0.13329  0.25088  Biso   1.000  O
  O6       1.0000 0.57857  0.11582  0.49981  Biso   1.000  O
  O7       1.0000 0.41012  0.38418  0.00529  Biso   1.000  O
  O8       1.0000 0.38750  0.36671  0.25422  Biso   1.000  O
  Hf5      1.0000 0.28030  0.01885  0.65007  Biso   1.000  Hf
  Hf6      1.0000 0.25660  0.22759  0.89523  Biso   1.000  Hf
  Hf7      1.0000 0.73208  0.27241  0.60987  Biso   1.000  Hf
  Hf8      1.0000 0.70838  0.48114  0.85502  Biso   1.000  Hf
  O9       1.0000 0.08027  0.16725  0.58645  Biso   1.000  O
  O10      1.0000 0.05755  0.08207  0.82786  Biso   1.000  O
  O11      1.0000 0.93113  0.41792  0.67724  Biso   1.000  O
  O12      1.0000 0.90841  0.33275  0.91866  Biso   1.000  O
  O13      1.0000 0.54787  0.12873  0.74551  Biso   1.000  O
  O14      1.0000 0.53315  0.11949  0.99020  Biso   1.000  O
  O15      1.0000 0.45552  0.38051  0.51490  Biso   1.000  O
  O16      1.0000 0.44081  0.37127  0.75959  Biso   1.000  O
  Hf9      1.0000 0.26414  0.52513  0.14821  Biso   1.000  Hf
  Hf10     1.0000 0.27044  0.72697  0.39948  Biso   1.000  Hf
  Hf11     1.0000 0.71824  0.77303  0.10561  Biso   1.000  Hf
  Hf12     1.0000 0.72454  0.97486  0.35689  Biso   1.000  Hf
  O17      1.0000 0.05758  0.66835  0.07966  Biso   1.000  O
  O18      1.0000 0.05224  0.58369  0.32959  Biso   1.000  O
  O19      1.0000 0.93643  0.91631  0.17551  Biso   1.000  O
  O20      1.0000 0.93109  0.83164  0.42544  Biso   1.000  O
  O21      1.0000 0.54186  0.62955  0.24434  Biso   1.000  O
  O22      1.0000 0.54228  0.62274  0.49305  Biso   1.000  O
  O23      1.0000 0.44639  0.87726  0.01206  Biso   1.000  O
  O24      1.0000 0.44682  0.87045  0.26076  Biso   1.000  O
  Hf13     1.0000 0.27511  0.52370  0.64950  Biso   1.000  Hf
  Hf14     1.0000 0.26910  0.72861  0.89983  Biso   1.000  Hf
  Hf15     1.0000 0.71958  0.77139  0.60528  Biso   1.000  Hf
  Hf16     1.0000 0.71356  0.97630  0.85560  Biso   1.000  Hf
  O25      1.0000 0.05905  0.66412  0.58027  Biso   1.000  O
  O26      1.0000 0.06044  0.58558  0.83008  Biso   1.000  O
  O27      1.0000 0.92823  0.91442  0.67503  Biso   1.000  O
  O28      1.0000 0.92962  0.83588  0.92483  Biso   1.000  O
  O29      1.0000 0.54835  0.62921  0.74330  Biso   1.000  O
  O30      1.0000 0.54482  0.62351  0.99339  Biso   1.000  O
  O31      1.0000 0.44386  0.87648  0.51171  Biso   1.000  O
  O32      1.0000 0.44032  0.87079  0.76181  Biso   1.000  O
  Sc1      1.0000 0.99433  0.25000  0.25255  Biso   1.000  Sc
