data_image0
_cell_length_a       10.0469
_cell_length_b       5.1069
_cell_length_c       10.4353
_cell_angle_alpha    89.9575
_cell_angle_beta     89.9512
_cell_angle_gamma    90.0213

_symmetry_space_group_name_H-M    "P 1"
_symmetry_int_tables_number       1

loop_
  _symmetry_equiv_pos_as_xyz
  'x, y, z'

loop_
  _atom_site_label
  _atom_site_occupancy
  _atom_site_fract_x
  _atom_site_fract_y
  _atom_site_fract_z
  _atom_site_thermal_displace_type
  _atom_site_B_iso_or_equiv
  _atom_site_type_symbol
  Sc1      1.0000 0.13938  0.03919  0.17343  Biso   1.000  Sc
  Hf1      1.0000 0.14071  0.45678  0.41999  Biso   1.000  Hf
  Hf2      1.0000 0.35716  0.53906  0.17201  Biso   1.000  Hf
  Hf3      1.0000 0.35911  0.95864  0.42007  Biso   1.000  Hf
  Hf4      1.0000 0.63883  0.04097  0.07825  Biso   1.000  Hf
  Hf5      1.0000 0.63888  0.45996  0.32739  Biso   1.000  Hf
  Hf6      1.0000 0.86240  0.54164  0.07829  Biso   1.000  Hf
  Hf7      1.0000 0.86294  0.96005  0.32649  Biso   1.000  Hf
  O1       1.0000 0.03229  0.33144  0.08451  Biso   1.000  O
  O2       1.0000 0.03150  0.17258  0.33609  Biso   1.000  O
  O3       1.0000 0.46852  0.82689  0.08415  Biso   1.000  O
  O4       1.0000 0.46846  0.67268  0.33342  Biso   1.000  O
  O5       1.0000 0.27839  0.24867  0.29776  Biso   1.000  O
  O6       1.0000 0.27836  0.25229  0.04489  Biso   1.000  O
  O7       1.0000 0.22452  0.74504  0.29644  Biso   1.000  O
  O8       1.0000 0.22606  0.74762  0.04455  Biso   1.000  O
  O9       1.0000 0.53218  0.32910  0.16619  Biso   1.000  O
  O10      1.0000 0.53242  0.17046  0.41575  Biso   1.000  O
  O11      1.0000 0.96607  0.83055  0.16551  Biso   1.000  O
  O12      1.0000 0.96780  0.66969  0.41531  Biso   1.000  O
  O13      1.0000 0.77552  0.25022  0.45435  Biso   1.000  O
  O14      1.0000 0.77571  0.25275  0.20419  Biso   1.000  O
  O15      1.0000 0.72458  0.74986  0.45401  Biso   1.000  O
  O16      1.0000 0.72287  0.75230  0.20403  Biso   1.000  O
  Hf8      1.0000 0.13953  0.04216  0.67215  Biso   1.000  Hf
  Hf9      1.0000 0.14055  0.45685  0.92490  Biso   1.000  Hf
  Hf10     1.0000 0.36038  0.54278  0.67215  Biso   1.000  Hf
  Hf11     1.0000 0.35885  0.95810  0.92416  Biso   1.000  Hf
  Hf12     1.0000 0.63872  0.04162  0.57731  Biso   1.000  Hf
  Hf13     1.0000 0.63857  0.45802  0.82832  Biso   1.000  Hf
  Hf14     1.0000 0.86076  0.54161  0.57751  Biso   1.000  Hf
  Hf15     1.0000 0.86051  0.95828  0.82820  Biso   1.000  Hf
  O17      1.0000 0.03303  0.33288  0.58531  Biso   1.000  O
  O18      1.0000 0.03235  0.16836  0.83477  Biso   1.000  O
  O19      1.0000 0.46730  0.82999  0.58355  Biso   1.000  O
  O20      1.0000 0.46735  0.67020  0.83400  Biso   1.000  O
  O21      1.0000 0.27566  0.24816  0.79576  Biso   1.000  O
  O22      1.0000 0.27617  0.25232  0.54629  Biso   1.000  O
  O23      1.0000 0.22375  0.74848  0.79539  Biso   1.000  O
  O24      1.0000 0.22358  0.75301  0.54586  Biso   1.000  O
  O25      1.0000 0.53238  0.33039  0.66588  Biso   1.000  O
  O26      1.0000 0.53249  0.16902  0.91613  Biso   1.000  O
  O27      1.0000 0.96676  0.83280  0.66472  Biso   1.000  O
  O28      1.0000 0.96737  0.66867  0.91465  Biso   1.000  O
  O29      1.0000 0.77586  0.24704  0.95394  Biso   1.000  O
  O30      1.0000 0.77578  0.25187  0.70417  Biso   1.000  O
  O31      1.0000 0.72385  0.74743  0.95382  Biso   1.000  O
  O32      1.0000 0.72380  0.75153  0.70399  Biso   1.000  O
