data_image0
_cell_length_a       10.1454
_cell_length_b       10.2919
_cell_length_c       10.5263
_cell_angle_alpha    89.9513
_cell_angle_beta     79.6037
_cell_angle_gamma    90.0428

_symmetry_space_group_name_H-M    "P 1"
_symmetry_int_tables_number       1

loop_
  _symmetry_equiv_pos_as_xyz
  'x, y, z'

loop_
  _atom_site_label
  _atom_site_occupancy
  _atom_site_fract_x
  _atom_site_fract_y
  _atom_site_fract_z
  _atom_site_thermal_displace_type
  _atom_site_B_iso_or_equiv
  _atom_site_type_symbol
  Hf1      1.0000 0.13676  0.02131  0.14646  Biso   1.000  Hf
  Hf2      1.0000 0.13619  0.22807  0.39540  Biso   1.000  Hf
  Hf3      1.0000 0.34432  0.27344  0.07833  Biso   1.000  Hf
  Hf4      1.0000 0.35837  0.48802  0.35639  Biso   1.000  Hf
  O1       1.0000 0.03339  0.16756  0.07735  Biso   1.000  O
  O2       1.0000 0.03509  0.08134  0.32878  Biso   1.000  O
  O3       1.0000 0.46686  0.41188  0.17490  Biso   1.000  O
  O4       1.0000 0.47450  0.34636  0.42964  Biso   1.000  O
  O5       1.0000 0.27925  0.12351  0.23621  Biso   1.000  O
  O6       1.0000 0.28743  0.12851  0.47951  Biso   1.000  O
  O7       1.0000 0.20879  0.38746  0.99956  Biso   1.000  O
  O8       1.0000 0.23358  0.36408  0.25642  Biso   1.000  O
  Hf5      1.0000 0.13797  0.02144  0.64563  Biso   1.000  Hf
  Hf6      1.0000 0.13280  0.22833  0.89162  Biso   1.000  Hf
  Hf7      1.0000 0.36069  0.27476  0.60505  Biso   1.000  Hf
  Hf8      1.0000 0.35762  0.48352  0.85002  Biso   1.000  Hf
  O9       1.0000 0.03930  0.16934  0.57998  Biso   1.000  O
  O10      1.0000 0.03145  0.08165  0.82741  Biso   1.000  O
  O11      1.0000 0.46507  0.41966  0.67223  Biso   1.000  O
  O12      1.0000 0.46444  0.33746  0.91509  Biso   1.000  O
  O13      1.0000 0.27450  0.12869  0.73624  Biso   1.000  O
  O14      1.0000 0.26986  0.11848  0.98381  Biso   1.000  O
  O15      1.0000 0.22319  0.38190  0.50854  Biso   1.000  O
  O16      1.0000 0.22236  0.37135  0.75600  Biso   1.000  O
  Hf9      1.0000 0.13801  0.52222  0.14627  Biso   1.000  Hf
  Hf10     1.0000 0.13536  0.72841  0.39721  Biso   1.000  Hf
  Hf11     1.0000 0.35985  0.77104  0.10323  Biso   1.000  Hf
  Hf12     1.0000 0.35905  0.96925  0.35269  Biso   1.000  Hf
  O17      1.0000 0.03411  0.66681  0.08000  Biso   1.000  O
  O18      1.0000 0.03520  0.58177  0.32974  Biso   1.000  O
  O19      1.0000 0.46558  0.91491  0.17244  Biso   1.000  O
  O20      1.0000 0.46436  0.82878  0.42378  Biso   1.000  O
  O21      1.0000 0.27627  0.62728  0.24069  Biso   1.000  O
  O22      1.0000 0.27283  0.62591  0.49315  Biso   1.000  O
  O23      1.0000 0.22251  0.87847  0.00971  Biso   1.000  O
  O24      1.0000 0.21999  0.86620  0.25829  Biso   1.000  O
  Hf13     1.0000 0.13694  0.52274  0.64638  Biso   1.000  Hf
  Hf14     1.0000 0.13672  0.72896  0.89734  Biso   1.000  Hf
  Hf15     1.0000 0.36128  0.77236  0.60497  Biso   1.000  Hf
  Hf16     1.0000 0.35984  0.97658  0.85315  Biso   1.000  Hf
  O25      1.0000 0.03142  0.66738  0.58004  Biso   1.000  O
  O26      1.0000 0.03370  0.58239  0.83036  Biso   1.000  O
  O27      1.0000 0.46525  0.91753  0.67235  Biso   1.000  O
  O28      1.0000 0.46509  0.83357  0.92230  Biso   1.000  O
  O29      1.0000 0.27456  0.62971  0.74043  Biso   1.000  O
  O30      1.0000 0.27639  0.62380  0.99039  Biso   1.000  O
  O31      1.0000 0.22233  0.88112  0.51033  Biso   1.000  O
  O32      1.0000 0.22201  0.87116  0.75980  Biso   1.000  O
  Hf17     1.0000 0.63959  0.02045  0.14922  Biso   1.000  Hf
  Hf18     1.0000 0.65047  0.22770  0.40794  Biso   1.000  Hf
  Hf19     1.0000 0.85889  0.27134  0.10747  Biso   1.000  Hf
  Hf20     1.0000 0.86130  0.47837  0.35643  Biso   1.000  Hf
  O33      1.0000 0.52476  0.16912  0.08449  Biso   1.000  O
  O34      1.0000 0.54056  0.07255  0.33723  Biso   1.000  O
  O35      1.0000 0.96657  0.41530  0.17418  Biso   1.000  O
  O36      1.0000 0.96491  0.33267  0.42434  Biso   1.000  O
  O37      1.0000 0.78173  0.12750  0.24480  Biso   1.000  O
  O38      1.0000 0.78449  0.11790  0.49862  Biso   1.000  O
  O39      1.0000 0.71988  0.37824  0.01347  Biso   1.000  O
  O40      1.0000 0.72549  0.37220  0.26478  Biso   1.000  O
  Hf21     1.0000 0.63862  0.02196  0.64963  Biso   1.000  Hf
  Hf22     1.0000 0.63692  0.22926  0.89974  Biso   1.000  Hf
  Hf23     1.0000 0.86257  0.27189  0.60959  Biso   1.000  Hf
  Hf24     1.0000 0.85903  0.47877  0.85699  Biso   1.000  Hf
  O41      1.0000 0.53596  0.16901  0.58281  Biso   1.000  O
  O42      1.0000 0.53195  0.08372  0.83169  Biso   1.000  O
  O43      1.0000 0.96467  0.41818  0.67392  Biso   1.000  O
  O44      1.0000 0.95911  0.33018  0.92119  Biso   1.000  O
  O45      1.0000 0.77475  0.12987  0.74567  Biso   1.000  O
  O46      1.0000 0.77257  0.12119  0.99483  Biso   1.000  O
  O47      1.0000 0.72755  0.37913  0.51586  Biso   1.000  O
  O48      1.0000 0.72225  0.37153  0.76369  Biso   1.000  O
  Hf25     1.0000 0.63773  0.52142  0.14840  Biso   1.000  Hf
  Hf26     1.0000 0.63944  0.72806  0.39802  Biso   1.000  Hf
  Hf27     1.0000 0.86007  0.77126  0.10605  Biso   1.000  Hf
  Hf28     1.0000 0.85900  0.97798  0.35582  Biso   1.000  Hf
  O49      1.0000 0.53273  0.66492  0.07867  Biso   1.000  O
  O50      1.0000 0.53377  0.58627  0.32810  Biso   1.000  O
  O51      1.0000 0.96418  0.91600  0.17287  Biso   1.000  O
  O52      1.0000 0.96390  0.83281  0.42345  Biso   1.000  O
  O53      1.0000 0.77690  0.62811  0.24210  Biso   1.000  O
  O54      1.0000 0.77563  0.62115  0.49218  Biso   1.000  O
  O55      1.0000 0.72240  0.87815  0.01225  Biso   1.000  O
  O56      1.0000 0.72271  0.87006  0.26098  Biso   1.000  O
  Hf29     1.0000 0.63874  0.52284  0.64859  Biso   1.000  Hf
  Hf30     1.0000 0.63774  0.72802  0.89828  Biso   1.000  Hf
  Hf31     1.0000 0.85938  0.77279  0.60619  Biso   1.000  Hf
  Hf32     1.0000 0.85836  0.97802  0.85683  Biso   1.000  Hf
  O57      1.0000 0.53367  0.66685  0.58041  Biso   1.000  O
  O58      1.0000 0.53253  0.58555  0.82868  Biso   1.000  O
  O59      1.0000 0.96397  0.91775  0.67324  Biso   1.000  O
  O60      1.0000 0.96396  0.83281  0.92306  Biso   1.000  O
  O61      1.0000 0.77541  0.62964  0.74260  Biso   1.000  O
  O62      1.0000 0.77527  0.62100  0.99229  Biso   1.000  O
  O63      1.0000 0.72174  0.87820  0.51237  Biso   1.000  O
  O64      1.0000 0.72206  0.87211  0.76237  Biso   1.000  O
  Sc1      1.0000 0.44301  0.23365  0.27697  Biso   1.000  Sc
