data_image0
_cell_length_a       10.1269
_cell_length_b       5.1584
_cell_length_c       10.6061
_cell_angle_alpha    90.0615
_cell_angle_beta     79.1134
_cell_angle_gamma    90.972

_symmetry_space_group_name_H-M    "P 1"
_symmetry_int_tables_number       1

loop_
  _symmetry_equiv_pos_as_xyz
  'x, y, z'

loop_
  _atom_site_label
  _atom_site_occupancy
  _atom_site_fract_x
  _atom_site_fract_y
  _atom_site_fract_z
  _atom_site_thermal_displace_type
  _atom_site_B_iso_or_equiv
  _atom_site_type_symbol
  Hf1      1.0000 0.13541  0.04790  0.14952  Biso   1.000  Hf
  Hf2      1.0000 0.13818  0.46397  0.39782  Biso   1.000  Hf
  Hf3      1.0000 0.34336  0.55311  0.08728  Biso   1.000  Hf
  Hf4      1.0000 0.35268  0.96475  0.35509  Biso   1.000  Hf
  O1       1.0000 0.03035  0.33559  0.07980  Biso   1.000  O
  O2       1.0000 0.03596  0.16410  0.33091  Biso   1.000  O
  O3       1.0000 0.45641  0.84950  0.16908  Biso   1.000  O
  O4       1.0000 0.46982  0.67053  0.43038  Biso   1.000  O
  O5       1.0000 0.28767  0.27585  0.24497  Biso   1.000  O
  O6       1.0000 0.27569  0.24884  0.49240  Biso   1.000  O
  O7       1.0000 0.20950  0.77206  0.00376  Biso   1.000  O
  O8       1.0000 0.21181  0.74806  0.25527  Biso   1.000  O
  Hf5      1.0000 0.13765  0.04595  0.64648  Biso   1.000  Hf
  Hf6      1.0000 0.13100  0.45702  0.89536  Biso   1.000  Hf
  Hf7      1.0000 0.36007  0.54595  0.60609  Biso   1.000  Hf
  Hf8      1.0000 0.35477  0.96101  0.85190  Biso   1.000  Hf
  O9       1.0000 0.03493  0.33719  0.58188  Biso   1.000  O
  O10      1.0000 0.03078  0.16419  0.82909  Biso   1.000  O
  O11      1.0000 0.46451  0.83248  0.67506  Biso   1.000  O
  O12      1.0000 0.46130  0.67165  0.91789  Biso   1.000  O
  O13      1.0000 0.27406  0.25772  0.74121  Biso   1.000  O
  O14      1.0000 0.26894  0.24533  0.98871  Biso   1.000  O
  O15      1.0000 0.22112  0.76009  0.50996  Biso   1.000  O
  O16      1.0000 0.21958  0.74104  0.75730  Biso   1.000  O
  Hf9      1.0000 0.64163  0.03523  0.15001  Biso   1.000  Hf
  Hf10     1.0000 0.65094  0.44688  0.41781  Biso   1.000  Hf
  Hf11     1.0000 0.85615  0.53605  0.10728  Biso   1.000  Hf
  Hf12     1.0000 0.85891  0.95212  0.35558  Biso   1.000  Hf
  O17      1.0000 0.52451  0.32948  0.07473  Biso   1.000  O
  O18      1.0000 0.53791  0.15044  0.33604  Biso   1.000  O
  O19      1.0000 0.95836  0.83592  0.17418  Biso   1.000  O
  O20      1.0000 0.96397  0.66442  0.42530  Biso   1.000  O
  O21      1.0000 0.78249  0.25193  0.24981  Biso   1.000  O
  O22      1.0000 0.78481  0.22795  0.50134  Biso   1.000  O
  O23      1.0000 0.71863  0.75117  0.01270  Biso   1.000  O
  O24      1.0000 0.70666  0.72414  0.26013  Biso   1.000  O
  Hf13     1.0000 0.63955  0.03899  0.65320  Biso   1.000  Hf
  Hf14     1.0000 0.63424  0.45406  0.89901  Biso   1.000  Hf
  Hf15     1.0000 0.86331  0.54299  0.60973  Biso   1.000  Hf
  Hf16     1.0000 0.85666  0.95406  0.85861  Biso   1.000  Hf
  O25      1.0000 0.53302  0.32836  0.58721  Biso   1.000  O
  O26      1.0000 0.52981  0.16753  0.83004  Biso   1.000  O
  O27      1.0000 0.96354  0.83582  0.67600  Biso   1.000  O
  O28      1.0000 0.95938  0.66282  0.92322  Biso   1.000  O
  O29      1.0000 0.77474  0.25897  0.74779  Biso   1.000  O
  O30      1.0000 0.77319  0.23992  0.99514  Biso   1.000  O
  O31      1.0000 0.72537  0.75467  0.51638  Biso   1.000  O
  O32      1.0000 0.72026  0.74228  0.76389  Biso   1.000  O
  Sc1      1.0000 0.49710  0.49994  0.25258  Biso   1.000  Sc
