data_image0
_cell_length_a       10.0501
_cell_length_b       10.3833
_cell_length_c       5.04053
_cell_angle_alpha    90.0217
_cell_angle_beta     89.9741
_cell_angle_gamma    90.0571

_symmetry_space_group_name_H-M    "P 1"
_symmetry_int_tables_number       1

loop_
  _symmetry_equiv_pos_as_xyz
  'x, y, z'

loop_
  _atom_site_label
  _atom_site_occupancy
  _atom_site_fract_x
  _atom_site_fract_y
  _atom_site_fract_z
  _atom_site_thermal_displace_type
  _atom_site_B_iso_or_equiv
  _atom_site_type_symbol
  Sc1      1.0000 0.13546  0.01693  0.24948  Biso   1.000  Sc
  Zr1      1.0000 0.13511  0.51549  0.25167  Biso   1.000  Zr
  Zr2      1.0000 0.63335  0.01526  0.24768  Biso   1.000  Zr
  Zr3      1.0000 0.63399  0.51568  0.25127  Biso   1.000  Zr
  Zr4      1.0000 0.13446  0.23088  0.75241  Biso   1.000  Zr
  Zr5      1.0000 0.13590  0.73640  0.75348  Biso   1.000  Zr
  Zr6      1.0000 0.63343  0.23416  0.74948  Biso   1.000  Zr
  Zr7      1.0000 0.63413  0.73532  0.75039  Biso   1.000  Zr
  Zr8      1.0000 0.36353  0.26375  0.25316  Biso   1.000  Zr
  Zr9      1.0000 0.36442  0.76749  0.25282  Biso   1.000  Zr
  Zr10     1.0000 0.86651  0.26419  0.24984  Biso   1.000  Zr
  Zr11     1.0000 0.86675  0.76746  0.25053  Biso   1.000  Zr
  Zr12     1.0000 0.36552  0.48379  0.75188  Biso   1.000  Zr
  Zr13     1.0000 0.36145  0.98469  0.75295  Biso   1.000  Zr
  Zr14     1.0000 0.86592  0.48479  0.75201  Biso   1.000  Zr
  Zr15     1.0000 0.86882  0.98511  0.74655  Biso   1.000  Zr
  O1       1.0000 0.03237  0.18260  0.39691  Biso   1.000  O
  O2       1.0000 0.03484  0.68283  0.39091  Biso   1.000  O
  O3       1.0000 0.53549  0.18400  0.38706  Biso   1.000  O
  O4       1.0000 0.53433  0.68282  0.39145  Biso   1.000  O
  O5       1.0000 0.03329  0.06800  0.89251  Biso   1.000  O
  O6       1.0000 0.03515  0.56697  0.89153  Biso   1.000  O
  O7       1.0000 0.53411  0.06688  0.88825  Biso   1.000  O
  O8       1.0000 0.53482  0.56691  0.89038  Biso   1.000  O
  O9       1.0000 0.46498  0.43277  0.39135  Biso   1.000  O
  O10      1.0000 0.46585  0.93346  0.39253  Biso   1.000  O
  O11      1.0000 0.96541  0.43348  0.39067  Biso   1.000  O
  O12      1.0000 0.96659  0.93157  0.39180  Biso   1.000  O
  O13      1.0000 0.46497  0.31673  0.89029  Biso   1.000  O
  O14      1.0000 0.46640  0.81783  0.89392  Biso   1.000  O
  O15      1.0000 0.96560  0.31807  0.89213  Biso   1.000  O
  O16      1.0000 0.96445  0.81571  0.88786  Biso   1.000  O
  O17      1.0000 0.27109  0.11901  0.50060  Biso   1.000  O
  O18      1.0000 0.26945  0.61686  0.49883  Biso   1.000  O
  O19      1.0000 0.76838  0.11614  0.49487  Biso   1.000  O
  O20      1.0000 0.76977  0.61695  0.49692  Biso   1.000  O
  O21      1.0000 0.27011  0.13225  0.99905  Biso   1.000  O
  O22      1.0000 0.27036  0.63219  0.99881  Biso   1.000  O
  O23      1.0000 0.76893  0.13402  0.99466  Biso   1.000  O
  O24      1.0000 0.76904  0.63339  0.99717  Biso   1.000  O
  O25      1.0000 0.23058  0.38215  0.99890  Biso   1.000  O
  O26      1.0000 0.22990  0.88150  0.00109  Biso   1.000  O
  O27      1.0000 0.72998  0.38360  0.99649  Biso   1.000  O
  O28      1.0000 0.73170  0.88398  0.99462  Biso   1.000  O
  O29      1.0000 0.22938  0.36759  0.49875  Biso   1.000  O
  O30      1.0000 0.23262  0.86594  0.50220  Biso   1.000  O
  O31      1.0000 0.73122  0.36672  0.49672  Biso   1.000  O
  O32      1.0000 0.72950  0.86661  0.49433  Biso   1.000  O
