data_image0
_cell_length_a       10.0415
_cell_length_b       10.4081
_cell_length_c       10.0687
_cell_angle_alpha    90.0116
_cell_angle_beta     89.9854
_cell_angle_gamma    90.028

_symmetry_space_group_name_H-M    "P 1"
_symmetry_int_tables_number       1

loop_
  _symmetry_equiv_pos_as_xyz
  'x, y, z'

loop_
  _atom_site_label
  _atom_site_occupancy
  _atom_site_fract_x
  _atom_site_fract_y
  _atom_site_fract_z
  _atom_site_thermal_displace_type
  _atom_site_B_iso_or_equiv
  _atom_site_type_symbol
  Sc1      1.0000 0.13462  0.01658  0.12370  Biso   1.000  Sc
  Zr1      1.0000 0.13426  0.01617  0.62656  Biso   1.000  Zr
  Zr2      1.0000 0.13463  0.51523  0.12569  Biso   1.000  Zr
  Zr3      1.0000 0.13421  0.51594  0.62573  Biso   1.000  Zr
  Zr4      1.0000 0.63366  0.01555  0.12481  Biso   1.000  Zr
  Zr5      1.0000 0.63347  0.01534  0.62445  Biso   1.000  Zr
  Zr6      1.0000 0.63387  0.51564  0.12563  Biso   1.000  Zr
  Zr7      1.0000 0.63401  0.51570  0.62559  Biso   1.000  Zr
  Zr8      1.0000 0.13415  0.23262  0.37407  Biso   1.000  Zr
  Zr9      1.0000 0.13434  0.23258  0.87720  Biso   1.000  Zr
  Zr10     1.0000 0.13507  0.73561  0.37514  Biso   1.000  Zr
  Zr11     1.0000 0.13497  0.73517  0.87693  Biso   1.000  Zr
  Zr12     1.0000 0.63362  0.23418  0.37509  Biso   1.000  Zr
  Zr13     1.0000 0.63361  0.23431  0.87520  Biso   1.000  Zr
  Zr14     1.0000 0.63360  0.73493  0.37521  Biso   1.000  Zr
  Zr15     1.0000 0.63427  0.73485  0.87568  Biso   1.000  Zr
  Zr16     1.0000 0.36435  0.26369  0.12619  Biso   1.000  Zr
  Zr17     1.0000 0.36543  0.26570  0.62579  Biso   1.000  Zr
  Zr18     1.0000 0.36433  0.76664  0.12602  Biso   1.000  Zr
  Zr19     1.0000 0.36639  0.76649  0.62586  Biso   1.000  Zr
  Zr20     1.0000 0.86675  0.26444  0.12570  Biso   1.000  Zr
  Zr21     1.0000 0.86606  0.26541  0.62483  Biso   1.000  Zr
  Zr22     1.0000 0.86697  0.76745  0.12558  Biso   1.000  Zr
  Zr23     1.0000 0.86608  0.76586  0.62539  Biso   1.000  Zr
  Zr24     1.0000 0.36590  0.48430  0.37556  Biso   1.000  Zr
  Zr25     1.0000 0.36585  0.48394  0.87589  Biso   1.000  Zr
  Zr26     1.0000 0.36361  0.98519  0.37387  Biso   1.000  Zr
  Zr27     1.0000 0.36384  0.98401  0.87811  Biso   1.000  Zr
  Zr28     1.0000 0.86602  0.48463  0.37560  Biso   1.000  Zr
  Zr29     1.0000 0.86573  0.48455  0.87584  Biso   1.000  Zr
  Zr30     1.0000 0.86790  0.98422  0.37307  Biso   1.000  Zr
  Zr31     1.0000 0.86684  0.98506  0.87530  Biso   1.000  Zr
  O1       1.0000 0.03319  0.18277  0.19712  Biso   1.000  O
  O2       1.0000 0.03548  0.18437  0.69465  Biso   1.000  O
  O3       1.0000 0.03537  0.68278  0.19468  Biso   1.000  O
  O4       1.0000 0.03557  0.68404  0.69466  Biso   1.000  O
  O5       1.0000 0.53579  0.18388  0.19379  Biso   1.000  O
  O6       1.0000 0.53551  0.18398  0.69373  Biso   1.000  O
  O7       1.0000 0.53464  0.68303  0.19513  Biso   1.000  O
  O8       1.0000 0.53538  0.68351  0.69481  Biso   1.000  O
  O9       1.0000 0.03457  0.06678  0.44713  Biso   1.000  O
  O10      1.0000 0.03464  0.06710  0.94204  Biso   1.000  O
  O11      1.0000 0.03533  0.56650  0.44486  Biso   1.000  O
  O12      1.0000 0.03550  0.56653  0.94481  Biso   1.000  O
  O13      1.0000 0.53460  0.06653  0.44396  Biso   1.000  O
  O14      1.0000 0.53523  0.06654  0.94418  Biso   1.000  O
  O15      1.0000 0.53515  0.56659  0.44495  Biso   1.000  O
  O16      1.0000 0.53542  0.56652  0.94445  Biso   1.000  O
  O17      1.0000 0.46477  0.43282  0.19505  Biso   1.000  O
  O18      1.0000 0.46456  0.43371  0.69470  Biso   1.000  O
  O19      1.0000 0.46539  0.93350  0.19464  Biso   1.000  O
  O20      1.0000 0.46468  0.93379  0.69559  Biso   1.000  O
  O21      1.0000 0.96485  0.43368  0.19472  Biso   1.000  O
  O22      1.0000 0.96443  0.43409  0.69447  Biso   1.000  O
  O23      1.0000 0.96567  0.93187  0.19557  Biso   1.000  O
  O24      1.0000 0.96446  0.93374  0.69409  Biso   1.000  O
  O25      1.0000 0.46461  0.31656  0.44490  Biso   1.000  O
  O26      1.0000 0.46461  0.31643  0.94421  Biso   1.000  O
  O27      1.0000 0.46520  0.81712  0.44571  Biso   1.000  O
  O28      1.0000 0.46538  0.81687  0.94537  Biso   1.000  O
  O29      1.0000 0.96481  0.31690  0.44458  Biso   1.000  O
  O30      1.0000 0.96507  0.31725  0.94530  Biso   1.000  O
  O31      1.0000 0.96513  0.81603  0.44489  Biso   1.000  O
  O32      1.0000 0.96359  0.81558  0.94297  Biso   1.000  O
  O33      1.0000 0.27097  0.11896  0.24981  Biso   1.000  O
  O34      1.0000 0.27001  0.11733  0.74930  Biso   1.000  O
  O35      1.0000 0.26936  0.61639  0.24904  Biso   1.000  O
  O36      1.0000 0.26979  0.61758  0.74930  Biso   1.000  O
  O37      1.0000 0.76863  0.11649  0.24827  Biso   1.000  O
  O38      1.0000 0.76933  0.11688  0.74799  Biso   1.000  O
  O39      1.0000 0.76970  0.61716  0.24871  Biso   1.000  O
  O40      1.0000 0.76966  0.61704  0.74872  Biso   1.000  O
  O41      1.0000 0.26908  0.13283  0.49973  Biso   1.000  O
  O42      1.0000 0.27056  0.13250  0.99861  Biso   1.000  O
  O43      1.0000 0.26978  0.63346  0.49898  Biso   1.000  O
  O44      1.0000 0.27013  0.63174  0.99935  Biso   1.000  O
  O45      1.0000 0.76917  0.13366  0.49793  Biso   1.000  O
  O46      1.0000 0.76949  0.13338  0.99822  Biso   1.000  O
  O47      1.0000 0.76919  0.63331  0.49877  Biso   1.000  O
  O48      1.0000 0.76949  0.63307  0.99877  Biso   1.000  O
  O49      1.0000 0.23059  0.38312  0.49894  Biso   1.000  O
  O50      1.0000 0.23042  0.38216  0.99933  Biso   1.000  O
  O51      1.0000 0.23016  0.88344  0.49984  Biso   1.000  O
  O52      1.0000 0.22999  0.88114  0.99962  Biso   1.000  O
  O53      1.0000 0.73025  0.38338  0.49868  Biso   1.000  O
  O54      1.0000 0.73010  0.38315  0.99855  Biso   1.000  O
  O55      1.0000 0.73142  0.88353  0.49782  Biso   1.000  O
  O56      1.0000 0.73067  0.88331  0.99847  Biso   1.000  O
  O57      1.0000 0.22977  0.36756  0.24893  Biso   1.000  O
  O58      1.0000 0.23012  0.36725  0.74927  Biso   1.000  O
  O59      1.0000 0.23291  0.86546  0.25078  Biso   1.000  O
  O60      1.0000 0.23030  0.86754  0.74933  Biso   1.000  O
  O61      1.0000 0.73094  0.36683  0.24877  Biso   1.000  O
  O62      1.0000 0.73061  0.36708  0.74861  Biso   1.000  O
  O63      1.0000 0.72957  0.86689  0.24816  Biso   1.000  O
  O64      1.0000 0.73002  0.86686  0.74802  Biso   1.000  O
