data_image0
_cell_length_a       10.2081
_cell_length_b       10.3318
_cell_length_c       10.4991
_cell_angle_alpha    89.9966
_cell_angle_beta     80.223
_cell_angle_gamma    90.0068

_symmetry_space_group_name_H-M    "P 1"
_symmetry_int_tables_number       1

loop_
  _symmetry_equiv_pos_as_xyz
  'x, y, z'

loop_
  _atom_site_label
  _atom_site_occupancy
  _atom_site_fract_x
  _atom_site_fract_y
  _atom_site_fract_z
  _atom_site_thermal_displace_type
  _atom_site_B_iso_or_equiv
  _atom_site_type_symbol
  Sc1      1.0000 0.13835  0.02018  0.14697  Biso   1.000  Sc
  Zr1      1.0000 0.13905  0.02145  0.64524  Biso   1.000  Zr
  Zr2      1.0000 0.13967  0.52111  0.14522  Biso   1.000  Zr
  Zr3      1.0000 0.13934  0.52134  0.64572  Biso   1.000  Zr
  Zr4      1.0000 0.63921  0.02117  0.14566  Biso   1.000  Zr
  Zr5      1.0000 0.63892  0.02112  0.64539  Biso   1.000  Zr
  Zr6      1.0000 0.63866  0.52075  0.14521  Biso   1.000  Zr
  Zr7      1.0000 0.63897  0.52135  0.64545  Biso   1.000  Zr
  Zr8      1.0000 0.13916  0.22715  0.39367  Biso   1.000  Zr
  Zr9      1.0000 0.13923  0.22694  0.89762  Biso   1.000  Zr
  Zr10     1.0000 0.14009  0.72910  0.39464  Biso   1.000  Zr
  Zr11     1.0000 0.14015  0.73043  0.89603  Biso   1.000  Zr
  Zr12     1.0000 0.63906  0.22841  0.39529  Biso   1.000  Zr
  Zr13     1.0000 0.63894  0.22910  0.89570  Biso   1.000  Zr
  Zr14     1.0000 0.63875  0.72950  0.39522  Biso   1.000  Zr
  Zr15     1.0000 0.63887  0.72869  0.89605  Biso   1.000  Zr
  Zr16     1.0000 0.35869  0.26829  0.10511  Biso   1.000  Zr
  Zr17     1.0000 0.36018  0.27116  0.60483  Biso   1.000  Zr
  Zr18     1.0000 0.35904  0.77295  0.10445  Biso   1.000  Zr
  Zr19     1.0000 0.36104  0.77200  0.60438  Biso   1.000  Zr
  Zr20     1.0000 0.86298  0.26981  0.10418  Biso   1.000  Zr
  Zr21     1.0000 0.86099  0.27124  0.60419  Biso   1.000  Zr
  Zr22     1.0000 0.86154  0.77253  0.10525  Biso   1.000  Zr
  Zr23     1.0000 0.86094  0.77113  0.60440  Biso   1.000  Zr
  Zr24     1.0000 0.36072  0.47833  0.35424  Biso   1.000  Zr
  Zr25     1.0000 0.36064  0.47830  0.85491  Biso   1.000  Zr
  Zr26     1.0000 0.35894  0.97958  0.35295  Biso   1.000  Zr
  Zr27     1.0000 0.35955  0.97948  0.85649  Biso   1.000  Zr
  Zr28     1.0000 0.86055  0.47904  0.35440  Biso   1.000  Zr
  Zr29     1.0000 0.86119  0.47888  0.85491  Biso   1.000  Zr
  Zr30     1.0000 0.86328  0.97917  0.35277  Biso   1.000  Zr
  Zr31     1.0000 0.86061  0.97872  0.85454  Biso   1.000  Zr
  O1       1.0000 0.03462  0.16774  0.07924  Biso   1.000  O
  O2       1.0000 0.03452  0.16826  0.57957  Biso   1.000  O
  O3       1.0000 0.03464  0.66754  0.07954  Biso   1.000  O
  O4       1.0000 0.03483  0.66798  0.57983  Biso   1.000  O
  O5       1.0000 0.53482  0.16782  0.07964  Biso   1.000  O
  O6       1.0000 0.53422  0.16787  0.57982  Biso   1.000  O
  O7       1.0000 0.53371  0.66706  0.07933  Biso   1.000  O
  O8       1.0000 0.53456  0.66811  0.57960  Biso   1.000  O
  O9       1.0000 0.03399  0.08282  0.33044  Biso   1.000  O
  O10      1.0000 0.03394  0.08215  0.82899  Biso   1.000  O
  O11      1.0000 0.03443  0.58255  0.32932  Biso   1.000  O
  O12      1.0000 0.03492  0.58223  0.83006  Biso   1.000  O
  O13      1.0000 0.53423  0.08240  0.32947  Biso   1.000  O
  O14      1.0000 0.53506  0.08207  0.82985  Biso   1.000  O
  O15      1.0000 0.53437  0.58212  0.32954  Biso   1.000  O
  O16      1.0000 0.53434  0.58240  0.82932  Biso   1.000  O
  O17      1.0000 0.46532  0.41644  0.17077  Biso   1.000  O
  O18      1.0000 0.46536  0.41788  0.67041  Biso   1.000  O
  O19      1.0000 0.46641  0.91729  0.17039  Biso   1.000  O
  O20      1.0000 0.46539  0.91790  0.67090  Biso   1.000  O
  O21      1.0000 0.96544  0.41837  0.17026  Biso   1.000  O
  O22      1.0000 0.96539  0.41829  0.67015  Biso   1.000  O
  O23      1.0000 0.96469  0.91707  0.17072  Biso   1.000  O
  O24      1.0000 0.96514  0.91809  0.66994  Biso   1.000  O
  O25      1.0000 0.46549  0.33234  0.42089  Biso   1.000  O
  O26      1.0000 0.46569  0.33252  0.92052  Biso   1.000  O
  O27      1.0000 0.46520  0.83266  0.42047  Biso   1.000  O
  O28      1.0000 0.46672  0.83332  0.92085  Biso   1.000  O
  O29      1.0000 0.96528  0.33266  0.42004  Biso   1.000  O
  O30      1.0000 0.96576  0.33235  0.92012  Biso   1.000  O
  O31      1.0000 0.96576  0.83162  0.42040  Biso   1.000  O
  O32      1.0000 0.96514  0.83177  0.91979  Biso   1.000  O
  O33      1.0000 0.27721  0.12888  0.24200  Biso   1.000  O
  O34      1.0000 0.27530  0.12833  0.74062  Biso   1.000  O
  O35      1.0000 0.27582  0.62779  0.24024  Biso   1.000  O
  O36      1.0000 0.27586  0.62926  0.74074  Biso   1.000  O
  O37      1.0000 0.77523  0.12856  0.24059  Biso   1.000  O
  O38      1.0000 0.77574  0.12877  0.74042  Biso   1.000  O
  O39      1.0000 0.77533  0.62882  0.24055  Biso   1.000  O
  O40      1.0000 0.77558  0.62864  0.74051  Biso   1.000  O
  O41      1.0000 0.27533  0.12141  0.49122  Biso   1.000  O
  O42      1.0000 0.27790  0.12276  0.98946  Biso   1.000  O
  O43      1.0000 0.27588  0.62149  0.49046  Biso   1.000  O
  O44      1.0000 0.27589  0.62098  0.99057  Biso   1.000  O
  O45      1.0000 0.77531  0.12177  0.49053  Biso   1.000  O
  O46      1.0000 0.77561  0.12117  0.99036  Biso   1.000  O
  O47      1.0000 0.77546  0.62151  0.49055  Biso   1.000  O
  O48      1.0000 0.77530  0.62098  0.99050  Biso   1.000  O
  O49      1.0000 0.22422  0.37875  0.00964  Biso   1.000  O
  O50      1.0000 0.22441  0.37888  0.50943  Biso   1.000  O
  O51      1.0000 0.22546  0.87782  0.00806  Biso   1.000  O
  O52      1.0000 0.22399  0.87889  0.50929  Biso   1.000  O
  O53      1.0000 0.72467  0.37839  0.00936  Biso   1.000  O
  O54      1.0000 0.72412  0.37895  0.50951  Biso   1.000  O
  O55      1.0000 0.72449  0.87863  0.00940  Biso   1.000  O
  O56      1.0000 0.72479  0.87872  0.50927  Biso   1.000  O
  O57      1.0000 0.22360  0.37143  0.25924  Biso   1.000  O
  O58      1.0000 0.22446  0.37119  0.75978  Biso   1.000  O
  O59      1.0000 0.22556  0.86979  0.25972  Biso   1.000  O
  O60      1.0000 0.22411  0.87195  0.75877  Biso   1.000  O
  O61      1.0000 0.72461  0.37122  0.25967  Biso   1.000  O
  O62      1.0000 0.72448  0.37152  0.75928  Biso   1.000  O
  O63      1.0000 0.72312  0.87145  0.25957  Biso   1.000  O
  O64      1.0000 0.72445  0.87125  0.75936  Biso   1.000  O
