data_image0
_cell_length_a       10.1191
_cell_length_b       10.2779
_cell_length_c       5.24945
_cell_angle_alpha    89.9518
_cell_angle_beta     89.9273
_cell_angle_gamma    90.0087

_symmetry_space_group_name_H-M    "P 1"
_symmetry_int_tables_number       1

loop_
  _symmetry_equiv_pos_as_xyz
  'x, y, z'

loop_
  _atom_site_label
  _atom_site_occupancy
  _atom_site_fract_x
  _atom_site_fract_y
  _atom_site_fract_z
  _atom_site_thermal_displace_type
  _atom_site_B_iso_or_equiv
  _atom_site_type_symbol
  Sc1      1.0000 0.13910  0.01976  0.34677  Biso   1.000  Sc
  Zr1      1.0000 0.14016  0.52096  0.34444  Biso   1.000  Zr
  Zr2      1.0000 0.13978  0.22593  0.84492  Biso   1.000  Zr
  Zr3      1.0000 0.14160  0.73090  0.84365  Biso   1.000  Zr
  Zr4      1.0000 0.35807  0.26802  0.34409  Biso   1.000  Zr
  Zr5      1.0000 0.35956  0.77320  0.34312  Biso   1.000  Zr
  Zr6      1.0000 0.36061  0.47807  0.84426  Biso   1.000  Zr
  Zr7      1.0000 0.35781  0.98020  0.84334  Biso   1.000  Zr
  Zr8      1.0000 0.63887  0.02093  0.15481  Biso   1.000  Zr
  Zr9      1.0000 0.63829  0.52068  0.15756  Biso   1.000  Zr
  Zr10     1.0000 0.63873  0.22923  0.65630  Biso   1.000  Zr
  Zr11     1.0000 0.63837  0.72977  0.65639  Biso   1.000  Zr
  Zr12     1.0000 0.86223  0.26977  0.15589  Biso   1.000  Zr
  Zr13     1.0000 0.86127  0.77190  0.15712  Biso   1.000  Zr
  Zr14     1.0000 0.86065  0.47958  0.65747  Biso   1.000  Zr
  Zr15     1.0000 0.86257  0.97955  0.65276  Biso   1.000  Zr
  O1       1.0000 0.03109  0.16319  0.16566  Biso   1.000  O
  O2       1.0000 0.03187  0.66390  0.16705  Biso   1.000  O
  O3       1.0000 0.03018  0.08740  0.66618  Biso   1.000  O
  O4       1.0000 0.03181  0.58661  0.66710  Biso   1.000  O
  O5       1.0000 0.46809  0.41233  0.16575  Biso   1.000  O
  O6       1.0000 0.46958  0.91314  0.16385  Biso   1.000  O
  O7       1.0000 0.46842  0.33648  0.66524  Biso   1.000  O
  O8       1.0000 0.46895  0.83799  0.66415  Biso   1.000  O
  O9       1.0000 0.27611  0.12471  0.59458  Biso   1.000  O
  O10      1.0000 0.27583  0.62394  0.59205  Biso   1.000  O
  O11      1.0000 0.27663  0.12658  0.09087  Biso   1.000  O
  O12      1.0000 0.27553  0.62516  0.09242  Biso   1.000  O
  O13      1.0000 0.22436  0.37424  0.59224  Biso   1.000  O
  O14      1.0000 0.22511  0.87349  0.59074  Biso   1.000  O
  O15      1.0000 0.22403  0.37601  0.09235  Biso   1.000  O
  O16      1.0000 0.22659  0.87437  0.08883  Biso   1.000  O
  O17      1.0000 0.53155  0.16357  0.33432  Biso   1.000  O
  O18      1.0000 0.53105  0.66330  0.33578  Biso   1.000  O
  O19      1.0000 0.53167  0.08648  0.83399  Biso   1.000  O
  O20      1.0000 0.53106  0.58668  0.83591  Biso   1.000  O
  O21      1.0000 0.96852  0.41435  0.33361  Biso   1.000  O
  O22      1.0000 0.96777  0.91337  0.33275  Biso   1.000  O
  O23      1.0000 0.96869  0.33676  0.83329  Biso   1.000  O
  O24      1.0000 0.96891  0.83589  0.83268  Biso   1.000  O
  O25      1.0000 0.77503  0.12484  0.90771  Biso   1.000  O
  O26      1.0000 0.77470  0.62420  0.90891  Biso   1.000  O
  O27      1.0000 0.77458  0.12581  0.40791  Biso   1.000  O
  O28      1.0000 0.77513  0.62603  0.40904  Biso   1.000  O
  O29      1.0000 0.72470  0.37451  0.90861  Biso   1.000  O
  O30      1.0000 0.72568  0.87459  0.90726  Biso   1.000  O
  O31      1.0000 0.72527  0.37596  0.40897  Biso   1.000  O
  O32      1.0000 0.72382  0.87568  0.40728  Biso   1.000  O
