data_image0
_cell_length_a       10.1117
_cell_length_b       10.2877
_cell_length_c       10.5073
_cell_angle_alpha    89.9761
_cell_angle_beta     90.0057
_cell_angle_gamma    90.0032

_symmetry_space_group_name_H-M    "P 1"
_symmetry_int_tables_number       1

loop_
  _symmetry_equiv_pos_as_xyz
  'x, y, z'

loop_
  _atom_site_label
  _atom_site_occupancy
  _atom_site_fract_x
  _atom_site_fract_y
  _atom_site_fract_z
  _atom_site_thermal_displace_type
  _atom_site_B_iso_or_equiv
  _atom_site_type_symbol
  Sc1      1.0000 0.13797  0.01993  0.17339  Biso   1.000  Sc
  Zr1      1.0000 0.13897  0.02120  0.67145  Biso   1.000  Zr
  Zr2      1.0000 0.13942  0.52091  0.17168  Biso   1.000  Zr
  Zr3      1.0000 0.13914  0.52099  0.67192  Biso   1.000  Zr
  Zr4      1.0000 0.13895  0.22752  0.41985  Biso   1.000  Zr
  Zr5      1.0000 0.13899  0.22691  0.92416  Biso   1.000  Zr
  Zr6      1.0000 0.13990  0.72983  0.42087  Biso   1.000  Zr
  Zr7      1.0000 0.14006  0.73008  0.92237  Biso   1.000  Zr
  Zr8      1.0000 0.35866  0.26809  0.17173  Biso   1.000  Zr
  Zr9      1.0000 0.36020  0.27085  0.67187  Biso   1.000  Zr
  Zr10     1.0000 0.35920  0.77260  0.17152  Biso   1.000  Zr
  Zr11     1.0000 0.36105  0.77160  0.67160  Biso   1.000  Zr
  Zr12     1.0000 0.36080  0.47864  0.42144  Biso   1.000  Zr
  Zr13     1.0000 0.36047  0.47845  0.92222  Biso   1.000  Zr
  Zr14     1.0000 0.35918  0.97983  0.41977  Biso   1.000  Zr
  Zr15     1.0000 0.35935  0.97949  0.92340  Biso   1.000  Zr
  Zr16     1.0000 0.63929  0.02104  0.07836  Biso   1.000  Zr
  Zr17     1.0000 0.63885  0.02088  0.57747  Biso   1.000  Zr
  Zr18     1.0000 0.63865  0.52047  0.07869  Biso   1.000  Zr
  Zr19     1.0000 0.63902  0.52103  0.57849  Biso   1.000  Zr
  Zr20     1.0000 0.63901  0.22922  0.32809  Biso   1.000  Zr
  Zr21     1.0000 0.63906  0.22893  0.82853  Biso   1.000  Zr
  Zr22     1.0000 0.63877  0.72978  0.32782  Biso   1.000  Zr
  Zr23     1.0000 0.63884  0.72918  0.82882  Biso   1.000  Zr
  Zr24     1.0000 0.86331  0.26961  0.07853  Biso   1.000  Zr
  Zr25     1.0000 0.86101  0.27100  0.57803  Biso   1.000  Zr
  Zr26     1.0000 0.86191  0.77224  0.07914  Biso   1.000  Zr
  Zr27     1.0000 0.86105  0.77095  0.57815  Biso   1.000  Zr
  Zr28     1.0000 0.86096  0.47943  0.32834  Biso   1.000  Zr
  Zr29     1.0000 0.86116  0.47913  0.82900  Biso   1.000  Zr
  Zr30     1.0000 0.86368  0.97944  0.32665  Biso   1.000  Zr
  Zr31     1.0000 0.86086  0.97894  0.82826  Biso   1.000  Zr
  O1       1.0000 0.03192  0.16388  0.08257  Biso   1.000  O
  O2       1.0000 0.03165  0.16424  0.58283  Biso   1.000  O
  O3       1.0000 0.03198  0.66368  0.08274  Biso   1.000  O
  O4       1.0000 0.03201  0.66410  0.58303  Biso   1.000  O
  O5       1.0000 0.03118  0.08695  0.33364  Biso   1.000  O
  O6       1.0000 0.03122  0.08603  0.83201  Biso   1.000  O
  O7       1.0000 0.03189  0.58652  0.33279  Biso   1.000  O
  O8       1.0000 0.03201  0.58593  0.83312  Biso   1.000  O
  O9       1.0000 0.46805  0.41258  0.08270  Biso   1.000  O
  O10      1.0000 0.46835  0.41370  0.58288  Biso   1.000  O
  O11      1.0000 0.46959  0.91333  0.08260  Biso   1.000  O
  O12      1.0000 0.46819  0.91372  0.58204  Biso   1.000  O
  O13      1.0000 0.46832  0.33637  0.33285  Biso   1.000  O
  O14      1.0000 0.46848  0.33630  0.83247  Biso   1.000  O
  O15      1.0000 0.46890  0.83744  0.33206  Biso   1.000  O
  O16      1.0000 0.46824  0.83650  0.83270  Biso   1.000  O
  O17      1.0000 0.27687  0.12511  0.29722  Biso   1.000  O
  O18      1.0000 0.27481  0.12407  0.79535  Biso   1.000  O
  O19      1.0000 0.27573  0.62373  0.29546  Biso   1.000  O
  O20      1.0000 0.27542  0.62459  0.79580  Biso   1.000  O
  O21      1.0000 0.27739  0.12665  0.04464  Biso   1.000  O
  O22      1.0000 0.27499  0.12559  0.54593  Biso   1.000  O
  O23      1.0000 0.27539  0.62478  0.04589  Biso   1.000  O
  O24      1.0000 0.27557  0.62602  0.54554  Biso   1.000  O
  O25      1.0000 0.22422  0.37431  0.29554  Biso   1.000  O
  O26      1.0000 0.22495  0.37426  0.79589  Biso   1.000  O
  O27      1.0000 0.22519  0.87326  0.29584  Biso   1.000  O
  O28      1.0000 0.22460  0.87455  0.79488  Biso   1.000  O
  O29      1.0000 0.22407  0.37592  0.04596  Biso   1.000  O
  O30      1.0000 0.22481  0.37581  0.54559  Biso   1.000  O
  O31      1.0000 0.22687  0.87393  0.04419  Biso   1.000  O
  O32      1.0000 0.22442  0.87606  0.54548  Biso   1.000  O
  O33      1.0000 0.53186  0.16376  0.16728  Biso   1.000  O
  O34      1.0000 0.53148  0.16381  0.66713  Biso   1.000  O
  O35      1.0000 0.53107  0.66332  0.16755  Biso   1.000  O
  O36      1.0000 0.53162  0.66375  0.66762  Biso   1.000  O
  O37      1.0000 0.53164  0.08623  0.41691  Biso   1.000  O
  O38      1.0000 0.53192  0.08620  0.91728  Biso   1.000  O
  O39      1.0000 0.53147  0.58670  0.41775  Biso   1.000  O
  O40      1.0000 0.53125  0.58607  0.91750  Biso   1.000  O
  O41      1.0000 0.96814  0.41468  0.16724  Biso   1.000  O
  O42      1.0000 0.96808  0.41427  0.66714  Biso   1.000  O
  O43      1.0000 0.96738  0.91327  0.16722  Biso   1.000  O
  O44      1.0000 0.96793  0.91411  0.66682  Biso   1.000  O
  O45      1.0000 0.96800  0.33664  0.41708  Biso   1.000  O
  O46      1.0000 0.96858  0.33625  0.91710  Biso   1.000  O
  O47      1.0000 0.96851  0.83565  0.41752  Biso   1.000  O
  O48      1.0000 0.96816  0.83563  0.91642  Biso   1.000  O
  O49      1.0000 0.77551  0.12412  0.95412  Biso   1.000  O
  O50      1.0000 0.77486  0.12513  0.45440  Biso   1.000  O
  O51      1.0000 0.77477  0.62399  0.95451  Biso   1.000  O
  O52      1.0000 0.77509  0.62450  0.45454  Biso   1.000  O
  O53      1.0000 0.77489  0.12580  0.20432  Biso   1.000  O
  O54      1.0000 0.77501  0.12561  0.70427  Biso   1.000  O
  O55      1.0000 0.77519  0.62604  0.20457  Biso   1.000  O
  O56      1.0000 0.77512  0.62572  0.70457  Biso   1.000  O
  O57      1.0000 0.72474  0.37396  0.95448  Biso   1.000  O
  O58      1.0000 0.72450  0.37491  0.45459  Biso   1.000  O
  O59      1.0000 0.72494  0.87438  0.95425  Biso   1.000  O
  O60      1.0000 0.72534  0.87461  0.45423  Biso   1.000  O
  O61      1.0000 0.72509  0.37584  0.20481  Biso   1.000  O
  O62      1.0000 0.72480  0.37570  0.70447  Biso   1.000  O
  O63      1.0000 0.72354  0.87571  0.20411  Biso   1.000  O
  O64      1.0000 0.72454  0.87553  0.70435  Biso   1.000  O
