data_image0
_cell_length_a       10.1156
_cell_length_b       10.3182
_cell_length_c       10.5941
_cell_angle_alpha    89.9502
_cell_angle_beta     90.7186
_cell_angle_gamma    90.1279

_symmetry_space_group_name_H-M    "P 1"
_symmetry_int_tables_number       1

loop_
  _symmetry_equiv_pos_as_xyz
  'x, y, z'

loop_
  _atom_site_label
  _atom_site_occupancy
  _atom_site_fract_x
  _atom_site_fract_y
  _atom_site_fract_z
  _atom_site_thermal_displace_type
  _atom_site_B_iso_or_equiv
  _atom_site_type_symbol
  Zr1      1.0000 0.13876  0.02054  0.17361  Biso   1.000  Zr
  Zr2      1.0000 0.13964  0.22706  0.42585  Biso   1.000  Zr
  Zr3      1.0000 0.35005  0.27290  0.18537  Biso   1.000  Zr
  Zr4      1.0000 0.36145  0.47856  0.42642  Biso   1.000  Zr
  Zr5      1.0000 0.64212  0.01223  0.08054  Biso   1.000  Zr
  Zr6      1.0000 0.63892  0.22655  0.32951  Biso   1.000  Zr
  Zr7      1.0000 0.86410  0.27037  0.07759  Biso   1.000  Zr
  Zr8      1.0000 0.86033  0.47828  0.32600  Biso   1.000  Zr
  O1       1.0000 0.03121  0.15989  0.08131  Biso   1.000  O
  O2       1.0000 0.03178  0.08758  0.33201  Biso   1.000  O
  O3       1.0000 0.46336  0.42413  0.09201  Biso   1.000  O
  O4       1.0000 0.46639  0.33420  0.33744  Biso   1.000  O
  O5       1.0000 0.27321  0.12347  0.30072  Biso   1.000  O
  O6       1.0000 0.27432  0.12493  0.04955  Biso   1.000  O
  O7       1.0000 0.21836  0.37676  0.30401  Biso   1.000  O
  O8       1.0000 0.21891  0.37738  0.05172  Biso   1.000  O
  O9       1.0000 0.52531  0.15659  0.17328  Biso   1.000  O
  O10      1.0000 0.53215  0.08336  0.41695  Biso   1.000  O
  O11      1.0000 0.96533  0.41442  0.17098  Biso   1.000  O
  O12      1.0000 0.97067  0.33797  0.41917  Biso   1.000  O
  O13      1.0000 0.77601  0.12402  0.45113  Biso   1.000  O
  O14      1.0000 0.77686  0.12359  0.20454  Biso   1.000  O
  O15      1.0000 0.72501  0.37452  0.44988  Biso   1.000  O
  O16      1.0000 0.71432  0.37096  0.19573  Biso   1.000  O
  Zr9      1.0000 0.14013  0.02080  0.67453  Biso   1.000  Zr
  Zr10     1.0000 0.14107  0.22903  0.92468  Biso   1.000  Zr
  Zr11     1.0000 0.36274  0.27029  0.67573  Biso   1.000  Zr
  Zr12     1.0000 0.35975  0.48122  0.92580  Biso   1.000  Zr
  Zr13     1.0000 0.64180  0.01592  0.57297  Biso   1.000  Zr
  Zr14     1.0000 0.65240  0.22639  0.79842  Biso   1.000  Zr
  Zr15     1.0000 0.86626  0.27267  0.57313  Biso   1.000  Zr
  Zr16     1.0000 0.86350  0.47894  0.82948  Biso   1.000  Zr
  O17      1.0000 0.03354  0.16150  0.58148  Biso   1.000  O
  O18      1.0000 0.03238  0.08874  0.83187  Biso   1.000  O
  O19      1.0000 0.47141  0.41295  0.58615  Biso   1.000  O
  O20      1.0000 0.47663  0.33156  0.84015  Biso   1.000  O
  O21      1.0000 0.27663  0.12468  0.79838  Biso   1.000  O
  O22      1.0000 0.27763  0.12477  0.54922  Biso   1.000  O
  O23      1.0000 0.22805  0.37377  0.80050  Biso   1.000  O
  O24      1.0000 0.22718  0.37428  0.55114  Biso   1.000  O
  O25      1.0000 0.53012  0.15753  0.66056  Biso   1.000  O
  O26      1.0000 0.52850  0.09191  0.92320  Biso   1.000  O
  O27      1.0000 0.97267  0.41076  0.67184  Biso   1.000  O
  O28      1.0000 0.96941  0.33657  0.92088  Biso   1.000  O
  O29      1.0000 0.76359  0.13167  0.95149  Biso   1.000  O
  O30      1.0000 0.78704  0.11823  0.69287  Biso   1.000  O
  O31      1.0000 0.72214  0.37748  0.95169  Biso   1.000  O
  O32      1.0000 0.73194  0.37850  0.69638  Biso   1.000  O
  Zr17     1.0000 0.13861  0.52221  0.17410  Biso   1.000  Zr
  Zr18     1.0000 0.13867  0.72767  0.42376  Biso   1.000  Zr
  Zr19     1.0000 0.36044  0.77134  0.17504  Biso   1.000  Zr
  Zr20     1.0000 0.36121  0.97684  0.42489  Biso   1.000  Zr
  Zr21     1.0000 0.64176  0.53294  0.07703  Biso   1.000  Zr
  Zr22     1.0000 0.63904  0.72887  0.32958  Biso   1.000  Zr
  Zr23     1.0000 0.86452  0.77134  0.07871  Biso   1.000  Zr
  Zr24     1.0000 0.86305  0.97876  0.32883  Biso   1.000  Zr
  O33      1.0000 0.03246  0.66296  0.08213  Biso   1.000  O
  O34      1.0000 0.02977  0.58747  0.33342  Biso   1.000  O
  O35      1.0000 0.46921  0.90999  0.08206  Biso   1.000  O
  O36      1.0000 0.46935  0.83703  0.33351  Biso   1.000  O
  O37      1.0000 0.27464  0.62433  0.29846  Biso   1.000  O
  O38      1.0000 0.27538  0.62661  0.04681  Biso   1.000  O
  O39      1.0000 0.22492  0.87371  0.29864  Biso   1.000  O
  O40      1.0000 0.22461  0.87586  0.04818  Biso   1.000  O
  O41      1.0000 0.53177  0.66697  0.17110  Biso   1.000  O
  O42      1.0000 0.53093  0.58682  0.41943  Biso   1.000  O
  O43      1.0000 0.96958  0.91274  0.17026  Biso   1.000  O
  O44      1.0000 0.97038  0.83754  0.42173  Biso   1.000  O
  O45      1.0000 0.77609  0.62434  0.45427  Biso   1.000  O
  O46      1.0000 0.77733  0.62575  0.20526  Biso   1.000  O
  O47      1.0000 0.72724  0.87329  0.45489  Biso   1.000  O
  O48      1.0000 0.72856  0.87160  0.20678  Biso   1.000  O
  Zr25     1.0000 0.14062  0.52026  0.67444  Biso   1.000  Zr
  Zr26     1.0000 0.13934  0.72971  0.92282  Biso   1.000  Zr
  Zr27     1.0000 0.36224  0.77135  0.67429  Biso   1.000  Zr
  Zr28     1.0000 0.36229  0.97856  0.92509  Biso   1.000  Zr
  Zr29     1.0000 0.64027  0.52349  0.57674  Biso   1.000  Zr
  Zr30     1.0000 0.64052  0.72967  0.82669  Biso   1.000  Zr
  Zr31     1.0000 0.86481  0.77026  0.58023  Biso   1.000  Zr
  Zr32     1.0000 0.86322  0.98030  0.82905  Biso   1.000  Zr
  O49      1.0000 0.03335  0.66147  0.58324  Biso   1.000  O
  O50      1.0000 0.03361  0.58640  0.83320  Biso   1.000  O
  O51      1.0000 0.47112  0.90922  0.58068  Biso   1.000  O
  O52      1.0000 0.47106  0.83937  0.83148  Biso   1.000  O
  O53      1.0000 0.27623  0.62528  0.79747  Biso   1.000  O
  O54      1.0000 0.27616  0.62469  0.54783  Biso   1.000  O
  O55      1.0000 0.22614  0.87433  0.79823  Biso   1.000  O
  O56      1.0000 0.22541  0.87510  0.54890  Biso   1.000  O
  O57      1.0000 0.53255  0.66310  0.66892  Biso   1.000  O
  O58      1.0000 0.53182  0.58814  0.91819  Biso   1.000  O
  O59      1.0000 0.97158  0.91052  0.67253  Biso   1.000  O
  O60      1.0000 0.97012  0.83837  0.92019  Biso   1.000  O
  O61      1.0000 0.77928  0.62832  0.95135  Biso   1.000  O
  O62      1.0000 0.77731  0.62576  0.70383  Biso   1.000  O
  O63      1.0000 0.72687  0.87589  0.95486  Biso   1.000  O
  O64      1.0000 0.72705  0.87447  0.70487  Biso   1.000  O
  Sc1      1.0000 0.56175  0.26777  0.01732  Biso   1.000  Sc
