data_image0
_cell_length_a       10.2034
_cell_length_b       10.4168
_cell_length_c       5.32426
_cell_angle_alpha    90.0181
_cell_angle_beta     79.235
_cell_angle_gamma    91.2094

_symmetry_space_group_name_H-M    "P 1"
_symmetry_int_tables_number       1

loop_
  _symmetry_equiv_pos_as_xyz
  'x, y, z'

loop_
  _atom_site_label
  _atom_site_occupancy
  _atom_site_fract_x
  _atom_site_fract_y
  _atom_site_fract_z
  _atom_site_thermal_displace_type
  _atom_site_B_iso_or_equiv
  _atom_site_type_symbol
  Zr1      1.0000 0.14014  0.02282  0.29503  Biso   1.000  Zr
  Zr2      1.0000 0.13288  0.23053  0.78887  Biso   1.000  Zr
  Zr3      1.0000 0.33888  0.27769  0.18107  Biso   1.000  Zr
  Zr4      1.0000 0.34795  0.48826  0.70661  Biso   1.000  Zr
  O1       1.0000 0.03737  0.17236  0.16623  Biso   1.000  O
  O2       1.0000 0.03909  0.07875  0.65888  Biso   1.000  O
  O3       1.0000 0.45529  0.42294  0.33914  Biso   1.000  O
  O4       1.0000 0.46080  0.33819  0.84668  Biso   1.000  O
  O5       1.0000 0.29033  0.13537  0.48533  Biso   1.000  O
  O6       1.0000 0.27272  0.12142  0.97616  Biso   1.000  O
  O7       1.0000 0.20713  0.38818  0.00581  Biso   1.000  O
  O8       1.0000 0.21059  0.37482  0.50964  Biso   1.000  O
  Zr5      1.0000 0.13261  0.52507  0.29530  Biso   1.000  Zr
  Zr6      1.0000 0.13470  0.72995  0.79578  Biso   1.000  Zr
  Zr7      1.0000 0.35995  0.77407  0.20943  Biso   1.000  Zr
  Zr8      1.0000 0.35803  0.97667  0.71101  Biso   1.000  Zr
  O9       1.0000 0.02977  0.66857  0.16276  Biso   1.000  O
  O10      1.0000 0.02849  0.58212  0.66596  Biso   1.000  O
  O11      1.0000 0.46667  0.91586  0.35136  Biso   1.000  O
  O12      1.0000 0.46472  0.83300  0.84860  Biso   1.000  O
  O13      1.0000 0.27024  0.63145  0.48453  Biso   1.000  O
  O14      1.0000 0.27057  0.62642  0.98445  Biso   1.000  O
  O15      1.0000 0.22250  0.87989  0.02290  Biso   1.000  O
  O16      1.0000 0.22119  0.87150  0.51942  Biso   1.000  O
  Zr9      1.0000 0.64620  0.01167  0.30357  Biso   1.000  Zr
  Zr10     1.0000 0.65528  0.22223  0.82911  Biso   1.000  Zr
  Zr11     1.0000 0.86128  0.26939  0.22131  Biso   1.000  Zr
  Zr12     1.0000 0.85401  0.47710  0.71515  Biso   1.000  Zr
  O17      1.0000 0.53335  0.16175  0.16350  Biso   1.000  O
  O18      1.0000 0.53886  0.07699  0.67104  Biso   1.000  O
  O19      1.0000 0.95506  0.42118  0.35130  Biso   1.000  O
  O20      1.0000 0.95678  0.32755  0.84396  Biso   1.000  O
  O21      1.0000 0.78356  0.12511  0.50055  Biso   1.000  O
  O22      1.0000 0.78702  0.11174  0.00438  Biso   1.000  O
  O23      1.0000 0.72143  0.37850  0.03403  Biso   1.000  O
  O24      1.0000 0.70382  0.36456  0.52487  Biso   1.000  O
  Zr13     1.0000 0.63612  0.52326  0.29917  Biso   1.000  Zr
  Zr14     1.0000 0.63420  0.72586  0.80075  Biso   1.000  Zr
  Zr15     1.0000 0.85945  0.76997  0.21440  Biso   1.000  Zr
  Zr16     1.0000 0.86154  0.97485  0.71488  Biso   1.000  Zr
  O25      1.0000 0.52942  0.66692  0.16157  Biso   1.000  O
  O26      1.0000 0.52748  0.58408  0.65880  Biso   1.000  O
  O27      1.0000 0.96566  0.91781  0.34422  Biso   1.000  O
  O28      1.0000 0.96438  0.83135  0.84742  Biso   1.000  O
  O29      1.0000 0.77296  0.62842  0.49076  Biso   1.000  O
  O30      1.0000 0.77164  0.62003  0.98729  Biso   1.000  O
  O31      1.0000 0.72357  0.87350  0.02573  Biso   1.000  O
  O32      1.0000 0.72391  0.86848  0.52565  Biso   1.000  O
  Sc1      1.0000 0.49708  0.24996  0.50509  Biso   1.000  Sc
