data_image0
_cell_length_a       10.1959
_cell_length_b       5.15523
_cell_length_c       10.6402
_cell_angle_alpha    90.1194
_cell_angle_beta     90.9246
_cell_angle_gamma    89.7227

_symmetry_space_group_name_H-M    "P 1"
_symmetry_int_tables_number       1

loop_
  _symmetry_equiv_pos_as_xyz
  'x, y, z'

loop_
  _atom_site_label
  _atom_site_occupancy
  _atom_site_fract_x
  _atom_site_fract_y
  _atom_site_fract_z
  _atom_site_thermal_displace_type
  _atom_site_B_iso_or_equiv
  _atom_site_type_symbol
  Zr1      1.0000 0.14012  0.04134  0.17558  Biso   1.000  Zr
  Zr2      1.0000 0.13510  0.45633  0.42528  Biso   1.000  Zr
  Zr3      1.0000 0.35222  0.53306  0.18145  Biso   1.000  Zr
  Zr4      1.0000 0.36103  0.95332  0.42739  Biso   1.000  Zr
  Zr5      1.0000 0.64041  0.02253  0.07765  Biso   1.000  Zr
  Zr6      1.0000 0.63503  0.45185  0.33532  Biso   1.000  Zr
  Zr7      1.0000 0.88217  0.55058  0.07412  Biso   1.000  Zr
  Zr8      1.0000 0.85860  0.96150  0.32490  Biso   1.000  Zr
  O1       1.0000 0.03621  0.30806  0.07467  Biso   1.000  O
  O2       1.0000 0.02448  0.19197  0.32654  Biso   1.000  O
  O3       1.0000 0.47002  0.79183  0.07763  Biso   1.000  O
  O4       1.0000 0.46967  0.68643  0.32729  Biso   1.000  O
  O5       1.0000 0.26910  0.24735  0.30204  Biso   1.000  O
  O6       1.0000 0.27582  0.24543  0.04891  Biso   1.000  O
  O7       1.0000 0.22306  0.74770  0.30228  Biso   1.000  O
  O8       1.0000 0.22572  0.75013  0.04912  Biso   1.000  O
  O9       1.0000 0.51354  0.28513  0.18781  Biso   1.000  O
  O10      1.0000 0.52522  0.18391  0.43035  Biso   1.000  O
  O11      1.0000 0.97513  0.82304  0.17743  Biso   1.000  O
  O12      1.0000 0.96965  0.69011  0.42379  Biso   1.000  O
  O13      1.0000 0.77427  0.24665  0.45339  Biso   1.000  O
  O14      1.0000 0.76232  0.26256  0.19899  Biso   1.000  O
  O15      1.0000 0.72592  0.75069  0.45396  Biso   1.000  O
  O16      1.0000 0.72700  0.74008  0.20358  Biso   1.000  O
  Zr9      1.0000 0.13822  0.04267  0.67417  Biso   1.000  Zr
  Zr10     1.0000 0.14516  0.45775  0.92174  Biso   1.000  Zr
  Zr11     1.0000 0.36231  0.54280  0.67473  Biso   1.000  Zr
  Zr12     1.0000 0.36478  0.96135  0.92483  Biso   1.000  Zr
  Zr13     1.0000 0.63948  0.03861  0.57621  Biso   1.000  Zr
  Zr14     1.0000 0.64474  0.46115  0.81163  Biso   1.000  Zr
  Zr15     1.0000 0.86452  0.54818  0.57637  Biso   1.000  Zr
  Zr16     1.0000 0.86355  0.96704  0.82942  Biso   1.000  Zr
  O17      1.0000 0.02993  0.31967  0.57852  Biso   1.000  O
  O18      1.0000 0.03178  0.18649  0.82810  Biso   1.000  O
  O19      1.0000 0.47418  0.80208  0.57570  Biso   1.000  O
  O20      1.0000 0.47693  0.69768  0.82404  Biso   1.000  O
  O21      1.0000 0.27610  0.24953  0.79814  Biso   1.000  O
  O22      1.0000 0.27283  0.24898  0.54922  Biso   1.000  O
  O23      1.0000 0.22992  0.75011  0.79872  Biso   1.000  O
  O24      1.0000 0.22649  0.75051  0.55032  Biso   1.000  O
  O25      1.0000 0.52525  0.29962  0.67561  Biso   1.000  O
  O26      1.0000 0.52334  0.21230  0.93592  Biso   1.000  O
  O27      1.0000 0.97219  0.82041  0.67408  Biso   1.000  O
  O28      1.0000 0.97913  0.68646  0.91981  Biso   1.000  O
  O29      1.0000 0.76652  0.26765  0.95341  Biso   1.000  O
  O30      1.0000 0.77858  0.24861  0.69805  Biso   1.000  O
  O31      1.0000 0.73141  0.75564  0.95050  Biso   1.000  O
  O32      1.0000 0.73068  0.75362  0.70108  Biso   1.000  O
  Sc1      1.0000 0.61885  0.50990  0.06545  Biso   1.000  Sc
