data_image0
_cell_length_a       10.0706
_cell_length_b       10.1745
_cell_length_c       5.24084
_cell_angle_alpha    90.5362
_cell_angle_beta     80.505
_cell_angle_gamma    89.3549

_symmetry_space_group_name_H-M    "P 1"
_symmetry_int_tables_number       1

loop_
  _symmetry_equiv_pos_as_xyz
  'x, y, z'

loop_
  _atom_site_label
  _atom_site_occupancy
  _atom_site_fract_x
  _atom_site_fract_y
  _atom_site_fract_z
  _atom_site_thermal_displace_type
  _atom_site_B_iso_or_equiv
  _atom_site_type_symbol
  Si1      1.0000 0.11346  0.02118  0.30970  Biso   1.000  Si
  Hf1      1.0000 0.14005  0.22262  0.76487  Biso   1.000  Hf
  Hf2      1.0000 0.35720  0.26740  0.19269  Biso   1.000  Hf
  Hf3      1.0000 0.36161  0.47855  0.70706  Biso   1.000  Hf
  O1       1.0000 0.04825  0.14300  0.13939  Biso   1.000  O
  O2       1.0000 0.03455  0.07849  0.62127  Biso   1.000  O
  O3       1.0000 0.46619  0.41174  0.34886  Biso   1.000  O
  O4       1.0000 0.47449  0.34449  0.85371  Biso   1.000  O
  O5       1.0000 0.25283  0.11180  0.41077  Biso   1.000  O
  O6       1.0000 0.29929  0.14967  0.89764  Biso   1.000  O
  O7       1.0000 0.22282  0.38459  0.01103  Biso   1.000  O
  O8       1.0000 0.22741  0.36546  0.51281  Biso   1.000  O
  Hf4      1.0000 0.14120  0.52089  0.29093  Biso   1.000  Hf
  Hf5      1.0000 0.13536  0.72615  0.79638  Biso   1.000  Hf
  Hf6      1.0000 0.35353  0.77991  0.22415  Biso   1.000  Hf
  Hf7      1.0000 0.35993  0.98215  0.70990  Biso   1.000  Hf
  O9       1.0000 0.03212  0.66317  0.16058  Biso   1.000  O
  O10      1.0000 0.03451  0.58212  0.65936  Biso   1.000  O
  O11      1.0000 0.46863  0.91425  0.35730  Biso   1.000  O
  O12      1.0000 0.45771  0.83879  0.86160  Biso   1.000  O
  O13      1.0000 0.27499  0.62647  0.48064  Biso   1.000  O
  O14      1.0000 0.27594  0.63025  0.98339  Biso   1.000  O
  O15      1.0000 0.21484  0.91665  0.07607  Biso   1.000  O
  O16      1.0000 0.22381  0.86693  0.55205  Biso   1.000  O
  Hf8      1.0000 0.63848  0.02299  0.29258  Biso   1.000  Hf
  Hf9      1.0000 0.64099  0.22989  0.79267  Biso   1.000  Hf
  Hf10     1.0000 0.86903  0.26589  0.21156  Biso   1.000  Hf
  Hf11     1.0000 0.86152  0.47633  0.71396  Biso   1.000  Hf
  O17      1.0000 0.53302  0.16311  0.14864  Biso   1.000  O
  O18      1.0000 0.53789  0.08612  0.65007  Biso   1.000  O
  O19      1.0000 0.97266  0.40717  0.35595  Biso   1.000  O
  O20      1.0000 0.96868  0.33019  0.85513  Biso   1.000  O
  O21      1.0000 0.78019  0.12676  0.47798  Biso   1.000  O
  O22      1.0000 0.77984  0.12028  0.98013  Biso   1.000  O
  O23      1.0000 0.72929  0.37641  0.02727  Biso   1.000  O
  O24      1.0000 0.72761  0.36986  0.52181  Biso   1.000  O
  Hf12     1.0000 0.63579  0.52105  0.29372  Biso   1.000  Hf
  Hf13     1.0000 0.63394  0.72941  0.80028  Biso   1.000  Hf
  Hf14     1.0000 0.86057  0.77080  0.21473  Biso   1.000  Hf
  Hf15     1.0000 0.85948  0.97619  0.71167  Biso   1.000  Hf
  O25      1.0000 0.53020  0.66731  0.15838  Biso   1.000  O
  O26      1.0000 0.53199  0.58739  0.65392  Biso   1.000  O
  O27      1.0000 0.97539  0.91581  0.34527  Biso   1.000  O
  O28      1.0000 0.96347  0.83354  0.85371  Biso   1.000  O
  O29      1.0000 0.77621  0.62691  0.48492  Biso   1.000  O
  O30      1.0000 0.77459  0.62136  0.98445  Biso   1.000  O
  O31      1.0000 0.72149  0.87800  0.02502  Biso   1.000  O
  O32      1.0000 0.72694  0.87051  0.52405  Biso   1.000  O
