data_image0
_cell_length_a       10.0713
_cell_length_b       5.08252
_cell_length_c       10.5084
_cell_angle_alpha    90.4276
_cell_angle_beta     80.4903
_cell_angle_gamma    89.2264

_symmetry_space_group_name_H-M    "P 1"
_symmetry_int_tables_number       1

loop_
  _symmetry_equiv_pos_as_xyz
  'x, y, z'

loop_
  _atom_site_label
  _atom_site_occupancy
  _atom_site_fract_x
  _atom_site_fract_y
  _atom_site_fract_z
  _atom_site_thermal_displace_type
  _atom_site_B_iso_or_equiv
  _atom_site_type_symbol
  Si1      1.0000 0.11660  0.04652  0.15759  Biso   1.000  Si
  Hf1      1.0000 0.13754  0.44155  0.39017  Biso   1.000  Hf
  Hf2      1.0000 0.35211  0.55192  0.10400  Biso   1.000  Hf
  Hf3      1.0000 0.36061  0.94674  0.35026  Biso   1.000  Hf
  O1       1.0000 0.04799  0.29534  0.07754  Biso   1.000  O
  O2       1.0000 0.03496  0.15361  0.31374  Biso   1.000  O
  O3       1.0000 0.47234  0.81453  0.17825  Biso   1.000  O
  O4       1.0000 0.46965  0.68160  0.42899  Biso   1.000  O
  O5       1.0000 0.25542  0.21926  0.21520  Biso   1.000  O
  O6       1.0000 0.27673  0.24000  0.47985  Biso   1.000  O
  O7       1.0000 0.21875  0.85226  0.03646  Biso   1.000  O
  O8       1.0000 0.22832  0.71600  0.26738  Biso   1.000  O
  Hf4      1.0000 0.13766  0.03437  0.64226  Biso   1.000  Hf
  Hf5      1.0000 0.13687  0.45245  0.88896  Biso   1.000  Hf
  Hf6      1.0000 0.36207  0.54636  0.60612  Biso   1.000  Hf
  Hf7      1.0000 0.35967  0.98071  0.86096  Biso   1.000  Hf
  O9       1.0000 0.02889  0.30546  0.56840  Biso   1.000  O
  O10      1.0000 0.03121  0.17254  0.82245  Biso   1.000  O
  O11      1.0000 0.46621  0.82688  0.68030  Biso   1.000  O
  O12      1.0000 0.46837  0.70505  0.93336  Biso   1.000  O
  O13      1.0000 0.27185  0.25351  0.72888  Biso   1.000  O
  O14      1.0000 0.29467  0.32126  0.96200  Biso   1.000  O
  O15      1.0000 0.22242  0.74735  0.51241  Biso   1.000  O
  O16      1.0000 0.22530  0.74690  0.76828  Biso   1.000  O
  Hf8      1.0000 0.63631  0.04594  0.14478  Biso   1.000  Hf
  Hf9      1.0000 0.63870  0.45353  0.39504  Biso   1.000  Hf
  Hf10     1.0000 0.87014  0.53621  0.10729  Biso   1.000  Hf
  Hf11     1.0000 0.86022  0.94927  0.35591  Biso   1.000  Hf
  O17      1.0000 0.52848  0.32608  0.07397  Biso   1.000  O
  O18      1.0000 0.52943  0.18015  0.32174  Biso   1.000  O
  O19      1.0000 0.98224  0.82623  0.17412  Biso   1.000  O
  O20      1.0000 0.96582  0.66242  0.42533  Biso   1.000  O
  O21      1.0000 0.77790  0.24956  0.23933  Biso   1.000  O
  O22      1.0000 0.77628  0.23647  0.48933  Biso   1.000  O
  O23      1.0000 0.72863  0.75616  0.01399  Biso   1.000  O
  O24      1.0000 0.73254  0.73634  0.25954  Biso   1.000  O
  Hf12     1.0000 0.63702  0.04156  0.64747  Biso   1.000  Hf
  Hf13     1.0000 0.63563  0.46604  0.89989  Biso   1.000  Hf
  Hf14     1.0000 0.86004  0.53558  0.60614  Biso   1.000  Hf
  Hf15     1.0000 0.86082  0.95483  0.85700  Biso   1.000  Hf
  O25      1.0000 0.53261  0.32248  0.57203  Biso   1.000  O
  O26      1.0000 0.53266  0.18942  0.82210  Biso   1.000  O
  O27      1.0000 0.96906  0.80815  0.68000  Biso   1.000  O
  O28      1.0000 0.96899  0.67346  0.93274  Biso   1.000  O
  O29      1.0000 0.77657  0.25460  0.74091  Biso   1.000  O
  O30      1.0000 0.77761  0.24756  0.99142  Biso   1.000  O
  O31      1.0000 0.72294  0.75092  0.51244  Biso   1.000  O
  O32      1.0000 0.72315  0.74490  0.76367  Biso   1.000  O
