data_image0
_cell_length_a       10.1367
_cell_length_b       5.17632
_cell_length_c       10.5466
_cell_angle_alpha    90.3026
_cell_angle_beta     80.0887
_cell_angle_gamma    90.1651

_symmetry_space_group_name_H-M    "P 1"
_symmetry_int_tables_number       1

loop_
  _symmetry_equiv_pos_as_xyz
  'x, y, z'

loop_
  _atom_site_label
  _atom_site_occupancy
  _atom_site_fract_x
  _atom_site_fract_y
  _atom_site_fract_z
  _atom_site_thermal_displace_type
  _atom_site_B_iso_or_equiv
  _atom_site_type_symbol
  Hf1      1.0000 0.13446  0.04579  0.14416  Biso   1.000  Hf
  Hf2      1.0000 0.13346  0.46259  0.40020  Biso   1.000  Hf
  Hf3      1.0000 0.36429  0.54439  0.09762  Biso   1.000  Hf
  Hf4      1.0000 0.34849  0.85891  0.33387  Biso   1.000  Hf
  O1       1.0000 0.03055  0.34514  0.08014  Biso   1.000  O
  O2       1.0000 0.03264  0.16809  0.32613  Biso   1.000  O
  O3       1.0000 0.46078  0.87521  0.14514  Biso   1.000  O
  O4       1.0000 0.47057  0.64025  0.43019  Biso   1.000  O
  O5       1.0000 0.27955  0.22476  0.24491  Biso   1.000  O
  O6       1.0000 0.29358  0.25732  0.48478  Biso   1.000  O
  O7       1.0000 0.22305  0.76759  0.00549  Biso   1.000  O
  O8       1.0000 0.19596  0.72687  0.24512  Biso   1.000  O
  Hf5      1.0000 0.14144  0.04548  0.64751  Biso   1.000  Hf
  Hf6      1.0000 0.13672  0.46323  0.89928  Biso   1.000  Hf
  Hf7      1.0000 0.36114  0.54752  0.61705  Biso   1.000  Hf
  Hf8      1.0000 0.36127  0.96133  0.85806  Biso   1.000  Hf
  O9       1.0000 0.03787  0.33633  0.58302  Biso   1.000  O
  O10      1.0000 0.03742  0.16401  0.83194  Biso   1.000  O
  O11      1.0000 0.46566  0.84472  0.67314  Biso   1.000  O
  O12      1.0000 0.46539  0.65956  0.91327  Biso   1.000  O
  O13      1.0000 0.27738  0.26036  0.74294  Biso   1.000  O
  O14      1.0000 0.27307  0.24768  0.99239  Biso   1.000  O
  O15      1.0000 0.22219  0.76069  0.52047  Biso   1.000  O
  O16      1.0000 0.22407  0.74580  0.76385  Biso   1.000  O
  Hf9      1.0000 0.63690  0.04819  0.14148  Biso   1.000  Hf
  Hf10     1.0000 0.65363  0.46288  0.40452  Biso   1.000  Hf
  Hf11     1.0000 0.85734  0.54690  0.10554  Biso   1.000  Hf
  Hf12     1.0000 0.86266  0.96080  0.35379  Biso   1.000  Hf
  O17      1.0000 0.54197  0.35392  0.07773  Biso   1.000  O
  O18      1.0000 0.51784  0.18691  0.32830  Biso   1.000  O
  O19      1.0000 0.95610  0.84922  0.16805  Biso   1.000  O
  O20      1.0000 0.96160  0.67681  0.42692  Biso   1.000  O
  O21      1.0000 0.76897  0.26447  0.24582  Biso   1.000  O
  O22      1.0000 0.78134  0.24050  0.49396  Biso   1.000  O
  O23      1.0000 0.72349  0.76512  0.01031  Biso   1.000  O
  O24      1.0000 0.71654  0.75026  0.26406  Biso   1.000  O
  Hf13     1.0000 0.63989  0.04700  0.65088  Biso   1.000  Hf
  Hf14     1.0000 0.64035  0.46279  0.89539  Biso   1.000  Hf
  Hf15     1.0000 0.86488  0.54891  0.60925  Biso   1.000  Hf
  Hf16     1.0000 0.86328  0.96205  0.85674  Biso   1.000  Hf
  O25      1.0000 0.54086  0.34158  0.58540  Biso   1.000  O
  O26      1.0000 0.53810  0.16271  0.83340  Biso   1.000  O
  O27      1.0000 0.96800  0.83853  0.67503  Biso   1.000  O
  O28      1.0000 0.96220  0.66490  0.92233  Biso   1.000  O
  O29      1.0000 0.77893  0.26324  0.74275  Biso   1.000  O
  O30      1.0000 0.77755  0.24573  0.99184  Biso   1.000  O
  O31      1.0000 0.72362  0.75948  0.51379  Biso   1.000  O
  O32      1.0000 0.72701  0.74721  0.76122  Biso   1.000  O
  Si1      1.0000 0.38727  0.39623  0.33586  Biso   1.000  Si
