data_image0
_cell_length_a       10.1602
_cell_length_b       5.15437
_cell_length_c       10.4168
_cell_angle_alpha    89.9077
_cell_angle_beta     91.5041
_cell_angle_gamma    90.1107

_symmetry_space_group_name_H-M    "P 1"
_symmetry_int_tables_number       1

loop_
  _symmetry_equiv_pos_as_xyz
  'x, y, z'

loop_
  _atom_site_label
  _atom_site_occupancy
  _atom_site_fract_x
  _atom_site_fract_y
  _atom_site_fract_z
  _atom_site_thermal_displace_type
  _atom_site_B_iso_or_equiv
  _atom_site_type_symbol
  Hf1      1.0000 0.12922  0.03402  0.17352  Biso   1.000  Hf
  Hf2      1.0000 0.13267  0.45921  0.42789  Biso   1.000  Hf
  Hf3      1.0000 0.34545  0.52058  0.18839  Biso   1.000  Hf
  Hf4      1.0000 0.35849  0.95917  0.42935  Biso   1.000  Hf
  Hf5      1.0000 0.65857  0.05444  0.05999  Biso   1.000  Hf
  Hf6      1.0000 0.63470  0.47297  0.34428  Biso   1.000  Hf
  Hf7      1.0000 0.86155  0.54135  0.07931  Biso   1.000  Hf
  Hf8      1.0000 0.85828  0.96728  0.33182  Biso   1.000  Hf
  O1       1.0000 0.03155  0.34955  0.09574  Biso   1.000  O
  O2       1.0000 0.03158  0.16317  0.34033  Biso   1.000  O
  O3       1.0000 0.49147  0.78391  0.07636  Biso   1.000  O
  O4       1.0000 0.45614  0.65660  0.34671  Biso   1.000  O
  O5       1.0000 0.26894  0.24015  0.29979  Biso   1.000  O
  O6       1.0000 0.24748  0.22330  0.04282  Biso   1.000  O
  O7       1.0000 0.21518  0.74603  0.30424  Biso   1.000  O
  O8       1.0000 0.23756  0.74109  0.05740  Biso   1.000  O
  O9       1.0000 0.46711  0.24805  0.08584  Biso   1.000  O
  O10      1.0000 0.53230  0.16273  0.40928  Biso   1.000  O
  O11      1.0000 0.95746  0.84568  0.16570  Biso   1.000  O
  O12      1.0000 0.96215  0.66425  0.41586  Biso   1.000  O
  O13      1.0000 0.77674  0.25269  0.45884  Biso   1.000  O
  O14      1.0000 0.77096  0.25769  0.21018  Biso   1.000  O
  O15      1.0000 0.72435  0.76083  0.45775  Biso   1.000  O
  O16      1.0000 0.72176  0.76416  0.20347  Biso   1.000  O
  Hf9      1.0000 0.14640  0.04564  0.67693  Biso   1.000  Hf
  Hf10     1.0000 0.14065  0.46781  0.92548  Biso   1.000  Hf
  Hf11     1.0000 0.36719  0.54742  0.67788  Biso   1.000  Hf
  Hf12     1.0000 0.37382  0.98019  0.92903  Biso   1.000  Hf
  Hf13     1.0000 0.64016  0.04939  0.58289  Biso   1.000  Hf
  Hf14     1.0000 0.64585  0.46230  0.82835  Biso   1.000  Hf
  Hf15     1.0000 0.86499  0.54532  0.58153  Biso   1.000  Hf
  Hf16     1.0000 0.87313  0.96338  0.82460  Biso   1.000  Hf
  O17      1.0000 0.03617  0.33811  0.59019  Biso   1.000  O
  O18      1.0000 0.04293  0.17491  0.83501  Biso   1.000  O
  O19      1.0000 0.46707  0.85342  0.59333  Biso   1.000  O
  O20      1.0000 0.47080  0.65183  0.84256  Biso   1.000  O
  O21      1.0000 0.28621  0.25680  0.79912  Biso   1.000  O
  O22      1.0000 0.27610  0.25378  0.54885  Biso   1.000  O
  O23      1.0000 0.23250  0.76112  0.80458  Biso   1.000  O
  O24      1.0000 0.22683  0.75164  0.55244  Biso   1.000  O
  O25      1.0000 0.54118  0.36075  0.65514  Biso   1.000  O
  O26      1.0000 0.55709  0.12231  0.88213  Biso   1.000  O
  O27      1.0000 0.97540  0.83556  0.66512  Biso   1.000  O
  O28      1.0000 0.97388  0.67640  0.92048  Biso   1.000  O
  O29      1.0000 0.79994  0.24652  0.94849  Biso   1.000  O
  O30      1.0000 0.78105  0.25625  0.70389  Biso   1.000  O
  O31      1.0000 0.74003  0.76643  0.94810  Biso   1.000  O
  O32      1.0000 0.73198  0.75559  0.70366  Biso   1.000  O
  Si1      1.0000 0.57582  0.50884  0.10061  Biso   1.000  Si
