data_image0
_cell_length_a       10.1233
_cell_length_b       10.3357
_cell_length_c       10.4787
_cell_angle_alpha    90.0271
_cell_angle_beta     80.2622
_cell_angle_gamma    90.0635

_symmetry_space_group_name_H-M    "P 1"
_symmetry_int_tables_number       1

loop_
  _symmetry_equiv_pos_as_xyz
  'x, y, z'

loop_
  _atom_site_label
  _atom_site_occupancy
  _atom_site_fract_x
  _atom_site_fract_y
  _atom_site_fract_z
  _atom_site_thermal_displace_type
  _atom_site_B_iso_or_equiv
  _atom_site_type_symbol
  Hf1      1.0000 0.13513  0.02100  0.14284  Biso   1.000  Hf
  Hf2      1.0000 0.14302  0.23308  0.38824  Biso   1.000  Hf
  Hf3      1.0000 0.35992  0.27249  0.10836  Biso   1.000  Hf
  Hf4      1.0000 0.35162  0.48310  0.34884  Biso   1.000  Hf
  O1       1.0000 0.03387  0.17089  0.08005  Biso   1.000  O
  O2       1.0000 0.03483  0.08228  0.32828  Biso   1.000  O
  O3       1.0000 0.45519  0.43444  0.16106  Biso   1.000  O
  O4       1.0000 0.47481  0.35788  0.44025  Biso   1.000  O
  O5       1.0000 0.27234  0.11902  0.23406  Biso   1.000  O
  O6       1.0000 0.32004  0.14589  0.45836  Biso   1.000  O
  O7       1.0000 0.22135  0.37950  0.00814  Biso   1.000  O
  O8       1.0000 0.20199  0.37881  0.25358  Biso   1.000  O
  Hf5      1.0000 0.12974  0.01585  0.65402  Biso   1.000  Hf
  Hf6      1.0000 0.13694  0.22924  0.89698  Biso   1.000  Hf
  Hf7      1.0000 0.36145  0.27756  0.61496  Biso   1.000  Hf
  Hf8      1.0000 0.36095  0.47830  0.85941  Biso   1.000  Hf
  O9       1.0000 0.05129  0.16819  0.57497  Biso   1.000  O
  O10      1.0000 0.03221  0.07954  0.83351  Biso   1.000  O
  O11      1.0000 0.46711  0.41719  0.68040  Biso   1.000  O
  O12      1.0000 0.46423  0.33055  0.92375  Biso   1.000  O
  O13      1.0000 0.27341  0.12804  0.73470  Biso   1.000  O
  O14      1.0000 0.27403  0.12136  0.98644  Biso   1.000  O
  O15      1.0000 0.22382  0.38005  0.51257  Biso   1.000  O
  O16      1.0000 0.22354  0.37217  0.76254  Biso   1.000  O
  Hf9      1.0000 0.13564  0.52236  0.14246  Biso   1.000  Hf
  Hf10     1.0000 0.13453  0.72915  0.39602  Biso   1.000  Hf
  Hf11     1.0000 0.35774  0.77013  0.10232  Biso   1.000  Hf
  Hf12     1.0000 0.36406  0.96484  0.35104  Biso   1.000  Hf
  O17      1.0000 0.03306  0.67191  0.07900  Biso   1.000  O
  O18      1.0000 0.03214  0.58542  0.32874  Biso   1.000  O
  O19      1.0000 0.46296  0.91484  0.16827  Biso   1.000  O
  O20      1.0000 0.45717  0.81635  0.41964  Biso   1.000  O
  O21      1.0000 0.27160  0.63107  0.23992  Biso   1.000  O
  O22      1.0000 0.26999  0.62370  0.49115  Biso   1.000  O
  O23      1.0000 0.22223  0.87925  0.00815  Biso   1.000  O
  O24      1.0000 0.22012  0.86724  0.25817  Biso   1.000  O
  Hf13     1.0000 0.13782  0.52342  0.64634  Biso   1.000  Hf
  Hf14     1.0000 0.13558  0.72877  0.89607  Biso   1.000  Hf
  Hf15     1.0000 0.36116  0.76932  0.60551  Biso   1.000  Hf
  Hf16     1.0000 0.36055  0.97852  0.85330  Biso   1.000  Hf
  O25      1.0000 0.03208  0.66999  0.58156  Biso   1.000  O
  O26      1.0000 0.03401  0.58080  0.83067  Biso   1.000  O
  O27      1.0000 0.46263  0.91956  0.66789  Biso   1.000  O
  O28      1.0000 0.46237  0.83121  0.91812  Biso   1.000  O
  O29      1.0000 0.27594  0.62803  0.74101  Biso   1.000  O
  O30      1.0000 0.27420  0.62200  0.99010  Biso   1.000  O
  O31      1.0000 0.22400  0.88990  0.51051  Biso   1.000  O
  O32      1.0000 0.22208  0.86953  0.76023  Biso   1.000  O
  Hf17     1.0000 0.63768  0.01843  0.14804  Biso   1.000  Hf
  Hf18     1.0000 0.65571  0.23178  0.40071  Biso   1.000  Hf
  Hf19     1.0000 0.85877  0.27240  0.10580  Biso   1.000  Hf
  Hf20     1.0000 0.86209  0.47953  0.35448  Biso   1.000  Hf
  O33      1.0000 0.53232  0.16170  0.07822  Biso   1.000  O
  O34      1.0000 0.54553  0.04989  0.33782  Biso   1.000  O
  O35      1.0000 0.95921  0.42317  0.16790  Biso   1.000  O
  O36      1.0000 0.96503  0.33094  0.42055  Biso   1.000  O
  O37      1.0000 0.77643  0.12982  0.24186  Biso   1.000  O
  O38      1.0000 0.78403  0.11584  0.49479  Biso   1.000  O
  O39      1.0000 0.72068  0.37822  0.01212  Biso   1.000  O
  O40      1.0000 0.72343  0.37277  0.26215  Biso   1.000  O
  Hf21     1.0000 0.63768  0.02230  0.64467  Biso   1.000  Hf
  Hf22     1.0000 0.63737  0.22737  0.89755  Biso   1.000  Hf
  Hf23     1.0000 0.86810  0.26958  0.60587  Biso   1.000  Hf
  Hf24     1.0000 0.85951  0.47762  0.85659  Biso   1.000  Hf
  O41      1.0000 0.53896  0.17292  0.57970  Biso   1.000  O
  O42      1.0000 0.53430  0.08186  0.82742  Biso   1.000  O
  O43      1.0000 0.96620  0.41715  0.67241  Biso   1.000  O
  O44      1.0000 0.96222  0.33056  0.92093  Biso   1.000  O
  O45      1.0000 0.77749  0.12843  0.74159  Biso   1.000  O
  O46      1.0000 0.77514  0.12108  0.99240  Biso   1.000  O
  O47      1.0000 0.73027  0.37874  0.51496  Biso   1.000  O
  O48      1.0000 0.72553  0.36944  0.76154  Biso   1.000  O
  Hf25     1.0000 0.63520  0.52294  0.14623  Biso   1.000  Hf
  Hf26     1.0000 0.63767  0.72497  0.39552  Biso   1.000  Hf
  Hf27     1.0000 0.85841  0.77014  0.10483  Biso   1.000  Hf
  Hf28     1.0000 0.86125  0.97722  0.35389  Biso   1.000  Hf
  O49      1.0000 0.53534  0.67309  0.07952  Biso   1.000  O
  O50      1.0000 0.53235  0.58194  0.32739  Biso   1.000  O
  O51      1.0000 0.96172  0.91824  0.17004  Biso   1.000  O
  O52      1.0000 0.96253  0.83300  0.42371  Biso   1.000  O
  O53      1.0000 0.77481  0.62792  0.24140  Biso   1.000  O
  O54      1.0000 0.77489  0.62009  0.49135  Biso   1.000  O
  O55      1.0000 0.72135  0.87889  0.01051  Biso   1.000  O
  O56      1.0000 0.72476  0.86626  0.25972  Biso   1.000  O
  Hf29     1.0000 0.64000  0.52078  0.64898  Biso   1.000  Hf
  Hf30     1.0000 0.63672  0.72881  0.89675  Biso   1.000  Hf
  Hf31     1.0000 0.85631  0.77085  0.60510  Biso   1.000  Hf
  Hf32     1.0000 0.85546  0.97820  0.85792  Biso   1.000  Hf
  O57      1.0000 0.53464  0.66648  0.58289  Biso   1.000  O
  O58      1.0000 0.53596  0.58065  0.83294  Biso   1.000  O
  O59      1.0000 0.95976  0.91759  0.67397  Biso   1.000  O
  O60      1.0000 0.96147  0.83120  0.91980  Biso   1.000  O
  O61      1.0000 0.77587  0.62861  0.74140  Biso   1.000  O
  O62      1.0000 0.77439  0.62029  0.99111  Biso   1.000  O
  O63      1.0000 0.71997  0.87732  0.50985  Biso   1.000  O
  O64      1.0000 0.72046  0.87096  0.76033  Biso   1.000  O
  Si1      1.0000 0.42988  0.23821  0.33726  Biso   1.000  Si
