data_image0
_cell_length_a       5.11933
_cell_length_b       10.3613
_cell_length_c       10.2744
_cell_angle_alpha    89.9987
_cell_angle_beta     89.9999
_cell_angle_gamma    92.1125

_symmetry_space_group_name_H-M    "P 1"
_symmetry_int_tables_number       1

loop_
  _symmetry_equiv_pos_as_xyz
  'x, y, z'

loop_
  _atom_site_label
  _atom_site_occupancy
  _atom_site_fract_x
  _atom_site_fract_y
  _atom_site_fract_z
  _atom_site_thermal_displace_type
  _atom_site_B_iso_or_equiv
  _atom_site_type_symbol
  Hf1      1.0000 0.34081  0.98903  0.13869  Biso   1.000  Hf
  Hf2      1.0000 0.25009  0.24980  0.32022  Biso   1.000  Hf
  Hf3      1.0000 0.75011  0.24980  0.11562  Biso   1.000  Hf
  Hf4      1.0000 0.82499  0.01088  0.37117  Biso   1.000  Hf
  O1       1.0000 0.02589  0.19010  0.94874  Biso   1.000  O
  O2       1.0000 0.02700  0.10225  0.21839  Biso   1.000  O
  O3       1.0000 0.94506  0.36580  0.26741  Biso   1.000  O
  O4       1.0000 0.86622  0.43374  0.02275  Biso   1.000  O
  O5       1.0000 0.55509  0.13379  0.26742  Biso   1.000  O
  O6       1.0000 0.63395  0.06586  0.02275  Biso   1.000  O
  O7       1.0000 0.47430  0.30951  0.94874  Biso   1.000  O
  O8       1.0000 0.47315  0.39737  0.21840  Biso   1.000  O
  Hf5      1.0000 0.33152  0.97808  0.63492  Biso   1.000  Hf
  Hf6      1.0000 0.25010  0.24979  0.79165  Biso   1.000  Hf
  Hf7      1.0000 0.75011  0.24980  0.58491  Biso   1.000  Hf
  Hf8      1.0000 0.83529  0.01022  0.86625  Biso   1.000  Hf
  O9       1.0000 0.01134  0.17738  0.46036  Biso   1.000  O
  O10      1.0000 0.04171  0.10034  0.71009  Biso   1.000  O
  O11      1.0000 0.95158  0.35901  0.73972  Biso   1.000  O
  O12      1.0000 0.92566  0.42656  0.51288  Biso   1.000  O
  O13      1.0000 0.54863  0.14058  0.73974  Biso   1.000  O
  O14      1.0000 0.57456  0.07303  0.51290  Biso   1.000  O
  O15      1.0000 0.48886  0.32222  0.46036  Biso   1.000  O
  O16      1.0000 0.45850  0.39925  0.71009  Biso   1.000  O
  Hf9      1.0000 0.15935  0.51057  0.13869  Biso   1.000  Hf
  Hf10     1.0000 0.25010  0.74980  0.40117  Biso   1.000  Hf
  Hf11     1.0000 0.75010  0.74980  0.17534  Biso   1.000  Hf
  Hf12     1.0000 0.67518  0.48872  0.37116  Biso   1.000  Hf
  O17      1.0000 0.99148  0.67870  0.04164  Biso   1.000  O
  O18      1.0000 0.95863  0.61230  0.28801  Biso   1.000  O
  O19      1.0000 0.04402  0.86038  0.25686  Biso   1.000  O
  O20      1.0000 0.09883  0.93325  0.98610  Biso   1.000  O
  O21      1.0000 0.45618  0.63922  0.25686  Biso   1.000  O
  O22      1.0000 0.40134  0.56635  0.98611  Biso   1.000  O
  O23      1.0000 0.50869  0.82091  0.04165  Biso   1.000  O
  O24      1.0000 0.54157  0.88730  0.28802  Biso   1.000  O
  Hf13     1.0000 0.16867  0.52150  0.63492  Biso   1.000  Hf
  Hf14     1.0000 0.25010  0.74980  0.90836  Biso   1.000  Hf
  Hf15     1.0000 0.75010  0.74979  0.67069  Biso   1.000  Hf
  Hf16     1.0000 0.66486  0.48938  0.86625  Biso   1.000  Hf
  O25      1.0000 0.99450  0.67606  0.54030  Biso   1.000  O
  O26      1.0000 0.95168  0.60702  0.78398  Biso   1.000  O
  O27      1.0000 0.04272  0.85475  0.76016  Biso   1.000  O
  O28      1.0000 0.06873  0.91895  0.49486  Biso   1.000  O
  O29      1.0000 0.45745  0.64484  0.76017  Biso   1.000  O
  O30      1.0000 0.43149  0.58065  0.49487  Biso   1.000  O
  O31      1.0000 0.50569  0.82353  0.54031  Biso   1.000  O
  O32      1.0000 0.54849  0.89256  0.78399  Biso   1.000  O
  Si1      1.0000 0.25010  0.24981  0.05891  Biso   1.000  Si
