data_image0
_cell_length_a       5.02797
_cell_length_b       10.165
_cell_length_c       10.4922
_cell_angle_alpha    90.4727
_cell_angle_beta     80.7626
_cell_angle_gamma    89.2691

_symmetry_space_group_name_H-M    "P 1"
_symmetry_int_tables_number       1

loop_
  _symmetry_equiv_pos_as_xyz
  'x, y, z'

loop_
  _atom_site_label
  _atom_site_occupancy
  _atom_site_fract_x
  _atom_site_fract_y
  _atom_site_fract_z
  _atom_site_thermal_displace_type
  _atom_site_B_iso_or_equiv
  _atom_site_type_symbol
  Si1      1.0000 0.22970  0.02037  0.15799  Biso   1.000  Si
  Hf1      1.0000 0.27551  0.22429  0.38623  Biso   1.000  Hf
  Hf2      1.0000 0.73166  0.26230  0.10255  Biso   1.000  Hf
  Hf3      1.0000 0.72276  0.47604  0.35313  Biso   1.000  Hf
  O1       1.0000 0.10020  0.14522  0.07566  Biso   1.000  O
  O2       1.0000 0.06215  0.08180  0.31063  Biso   1.000  O
  O3       1.0000 0.94403  0.40749  0.17661  Biso   1.000  O
  O4       1.0000 0.93563  0.33402  0.42404  Biso   1.000  O
  O5       1.0000 0.51263  0.10961  0.21568  Biso   1.000  O
  O6       1.0000 0.55494  0.12177  0.47711  Biso   1.000  O
  O7       1.0000 0.46072  0.38464  0.01221  Biso   1.000  O
  O8       1.0000 0.46054  0.36255  0.25818  Biso   1.000  O
  Hf4      1.0000 0.27185  0.02049  0.64326  Biso   1.000  Hf
  Hf5      1.0000 0.28785  0.22818  0.89365  Biso   1.000  Hf
  Hf6      1.0000 0.72445  0.27114  0.60196  Biso   1.000  Hf
  Hf7      1.0000 0.72602  0.47947  0.85884  Biso   1.000  Hf
  O9       1.0000 0.06354  0.15700  0.56489  Biso   1.000  O
  O10      1.0000 0.07247  0.08870  0.82116  Biso   1.000  O
  O11      1.0000 0.93865  0.40959  0.67887  Biso   1.000  O
  O12      1.0000 0.95404  0.34344  0.93353  Biso   1.000  O
  O13      1.0000 0.55189  0.12696  0.72814  Biso   1.000  O
  O14      1.0000 0.60316  0.14719  0.96393  Biso   1.000  O
  O15      1.0000 0.44508  0.37605  0.50893  Biso   1.000  O
  O16      1.0000 0.45491  0.37196  0.76167  Biso   1.000  O
  Hf8      1.0000 0.27391  0.52278  0.14560  Biso   1.000  Hf
  Hf9      1.0000 0.27661  0.72536  0.39837  Biso   1.000  Hf
  Hf10     1.0000 0.71034  0.77975  0.10874  Biso   1.000  Hf
  Hf11     1.0000 0.71580  0.97316  0.35325  Biso   1.000  Hf
  O17      1.0000 0.05896  0.66733  0.07910  Biso   1.000  O
  O18      1.0000 0.06898  0.58160  0.32848  Biso   1.000  O
  O19      1.0000 0.95426  0.91546  0.17452  Biso   1.000  O
  O20      1.0000 0.92994  0.83468  0.42708  Biso   1.000  O
  O21      1.0000 0.55347  0.62577  0.23984  Biso   1.000  O
  O22      1.0000 0.55487  0.61870  0.49205  Biso   1.000  O
  O23      1.0000 0.42706  0.91739  0.03493  Biso   1.000  O
  O24      1.0000 0.44653  0.86666  0.26686  Biso   1.000  O
  Hf12     1.0000 0.28070  0.51942  0.64681  Biso   1.000  Hf
  Hf13     1.0000 0.26325  0.73227  0.89873  Biso   1.000  Hf
  Hf14     1.0000 0.71974  0.76995  0.60983  Biso   1.000  Hf
  Hf15     1.0000 0.72071  0.98685  0.85664  Biso   1.000  Hf
  O25      1.0000 0.06621  0.66223  0.57839  Biso   1.000  O
  O26      1.0000 0.06585  0.58986  0.82726  Biso   1.000  O
  O27      1.0000 0.93109  0.91259  0.67761  Biso   1.000  O
  O28      1.0000 0.91138  0.83857  0.92965  Biso   1.000  O
  O29      1.0000 0.55051  0.62795  0.74248  Biso   1.000  O
  O30      1.0000 0.54693  0.63316  0.99122  Biso   1.000  O
  O31      1.0000 0.44524  0.87576  0.51458  Biso   1.000  O
  O32      1.0000 0.44327  0.87251  0.76910  Biso   1.000  O
