data_image0
_cell_length_a       9.92452
_cell_length_b       5.18486
_cell_length_c       9.92622
_cell_angle_alpha    92.1999
_cell_angle_beta     89.3157
_cell_angle_gamma    90.1257

_symmetry_space_group_name_H-M    "P 1"
_symmetry_int_tables_number       1

loop_
  _symmetry_equiv_pos_as_xyz
  'x, y, z'

loop_
  _atom_site_label
  _atom_site_occupancy
  _atom_site_fract_x
  _atom_site_fract_y
  _atom_site_fract_z
  _atom_site_thermal_displace_type
  _atom_site_B_iso_or_equiv
  _atom_site_type_symbol
  Si1      1.0000 0.11538  0.06226  0.11121  Biso   1.000  Si
  Hf1      1.0000 0.13767  0.43272  0.36946  Biso   1.000  Hf
  Hf2      1.0000 0.39165  0.52662  0.10693  Biso   1.000  Hf
  Hf3      1.0000 0.36178  0.93955  0.36882  Biso   1.000  Hf
  O1       1.0000 0.04135  0.35913  0.17990  Biso   1.000  O
  O2       1.0000 0.02937  0.13855  0.46257  Biso   1.000  O
  O3       1.0000 0.46831  0.87809  0.18603  Biso   1.000  O
  O4       1.0000 0.47765  0.65171  0.46293  Biso   1.000  O
  O5       1.0000 0.21661  0.09509  0.25184  Biso   1.000  O
  O6       1.0000 0.27595  0.25368  0.49894  Biso   1.000  O
  O7       1.0000 0.22577  0.75277  0.50404  Biso   1.000  O
  O8       1.0000 0.28316  0.60496  0.26930  Biso   1.000  O
  Hf4      1.0000 0.13826  0.03786  0.63083  Biso   1.000  Hf
  Hf5      1.0000 0.13148  0.48531  0.88790  Biso   1.000  Hf
  Hf6      1.0000 0.36392  0.54360  0.63055  Biso   1.000  Hf
  Hf7      1.0000 0.35458  0.98892  0.88818  Biso   1.000  Hf
  O9       1.0000 0.03350  0.36717  0.70821  Biso   1.000  O
  O10      1.0000 0.03378  0.12892  0.95593  Biso   1.000  O
  O11      1.0000 0.45747  0.88566  0.70222  Biso   1.000  O
  O12      1.0000 0.45966  0.66074  0.92888  Biso   1.000  O
  O13      1.0000 0.27009  0.25352  0.76000  Biso   1.000  O
  O14      1.0000 0.25299  0.27655  0.01892  Biso   1.000  O
  O15      1.0000 0.21463  0.80250  0.02362  Biso   1.000  O
  O16      1.0000 0.22431  0.74845  0.76208  Biso   1.000  O
  Hf8      1.0000 0.63983  0.04565  0.12706  Biso   1.000  Hf
  Hf9      1.0000 0.63946  0.47195  0.37963  Biso   1.000  Hf
  Hf10     1.0000 0.87269  0.54087  0.12056  Biso   1.000  Hf
  Hf11     1.0000 0.87343  0.97033  0.37136  Biso   1.000  Hf
  O17      1.0000 0.54266  0.37832  0.20308  Biso   1.000  O
  O18      1.0000 0.53630  0.13358  0.43399  Biso   1.000  O
  O19      1.0000 0.98554  0.87842  0.18209  Biso   1.000  O
  O20      1.0000 0.96760  0.62593  0.43105  Biso   1.000  O
  O21      1.0000 0.78106  0.24124  0.24663  Biso   1.000  O
  O22      1.0000 0.76850  0.26506  0.49667  Biso   1.000  O
  O23      1.0000 0.74100  0.77097  0.49486  Biso   1.000  O
  O24      1.0000 0.73681  0.74216  0.24426  Biso   1.000  O
  Hf12     1.0000 0.62372  0.02520  0.61405  Biso   1.000  Hf
  Hf13     1.0000 0.63618  0.47381  0.86625  Biso   1.000  Hf
  Hf14     1.0000 0.87470  0.52731  0.61761  Biso   1.000  Hf
  Hf15     1.0000 0.86389  0.97464  0.86849  Biso   1.000  Hf
  O25      1.0000 0.53364  0.37104  0.69057  Biso   1.000  O
  O26      1.0000 0.51750  0.18340  0.96261  Biso   1.000  O
  O27      1.0000 0.96753  0.86615  0.69182  Biso   1.000  O
  O28      1.0000 0.95433  0.63505  0.93678  Biso   1.000  O
  O29      1.0000 0.76343  0.22403  0.74417  Biso   1.000  O
  O30      1.0000 0.76636  0.27654  0.99532  Biso   1.000  O
  O31      1.0000 0.72402  0.77915  0.99193  Biso   1.000  O
  O32      1.0000 0.73182  0.72698  0.74067  Biso   1.000  O
