data_image0
_cell_length_a       9.97194
_cell_length_b       5.06865
_cell_length_c       10.4096
_cell_angle_alpha    90.0475
_cell_angle_beta     90.8157
_cell_angle_gamma    89.1782

_symmetry_space_group_name_H-M    "P 1"
_symmetry_int_tables_number       1

loop_
  _symmetry_equiv_pos_as_xyz
  'x, y, z'

loop_
  _atom_site_label
  _atom_site_occupancy
  _atom_site_fract_x
  _atom_site_fract_y
  _atom_site_fract_z
  _atom_site_thermal_displace_type
  _atom_site_B_iso_or_equiv
  _atom_site_type_symbol
  Si1      1.0000 0.12012  0.02066  0.18877  Biso   1.000  Si
  Hf1      1.0000 0.13604  0.45435  0.41384  Biso   1.000  Hf
  Hf2      1.0000 0.35306  0.55779  0.16874  Biso   1.000  Hf
  Hf3      1.0000 0.35565  0.96170  0.41715  Biso   1.000  Hf
  Hf4      1.0000 0.64089  0.04370  0.07853  Biso   1.000  Hf
  Hf5      1.0000 0.63476  0.45486  0.32774  Biso   1.000  Hf
  Hf6      1.0000 0.87334  0.53009  0.08595  Biso   1.000  Hf
  Hf7      1.0000 0.85780  0.95364  0.33202  Biso   1.000  Hf
  O1       1.0000 0.05619  0.29287  0.09382  Biso   1.000  O
  O2       1.0000 0.03649  0.14979  0.32681  Biso   1.000  O
  O3       1.0000 0.46917  0.83632  0.08478  Biso   1.000  O
  O4       1.0000 0.45765  0.65727  0.33757  Biso   1.000  O
  O5       1.0000 0.26199  0.23099  0.27108  Biso   1.000  O
  O6       1.0000 0.30746  0.33490  0.01661  Biso   1.000  O
  O7       1.0000 0.20859  0.75957  0.29259  Biso   1.000  O
  O8       1.0000 0.21310  0.84799  0.06476  Biso   1.000  O
  O9       1.0000 0.53384  0.34055  0.16378  Biso   1.000  O
  O10      1.0000 0.53083  0.16016  0.41113  Biso   1.000  O
  O11      1.0000 0.97773  0.82868  0.17135  Biso   1.000  O
  O12      1.0000 0.96174  0.65786  0.41689  Biso   1.000  O
  O13      1.0000 0.77383  0.24110  0.45617  Biso   1.000  O
  O14      1.0000 0.77897  0.24791  0.20685  Biso   1.000  O
  O15      1.0000 0.71940  0.74237  0.45735  Biso   1.000  O
  O16      1.0000 0.73056  0.74621  0.20684  Biso   1.000  O
  Hf8      1.0000 0.13771  0.03600  0.66793  Biso   1.000  Hf
  Hf9      1.0000 0.14048  0.44818  0.91959  Biso   1.000  Hf
  Hf10     1.0000 0.36039  0.54574  0.67218  Biso   1.000  Hf
  Hf11     1.0000 0.36034  0.97034  0.92668  Biso   1.000  Hf
  Hf12     1.0000 0.63491  0.03925  0.58000  Biso   1.000  Hf
  Hf13     1.0000 0.63955  0.46111  0.83145  Biso   1.000  Hf
  Hf14     1.0000 0.85861  0.53464  0.58105  Biso   1.000  Hf
  Hf15     1.0000 0.86301  0.95248  0.83266  Biso   1.000  Hf
  O17      1.0000 0.03023  0.31481  0.57575  Biso   1.000  O
  O18      1.0000 0.03344  0.17059  0.83137  Biso   1.000  O
  O19      1.0000 0.46146  0.83991  0.58373  Biso   1.000  O
  O20      1.0000 0.46825  0.67691  0.83281  Biso   1.000  O
  O21      1.0000 0.27522  0.23947  0.78414  Biso   1.000  O
  O22      1.0000 0.27562  0.25681  0.53548  Biso   1.000  O
  O23      1.0000 0.22321  0.74448  0.80176  Biso   1.000  O
  O24      1.0000 0.21978  0.74993  0.54290  Biso   1.000  O
  O25      1.0000 0.53415  0.34004  0.66356  Biso   1.000  O
  O26      1.0000 0.54008  0.16055  0.91187  Biso   1.000  O
  O27      1.0000 0.96869  0.81369  0.67206  Biso   1.000  O
  O28      1.0000 0.97172  0.66601  0.92734  Biso   1.000  O
  O29      1.0000 0.78373  0.24506  0.95940  Biso   1.000  O
  O30      1.0000 0.77713  0.24871  0.70742  Biso   1.000  O
  O31      1.0000 0.72954  0.74121  0.95985  Biso   1.000  O
  O32      1.0000 0.72358  0.75273  0.70791  Biso   1.000  O
