data_image0
_cell_length_a       5.13938
_cell_length_b       10.3279
_cell_length_c       10.4831
_cell_angle_alpha    89.9544
_cell_angle_beta     78.6348
_cell_angle_gamma    89.5742

_symmetry_space_group_name_H-M    "P 1"
_symmetry_int_tables_number       1

loop_
  _symmetry_equiv_pos_as_xyz
  'x, y, z'

loop_
  _atom_site_label
  _atom_site_occupancy
  _atom_site_fract_x
  _atom_site_fract_y
  _atom_site_fract_z
  _atom_site_thermal_displace_type
  _atom_site_B_iso_or_equiv
  _atom_site_type_symbol
  Hf1      1.0000 0.26406  0.01684  0.14651  Biso   1.000  Hf
  Hf2      1.0000 0.33405  0.23509  0.39678  Biso   1.000  Hf
  Hf3      1.0000 0.68306  0.26797  0.10806  Biso   1.000  Hf
  Hf4      1.0000 0.72059  0.48699  0.35272  Biso   1.000  Hf
  O1       1.0000 0.02916  0.15288  0.07367  Biso   1.000  O
  O2       1.0000 0.03109  0.08304  0.33339  Biso   1.000  O
  O3       1.0000 0.93309  0.42674  0.16750  Biso   1.000  O
  O4       1.0000 0.95742  0.33479  0.42192  Biso   1.000  O
  O5       1.0000 0.53275  0.10774  0.24157  Biso   1.000  O
  O6       1.0000 0.57243  0.11561  0.49614  Biso   1.000  O
  O7       1.0000 0.42470  0.38080  0.00978  Biso   1.000  O
  O8       1.0000 0.45092  0.39122  0.26182  Biso   1.000  O
  Hf5      1.0000 0.27368  0.02272  0.64821  Biso   1.000  Hf
  Hf6      1.0000 0.25930  0.22973  0.89838  Biso   1.000  Hf
  Hf7      1.0000 0.73421  0.26842  0.60905  Biso   1.000  Hf
  Hf8      1.0000 0.71625  0.47740  0.85671  Biso   1.000  Hf
  O9       1.0000 0.08662  0.16901  0.57443  Biso   1.000  O
  O10      1.0000 0.05479  0.08776  0.82569  Biso   1.000  O
  O11      1.0000 0.93745  0.41323  0.67494  Biso   1.000  O
  O12      1.0000 0.91283  0.33312  0.92769  Biso   1.000  O
  O13      1.0000 0.54427  0.12940  0.74346  Biso   1.000  O
  O14      1.0000 0.52427  0.12284  0.99267  Biso   1.000  O
  O15      1.0000 0.47554  0.37869  0.51165  Biso   1.000  O
  O16      1.0000 0.44856  0.37113  0.76130  Biso   1.000  O
  Hf9      1.0000 0.27580  0.52548  0.14631  Biso   1.000  Hf
  Hf10     1.0000 0.26782  0.72719  0.39992  Biso   1.000  Hf
  Hf11     1.0000 0.71666  0.77205  0.10480  Biso   1.000  Hf
  Hf12     1.0000 0.69829  0.96862  0.35754  Biso   1.000  Hf
  O17      1.0000 0.06541  0.67103  0.07866  Biso   1.000  O
  O18      1.0000 0.06418  0.58736  0.32945  Biso   1.000  O
  O19      1.0000 0.92273  0.90941  0.17790  Biso   1.000  O
  O20      1.0000 0.92209  0.83123  0.42641  Biso   1.000  O
  O21      1.0000 0.55229  0.63308  0.24423  Biso   1.000  O
  O22      1.0000 0.54197  0.62287  0.49404  Biso   1.000  O
  O23      1.0000 0.44500  0.87865  0.01030  Biso   1.000  O
  O24      1.0000 0.42840  0.86753  0.26105  Biso   1.000  O
  Hf13     1.0000 0.27644  0.52167  0.64992  Biso   1.000  Hf
  Hf14     1.0000 0.26994  0.72838  0.89779  Biso   1.000  Hf
  Hf15     1.0000 0.71853  0.77218  0.60761  Biso   1.000  Hf
  Hf16     1.0000 0.71601  0.97941  0.85504  Biso   1.000  Hf
  O25      1.0000 0.05766  0.66346  0.58302  Biso   1.000  O
  O26      1.0000 0.06206  0.58314  0.83099  Biso   1.000  O
  O27      1.0000 0.92767  0.91750  0.67304  Biso   1.000  O
  O28      1.0000 0.92980  0.83675  0.92213  Biso   1.000  O
  O29      1.0000 0.54467  0.62787  0.74253  Biso   1.000  O
  O30      1.0000 0.54967  0.62263  0.99151  Biso   1.000  O
  O31      1.0000 0.43380  0.87548  0.51336  Biso   1.000  O
  O32      1.0000 0.44584  0.87286  0.76233  Biso   1.000  O
  Si1      1.0000 0.97837  0.24105  0.27191  Biso   1.000  Si
