data_image0
_cell_length_a       10.2745
_cell_length_b       10.3612
_cell_length_c       5.11932
_cell_angle_alpha    92.1107
_cell_angle_beta     90.0001
_cell_angle_gamma    90.0003

_symmetry_space_group_name_H-M    "P 1"
_symmetry_int_tables_number       1

loop_
  _symmetry_equiv_pos_as_xyz
  'x, y, z'

loop_
  _atom_site_label
  _atom_site_occupancy
  _atom_site_fract_x
  _atom_site_fract_y
  _atom_site_fract_z
  _atom_site_thermal_displace_type
  _atom_site_B_iso_or_equiv
  _atom_site_type_symbol
  Hf1      1.0000 0.13869  0.98931  0.34059  Biso   1.000  Hf
  Hf2      1.0000 0.11562  0.25007  0.74984  Biso   1.000  Hf
  Hf3      1.0000 0.32023  0.25007  0.24985  Biso   1.000  Hf
  Hf4      1.0000 0.37117  0.01115  0.82476  Biso   1.000  Hf
  O1       1.0000 0.94874  0.19037  0.02564  Biso   1.000  O
  O2       1.0000 0.02275  0.06613  0.63371  Biso   1.000  O
  O3       1.0000 0.94874  0.30978  0.47405  Biso   1.000  O
  O4       1.0000 0.02275  0.43401  0.86599  Biso   1.000  O
  O5       1.0000 0.26741  0.13407  0.55488  Biso   1.000  O
  O6       1.0000 0.21840  0.10251  0.02678  Biso   1.000  O
  O7       1.0000 0.26741  0.36608  0.94483  Biso   1.000  O
  O8       1.0000 0.21839  0.39763  0.47292  Biso   1.000  O
  Hf5      1.0000 0.13869  0.51084  0.15912  Biso   1.000  Hf
  Hf6      1.0000 0.17535  0.75007  0.74985  Biso   1.000  Hf
  Hf7      1.0000 0.40117  0.75007  0.24985  Biso   1.000  Hf
  Hf8      1.0000 0.37116  0.48899  0.67495  Biso   1.000  Hf
  O9       1.0000 0.04165  0.67897  0.99125  Biso   1.000  O
  O10      1.0000 0.98610  0.56662  0.40111  Biso   1.000  O
  O11      1.0000 0.04165  0.82118  0.50846  Biso   1.000  O
  O12      1.0000 0.98611  0.93353  0.09861  Biso   1.000  O
  O13      1.0000 0.25686  0.63949  0.45594  Biso   1.000  O
  O14      1.0000 0.28802  0.61258  0.95839  Biso   1.000  O
  O15      1.0000 0.25686  0.86065  0.04377  Biso   1.000  O
  O16      1.0000 0.28802  0.88757  0.54132  Biso   1.000  O
  Hf9      1.0000 0.63492  0.97836  0.33129  Biso   1.000  Hf
  Hf10     1.0000 0.58491  0.25007  0.74985  Biso   1.000  Hf
  Hf11     1.0000 0.79166  0.25006  0.24986  Biso   1.000  Hf
  Hf12     1.0000 0.86625  0.01049  0.83507  Biso   1.000  Hf
  O17      1.0000 0.46036  0.17765  0.01108  Biso   1.000  O
  O18      1.0000 0.51289  0.07331  0.57431  Biso   1.000  O
  O19      1.0000 0.46035  0.32249  0.48861  Biso   1.000  O
  O20      1.0000 0.51289  0.42684  0.92539  Biso   1.000  O
  O21      1.0000 0.73974  0.14085  0.54840  Biso   1.000  O
  O22      1.0000 0.71010  0.10061  0.04148  Biso   1.000  O
  O23      1.0000 0.73973  0.35928  0.95134  Biso   1.000  O
  O24      1.0000 0.71009  0.39952  0.45825  Biso   1.000  O
  Hf13     1.0000 0.63492  0.52178  0.16843  Biso   1.000  Hf
  Hf14     1.0000 0.67070  0.75007  0.74985  Biso   1.000  Hf
  Hf15     1.0000 0.90836  0.75007  0.24986  Biso   1.000  Hf
  Hf16     1.0000 0.86625  0.48964  0.66463  Biso   1.000  Hf
  O25      1.0000 0.54031  0.67634  0.99425  Biso   1.000  O
  O26      1.0000 0.49486  0.58092  0.43123  Biso   1.000  O
  O27      1.0000 0.54031  0.82380  0.50545  Biso   1.000  O
  O28      1.0000 0.49487  0.91922  0.06847  Biso   1.000  O
  O29      1.0000 0.76017  0.64511  0.45722  Biso   1.000  O
  O30      1.0000 0.78398  0.60730  0.95144  Biso   1.000  O
  O31      1.0000 0.76017  0.85502  0.04248  Biso   1.000  O
  O32      1.0000 0.78399  0.89284  0.54826  Biso   1.000  O
  Si1      1.0000 0.05892  0.25007  0.24984  Biso   1.000  Si
