data_image0
_cell_length_a       10.0774
_cell_length_b       10.2213
_cell_length_c       10.4574
_cell_angle_alpha    90.1096
_cell_angle_beta     80.6062
_cell_angle_gamma    89.5869

_symmetry_space_group_name_H-M    "P 1"
_symmetry_int_tables_number       1

loop_
  _symmetry_equiv_pos_as_xyz
  'x, y, z'

loop_
  _atom_site_label
  _atom_site_occupancy
  _atom_site_fract_x
  _atom_site_fract_y
  _atom_site_fract_z
  _atom_site_thermal_displace_type
  _atom_site_B_iso_or_equiv
  _atom_site_type_symbol
  Si1      1.0000 0.11942  0.01288  0.16469  Biso   1.000  Si
  Hf1      1.0000 0.13714  0.22552  0.38770  Biso   1.000  Hf
  Hf2      1.0000 0.35814  0.26812  0.10039  Biso   1.000  Hf
  Hf3      1.0000 0.36173  0.47802  0.35299  Biso   1.000  Hf
  O1       1.0000 0.05281  0.14532  0.08246  Biso   1.000  O
  O2       1.0000 0.03751  0.07389  0.31927  Biso   1.000  O
  O3       1.0000 0.46458  0.41736  0.17102  Biso   1.000  O
  O4       1.0000 0.46608  0.33338  0.42138  Biso   1.000  O
  O5       1.0000 0.25891  0.11369  0.21825  Biso   1.000  O
  O6       1.0000 0.27659  0.12298  0.47950  Biso   1.000  O
  O7       1.0000 0.22397  0.38539  0.00866  Biso   1.000  O
  O8       1.0000 0.22609  0.36670  0.25845  Biso   1.000  O
  Hf4      1.0000 0.13629  0.02039  0.64282  Biso   1.000  Hf
  Hf5      1.0000 0.14344  0.22389  0.89396  Biso   1.000  Hf
  Hf6      1.0000 0.36050  0.27186  0.60185  Biso   1.000  Hf
  Hf7      1.0000 0.36106  0.48037  0.85490  Biso   1.000  Hf
  O9       1.0000 0.03369  0.16274  0.57057  Biso   1.000  O
  O10      1.0000 0.03392  0.08382  0.82487  Biso   1.000  O
  O11      1.0000 0.46460  0.41735  0.67187  Biso   1.000  O
  O12      1.0000 0.47263  0.34224  0.92408  Biso   1.000  O
  O13      1.0000 0.27413  0.12653  0.72991  Biso   1.000  O
  O14      1.0000 0.30127  0.14593  0.96369  Biso   1.000  O
  O15      1.0000 0.22160  0.37784  0.50716  Biso   1.000  O
  O16      1.0000 0.22524  0.36972  0.75947  Biso   1.000  O
  Hf8      1.0000 0.14020  0.52304  0.14613  Biso   1.000  Hf
  Hf9      1.0000 0.13772  0.72794  0.39705  Biso   1.000  Hf
  Hf10     1.0000 0.35405  0.77934  0.10587  Biso   1.000  Hf
  Hf11     1.0000 0.35851  0.97763  0.35058  Biso   1.000  Hf
  O17      1.0000 0.03508  0.66788  0.07914  Biso   1.000  O
  O18      1.0000 0.03557  0.58019  0.33008  Biso   1.000  O
  O19      1.0000 0.46584  0.91618  0.17321  Biso   1.000  O
  O20      1.0000 0.46313  0.83251  0.42052  Biso   1.000  O
  O21      1.0000 0.27606  0.63149  0.24087  Biso   1.000  O
  O22      1.0000 0.27720  0.62039  0.49072  Biso   1.000  O
  O23      1.0000 0.21616  0.91611  0.03026  Biso   1.000  O
  O24      1.0000 0.21176  0.87471  0.26075  Biso   1.000  O
  Hf12     1.0000 0.14037  0.51972  0.64496  Biso   1.000  Hf
  Hf13     1.0000 0.13609  0.72923  0.89485  Biso   1.000  Hf
  Hf14     1.0000 0.36109  0.77244  0.60627  Biso   1.000  Hf
  Hf15     1.0000 0.36036  0.98610  0.85632  Biso   1.000  Hf
  O25      1.0000 0.03433  0.66560  0.58007  Biso   1.000  O
  O26      1.0000 0.03600  0.58281  0.83002  Biso   1.000  O
  O27      1.0000 0.46400  0.91928  0.67178  Biso   1.000  O
  O28      1.0000 0.45629  0.83412  0.92403  Biso   1.000  O
  O29      1.0000 0.27554  0.62909  0.73962  Biso   1.000  O
  O30      1.0000 0.27533  0.62990  0.99006  Biso   1.000  O
  O31      1.0000 0.22294  0.87826  0.51025  Biso   1.000  O
  O32      1.0000 0.22280  0.87167  0.76490  Biso   1.000  O
  Hf16     1.0000 0.63836  0.02274  0.14595  Biso   1.000  Hf
  Hf17     1.0000 0.63942  0.22826  0.39522  Biso   1.000  Hf
  Hf18     1.0000 0.87090  0.26466  0.10668  Biso   1.000  Hf
  Hf19     1.0000 0.86059  0.47801  0.35397  Biso   1.000  Hf
  O33      1.0000 0.53582  0.16812  0.07860  Biso   1.000  O
  O34      1.0000 0.53179  0.08473  0.32689  Biso   1.000  O
  O35      1.0000 0.97008  0.41332  0.17310  Biso   1.000  O
  O36      1.0000 0.96346  0.32905  0.41971  Biso   1.000  O
  O37      1.0000 0.77751  0.12584  0.24114  Biso   1.000  O
  O38      1.0000 0.77733  0.11953  0.49020  Biso   1.000  O
  O39      1.0000 0.72983  0.37686  0.01276  Biso   1.000  O
  O40      1.0000 0.72709  0.36823  0.25894  Biso   1.000  O
  Hf20     1.0000 0.63811  0.02136  0.64657  Biso   1.000  Hf
  Hf21     1.0000 0.64041  0.23065  0.89750  Biso   1.000  Hf
  Hf22     1.0000 0.86157  0.27087  0.60453  Biso   1.000  Hf
  Hf23     1.0000 0.86285  0.47652  0.85779  Biso   1.000  Hf
  O41      1.0000 0.53523  0.16768  0.57758  Biso   1.000  O
  O42      1.0000 0.53971  0.08226  0.82884  Biso   1.000  O
  O43      1.0000 0.96728  0.41357  0.67475  Biso   1.000  O
  O44      1.0000 0.96985  0.33030  0.92848  Biso   1.000  O
  O45      1.0000 0.77827  0.12974  0.73977  Biso   1.000  O
  O46      1.0000 0.77946  0.12110  0.99191  Biso   1.000  O
  O47      1.0000 0.72340  0.37811  0.51065  Biso   1.000  O
  O48      1.0000 0.72498  0.37225  0.76174  Biso   1.000  O
  Hf24     1.0000 0.63713  0.52086  0.14509  Biso   1.000  Hf
  Hf25     1.0000 0.63798  0.72792  0.39593  Biso   1.000  Hf
  Hf26     1.0000 0.86245  0.77306  0.10536  Biso   1.000  Hf
  Hf27     1.0000 0.85912  0.97599  0.35670  Biso   1.000  Hf
  O49      1.0000 0.53181  0.66992  0.08033  Biso   1.000  O
  O50      1.0000 0.53653  0.58033  0.32957  Biso   1.000  O
  O51      1.0000 0.97493  0.91747  0.17292  Biso   1.000  O
  O52      1.0000 0.96233  0.82991  0.42393  Biso   1.000  O
  O53      1.0000 0.77728  0.62843  0.24009  Biso   1.000  O
  O54      1.0000 0.77615  0.61968  0.49138  Biso   1.000  O
  O55      1.0000 0.72217  0.87990  0.01105  Biso   1.000  O
  O56      1.0000 0.72735  0.87091  0.25990  Biso   1.000  O
  Hf28     1.0000 0.63842  0.52125  0.64722  Biso   1.000  Hf
  Hf29     1.0000 0.63499  0.72994  0.89882  Biso   1.000  Hf
  Hf30     1.0000 0.85888  0.76897  0.60686  Biso   1.000  Hf
  Hf31     1.0000 0.86054  0.97941  0.85431  Biso   1.000  Hf
  O57      1.0000 0.53522  0.66821  0.57840  Biso   1.000  O
  O58      1.0000 0.53307  0.58655  0.82737  Biso   1.000  O
  O59      1.0000 0.96382  0.91483  0.67266  Biso   1.000  O
  O60      1.0000 0.96357  0.83360  0.92359  Biso   1.000  O
  O61      1.0000 0.77642  0.62758  0.74295  Biso   1.000  O
  O62      1.0000 0.77579  0.62186  0.99132  Biso   1.000  O
  O63      1.0000 0.72117  0.87742  0.51108  Biso   1.000  O
  O64      1.0000 0.72179  0.87068  0.76168  Biso   1.000  O
