data_image0
_cell_length_a       10.1967
_cell_length_b       5.18828
_cell_length_c       10.5799
_cell_angle_alpha    90.3412
_cell_angle_beta     91.407
_cell_angle_gamma    89.4716

_symmetry_space_group_name_H-M    "P 1"
_symmetry_int_tables_number       1

loop_
  _symmetry_equiv_pos_as_xyz
  'x, y, z'

loop_
  _atom_site_label
  _atom_site_occupancy
  _atom_site_fract_x
  _atom_site_fract_y
  _atom_site_fract_z
  _atom_site_thermal_displace_type
  _atom_site_B_iso_or_equiv
  _atom_site_type_symbol
  Zr1      1.0000 0.13107  0.03871  0.17150  Biso   1.000  Zr
  Zr2      1.0000 0.13193  0.45421  0.42578  Biso   1.000  Zr
  Zr3      1.0000 0.33798  0.52539  0.18213  Biso   1.000  Zr
  Zr4      1.0000 0.35730  0.94734  0.42702  Biso   1.000  Zr
  Zr5      1.0000 0.65555  0.08982  0.06260  Biso   1.000  Zr
  Zr6      1.0000 0.63014  0.45072  0.35563  Biso   1.000  Zr
  Zr7      1.0000 0.86325  0.55086  0.07066  Biso   1.000  Zr
  Zr8      1.0000 0.85917  0.96360  0.32757  Biso   1.000  Zr
  O1       1.0000 0.03497  0.33502  0.08260  Biso   1.000  O
  O2       1.0000 0.03046  0.16642  0.33355  Biso   1.000  O
  O3       1.0000 0.48806  0.78204  0.08225  Biso   1.000  O
  O4       1.0000 0.45687  0.65646  0.33387  Biso   1.000  O
  O5       1.0000 0.26667  0.24244  0.29800  Biso   1.000  O
  O6       1.0000 0.27097  0.24001  0.04547  Biso   1.000  O
  O7       1.0000 0.21449  0.74367  0.30003  Biso   1.000  O
  O8       1.0000 0.23243  0.75074  0.04966  Biso   1.000  O
  O9       1.0000 0.50398  0.28973  0.16094  Biso   1.000  O
  O10      1.0000 0.52806  0.14396  0.41767  Biso   1.000  O
  O11      1.0000 0.96692  0.82930  0.16748  Biso   1.000  O
  O12      1.0000 0.96487  0.66927  0.41835  Biso   1.000  O
  O13      1.0000 0.78613  0.22980  0.45939  Biso   1.000  O
  O14      1.0000 0.77945  0.27684  0.21127  Biso   1.000  O
  O15      1.0000 0.72526  0.74954  0.45426  Biso   1.000  O
  O16      1.0000 0.72472  0.79523  0.18640  Biso   1.000  O
  Zr9      1.0000 0.14167  0.03946  0.67168  Biso   1.000  Zr
  Zr10     1.0000 0.14090  0.45608  0.92078  Biso   1.000  Zr
  Zr11     1.0000 0.36378  0.53835  0.67400  Biso   1.000  Zr
  Zr12     1.0000 0.36462  0.95766  0.92176  Biso   1.000  Zr
  Zr13     1.0000 0.63907  0.04334  0.57924  Biso   1.000  Zr
  Zr14     1.0000 0.64331  0.46765  0.82866  Biso   1.000  Zr
  Zr15     1.0000 0.86101  0.53974  0.57796  Biso   1.000  Zr
  Zr16     1.0000 0.86879  0.96107  0.82092  Biso   1.000  Zr
  O17      1.0000 0.03360  0.32750  0.58506  Biso   1.000  O
  O18      1.0000 0.03983  0.17132  0.83108  Biso   1.000  O
  O19      1.0000 0.46810  0.82216  0.58580  Biso   1.000  O
  O20      1.0000 0.47103  0.67192  0.83473  Biso   1.000  O
  O21      1.0000 0.28077  0.24379  0.79707  Biso   1.000  O
  O22      1.0000 0.27452  0.24513  0.54723  Biso   1.000  O
  O23      1.0000 0.22924  0.74758  0.79930  Biso   1.000  O
  O24      1.0000 0.22466  0.74470  0.54930  Biso   1.000  O
  O25      1.0000 0.53295  0.32986  0.66826  Biso   1.000  O
  O26      1.0000 0.53463  0.16569  0.90939  Biso   1.000  O
  O27      1.0000 0.97269  0.82583  0.66507  Biso   1.000  O
  O28      1.0000 0.97587  0.67699  0.91640  Biso   1.000  O
  O29      1.0000 0.79429  0.25571  0.94293  Biso   1.000  O
  O30      1.0000 0.77610  0.25374  0.70309  Biso   1.000  O
  O31      1.0000 0.73636  0.77930  0.94239  Biso   1.000  O
  O32      1.0000 0.72818  0.74974  0.70102  Biso   1.000  O
  Si1      1.0000 0.60206  0.56494  0.12806  Biso   1.000  Si
