data_image0
_cell_length_a       10.0917
_cell_length_b       10.0911
_cell_length_c       5.02119
_cell_angle_alpha    89.9986
_cell_angle_beta     90
_cell_angle_gamma    90.0002

_symmetry_space_group_name_H-M    "P 1"
_symmetry_int_tables_number       1

loop_
  _symmetry_equiv_pos_as_xyz
  'x, y, z'

loop_
  _atom_site_label
  _atom_site_occupancy
  _atom_site_fract_x
  _atom_site_fract_y
  _atom_site_fract_z
  _atom_site_thermal_displace_type
  _atom_site_B_iso_or_equiv
  _atom_site_type_symbol
  Si1      1.0000 0.12568  0.99993  0.24994  Biso   1.000  Si
  Zr1      1.0000 0.12568  0.49993  0.24994  Biso   1.000  Zr
  Zr2      1.0000 0.62567  0.99993  0.24996  Biso   1.000  Zr
  Zr3      1.0000 0.62568  0.49993  0.24994  Biso   1.000  Zr
  Zr4      1.0000 0.12568  0.25029  0.74993  Biso   1.000  Zr
  Zr5      1.0000 0.12569  0.74957  0.74994  Biso   1.000  Zr
  Zr6      1.0000 0.62569  0.25098  0.74993  Biso   1.000  Zr
  Zr7      1.0000 0.62568  0.74888  0.74994  Biso   1.000  Zr
  Zr8      1.0000 0.37376  0.24801  0.26195  Biso   1.000  Zr
  Zr9      1.0000 0.37375  0.75186  0.23794  Biso   1.000  Zr
  Zr10     1.0000 0.87761  0.24800  0.23794  Biso   1.000  Zr
  Zr11     1.0000 0.87761  0.75186  0.26196  Biso   1.000  Zr
  Zr12     1.0000 0.37605  0.99993  0.74995  Biso   1.000  Zr
  Zr13     1.0000 0.37671  0.49993  0.74995  Biso   1.000  Zr
  Zr14     1.0000 0.87530  0.99993  0.74996  Biso   1.000  Zr
  Zr15     1.0000 0.87465  0.49993  0.74994  Biso   1.000  Zr
  O1       1.0000 0.97305  0.15254  0.93246  Biso   1.000  O
  O2       1.0000 0.98991  0.64681  0.99193  Biso   1.000  O
  O3       1.0000 0.47877  0.13563  0.99200  Biso   1.000  O
  O4       1.0000 0.48952  0.63602  0.99464  Biso   1.000  O
  O5       1.0000 0.03006  0.09558  0.44054  Biso   1.000  O
  O6       1.0000 0.01056  0.60628  0.49889  Biso   1.000  O
  O7       1.0000 0.51937  0.11513  0.49891  Biso   1.000  O
  O8       1.0000 0.51165  0.61403  0.50086  Biso   1.000  O
  O9       1.0000 0.98992  0.35306  0.50794  Biso   1.000  O
  O10      1.0000 0.97306  0.84733  0.56742  Biso   1.000  O
  O11      1.0000 0.48953  0.36384  0.50525  Biso   1.000  O
  O12      1.0000 0.47877  0.86423  0.50788  Biso   1.000  O
  O13      1.0000 0.01055  0.39358  0.00098  Biso   1.000  O
  O14      1.0000 0.03006  0.90429  0.05934  Biso   1.000  O
  O15      1.0000 0.51164  0.38583  0.99902  Biso   1.000  O
  O16      1.0000 0.51937  0.88473  0.00097  Biso   1.000  O
  O17      1.0000 0.27830  0.15253  0.56740  Biso   1.000  O
  O18      1.0000 0.26146  0.64681  0.50797  Biso   1.000  O
  O19      1.0000 0.77258  0.13564  0.50791  Biso   1.000  O
  O20      1.0000 0.76184  0.63603  0.50524  Biso   1.000  O
  O21      1.0000 0.22129  0.09558  0.05933  Biso   1.000  O
  O22      1.0000 0.24081  0.60628  0.00101  Biso   1.000  O
  O23      1.0000 0.73198  0.11512  0.00100  Biso   1.000  O
  O24      1.0000 0.73972  0.61402  0.99901  Biso   1.000  O
  O25      1.0000 0.26145  0.35305  0.99191  Biso   1.000  O
  O26      1.0000 0.27830  0.84733  0.93247  Biso   1.000  O
  O27      1.0000 0.76184  0.36384  0.99463  Biso   1.000  O
  O28      1.0000 0.77258  0.86422  0.99200  Biso   1.000  O
  O29      1.0000 0.24082  0.39358  0.49887  Biso   1.000  O
  O30      1.0000 0.22129  0.90428  0.44055  Biso   1.000  O
  O31      1.0000 0.73973  0.38583  0.50084  Biso   1.000  O
  O32      1.0000 0.73199  0.88474  0.49891  Biso   1.000  O
