data_image0
_cell_length_a       10.0665
_cell_length_b       10.2947
_cell_length_c       10.4748
_cell_angle_alpha    89.6061
_cell_angle_beta     90.8748
_cell_angle_gamma    89.7162

_symmetry_space_group_name_H-M    "P 1"
_symmetry_int_tables_number       1

loop_
  _symmetry_equiv_pos_as_xyz
  'x, y, z'

loop_
  _atom_site_label
  _atom_site_occupancy
  _atom_site_fract_x
  _atom_site_fract_y
  _atom_site_fract_z
  _atom_site_thermal_displace_type
  _atom_site_B_iso_or_equiv
  _atom_site_type_symbol
  Si1      1.0000 0.10533  0.02558  0.21443  Biso   1.000  Si
  Zr1      1.0000 0.13805  0.02036  0.66561  Biso   1.000  Zr
  Zr2      1.0000 0.13950  0.52170  0.16964  Biso   1.000  Zr
  Zr3      1.0000 0.13874  0.52042  0.67209  Biso   1.000  Zr
  Zr4      1.0000 0.13726  0.23589  0.41993  Biso   1.000  Zr
  Zr5      1.0000 0.14803  0.21992  0.92400  Biso   1.000  Zr
  Zr6      1.0000 0.13353  0.73062  0.41805  Biso   1.000  Zr
  Zr7      1.0000 0.14364  0.73173  0.91815  Biso   1.000  Zr
  Zr8      1.0000 0.35798  0.26834  0.16720  Biso   1.000  Zr
  Zr9      1.0000 0.36124  0.27131  0.67038  Biso   1.000  Zr
  Zr10     1.0000 0.35558  0.77635  0.16354  Biso   1.000  Zr
  Zr11     1.0000 0.36164  0.77078  0.66669  Biso   1.000  Zr
  Zr12     1.0000 0.36000  0.48146  0.42023  Biso   1.000  Zr
  Zr13     1.0000 0.36178  0.47697  0.92125  Biso   1.000  Zr
  Zr14     1.0000 0.35622  0.98299  0.41337  Biso   1.000  Zr
  Zr15     1.0000 0.36328  0.97873  0.91779  Biso   1.000  Zr
  Zr16     1.0000 0.64045  0.02212  0.07774  Biso   1.000  Zr
  Zr17     1.0000 0.63410  0.02093  0.58082  Biso   1.000  Zr
  Zr18     1.0000 0.63980  0.52121  0.07907  Biso   1.000  Zr
  Zr19     1.0000 0.63913  0.52069  0.58118  Biso   1.000  Zr
  Zr20     1.0000 0.63659  0.23105  0.32907  Biso   1.000  Zr
  Zr21     1.0000 0.64188  0.22965  0.83109  Biso   1.000  Zr
  Zr22     1.0000 0.63307  0.72855  0.32695  Biso   1.000  Zr
  Zr23     1.0000 0.64119  0.72882  0.83040  Biso   1.000  Zr
  Zr24     1.0000 0.87003  0.26514  0.08564  Biso   1.000  Zr
  Zr25     1.0000 0.85989  0.27072  0.58208  Biso   1.000  Zr
  Zr26     1.0000 0.86759  0.77435  0.08137  Biso   1.000  Zr
  Zr27     1.0000 0.85849  0.76938  0.58168  Biso   1.000  Zr
  Zr28     1.0000 0.85901  0.48074  0.33025  Biso   1.000  Zr
  Zr29     1.0000 0.86635  0.47582  0.83521  Biso   1.000  Zr
  Zr30     1.0000 0.84964  0.97729  0.33554  Biso   1.000  Zr
  Zr31     1.0000 0.86359  0.97988  0.82998  Biso   1.000  Zr
  O1       1.0000 0.05771  0.14508  0.10450  Biso   1.000  O
  O2       1.0000 0.03429  0.17032  0.58513  Biso   1.000  O
  O3       1.0000 0.03746  0.67089  0.08682  Biso   1.000  O
  O4       1.0000 0.03320  0.66714  0.58474  Biso   1.000  O
  O5       1.0000 0.02774  0.07846  0.34553  Biso   1.000  O
  O6       1.0000 0.03730  0.08044  0.83448  Biso   1.000  O
  O7       1.0000 0.03228  0.58152  0.33576  Biso   1.000  O
  O8       1.0000 0.03705  0.57919  0.83823  Biso   1.000  O
  O9       1.0000 0.46776  0.41609  0.08541  Biso   1.000  O
  O10      1.0000 0.46508  0.41972  0.58527  Biso   1.000  O
  O11      1.0000 0.47204  0.91699  0.08333  Biso   1.000  O
  O12      1.0000 0.46147  0.91974  0.58164  Biso   1.000  O
  O13      1.0000 0.46290  0.33011  0.33722  Biso   1.000  O
  O14      1.0000 0.46930  0.33282  0.83391  Biso   1.000  O
  O15      1.0000 0.45595  0.83316  0.33257  Biso   1.000  O
  O16      1.0000 0.46879  0.83206  0.83127  Biso   1.000  O
  O17      1.0000 0.25043  0.12102  0.27856  Biso   1.000  O
  O18      1.0000 0.27639  0.12086  0.78555  Biso   1.000  O
  O19      1.0000 0.27169  0.63237  0.29272  Biso   1.000  O
  O20      1.0000 0.27810  0.62279  0.79218  Biso   1.000  O
  O21      1.0000 0.30388  0.14017  0.02594  Biso   1.000  O
  O22      1.0000 0.27585  0.12876  0.53612  Biso   1.000  O
  O23      1.0000 0.27700  0.62344  0.04290  Biso   1.000  O
  O24      1.0000 0.27375  0.62657  0.54231  Biso   1.000  O
  O25      1.0000 0.22425  0.37742  0.29575  Biso   1.000  O
  O26      1.0000 0.22544  0.37044  0.79603  Biso   1.000  O
  O27      1.0000 0.20485  0.89244  0.27750  Biso   1.000  O
  O28      1.0000 0.22451  0.87192  0.78569  Biso   1.000  O
  O29      1.0000 0.22173  0.37756  0.04560  Biso   1.000  O
  O30      1.0000 0.22222  0.37746  0.54443  Biso   1.000  O
  O31      1.0000 0.23428  0.87217  0.03065  Biso   1.000  O
  O32      1.0000 0.22151  0.87777  0.53490  Biso   1.000  O
  O33      1.0000 0.53522  0.16793  0.16440  Biso   1.000  O
  O34      1.0000 0.53440  0.16958  0.66298  Biso   1.000  O
  O35      1.0000 0.53080  0.66853  0.16242  Biso   1.000  O
  O36      1.0000 0.53597  0.66878  0.66253  Biso   1.000  O
  O37      1.0000 0.53001  0.08213  0.41141  Biso   1.000  O
  O38      1.0000 0.54220  0.07889  0.90964  Biso   1.000  O
  O39      1.0000 0.53213  0.58256  0.41302  Biso   1.000  O
  O40      1.0000 0.53596  0.58085  0.91331  Biso   1.000  O
  O41      1.0000 0.96826  0.41489  0.16747  Biso   1.000  O
  O42      1.0000 0.96696  0.41491  0.66935  Biso   1.000  O
  O43      1.0000 0.97497  0.92500  0.17339  Biso   1.000  O
  O44      1.0000 0.96477  0.91768  0.66297  Biso   1.000  O
  O45      1.0000 0.96256  0.33200  0.41572  Biso   1.000  O
  O46      1.0000 0.97266  0.32504  0.92535  Biso   1.000  O
  O47      1.0000 0.95880  0.83009  0.41509  Biso   1.000  O
  O48      1.0000 0.96810  0.83209  0.91571  Biso   1.000  O
  O49      1.0000 0.78342  0.12337  0.95850  Biso   1.000  O
  O50      1.0000 0.77201  0.12330  0.45831  Biso   1.000  O
  O51      1.0000 0.78020  0.62402  0.95910  Biso   1.000  O
  O52      1.0000 0.77341  0.62434  0.45641  Biso   1.000  O
  O53      1.0000 0.77776  0.12520  0.20831  Biso   1.000  O
  O54      1.0000 0.77623  0.12618  0.70677  Biso   1.000  O
  O55      1.0000 0.77468  0.62711  0.20639  Biso   1.000  O
  O56      1.0000 0.77830  0.62416  0.70878  Biso   1.000  O
  O57      1.0000 0.73036  0.37162  0.96033  Biso   1.000  O
  O58      1.0000 0.72264  0.37496  0.45746  Biso   1.000  O
  O59      1.0000 0.72797  0.87406  0.95682  Biso   1.000  O
  O60      1.0000 0.71638  0.87274  0.45695  Biso   1.000  O
  O61      1.0000 0.72689  0.37402  0.20665  Biso   1.000  O
  O62      1.0000 0.72583  0.37622  0.70859  Biso   1.000  O
  O63      1.0000 0.72736  0.87556  0.20642  Biso   1.000  O
  O64      1.0000 0.72401  0.87583  0.70642  Biso   1.000  O
