data_image0
_cell_length_a       5.02119
_cell_length_b       10.0911
_cell_length_c       10.0917
_cell_angle_alpha    90
_cell_angle_beta     89.9997
_cell_angle_gamma    89.9991

_symmetry_space_group_name_H-M    "P 1"
_symmetry_int_tables_number       1

loop_
  _symmetry_equiv_pos_as_xyz
  'x, y, z'

loop_
  _atom_site_label
  _atom_site_occupancy
  _atom_site_fract_x
  _atom_site_fract_y
  _atom_site_fract_z
  _atom_site_thermal_displace_type
  _atom_site_B_iso_or_equiv
  _atom_site_type_symbol
  Si1      1.0000 0.24997  0.99993  0.12566  Biso   1.000  Si
  Zr1      1.0000 0.24996  0.99993  0.62565  Biso   1.000  Zr
  Zr2      1.0000 0.24995  0.49992  0.12567  Biso   1.000  Zr
  Zr3      1.0000 0.24995  0.49993  0.62566  Biso   1.000  Zr
  Zr4      1.0000 0.26197  0.24800  0.37374  Biso   1.000  Zr
  Zr5      1.0000 0.23795  0.24800  0.87759  Biso   1.000  Zr
  Zr6      1.0000 0.23796  0.75185  0.37375  Biso   1.000  Zr
  Zr7      1.0000 0.26196  0.75186  0.87760  Biso   1.000  Zr
  Zr8      1.0000 0.74996  0.25029  0.12566  Biso   1.000  Zr
  Zr9      1.0000 0.74995  0.25098  0.62567  Biso   1.000  Zr
  Zr10     1.0000 0.74996  0.74957  0.12567  Biso   1.000  Zr
  Zr11     1.0000 0.74996  0.74888  0.62567  Biso   1.000  Zr
  Zr12     1.0000 0.74997  0.99993  0.37604  Biso   1.000  Zr
  Zr13     1.0000 0.74996  0.99993  0.87529  Biso   1.000  Zr
  Zr14     1.0000 0.74996  0.49992  0.37670  Biso   1.000  Zr
  Zr15     1.0000 0.74996  0.49993  0.87464  Biso   1.000  Zr
  O1       1.0000 0.93249  0.15253  0.97304  Biso   1.000  O
  O2       1.0000 0.99201  0.13564  0.47876  Biso   1.000  O
  O3       1.0000 0.99195  0.64680  0.98990  Biso   1.000  O
  O4       1.0000 0.99464  0.63603  0.48952  Biso   1.000  O
  O5       1.0000 0.05936  0.09557  0.22128  Biso   1.000  O
  O6       1.0000 0.00101  0.11512  0.73197  Biso   1.000  O
  O7       1.0000 0.00102  0.60627  0.24081  Biso   1.000  O
  O8       1.0000 0.99904  0.61402  0.73971  Biso   1.000  O
  O9       1.0000 0.99195  0.35305  0.26143  Biso   1.000  O
  O10      1.0000 0.99464  0.36383  0.76182  Biso   1.000  O
  O11      1.0000 0.93250  0.84732  0.27829  Biso   1.000  O
  O12      1.0000 0.99200  0.86421  0.77257  Biso   1.000  O
  O13      1.0000 0.00101  0.39358  0.01053  Biso   1.000  O
  O14      1.0000 0.99905  0.38583  0.51162  Biso   1.000  O
  O15      1.0000 0.05937  0.90428  0.03005  Biso   1.000  O
  O16      1.0000 0.00100  0.88474  0.51936  Biso   1.000  O
  O17      1.0000 0.56744  0.15253  0.27828  Biso   1.000  O
  O18      1.0000 0.50793  0.13564  0.77256  Biso   1.000  O
  O19      1.0000 0.50798  0.64681  0.26144  Biso   1.000  O
  O20      1.0000 0.50526  0.63603  0.76183  Biso   1.000  O
  O21      1.0000 0.44058  0.09557  0.03004  Biso   1.000  O
  O22      1.0000 0.49892  0.11512  0.51935  Biso   1.000  O
  O23      1.0000 0.49890  0.60628  0.01054  Biso   1.000  O
  O24      1.0000 0.50086  0.61402  0.51162  Biso   1.000  O
  O25      1.0000 0.50797  0.35304  0.98990  Biso   1.000  O
  O26      1.0000 0.50527  0.36383  0.48951  Biso   1.000  O
  O27      1.0000 0.56745  0.84732  0.97304  Biso   1.000  O
  O28      1.0000 0.50791  0.86423  0.47877  Biso   1.000  O
  O29      1.0000 0.49890  0.39358  0.24081  Biso   1.000  O
  O30      1.0000 0.50086  0.38584  0.73971  Biso   1.000  O
  O31      1.0000 0.44059  0.90428  0.22128  Biso   1.000  O
  O32      1.0000 0.49892  0.88475  0.73198  Biso   1.000  O
