data_image0
_cell_length_a       5.18274
_cell_length_b       10.3948
_cell_length_c       10.5365
_cell_angle_alpha    89.9347
_cell_angle_beta     78.4027
_cell_angle_gamma    89.6261

_symmetry_space_group_name_H-M    "P 1"
_symmetry_int_tables_number       1

loop_
  _symmetry_equiv_pos_as_xyz
  'x, y, z'

loop_
  _atom_site_label
  _atom_site_occupancy
  _atom_site_fract_x
  _atom_site_fract_y
  _atom_site_fract_z
  _atom_site_thermal_displace_type
  _atom_site_B_iso_or_equiv
  _atom_site_type_symbol
  Zr1      1.0000 0.26687  0.01491  0.14883  Biso   1.000  Zr
  Zr2      1.0000 0.32331  0.23403  0.39594  Biso   1.000  Zr
  Zr3      1.0000 0.66537  0.26598  0.10916  Biso   1.000  Zr
  Zr4      1.0000 0.72180  0.48509  0.35626  Biso   1.000  Zr
  O1       1.0000 0.03214  0.16415  0.08588  Biso   1.000  O
  O2       1.0000 0.03325  0.08820  0.32809  Biso   1.000  O
  O3       1.0000 0.95543  0.41180  0.17702  Biso   1.000  O
  O4       1.0000 0.95654  0.33586  0.41923  Biso   1.000  O
  O5       1.0000 0.53456  0.10611  0.24266  Biso   1.000  O
  O6       1.0000 0.56864  0.11693  0.49641  Biso   1.000  O
  O7       1.0000 0.42004  0.38307  0.00869  Biso   1.000  O
  O8       1.0000 0.45412  0.39390  0.26244  Biso   1.000  O
  Zr5      1.0000 0.27371  0.02298  0.64891  Biso   1.000  Zr
  Zr6      1.0000 0.25615  0.23203  0.89783  Biso   1.000  Zr
  Zr7      1.0000 0.73254  0.26797  0.60726  Biso   1.000  Zr
  Zr8      1.0000 0.71497  0.47702  0.85619  Biso   1.000  Zr
  O9       1.0000 0.08080  0.16663  0.57525  Biso   1.000  O
  O10      1.0000 0.05181  0.08806  0.82988  Biso   1.000  O
  O11      1.0000 0.93687  0.41195  0.67522  Biso   1.000  O
  O12      1.0000 0.90788  0.33338  0.92986  Biso   1.000  O
  O13      1.0000 0.54137  0.12919  0.74397  Biso   1.000  O
  O14      1.0000 0.51636  0.12190  0.99281  Biso   1.000  O
  O15      1.0000 0.47231  0.37810  0.51230  Biso   1.000  O
  O16      1.0000 0.44731  0.37082  0.76113  Biso   1.000  O
  Zr9      1.0000 0.28502  0.52834  0.14695  Biso   1.000  Zr
  Zr10     1.0000 0.26955  0.72762  0.40006  Biso   1.000  Zr
  Zr11     1.0000 0.71912  0.77238  0.10505  Biso   1.000  Zr
  Zr12     1.0000 0.70365  0.97167  0.35815  Biso   1.000  Zr
  O17      1.0000 0.06090  0.66538  0.07701  Biso   1.000  O
  O18      1.0000 0.06109  0.59122  0.32756  Biso   1.000  O
  O19      1.0000 0.92758  0.90879  0.17754  Biso   1.000  O
  O20      1.0000 0.92778  0.83462  0.42809  Biso   1.000  O
  O21      1.0000 0.55425  0.63249  0.24401  Biso   1.000  O
  O22      1.0000 0.54133  0.62334  0.49461  Biso   1.000  O
  O23      1.0000 0.44734  0.87666  0.01050  Biso   1.000  O
  O24      1.0000 0.43443  0.86751  0.26109  Biso   1.000  O
  Zr13     1.0000 0.27476  0.52141  0.64930  Biso   1.000  Zr
  Zr14     1.0000 0.26991  0.72727  0.89734  Biso   1.000  Zr
  Zr15     1.0000 0.71877  0.77274  0.60776  Biso   1.000  Zr
  Zr16     1.0000 0.71392  0.97860  0.85580  Biso   1.000  Zr
  O25      1.0000 0.05549  0.66232  0.58189  Biso   1.000  O
  O26      1.0000 0.05916  0.58359  0.82982  Biso   1.000  O
  O27      1.0000 0.92953  0.91641  0.67529  Biso   1.000  O
  O28      1.0000 0.93319  0.83769  0.92321  Biso   1.000  O
  O29      1.0000 0.54193  0.62735  0.74259  Biso   1.000  O
  O30      1.0000 0.55111  0.62386  0.99129  Biso   1.000  O
  O31      1.0000 0.43757  0.87614  0.51381  Biso   1.000  O
  O32      1.0000 0.44675  0.87265  0.76251  Biso   1.000  O
  Si1      1.0000 0.99434  0.25000  0.25255  Biso   1.000  Si
