data_image0
_cell_length_a       10.3108
_cell_length_b       10.1741
_cell_length_c       5.13651
_cell_angle_alpha    95.5969
_cell_angle_beta     90
_cell_angle_gamma    90.0002

_symmetry_space_group_name_H-M    "P 1"
_symmetry_int_tables_number       1

loop_
  _symmetry_equiv_pos_as_xyz
  'x, y, z'

loop_
  _atom_site_label
  _atom_site_occupancy
  _atom_site_fract_x
  _atom_site_fract_y
  _atom_site_fract_z
  _atom_site_thermal_displace_type
  _atom_site_B_iso_or_equiv
  _atom_site_type_symbol
  Zr1      1.0000 0.12784  0.00316  0.32013  Biso   1.000  Zr
  Zr2      1.0000 0.16724  0.24897  0.75137  Biso   1.000  Zr
  Zr3      1.0000 0.38779  0.24897  0.25138  Biso   1.000  Zr
  Zr4      1.0000 0.36417  0.98406  0.79184  Biso   1.000  Zr
  O1       1.0000 0.96048  0.12833  0.14413  Biso   1.000  O
  O2       1.0000 0.03861  0.09201  0.67158  Biso   1.000  O
  O3       1.0000 0.96048  0.36960  0.35862  Biso   1.000  O
  O4       1.0000 0.03861  0.40593  0.83119  Biso   1.000  O
  O5       1.0000 0.29407  0.11448  0.52069  Biso   1.000  O
  O6       1.0000 0.23669  0.11739  0.03592  Biso   1.000  O
  O7       1.0000 0.29407  0.38345  0.98207  Biso   1.000  O
  O8       1.0000 0.23670  0.38054  0.46683  Biso   1.000  O
  Zr5      1.0000 0.12784  0.49476  0.18266  Biso   1.000  Zr
  Zr6      1.0000 0.11677  0.74896  0.75140  Biso   1.000  Zr
  Zr7      1.0000 0.37303  0.74896  0.25139  Biso   1.000  Zr
  Zr8      1.0000 0.36418  0.51387  0.71096  Biso   1.000  Zr
  O9       1.0000 0.98429  0.63172  0.98636  Biso   1.000  O
  O10      1.0000 0.01884  0.61511  0.48659  Biso   1.000  O
  O11      1.0000 0.98429  0.86621  0.51642  Biso   1.000  O
  O12      1.0000 0.01884  0.88282  0.01620  Biso   1.000  O
  O13      1.0000 0.26658  0.62654  0.45814  Biso   1.000  O
  O14      1.0000 0.23197  0.62634  0.96220  Biso   1.000  O
  O15      1.0000 0.26658  0.87139  0.04468  Biso   1.000  O
  O16      1.0000 0.23196  0.87160  0.54061  Biso   1.000  O
  Zr9      1.0000 0.63521  0.97886  0.28590  Biso   1.000  Zr
  Zr10     1.0000 0.61345  0.24898  0.75139  Biso   1.000  Zr
  Zr11     1.0000 0.80097  0.24897  0.25139  Biso   1.000  Zr
  Zr12     1.0000 0.87989  0.99952  0.79493  Biso   1.000  Zr
  O17      1.0000 0.47061  0.13935  0.91558  Biso   1.000  O
  O18      1.0000 0.54168  0.14284  0.40693  Biso   1.000  O
  O19      1.0000 0.47061  0.35860  0.58715  Biso   1.000  O
  O20      1.0000 0.54165  0.35513  0.09580  Biso   1.000  O
  O21      1.0000 0.77216  0.12603  0.54119  Biso   1.000  O
  O22      1.0000 0.71572  0.10720  0.00420  Biso   1.000  O
  O23      1.0000 0.77215  0.37192  0.96159  Biso   1.000  O
  O24      1.0000 0.71572  0.39076  0.49856  Biso   1.000  O
  Zr13     1.0000 0.63522  0.51908  0.21684  Biso   1.000  Zr
  Zr14     1.0000 0.62955  0.74897  0.75136  Biso   1.000  Zr
  Zr15     1.0000 0.88445  0.74898  0.25138  Biso   1.000  Zr
  Zr16     1.0000 0.87990  0.49843  0.70782  Biso   1.000  Zr
  O25      1.0000 0.48789  0.62094  0.00327  Biso   1.000  O
  O26      1.0000 0.51700  0.62127  0.50311  Biso   1.000  O
  O27      1.0000 0.48790  0.87700  0.49951  Biso   1.000  O
  O28      1.0000 0.51700  0.87667  0.99966  Biso   1.000  O
  O29      1.0000 0.77099  0.63065  0.46498  Biso   1.000  O
  O30      1.0000 0.73713  0.61990  0.95462  Biso   1.000  O
  O31      1.0000 0.77100  0.86731  0.03777  Biso   1.000  O
  O32      1.0000 0.73713  0.87806  0.54811  Biso   1.000  O
  Si1      1.0000 0.07407  0.24896  0.25136  Biso   1.000  Si
