data_image0
_cell_length_a       10.0913
_cell_length_b       5.02122
_cell_length_c       10.0915
_cell_angle_alpha    89.9996
_cell_angle_beta     89.9993
_cell_angle_gamma    89.9996

_symmetry_space_group_name_H-M    "P 1"
_symmetry_int_tables_number       1

loop_
  _symmetry_equiv_pos_as_xyz
  'x, y, z'

loop_
  _atom_site_label
  _atom_site_occupancy
  _atom_site_fract_x
  _atom_site_fract_y
  _atom_site_fract_z
  _atom_site_thermal_displace_type
  _atom_site_B_iso_or_equiv
  _atom_site_type_symbol
  Si1      1.0000 0.12507  0.00135  0.12507  Biso   1.000  Si
  Zr1      1.0000 0.12506  0.00133  0.62506  Biso   1.000  Zr
  Zr2      1.0000 0.62506  0.00133  0.12506  Biso   1.000  Zr
  Zr3      1.0000 0.62506  0.00132  0.62506  Biso   1.000  Zr
  Zr4      1.0000 0.12507  0.50133  0.37544  Biso   1.000  Zr
  Zr5      1.0000 0.12507  0.50135  0.87470  Biso   1.000  Zr
  Zr6      1.0000 0.62507  0.50133  0.37610  Biso   1.000  Zr
  Zr7      1.0000 0.62507  0.50133  0.87403  Biso   1.000  Zr
  Zr8      1.0000 0.37543  0.50133  0.12507  Biso   1.000  Zr
  Zr9      1.0000 0.37610  0.50133  0.62507  Biso   1.000  Zr
  Zr10     1.0000 0.87470  0.50135  0.12507  Biso   1.000  Zr
  Zr11     1.0000 0.87403  0.50133  0.62507  Biso   1.000  Zr
  Zr12     1.0000 0.37314  0.01334  0.37314  Biso   1.000  Zr
  Zr13     1.0000 0.37315  0.98933  0.87699  Biso   1.000  Zr
  Zr14     1.0000 0.87699  0.98933  0.37315  Biso   1.000  Zr
  Zr15     1.0000 0.87700  0.01335  0.87700  Biso   1.000  Zr
  O1       1.0000 0.97246  0.31884  0.97245  Biso   1.000  O
  O2       1.0000 0.98934  0.25932  0.47817  Biso   1.000  O
  O3       1.0000 0.47818  0.25934  0.98932  Biso   1.000  O
  O4       1.0000 0.48894  0.25667  0.48893  Biso   1.000  O
  O5       1.0000 0.02943  0.19196  0.22070  Biso   1.000  O
  O6       1.0000 0.00990  0.25029  0.73139  Biso   1.000  O
  O7       1.0000 0.51873  0.25027  0.24022  Biso   1.000  O
  O8       1.0000 0.51099  0.25221  0.73913  Biso   1.000  O
  O9       1.0000 0.97246  0.68387  0.27768  Biso   1.000  O
  O10      1.0000 0.98934  0.74336  0.77196  Biso   1.000  O
  O11      1.0000 0.47818  0.74333  0.26081  Biso   1.000  O
  O12      1.0000 0.48895  0.74600  0.76120  Biso   1.000  O
  O13      1.0000 0.02943  0.81076  0.02944  Biso   1.000  O
  O14      1.0000 0.00989  0.75239  0.51874  Biso   1.000  O
  O15      1.0000 0.51873  0.75239  0.00991  Biso   1.000  O
  O16      1.0000 0.51098  0.75045  0.51100  Biso   1.000  O
  O17      1.0000 0.27768  0.31882  0.27768  Biso   1.000  O
  O18      1.0000 0.26080  0.25934  0.77196  Biso   1.000  O
  O19      1.0000 0.77196  0.25936  0.26082  Biso   1.000  O
  O20      1.0000 0.76119  0.25665  0.76120  Biso   1.000  O
  O21      1.0000 0.22071  0.19196  0.02944  Biso   1.000  O
  O22      1.0000 0.24024  0.25028  0.51874  Biso   1.000  O
  O23      1.0000 0.73140  0.25029  0.00992  Biso   1.000  O
  O24      1.0000 0.73915  0.25221  0.51100  Biso   1.000  O
  O25      1.0000 0.27768  0.68388  0.97246  Biso   1.000  O
  O26      1.0000 0.26079  0.74335  0.47818  Biso   1.000  O
  O27      1.0000 0.77195  0.74334  0.98932  Biso   1.000  O
  O28      1.0000 0.76119  0.74599  0.48893  Biso   1.000  O
  O29      1.0000 0.22071  0.81074  0.22070  Biso   1.000  O
  O30      1.0000 0.24024  0.75241  0.73139  Biso   1.000  O
  O31      1.0000 0.73141  0.75242  0.24023  Biso   1.000  O
  O32      1.0000 0.73915  0.75043  0.73913  Biso   1.000  O
