data_image0
_cell_length_a       10.0735
_cell_length_b       10.2869
_cell_length_c       10.5041
_cell_angle_alpha    89.9018
_cell_angle_beta     91.2654
_cell_angle_gamma    89.9376

_symmetry_space_group_name_H-M    "P 1"
_symmetry_int_tables_number       1

loop_
  _symmetry_equiv_pos_as_xyz
  'x, y, z'

loop_
  _atom_site_label
  _atom_site_occupancy
  _atom_site_fract_x
  _atom_site_fract_y
  _atom_site_fract_z
  _atom_site_thermal_displace_type
  _atom_site_B_iso_or_equiv
  _atom_site_type_symbol
  Hf1      1.0000 0.13301  0.01758  0.17509  Biso   1.000  Hf
  Hf2      1.0000 0.13680  0.22743  0.42774  Biso   1.000  Hf
  Hf3      1.0000 0.34013  0.26831  0.18954  Biso   1.000  Hf
  Hf4      1.0000 0.36175  0.48013  0.42378  Biso   1.000  Hf
  Hf5      1.0000 0.64402  0.01561  0.07379  Biso   1.000  Hf
  Hf6      1.0000 0.63587  0.22743  0.32924  Biso   1.000  Hf
  Hf7      1.0000 0.85961  0.27146  0.07535  Biso   1.000  Hf
  Hf8      1.0000 0.86036  0.47859  0.32758  Biso   1.000  Hf
  O1       1.0000 0.03169  0.16871  0.08837  Biso   1.000  O
  O2       1.0000 0.02949  0.08488  0.33636  Biso   1.000  O
  O3       1.0000 0.46507  0.43943  0.10321  Biso   1.000  O
  O4       1.0000 0.46248  0.33331  0.33635  Biso   1.000  O
  O5       1.0000 0.26787  0.12358  0.30359  Biso   1.000  O
  O6       1.0000 0.26311  0.11105  0.05314  Biso   1.000  O
  O7       1.0000 0.21487  0.37739  0.30502  Biso   1.000  O
  O8       1.0000 0.21462  0.37985  0.05536  Biso   1.000  O
  O9       1.0000 0.51633  0.14739  0.18589  Biso   1.000  O
  O10      1.0000 0.53087  0.08629  0.42391  Biso   1.000  O
  O11      1.0000 0.96199  0.41775  0.16690  Biso   1.000  O
  O12      1.0000 0.96764  0.33518  0.41704  Biso   1.000  O
  O13      1.0000 0.77538  0.12495  0.45201  Biso   1.000  O
  O14      1.0000 0.77071  0.12694  0.20166  Biso   1.000  O
  O15      1.0000 0.72470  0.37514  0.45280  Biso   1.000  O
  O16      1.0000 0.71982  0.37505  0.20387  Biso   1.000  O
  Hf9      1.0000 0.14251  0.02142  0.67500  Biso   1.000  Hf
  Hf10     1.0000 0.14325  0.22854  0.92723  Biso   1.000  Hf
  Hf11     1.0000 0.36699  0.27258  0.67335  Biso   1.000  Hf
  Hf12     1.0000 0.35884  0.48439  0.92879  Biso   1.000  Hf
  Hf13     1.0000 0.64111  0.01988  0.57880  Biso   1.000  Hf
  Hf14     1.0000 0.66274  0.23170  0.81305  Biso   1.000  Hf
  Hf15     1.0000 0.86607  0.27257  0.57484  Biso   1.000  Hf
  Hf16     1.0000 0.86985  0.48243  0.82749  Biso   1.000  Hf
  O17      1.0000 0.03522  0.16483  0.58554  Biso   1.000  O
  O18      1.0000 0.04087  0.08225  0.83569  Biso   1.000  O
  O19      1.0000 0.47199  0.41372  0.57867  Biso   1.000  O
  O20      1.0000 0.48654  0.35262  0.81669  Biso   1.000  O
  O21      1.0000 0.28304  0.12495  0.79872  Biso   1.000  O
  O22      1.0000 0.27817  0.12487  0.54979  Biso   1.000  O
  O23      1.0000 0.23216  0.37307  0.80092  Biso   1.000  O
  O24      1.0000 0.22749  0.37505  0.55057  Biso   1.000  O
  O25      1.0000 0.54038  0.16669  0.66624  Biso   1.000  O
  O26      1.0000 0.53779  0.06057  0.89937  Biso   1.000  O
  O27      1.0000 0.97337  0.41513  0.66622  Biso   1.000  O
  O28      1.0000 0.97117  0.33130  0.91421  Biso   1.000  O
  O29      1.0000 0.78824  0.12016  0.94723  Biso   1.000  O
  O30      1.0000 0.78800  0.12262  0.69756  Biso   1.000  O
  O31      1.0000 0.73976  0.38895  0.94945  Biso   1.000  O
  O32      1.0000 0.73500  0.37643  0.69900  Biso   1.000  O
  Hf17     1.0000 0.13478  0.52304  0.17411  Biso   1.000  Hf
  Hf18     1.0000 0.13817  0.72908  0.42299  Biso   1.000  Hf
  Hf19     1.0000 0.36253  0.77230  0.17500  Biso   1.000  Hf
  Hf20     1.0000 0.36204  0.97777  0.42710  Biso   1.000  Hf
  Hf21     1.0000 0.64259  0.52747  0.07944  Biso   1.000  Hf
  Hf22     1.0000 0.63945  0.73119  0.32913  Biso   1.000  Hf
  Hf23     1.0000 0.86222  0.77011  0.07916  Biso   1.000  Hf
  Hf24     1.0000 0.85993  0.98015  0.32951  Biso   1.000  Hf
  O33      1.0000 0.03344  0.66653  0.08418  Biso   1.000  O
  O34      1.0000 0.03105  0.58559  0.33576  Biso   1.000  O
  O35      1.0000 0.46914  0.91437  0.08373  Biso   1.000  O
  O36      1.0000 0.46836  0.83677  0.33664  Biso   1.000  O
  O37      1.0000 0.27486  0.62563  0.29599  Biso   1.000  O
  O38      1.0000 0.27540  0.62598  0.04660  Biso   1.000  O
  O39      1.0000 0.22419  0.87425  0.29899  Biso   1.000  O
  O40      1.0000 0.22375  0.87050  0.04979  Biso   1.000  O
  O41      1.0000 0.53757  0.67432  0.16623  Biso   1.000  O
  O42      1.0000 0.53268  0.58660  0.41528  Biso   1.000  O
  O43      1.0000 0.96263  0.91681  0.16687  Biso   1.000  O
  O44      1.0000 0.96651  0.83445  0.41703  Biso   1.000  O
  O45      1.0000 0.77695  0.62460  0.45447  Biso   1.000  O
  O46      1.0000 0.77800  0.62771  0.20534  Biso   1.000  O
  O47      1.0000 0.72583  0.87553  0.45635  Biso   1.000  O
  O48      1.0000 0.72422  0.87608  0.20573  Biso   1.000  O
  Hf25     1.0000 0.14293  0.51986  0.67307  Biso   1.000  Hf
  Hf26     1.0000 0.14064  0.72989  0.92342  Biso   1.000  Hf
  Hf27     1.0000 0.36342  0.76881  0.67345  Biso   1.000  Hf
  Hf28     1.0000 0.36026  0.97253  0.92314  Biso   1.000  Hf
  Hf29     1.0000 0.64083  0.52224  0.57548  Biso   1.000  Hf
  Hf30     1.0000 0.64033  0.72770  0.82759  Biso   1.000  Hf
  Hf31     1.0000 0.86470  0.77093  0.57959  Biso   1.000  Hf
  Hf32     1.0000 0.86808  0.97697  0.82848  Biso   1.000  Hf
  O49      1.0000 0.03635  0.66555  0.58555  Biso   1.000  O
  O50      1.0000 0.04023  0.58320  0.83571  Biso   1.000  O
  O51      1.0000 0.47018  0.91340  0.58731  Biso   1.000  O
  O52      1.0000 0.46529  0.82568  0.83635  Biso   1.000  O
  O53      1.0000 0.27864  0.62393  0.79685  Biso   1.000  O
  O54      1.0000 0.27703  0.62448  0.54623  Biso   1.000  O
  O55      1.0000 0.22486  0.87230  0.79724  Biso   1.000  O
  O56      1.0000 0.22591  0.87540  0.54811  Biso   1.000  O
  O57      1.0000 0.53450  0.66324  0.66594  Biso   1.000  O
  O58      1.0000 0.53372  0.58563  0.91886  Biso   1.000  O
  O59      1.0000 0.97181  0.91442  0.66683  Biso   1.000  O
  O60      1.0000 0.96942  0.83347  0.91840  Biso   1.000  O
  O61      1.0000 0.77911  0.62950  0.95280  Biso   1.000  O
  O62      1.0000 0.77867  0.62576  0.70359  Biso   1.000  O
  O63      1.0000 0.72746  0.87402  0.95599  Biso   1.000  O
  O64      1.0000 0.72800  0.87438  0.70660  Biso   1.000  O
  Sn1      1.0000 0.50142  0.24999  0.00129  Biso   1.000  Sn
