data_image0
_cell_length_a       10.011
_cell_length_b       10.2122
_cell_length_c       10.011
_cell_angle_alpha    90
_cell_angle_beta     90
_cell_angle_gamma    90

_symmetry_space_group_name_H-M    "P 1"
_symmetry_int_tables_number       1

loop_
  _symmetry_equiv_pos_as_xyz
  'x, y, z'

loop_
  _atom_site_label
  _atom_site_occupancy
  _atom_site_fract_x
  _atom_site_fract_y
  _atom_site_fract_z
  _atom_site_thermal_displace_type
  _atom_site_B_iso_or_equiv
  _atom_site_type_symbol
  Sn1      1.0000 0.12491  0.00005  0.12491  Biso   1.000  Sn
  Hf1      1.0000 0.12596  0.25142  0.37525  Biso   1.000  Hf
  Hf2      1.0000 0.37525  0.25142  0.12596  Biso   1.000  Hf
  Hf3      1.0000 0.37486  0.00155  0.37486  Biso   1.000  Hf
  O1       1.0000 0.99035  0.15132  0.99035  Biso   1.000  O
  O2       1.0000 0.00451  0.10136  0.24530  Biso   1.000  O
  O3       1.0000 0.99969  0.35092  0.25012  Biso   1.000  O
  O4       1.0000 0.00005  0.39961  0.00005  Biso   1.000  O
  O5       1.0000 0.25947  0.15132  0.25947  Biso   1.000  O
  O6       1.0000 0.24530  0.10136  0.00452  Biso   1.000  O
  O7       1.0000 0.25012  0.35092  0.99969  Biso   1.000  O
  O8       1.0000 0.24977  0.39961  0.24977  Biso   1.000  O
  Hf4      1.0000 0.12491  0.00005  0.62491  Biso   1.000  Hf
  Hf5      1.0000 0.12386  0.25142  0.87457  Biso   1.000  Hf
  Hf6      1.0000 0.37468  0.24927  0.62579  Biso   1.000  Hf
  Hf7      1.0000 0.37486  0.99856  0.87496  Biso   1.000  Hf
  O9       1.0000 0.99600  0.14783  0.49326  Biso   1.000  O
  O10      1.0000 0.00062  0.10259  0.74494  Biso   1.000  O
  O11      1.0000 0.99854  0.35272  0.74970  Biso   1.000  O
  O12      1.0000 0.00103  0.39772  0.49985  Biso   1.000  O
  O13      1.0000 0.25382  0.14783  0.75655  Biso   1.000  O
  O14      1.0000 0.24920  0.10259  0.50488  Biso   1.000  O
  O15      1.0000 0.25128  0.35272  0.50012  Biso   1.000  O
  O16      1.0000 0.24878  0.39772  0.74996  Biso   1.000  O
  Hf8      1.0000 0.12491  0.50005  0.12491  Biso   1.000  Hf
  Hf9      1.0000 0.12386  0.74869  0.37525  Biso   1.000  Hf
  Hf10     1.0000 0.37525  0.74869  0.12386  Biso   1.000  Hf
  Hf11     1.0000 0.37573  0.50040  0.37573  Biso   1.000  Hf
  O17      1.0000 0.99970  0.64919  0.99970  Biso   1.000  O
  O18      1.0000 0.00005  0.60050  0.24977  Biso   1.000  O
  O19      1.0000 0.99034  0.84879  0.25947  Biso   1.000  O
  O20      1.0000 0.00452  0.89875  0.00452  Biso   1.000  O
  O21      1.0000 0.25012  0.64919  0.25012  Biso   1.000  O
  O22      1.0000 0.24977  0.60050  0.00005  Biso   1.000  O
  O23      1.0000 0.25947  0.84879  0.99034  Biso   1.000  O
  O24      1.0000 0.24530  0.89875  0.24530  Biso   1.000  O
  Hf12     1.0000 0.12491  0.50005  0.62491  Biso   1.000  Hf
  Hf13     1.0000 0.12596  0.74869  0.87457  Biso   1.000  Hf
  Hf14     1.0000 0.37468  0.75084  0.62403  Biso   1.000  Hf
  Hf15     1.0000 0.37573  0.49971  0.87409  Biso   1.000  Hf
  O25      1.0000 0.99854  0.64738  0.50012  Biso   1.000  O
  O26      1.0000 0.00103  0.60239  0.74996  Biso   1.000  O
  O27      1.0000 0.99600  0.85228  0.75655  Biso   1.000  O
  O28      1.0000 0.00062  0.89751  0.50488  Biso   1.000  O
  O29      1.0000 0.25128  0.64738  0.74970  Biso   1.000  O
  O30      1.0000 0.24878  0.60239  0.49986  Biso   1.000  O
  O31      1.0000 0.25382  0.85228  0.49326  Biso   1.000  O
  O32      1.0000 0.24920  0.89751  0.74494  Biso   1.000  O
  Hf16     1.0000 0.62491  0.00005  0.12491  Biso   1.000  Hf
  Hf17     1.0000 0.62579  0.24927  0.37468  Biso   1.000  Hf
  Hf18     1.0000 0.87457  0.25142  0.12386  Biso   1.000  Hf
  Hf19     1.0000 0.87495  0.99856  0.37486  Biso   1.000  Hf
  O33      1.0000 0.49326  0.14783  0.99600  Biso   1.000  O
  O34      1.0000 0.50488  0.10259  0.24920  Biso   1.000  O
  O35      1.0000 0.50012  0.35272  0.25128  Biso   1.000  O
  O36      1.0000 0.49985  0.39772  0.00103  Biso   1.000  O
  O37      1.0000 0.75655  0.14783  0.25382  Biso   1.000  O
  O38      1.0000 0.74494  0.10259  0.00062  Biso   1.000  O
  O39      1.0000 0.74970  0.35272  0.99854  Biso   1.000  O
  O40      1.0000 0.74996  0.39772  0.24878  Biso   1.000  O
  Hf20     1.0000 0.62491  0.00005  0.62491  Biso   1.000  Hf
  Hf21     1.0000 0.62403  0.24927  0.87514  Biso   1.000  Hf
  Hf22     1.0000 0.87514  0.24927  0.62403  Biso   1.000  Hf
  Hf23     1.0000 0.87496  0.00155  0.87496  Biso   1.000  Hf
  O41      1.0000 0.49697  0.14807  0.49697  Biso   1.000  O
  O42      1.0000 0.50159  0.10201  0.74822  Biso   1.000  O
  O43      1.0000 0.49846  0.35226  0.75136  Biso   1.000  O
  O44      1.0000 0.50083  0.39761  0.50083  Biso   1.000  O
  O45      1.0000 0.75285  0.14807  0.75285  Biso   1.000  O
  O46      1.0000 0.74822  0.10201  0.50159  Biso   1.000  O
  O47      1.0000 0.75136  0.35226  0.49846  Biso   1.000  O
  O48      1.0000 0.74898  0.39761  0.74899  Biso   1.000  O
  Hf24     1.0000 0.62491  0.50005  0.12491  Biso   1.000  Hf
  Hf25     1.0000 0.62403  0.75084  0.37468  Biso   1.000  Hf
  Hf26     1.0000 0.87457  0.74869  0.12596  Biso   1.000  Hf
  Hf27     1.0000 0.87409  0.49971  0.37573  Biso   1.000  Hf
  O49      1.0000 0.50012  0.64738  0.99854  Biso   1.000  O
  O50      1.0000 0.49986  0.60239  0.24878  Biso   1.000  O
  O51      1.0000 0.49326  0.85228  0.25382  Biso   1.000  O
  O52      1.0000 0.50488  0.89751  0.00062  Biso   1.000  O
  O53      1.0000 0.74970  0.64738  0.25128  Biso   1.000  O
  O54      1.0000 0.74996  0.60239  0.00104  Biso   1.000  O
  O55      1.0000 0.75655  0.85228  0.99600  Biso   1.000  O
  O56      1.0000 0.74494  0.89751  0.24920  Biso   1.000  O
  Hf28     1.0000 0.62491  0.50005  0.62491  Biso   1.000  Hf
  Hf29     1.0000 0.62579  0.75084  0.87514  Biso   1.000  Hf
  Hf30     1.0000 0.87514  0.75084  0.62579  Biso   1.000  Hf
  Hf31     1.0000 0.87409  0.50040  0.87409  Biso   1.000  Hf
  O57      1.0000 0.49846  0.64784  0.49846  Biso   1.000  O
  O58      1.0000 0.50083  0.60250  0.74898  Biso   1.000  O
  O59      1.0000 0.49697  0.85204  0.75285  Biso   1.000  O
  O60      1.0000 0.50159  0.89810  0.50159  Biso   1.000  O
  O61      1.0000 0.75136  0.64784  0.75136  Biso   1.000  O
  O62      1.0000 0.74898  0.60250  0.50083  Biso   1.000  O
  O63      1.0000 0.75285  0.85204  0.49697  Biso   1.000  O
  O64      1.0000 0.74822  0.89810  0.74822  Biso   1.000  O
