data_image0
_cell_length_a       10.0234
_cell_length_b       10.2322
_cell_length_c       10.4495
_cell_angle_alpha    89.9697
_cell_angle_beta     90.0841
_cell_angle_gamma    89.9535

_symmetry_space_group_name_H-M    "P 1"
_symmetry_int_tables_number       1

loop_
  _symmetry_equiv_pos_as_xyz
  'x, y, z'

loop_
  _atom_site_label
  _atom_site_occupancy
  _atom_site_fract_x
  _atom_site_fract_y
  _atom_site_fract_z
  _atom_site_thermal_displace_type
  _atom_site_B_iso_or_equiv
  _atom_site_type_symbol
  Sn1      1.0000 0.13564  0.01806  0.17338  Biso   1.000  Sn
  Hf1      1.0000 0.13854  0.22930  0.42117  Biso   1.000  Hf
  Hf2      1.0000 0.36062  0.27082  0.17071  Biso   1.000  Hf
  Hf3      1.0000 0.36099  0.47912  0.42119  Biso   1.000  Hf
  Hf4      1.0000 0.63889  0.02118  0.07862  Biso   1.000  Hf
  Hf5      1.0000 0.63829  0.22936  0.32859  Biso   1.000  Hf
  Hf6      1.0000 0.86252  0.26990  0.07951  Biso   1.000  Hf
  Hf7      1.0000 0.86125  0.47895  0.32868  Biso   1.000  Hf
  O1       1.0000 0.03566  0.16560  0.08366  Biso   1.000  O
  O2       1.0000 0.03161  0.08404  0.33584  Biso   1.000  O
  O3       1.0000 0.46670  0.41628  0.08437  Biso   1.000  O
  O4       1.0000 0.46577  0.33313  0.33454  Biso   1.000  O
  O5       1.0000 0.27638  0.12311  0.29420  Biso   1.000  O
  O6       1.0000 0.27804  0.12690  0.04341  Biso   1.000  O
  O7       1.0000 0.22331  0.37386  0.29465  Biso   1.000  O
  O8       1.0000 0.22369  0.37712  0.04437  Biso   1.000  O
  O9       1.0000 0.53364  0.16659  0.16542  Biso   1.000  O
  O10      1.0000 0.53387  0.08335  0.41560  Biso   1.000  O
  O11      1.0000 0.96670  0.41627  0.16591  Biso   1.000  O
  O12      1.0000 0.96635  0.33427  0.41633  Biso   1.000  O
  O13      1.0000 0.77622  0.12394  0.45587  Biso   1.000  O
  O14      1.0000 0.77607  0.12620  0.20569  Biso   1.000  O
  O15      1.0000 0.72332  0.37388  0.45539  Biso   1.000  O
  O16      1.0000 0.72389  0.37586  0.20539  Biso   1.000  O
  Hf8      1.0000 0.13881  0.02107  0.67078  Biso   1.000  Hf
  Hf9      1.0000 0.14006  0.22836  0.92079  Biso   1.000  Hf
  Hf10     1.0000 0.36152  0.27143  0.67109  Biso   1.000  Hf
  Hf11     1.0000 0.36154  0.47912  0.92124  Biso   1.000  Hf
  Hf12     1.0000 0.63857  0.02123  0.57945  Biso   1.000  Hf
  Hf13     1.0000 0.63921  0.22922  0.82893  Biso   1.000  Hf
  Hf14     1.0000 0.86134  0.27128  0.57897  Biso   1.000  Hf
  Hf15     1.0000 0.86191  0.47841  0.82921  Biso   1.000  Hf
  O17      1.0000 0.03368  0.16668  0.58431  Biso   1.000  O
  O18      1.0000 0.03409  0.08364  0.83352  Biso   1.000  O
  O19      1.0000 0.46653  0.41669  0.58430  Biso   1.000  O
  O20      1.0000 0.46688  0.33392  0.83426  Biso   1.000  O
  O21      1.0000 0.27717  0.12375  0.79384  Biso   1.000  O
  O22      1.0000 0.27685  0.12664  0.54419  Biso   1.000  O
  O23      1.0000 0.22407  0.37393  0.79455  Biso   1.000  O
  O24      1.0000 0.22345  0.37653  0.54470  Biso   1.000  O
  O25      1.0000 0.53387  0.16691  0.66557  Biso   1.000  O
  O26      1.0000 0.53388  0.08383  0.91535  Biso   1.000  O
  O27      1.0000 0.96686  0.41603  0.66638  Biso   1.000  O
  O28      1.0000 0.96712  0.33276  0.91670  Biso   1.000  O
  O29      1.0000 0.77679  0.12360  0.95550  Biso   1.000  O
  O30      1.0000 0.77678  0.12639  0.70555  Biso   1.000  O
  O31      1.0000 0.72427  0.37331  0.95576  Biso   1.000  O
  O32      1.0000 0.72377  0.37635  0.70555  Biso   1.000  O
  Hf16     1.0000 0.13882  0.52130  0.17115  Biso   1.000  Hf
  Hf17     1.0000 0.13791  0.72905  0.42127  Biso   1.000  Hf
  Hf18     1.0000 0.36188  0.77126  0.17065  Biso   1.000  Hf
  Hf19     1.0000 0.36172  0.97945  0.42128  Biso   1.000  Hf
  Hf20     1.0000 0.63905  0.52056  0.07857  Biso   1.000  Hf
  Hf21     1.0000 0.63853  0.72851  0.32878  Biso   1.000  Hf
  Hf22     1.0000 0.86100  0.77054  0.07844  Biso   1.000  Hf
  Hf23     1.0000 0.85864  0.97922  0.33020  Biso   1.000  Hf
  O33      1.0000 0.03370  0.66640  0.08408  Biso   1.000  O
  O34      1.0000 0.03340  0.58375  0.33413  Biso   1.000  O
  O35      1.0000 0.46703  0.91597  0.08375  Biso   1.000  O
  O36      1.0000 0.46542  0.83287  0.33486  Biso   1.000  O
  O37      1.0000 0.27623  0.62443  0.29465  Biso   1.000  O
  O38      1.0000 0.27696  0.62729  0.04429  Biso   1.000  O
  O39      1.0000 0.22296  0.87447  0.29301  Biso   1.000  O
  O40      1.0000 0.22277  0.87769  0.04460  Biso   1.000  O
  O41      1.0000 0.53373  0.66605  0.16567  Biso   1.000  O
  O42      1.0000 0.53345  0.58328  0.41544  Biso   1.000  O
  O43      1.0000 0.96251  0.91667  0.16545  Biso   1.000  O
  O44      1.0000 0.96569  0.83365  0.41570  Biso   1.000  O
  O45      1.0000 0.77646  0.62378  0.45525  Biso   1.000  O
  O46      1.0000 0.77641  0.62604  0.20521  Biso   1.000  O
  O47      1.0000 0.72241  0.87348  0.45603  Biso   1.000  O
  O48      1.0000 0.72307  0.87606  0.20597  Biso   1.000  O
  Hf24     1.0000 0.13899  0.52105  0.67137  Biso   1.000  Hf
  Hf25     1.0000 0.13868  0.72932  0.92105  Biso   1.000  Hf
  Hf26     1.0000 0.36133  0.77101  0.67110  Biso   1.000  Hf
  Hf27     1.0000 0.36172  0.97948  0.92073  Biso   1.000  Hf
  Hf28     1.0000 0.63888  0.52104  0.57874  Biso   1.000  Hf
  Hf29     1.0000 0.63900  0.72886  0.82868  Biso   1.000  Hf
  Hf30     1.0000 0.86110  0.77097  0.57903  Biso   1.000  Hf
  Hf31     1.0000 0.86177  0.97914  0.82894  Biso   1.000  Hf
  O49      1.0000 0.03343  0.66620  0.58413  Biso   1.000  O
  O50      1.0000 0.03383  0.58359  0.83450  Biso   1.000  O
  O51      1.0000 0.46630  0.91701  0.58514  Biso   1.000  O
  O52      1.0000 0.46652  0.83322  0.83441  Biso   1.000  O
  O53      1.0000 0.27661  0.62390  0.79451  Biso   1.000  O
  O54      1.0000 0.27634  0.62627  0.54459  Biso   1.000  O
  O55      1.0000 0.22369  0.87374  0.79436  Biso   1.000  O
  O56      1.0000 0.22363  0.87619  0.54391  Biso   1.000  O
  O57      1.0000 0.53381  0.66659  0.66534  Biso   1.000  O
  O58      1.0000 0.53385  0.58355  0.91560  Biso   1.000  O
  O59      1.0000 0.96659  0.91631  0.66549  Biso   1.000  O
  O60      1.0000 0.96637  0.83342  0.91549  Biso   1.000  O
  O61      1.0000 0.77676  0.62325  0.95511  Biso   1.000  O
  O62      1.0000 0.77687  0.62602  0.70539  Biso   1.000  O
  O63      1.0000 0.72342  0.87362  0.95537  Biso   1.000  O
  O64      1.0000 0.72376  0.87635  0.70565  Biso   1.000  O
