data_image0
_cell_length_a       10.071
_cell_length_b       5.23877
_cell_length_c       10.2378
_cell_angle_alpha    92.9992
_cell_angle_beta     96.0072
_cell_angle_gamma    87.5312

_symmetry_space_group_name_H-M    "P 1"
_symmetry_int_tables_number       1

loop_
  _symmetry_equiv_pos_as_xyz
  'x, y, z'

loop_
  _atom_site_label
  _atom_site_occupancy
  _atom_site_fract_x
  _atom_site_fract_y
  _atom_site_fract_z
  _atom_site_thermal_displace_type
  _atom_site_B_iso_or_equiv
  _atom_site_type_symbol
  Hf1      1.0000 0.16595  0.14539  0.08830  Biso   1.000  Hf
  Hf2      1.0000 0.09669  0.43665  0.37773  Biso   1.000  Hf
  Hf3      1.0000 0.37523  0.57342  0.12394  Biso   1.000  Hf
  Hf4      1.0000 0.35128  0.97648  0.37245  Biso   1.000  Hf
  O1       1.0000 0.01393  0.26336  0.20105  Biso   1.000  O
  O2       1.0000 0.02854  0.10337  0.43136  Biso   1.000  O
  O3       1.0000 0.46756  0.89130  0.21194  Biso   1.000  O
  O4       1.0000 0.45453  0.64399  0.43848  Biso   1.000  O
  O5       1.0000 0.28052  0.31909  0.24830  Biso   1.000  O
  O6       1.0000 0.25554  0.24756  0.49242  Biso   1.000  O
  O7       1.0000 0.21859  0.74537  0.47436  Biso   1.000  O
  O8       1.0000 0.22806  0.82622  0.21307  Biso   1.000  O
  Hf5      1.0000 0.13405  0.01612  0.60734  Biso   1.000  Hf
  Hf6      1.0000 0.15641  0.47238  0.84058  Biso   1.000  Hf
  Hf7      1.0000 0.37475  0.52125  0.60412  Biso   1.000  Hf
  Hf8      1.0000 0.38480  0.97378  0.86012  Biso   1.000  Hf
  O9       1.0000 0.04984  0.36050  0.66302  Biso   1.000  O
  O10      1.0000 0.05018  0.16971  0.90660  Biso   1.000  O
  O11      1.0000 0.46898  0.86087  0.68845  Biso   1.000  O
  O12      1.0000 0.50667  0.68624  0.97912  Biso   1.000  O
  O13      1.0000 0.28038  0.22265  0.73540  Biso   1.000  O
  O14      1.0000 0.30800  0.28948  0.97956  Biso   1.000  O
  O15      1.0000 0.25605  0.80030  0.97207  Biso   1.000  O
  O16      1.0000 0.24373  0.72346  0.72479  Biso   1.000  O
  Hf9      1.0000 0.62316  0.99856  0.12391  Biso   1.000  Hf
  Hf10     1.0000 0.62301  0.44449  0.39450  Biso   1.000  Hf
  Hf11     1.0000 0.83142  0.46422  0.18665  Biso   1.000  Hf
  Hf12     1.0000 0.85599  0.91920  0.41987  Biso   1.000  Hf
  O17      1.0000 0.54171  0.36131  0.19230  Biso   1.000  O
  O18      1.0000 0.51269  0.16123  0.46907  Biso   1.000  O
  O19      1.0000 0.97224  0.72265  0.26059  Biso   1.000  O
  O20      1.0000 0.92303  0.54555  0.45118  Biso   1.000  O
  O21      1.0000 0.75584  0.17574  0.27972  Biso   1.000  O
  O22      1.0000 0.75684  0.23946  0.52746  Biso   1.000  O
  O23      1.0000 0.70817  0.73691  0.52644  Biso   1.000  O
  O24      1.0000 0.71129  0.71229  0.28049  Biso   1.000  O
  Hf13     1.0000 0.63506  0.03829  0.64510  Biso   1.000  Hf
  Hf14     1.0000 0.65364  0.47431  0.89342  Biso   1.000  Hf
  Hf15     1.0000 0.86669  0.53314  0.64989  Biso   1.000  Hf
  Hf16     1.0000 0.87672  0.97542  0.89737  Biso   1.000  Hf
  O25      1.0000 0.53766  0.37688  0.71469  Biso   1.000  O
  O26      1.0000 0.55402  0.14490  0.94001  Biso   1.000  O
  O27      1.0000 0.94887  0.88573  0.62423  Biso   1.000  O
  O28      1.0000 0.97337  0.65296  0.83886  Biso   1.000  O
  O29      1.0000 0.78316  0.24857  0.77465  Biso   1.000  O
  O30      1.0000 0.77947  0.24002  0.02497  Biso   1.000  O
  O31      1.0000 0.77001  0.73395  0.03384  Biso   1.000  O
  O32      1.0000 0.72927  0.76374  0.77717  Biso   1.000  O
  Sn1      1.0000 0.06170  0.68388  0.08581  Biso   1.000  Sn
