data_image0
_cell_length_a       10.3189
_cell_length_b       10.4008
_cell_length_c       5.26876
_cell_angle_alpha    89.5015
_cell_angle_beta     78.3675
_cell_angle_gamma    89.4038

_symmetry_space_group_name_H-M    "P 1"
_symmetry_int_tables_number       1

loop_
  _symmetry_equiv_pos_as_xyz
  'x, y, z'

loop_
  _atom_site_label
  _atom_site_occupancy
  _atom_site_fract_x
  _atom_site_fract_y
  _atom_site_fract_z
  _atom_site_thermal_displace_type
  _atom_site_B_iso_or_equiv
  _atom_site_type_symbol
  Hf1      1.0000 0.12887  0.01686  0.28652  Biso   1.000  Hf
  Hf2      1.0000 0.13191  0.22676  0.77336  Biso   1.000  Hf
  Hf3      1.0000 0.33482  0.26410  0.18044  Biso   1.000  Hf
  Hf4      1.0000 0.35616  0.48706  0.70574  Biso   1.000  Hf
  O1       1.0000 0.03549  0.17005  0.15937  Biso   1.000  O
  O2       1.0000 0.02713  0.07986  0.66294  Biso   1.000  O
  O3       1.0000 0.46279  0.44496  0.33856  Biso   1.000  O
  O4       1.0000 0.47101  0.35069  0.88486  Biso   1.000  O
  O5       1.0000 0.25793  0.11734  0.45878  Biso   1.000  O
  O6       1.0000 0.26899  0.12075  0.95579  Biso   1.000  O
  O7       1.0000 0.21492  0.38247  0.99339  Biso   1.000  O
  O8       1.0000 0.21229  0.37061  0.49648  Biso   1.000  O
  Hf5      1.0000 0.13717  0.52236  0.29108  Biso   1.000  Hf
  Hf6      1.0000 0.13489  0.72866  0.79566  Biso   1.000  Hf
  Hf7      1.0000 0.35899  0.77087  0.20846  Biso   1.000  Hf
  Hf8      1.0000 0.35538  0.96966  0.70126  Biso   1.000  Hf
  O9       1.0000 0.03011  0.66695  0.16038  Biso   1.000  O
  O10      1.0000 0.03491  0.58562  0.65778  Biso   1.000  O
  O11      1.0000 0.46183  0.91514  0.33545  Biso   1.000  O
  O12      1.0000 0.45781  0.82371  0.83910  Biso   1.000  O
  O13      1.0000 0.27252  0.62827  0.48430  Biso   1.000  O
  O14      1.0000 0.27240  0.62337  0.98493  Biso   1.000  O
  O15      1.0000 0.22011  0.87738  0.01837  Biso   1.000  O
  O16      1.0000 0.21958  0.86676  0.51601  Biso   1.000  O
  Hf9      1.0000 0.63818  0.01294  0.30447  Biso   1.000  Hf
  Hf10     1.0000 0.65951  0.23591  0.82979  Biso   1.000  Hf
  Hf11     1.0000 0.86242  0.27324  0.23686  Biso   1.000  Hf
  Hf12     1.0000 0.86547  0.48314  0.72367  Biso   1.000  Hf
  O17      1.0000 0.52334  0.14931  0.12535  Biso   1.000  O
  O18      1.0000 0.53154  0.05502  0.67165  Biso   1.000  O
  O19      1.0000 0.96721  0.42014  0.34727  Biso   1.000  O
  O20      1.0000 0.95885  0.32996  0.85084  Biso   1.000  O
  O21      1.0000 0.78205  0.12939  0.51373  Biso   1.000  O
  O22      1.0000 0.77943  0.11753  0.01683  Biso   1.000  O
  O23      1.0000 0.72534  0.37925  0.05442  Biso   1.000  O
  O24      1.0000 0.73641  0.38265  0.55143  Biso   1.000  O
  Hf13     1.0000 0.63896  0.53033  0.30893  Biso   1.000  Hf
  Hf14     1.0000 0.63536  0.72913  0.80173  Biso   1.000  Hf
  Hf15     1.0000 0.85945  0.77134  0.21453  Biso   1.000  Hf
  Hf16     1.0000 0.85718  0.97765  0.71912  Biso   1.000  Hf
  O25      1.0000 0.53653  0.67628  0.17109  Biso   1.000  O
  O26      1.0000 0.53251  0.58486  0.67474  Biso   1.000  O
  O27      1.0000 0.95943  0.91438  0.35242  Biso   1.000  O
  O28      1.0000 0.96423  0.83305  0.84982  Biso   1.000  O
  O29      1.0000 0.77476  0.63323  0.49418  Biso   1.000  O
  O30      1.0000 0.77423  0.62262  0.99183  Biso   1.000  O
  O31      1.0000 0.72193  0.87663  0.02525  Biso   1.000  O
  O32      1.0000 0.72182  0.87173  0.52589  Biso   1.000  O
  Sn1      1.0000 0.49716  0.24999  0.50513  Biso   1.000  Sn
