data_image0
_cell_length_a       10.1063
_cell_length_b       10.2707
_cell_length_c       5.2267
_cell_angle_alpha    90.0397
_cell_angle_beta     80.6212
_cell_angle_gamma    89.8423

_symmetry_space_group_name_H-M    "P 1"
_symmetry_int_tables_number       1

loop_
  _symmetry_equiv_pos_as_xyz
  'x, y, z'

loop_
  _atom_site_label
  _atom_site_occupancy
  _atom_site_fract_x
  _atom_site_fract_y
  _atom_site_fract_z
  _atom_site_thermal_displace_type
  _atom_site_B_iso_or_equiv
  _atom_site_type_symbol
  Sn1      1.0000 0.13442  0.01721  0.29799  Biso   1.000  Sn
  Hf1      1.0000 0.13988  0.22809  0.78804  Biso   1.000  Hf
  Hf2      1.0000 0.36058  0.27108  0.20459  Biso   1.000  Hf
  Hf3      1.0000 0.36121  0.47914  0.70726  Biso   1.000  Hf
  O1       1.0000 0.03931  0.16894  0.15716  Biso   1.000  O
  O2       1.0000 0.03385  0.08048  0.66203  Biso   1.000  O
  O3       1.0000 0.46402  0.41945  0.33876  Biso   1.000  O
  O4       1.0000 0.46522  0.33184  0.83894  Biso   1.000  O
  O5       1.0000 0.27477  0.12639  0.47066  Biso   1.000  O
  O6       1.0000 0.28125  0.12519  0.96687  Biso   1.000  O
  O7       1.0000 0.22375  0.38117  0.01657  Biso   1.000  O
  O8       1.0000 0.22463  0.36999  0.51712  Biso   1.000  O
  Hf4      1.0000 0.13943  0.52170  0.29114  Biso   1.000  Hf
  Hf5      1.0000 0.13790  0.72893  0.79249  Biso   1.000  Hf
  Hf6      1.0000 0.36197  0.77171  0.20895  Biso   1.000  Hf
  Hf7      1.0000 0.36228  0.98035  0.70724  Biso   1.000  Hf
  O9       1.0000 0.03587  0.66948  0.16097  Biso   1.000  O
  O10      1.0000 0.03657  0.58069  0.66109  Biso   1.000  O
  O11      1.0000 0.46463  0.91962  0.33922  Biso   1.000  O
  O12      1.0000 0.46211  0.82954  0.83875  Biso   1.000  O
  O13      1.0000 0.27671  0.62936  0.48073  Biso   1.000  O
  O14      1.0000 0.27656  0.62265  0.98064  Biso   1.000  O
  O15      1.0000 0.22355  0.88336  0.02100  Biso   1.000  O
  O16      1.0000 0.22289  0.87002  0.51901  Biso   1.000  O
  Hf8      1.0000 0.63882  0.02189  0.29235  Biso   1.000  Hf
  Hf9      1.0000 0.63942  0.22953  0.79279  Biso   1.000  Hf
  Hf10     1.0000 0.86314  0.27029  0.21051  Biso   1.000  Hf
  Hf11     1.0000 0.86199  0.47813  0.70975  Biso   1.000  Hf
  O17      1.0000 0.53636  0.16993  0.16012  Biso   1.000  O
  O18      1.0000 0.53689  0.08099  0.66023  Biso   1.000  O
  O19      1.0000 0.96510  0.41893  0.34208  Biso   1.000  O
  O20      1.0000 0.96471  0.33052  0.84356  Biso   1.000  O
  O21      1.0000 0.77661  0.12936  0.48290  Biso   1.000  O
  O22      1.0000 0.77680  0.12078  0.98347  Biso   1.000  O
  O23      1.0000 0.72453  0.37844  0.02083  Biso   1.000  O
  O24      1.0000 0.72452  0.37087  0.52019  Biso   1.000  O
  Hf12     1.0000 0.63874  0.52035  0.29196  Biso   1.000  Hf
  Hf13     1.0000 0.63822  0.72811  0.79146  Biso   1.000  Hf
  Hf14     1.0000 0.85993  0.77013  0.20896  Biso   1.000  Hf
  Hf15     1.0000 0.85846  0.97840  0.71311  Biso   1.000  Hf
  O25      1.0000 0.53645  0.66946  0.16050  Biso   1.000  O
  O26      1.0000 0.53604  0.58034  0.66005  Biso   1.000  O
  O27      1.0000 0.95940  0.91870  0.34230  Biso   1.000  O
  O28      1.0000 0.96306  0.83046  0.84178  Biso   1.000  O
  O29      1.0000 0.77645  0.62860  0.48171  Biso   1.000  O
  O30      1.0000 0.77634  0.62018  0.98096  Biso   1.000  O
  O31      1.0000 0.72182  0.87874  0.02042  Biso   1.000  O
  O32      1.0000 0.72282  0.87049  0.52078  Biso   1.000  O
