data_image0
_cell_length_a       10.3164
_cell_length_b       5.17234
_cell_length_c       10.5894
_cell_angle_alpha    90.2503
_cell_angle_beta     78.1442
_cell_angle_gamma    89.8336

_symmetry_space_group_name_H-M    "P 1"
_symmetry_int_tables_number       1

loop_
  _symmetry_equiv_pos_as_xyz
  'x, y, z'

loop_
  _atom_site_label
  _atom_site_occupancy
  _atom_site_fract_x
  _atom_site_fract_y
  _atom_site_fract_z
  _atom_site_thermal_displace_type
  _atom_site_B_iso_or_equiv
  _atom_site_type_symbol
  Hf1      1.0000 0.12787  0.04364  0.14310  Biso   1.000  Hf
  Hf2      1.0000 0.14081  0.45568  0.39241  Biso   1.000  Hf
  Hf3      1.0000 0.33709  0.53937  0.09106  Biso   1.000  Hf
  Hf4      1.0000 0.35075  0.95465  0.34975  Biso   1.000  Hf
  O1       1.0000 0.02588  0.33458  0.07588  Biso   1.000  O
  O2       1.0000 0.03109  0.17356  0.32903  Biso   1.000  O
  O3       1.0000 0.46302  0.87761  0.16015  Biso   1.000  O
  O4       1.0000 0.47822  0.68364  0.44208  Biso   1.000  O
  O5       1.0000 0.26188  0.23444  0.23313  Biso   1.000  O
  O6       1.0000 0.27532  0.24156  0.48622  Biso   1.000  O
  O7       1.0000 0.21283  0.76716  0.00124  Biso   1.000  O
  O8       1.0000 0.20851  0.74110  0.25064  Biso   1.000  O
  Hf5      1.0000 0.13776  0.04164  0.64493  Biso   1.000  Hf
  Hf6      1.0000 0.12806  0.45853  0.89282  Biso   1.000  Hf
  Hf7      1.0000 0.36267  0.54186  0.60625  Biso   1.000  Hf
  Hf8      1.0000 0.35684  0.95844  0.85126  Biso   1.000  Hf
  O9       1.0000 0.03547  0.32742  0.57837  Biso   1.000  O
  O10      1.0000 0.02760  0.17125  0.82650  Biso   1.000  O
  O11      1.0000 0.46745  0.82366  0.67843  Biso   1.000  O
  O12      1.0000 0.45931  0.67517  0.92212  Biso   1.000  O
  O13      1.0000 0.27057  0.25177  0.73704  Biso   1.000  O
  O14      1.0000 0.26430  0.25084  0.98411  Biso   1.000  O
  O15      1.0000 0.22629  0.75185  0.50582  Biso   1.000  O
  O16      1.0000 0.22243  0.74130  0.75616  Biso   1.000  O
  Hf9      1.0000 0.64358  0.04532  0.15535  Biso   1.000  Hf
  Hf10     1.0000 0.65726  0.46064  0.41405  Biso   1.000  Hf
  Hf11     1.0000 0.85353  0.54431  0.11269  Biso   1.000  Hf
  Hf12     1.0000 0.86647  0.95635  0.36199  Biso   1.000  Hf
  O17      1.0000 0.51611  0.31637  0.06302  Biso   1.000  O
  O18      1.0000 0.53131  0.12238  0.34494  Biso   1.000  O
  O19      1.0000 0.96325  0.82643  0.17608  Biso   1.000  O
  O20      1.0000 0.96845  0.66540  0.42922  Biso   1.000  O
  O21      1.0000 0.78582  0.25891  0.25447  Biso   1.000  O
  O22      1.0000 0.78151  0.23284  0.50386  Biso   1.000  O
  O23      1.0000 0.71902  0.75841  0.01888  Biso   1.000  O
  O24      1.0000 0.73246  0.76556  0.27197  Biso   1.000  O
  Hf13     1.0000 0.63750  0.04157  0.65384  Biso   1.000  Hf
  Hf14     1.0000 0.63167  0.45816  0.89885  Biso   1.000  Hf
  Hf15     1.0000 0.86629  0.54146  0.61228  Biso   1.000  Hf
  Hf16     1.0000 0.85659  0.95836  0.86017  Biso   1.000  Hf
  O25      1.0000 0.53503  0.32483  0.58297  Biso   1.000  O
  O26      1.0000 0.52689  0.17635  0.82667  Biso   1.000  O
  O27      1.0000 0.96674  0.82875  0.67860  Biso   1.000  O
  O28      1.0000 0.95887  0.67257  0.92673  Biso   1.000  O
  O29      1.0000 0.77191  0.25871  0.74895  Biso   1.000  O
  O30      1.0000 0.76805  0.24814  0.99929  Biso   1.000  O
  O31      1.0000 0.73004  0.74916  0.52099  Biso   1.000  O
  O32      1.0000 0.72377  0.74823  0.76806  Biso   1.000  O
  Sn1      1.0000 0.49717  0.49999  0.25256  Biso   1.000  Sn
