data_image0
_cell_length_a       5.05272
_cell_length_b       10.2735
_cell_length_c       10.4488
_cell_angle_alpha    90.0069
_cell_angle_beta     80.5916
_cell_angle_gamma    89.8806

_symmetry_space_group_name_H-M    "P 1"
_symmetry_int_tables_number       1

loop_
  _symmetry_equiv_pos_as_xyz
  'x, y, z'

loop_
  _atom_site_label
  _atom_site_occupancy
  _atom_site_fract_x
  _atom_site_fract_y
  _atom_site_fract_z
  _atom_site_thermal_displace_type
  _atom_site_B_iso_or_equiv
  _atom_site_type_symbol
  Sn1      1.0000 0.27092  0.01799  0.14884  Biso   1.000  Sn
  Hf1      1.0000 0.27654  0.22926  0.39552  Biso   1.000  Hf
  Hf2      1.0000 0.72428  0.26968  0.10384  Biso   1.000  Hf
  Hf3      1.0000 0.72203  0.47878  0.35383  Biso   1.000  Hf
  O1       1.0000 0.07784  0.16950  0.07934  Biso   1.000  O
  O2       1.0000 0.06726  0.08064  0.33193  Biso   1.000  O
  O3       1.0000 0.92826  0.41959  0.16954  Biso   1.000  O
  O4       1.0000 0.92735  0.33090  0.41998  Biso   1.000  O
  O5       1.0000 0.54912  0.12700  0.23908  Biso   1.000  O
  O6       1.0000 0.55325  0.12148  0.48977  Biso   1.000  O
  O7       1.0000 0.44965  0.37994  0.00940  Biso   1.000  O
  O8       1.0000 0.44868  0.36973  0.25929  Biso   1.000  O
  Hf4      1.0000 0.27722  0.02168  0.64554  Biso   1.000  Hf
  Hf5      1.0000 0.28131  0.22835  0.89528  Biso   1.000  Hf
  Hf6      1.0000 0.72268  0.27203  0.60416  Biso   1.000  Hf
  Hf7      1.0000 0.72405  0.47857  0.85470  Biso   1.000  Hf
  O9       1.0000 0.07251  0.17019  0.58000  Biso   1.000  O
  O10      1.0000 0.07462  0.08054  0.82932  Biso   1.000  O
  O11      1.0000 0.92905  0.41955  0.67033  Biso   1.000  O
  O12      1.0000 0.93064  0.33043  0.92058  Biso   1.000  O
  O13      1.0000 0.55448  0.12943  0.73899  Biso   1.000  O
  O14      1.0000 0.55982  0.12291  0.98734  Biso   1.000  O
  O15      1.0000 0.44624  0.37946  0.50936  Biso   1.000  O
  O16      1.0000 0.44871  0.37136  0.75949  Biso   1.000  O
  Hf8      1.0000 0.27785  0.52081  0.14549  Biso   1.000  Hf
  Hf9      1.0000 0.27560  0.72786  0.39621  Biso   1.000  Hf
  Hf10     1.0000 0.72262  0.77070  0.10384  Biso   1.000  Hf
  Hf11     1.0000 0.71778  0.97835  0.35604  Biso   1.000  Hf
  O17      1.0000 0.07338  0.66985  0.08026  Biso   1.000  O
  O18      1.0000 0.07268  0.57960  0.33038  Biso   1.000  O
  O19      1.0000 0.92106  0.91884  0.17112  Biso   1.000  O
  O20      1.0000 0.92584  0.82966  0.41994  Biso   1.000  O
  O21      1.0000 0.55303  0.62896  0.24055  Biso   1.000  O
  O22      1.0000 0.55312  0.62077  0.49071  Biso   1.000  O
  O23      1.0000 0.44627  0.88229  0.01016  Biso   1.000  O
  O24      1.0000 0.44476  0.86988  0.25927  Biso   1.000  O
  Hf12     1.0000 0.27860  0.52135  0.64607  Biso   1.000  Hf
  Hf13     1.0000 0.27731  0.72925  0.89560  Biso   1.000  Hf
  Hf14     1.0000 0.72195  0.77133  0.60479  Biso   1.000  Hf
  Hf15     1.0000 0.72412  0.98024  0.85388  Biso   1.000  Hf
  O25      1.0000 0.07194  0.66943  0.58062  Biso   1.000  O
  O26      1.0000 0.07302  0.58089  0.83056  Biso   1.000  O
  O27      1.0000 0.92808  0.91996  0.66894  Biso   1.000  O
  O28      1.0000 0.92528  0.82998  0.91956  Biso   1.000  O
  O29      1.0000 0.55355  0.62931  0.74073  Biso   1.000  O
  O30      1.0000 0.55314  0.62175  0.99013  Biso   1.000  O
  O31      1.0000 0.44509  0.87891  0.50983  Biso   1.000  O
  O32      1.0000 0.44743  0.87107  0.75988  Biso   1.000  O
