data_image0
_cell_length_a       10.1058
_cell_length_b       5.13642
_cell_length_c       10.4507
_cell_angle_alpha    90.0264
_cell_angle_beta     80.6011
_cell_angle_gamma    89.8667

_symmetry_space_group_name_H-M    "P 1"
_symmetry_int_tables_number       1

loop_
  _symmetry_equiv_pos_as_xyz
  'x, y, z'

loop_
  _atom_site_label
  _atom_site_occupancy
  _atom_site_fract_x
  _atom_site_fract_y
  _atom_site_fract_z
  _atom_site_thermal_displace_type
  _atom_site_B_iso_or_equiv
  _atom_site_type_symbol
  Sn1      1.0000 0.13524  0.03588  0.14893  Biso   1.000  Sn
  Hf1      1.0000 0.13762  0.45712  0.39576  Biso   1.000  Hf
  Hf2      1.0000 0.36138  0.54171  0.10313  Biso   1.000  Hf
  Hf3      1.0000 0.36146  0.95720  0.35367  Biso   1.000  Hf
  O1       1.0000 0.03893  0.33897  0.07919  Biso   1.000  O
  O2       1.0000 0.03394  0.16022  0.33182  Biso   1.000  O
  O3       1.0000 0.46428  0.83805  0.16982  Biso   1.000  O
  O4       1.0000 0.46358  0.65989  0.41920  Biso   1.000  O
  O5       1.0000 0.27516  0.25365  0.23814  Biso   1.000  O
  O6       1.0000 0.27680  0.24265  0.48888  Biso   1.000  O
  O7       1.0000 0.22416  0.76866  0.00982  Biso   1.000  O
  O8       1.0000 0.22305  0.73815  0.25868  Biso   1.000  O
  Hf4      1.0000 0.13906  0.04266  0.64511  Biso   1.000  Hf
  Hf5      1.0000 0.14004  0.45713  0.89464  Biso   1.000  Hf
  Hf6      1.0000 0.36128  0.54384  0.60388  Biso   1.000  Hf
  Hf7      1.0000 0.36192  0.96137  0.85370  Biso   1.000  Hf
  O9       1.0000 0.03601  0.33902  0.58012  Biso   1.000  O
  O10      1.0000 0.03675  0.16184  0.82951  Biso   1.000  O
  O11      1.0000 0.46428  0.84048  0.66896  Biso   1.000  O
  O12      1.0000 0.46357  0.66167  0.91931  Biso   1.000  O
  O13      1.0000 0.27677  0.25856  0.73834  Biso   1.000  O
  O14      1.0000 0.28012  0.25059  0.98606  Biso   1.000  O
  O15      1.0000 0.22326  0.75875  0.50886  Biso   1.000  O
  O16      1.0000 0.22432  0.74244  0.75930  Biso   1.000  O
  Hf8      1.0000 0.63880  0.04117  0.14566  Biso   1.000  Hf
  Hf9      1.0000 0.63840  0.45675  0.39597  Biso   1.000  Hf
  Hf10     1.0000 0.86203  0.53851  0.10450  Biso   1.000  Hf
  Hf11     1.0000 0.85830  0.95653  0.35625  Biso   1.000  Hf
  O17      1.0000 0.53686  0.33943  0.08026  Biso   1.000  O
  O18      1.0000 0.53582  0.16017  0.33038  Biso   1.000  O
  O19      1.0000 0.96022  0.83808  0.17117  Biso   1.000  O
  O20      1.0000 0.96301  0.66125  0.42089  Biso   1.000  O
  O21      1.0000 0.77580  0.25723  0.24119  Biso   1.000  O
  O22      1.0000 0.77634  0.24170  0.49145  Biso   1.000  O
  O23      1.0000 0.72391  0.75686  0.00999  Biso   1.000  O
  O24      1.0000 0.72351  0.74024  0.26010  Biso   1.000  O
  Hf12     1.0000 0.63883  0.04340  0.64646  Biso   1.000  Hf
  Hf13     1.0000 0.63930  0.45846  0.89612  Biso   1.000  Hf
  Hf14     1.0000 0.86103  0.54288  0.60512  Biso   1.000  Hf
  Hf15     1.0000 0.86229  0.95685  0.85493  Biso   1.000  Hf
  O25      1.0000 0.53610  0.33975  0.58031  Biso   1.000  O
  O26      1.0000 0.53710  0.16180  0.83013  Biso   1.000  O
  O27      1.0000 0.96440  0.83815  0.67054  Biso   1.000  O
  O28      1.0000 0.96463  0.66043  0.92126  Biso   1.000  O
  O29      1.0000 0.77720  0.25904  0.74110  Biso   1.000  O
  O30      1.0000 0.77690  0.24034  0.99070  Biso   1.000  O
  O31      1.0000 0.72235  0.75774  0.51046  Biso   1.000  O
  O32      1.0000 0.72387  0.74272  0.76022  Biso   1.000  O
