data_image0
_cell_length_a       10.035
_cell_length_b       10.5398
_cell_length_c       5.10428
_cell_angle_alpha    89.8253
_cell_angle_beta     87.7297
_cell_angle_gamma    90.553

_symmetry_space_group_name_H-M    "P 1"
_symmetry_int_tables_number       1

loop_
  _symmetry_equiv_pos_as_xyz
  'x, y, z'

loop_
  _atom_site_label
  _atom_site_occupancy
  _atom_site_fract_x
  _atom_site_fract_y
  _atom_site_fract_z
  _atom_site_thermal_displace_type
  _atom_site_B_iso_or_equiv
  _atom_site_type_symbol
  Hf1      1.0000 0.15089  0.00886  0.27657  Biso   1.000  Hf
  Hf2      1.0000 0.15087  0.22076  0.83118  Biso   1.000  Hf
  Hf3      1.0000 0.36097  0.26805  0.25917  Biso   1.000  Hf
  Hf4      1.0000 0.37149  0.48717  0.74756  Biso   1.000  Hf
  O1       1.0000 0.04528  0.10827  0.57678  Biso   1.000  O
  O2       1.0000 0.02223  0.07362  0.01464  Biso   1.000  O
  O3       1.0000 0.46066  0.43207  0.38471  Biso   1.000  O
  O4       1.0000 0.45748  0.31279  0.86597  Biso   1.000  O
  O5       1.0000 0.28983  0.12233  0.52198  Biso   1.000  O
  O6       1.0000 0.29177  0.11495  0.01593  Biso   1.000  O
  O7       1.0000 0.24257  0.39392  0.01583  Biso   1.000  O
  O8       1.0000 0.21742  0.36403  0.52888  Biso   1.000  O
  Hf5      1.0000 0.14107  0.53582  0.24765  Biso   1.000  Hf
  Hf6      1.0000 0.13630  0.73597  0.75055  Biso   1.000  Hf
  Hf7      1.0000 0.37414  0.76464  0.24237  Biso   1.000  Hf
  Hf8      1.0000 0.37157  0.97667  0.74911  Biso   1.000  Hf
  O9       1.0000 0.04424  0.69365  0.38900  Biso   1.000  O
  O10      1.0000 0.03432  0.57497  0.89786  Biso   1.000  O
  O11      1.0000 0.46858  0.93122  0.37744  Biso   1.000  O
  O12      1.0000 0.47566  0.81860  0.89298  Biso   1.000  O
  O13      1.0000 0.27552  0.61759  0.49534  Biso   1.000  O
  O14      1.0000 0.27338  0.63967  0.98859  Biso   1.000  O
  O15      1.0000 0.23376  0.87770  0.00247  Biso   1.000  O
  O16      1.0000 0.24178  0.86335  0.50430  Biso   1.000  O
  Hf9      1.0000 0.63443  0.00702  0.21704  Biso   1.000  Hf
  Hf10     1.0000 0.61793  0.22940  0.70418  Biso   1.000  Hf
  Hf11     1.0000 0.80125  0.26222  0.18281  Biso   1.000  Hf
  Hf12     1.0000 0.87173  0.48822  0.74168  Biso   1.000  Hf
  O17      1.0000 0.54426  0.18824  0.33810  Biso   1.000  O
  O18      1.0000 0.53746  0.06211  0.85795  Biso   1.000  O
  O19      1.0000 0.97186  0.46147  0.39324  Biso   1.000  O
  O20      1.0000 0.96008  0.32300  0.87901  Biso   1.000  O
  O21      1.0000 0.76580  0.10976  0.44447  Biso   1.000  O
  O22      1.0000 0.75839  0.13037  0.92633  Biso   1.000  O
  O23      1.0000 0.71273  0.39310  0.95764  Biso   1.000  O
  O24      1.0000 0.71945  0.37493  0.47239  Biso   1.000  O
  Hf13     1.0000 0.63227  0.52424  0.24559  Biso   1.000  Hf
  Hf14     1.0000 0.64428  0.73572  0.74496  Biso   1.000  Hf
  Hf15     1.0000 0.87168  0.76837  0.24099  Biso   1.000  Hf
  Hf16     1.0000 0.88620  0.98999  0.72361  Biso   1.000  Hf
  O25      1.0000 0.53662  0.68333  0.39590  Biso   1.000  O
  O26      1.0000 0.53154  0.57186  0.89637  Biso   1.000  O
  O27      1.0000 0.97326  0.91700  0.38963  Biso   1.000  O
  O28      1.0000 0.97200  0.82556  0.88227  Biso   1.000  O
  O29      1.0000 0.77160  0.61943  0.49141  Biso   1.000  O
  O30      1.0000 0.77067  0.63484  0.99135  Biso   1.000  O
  O31      1.0000 0.73939  0.88195  0.98621  Biso   1.000  O
  O32      1.0000 0.73391  0.86670  0.48683  Biso   1.000  O
  Sn1      1.0000 0.04471  0.26562  0.32662  Biso   1.000  Sn
