data_image0
_cell_length_a       10.0278
_cell_length_b       5.11429
_cell_length_c       10.4526
_cell_angle_alpha    89.9588
_cell_angle_beta     90.1988
_cell_angle_gamma    89.8897

_symmetry_space_group_name_H-M    "P 1"
_symmetry_int_tables_number       1

loop_
  _symmetry_equiv_pos_as_xyz
  'x, y, z'

loop_
  _atom_site_label
  _atom_site_occupancy
  _atom_site_fract_x
  _atom_site_fract_y
  _atom_site_fract_z
  _atom_site_thermal_displace_type
  _atom_site_B_iso_or_equiv
  _atom_site_type_symbol
  Sn1      1.0000 0.13528  0.03609  0.17347  Biso   1.000  Sn
  Hf1      1.0000 0.13761  0.45866  0.42101  Biso   1.000  Hf
  Hf2      1.0000 0.36122  0.54220  0.16982  Biso   1.000  Hf
  Hf3      1.0000 0.36142  0.95906  0.42107  Biso   1.000  Hf
  Hf4      1.0000 0.63920  0.04119  0.07853  Biso   1.000  Hf
  Hf5      1.0000 0.63794  0.45765  0.32873  Biso   1.000  Hf
  Hf6      1.0000 0.86229  0.53832  0.07941  Biso   1.000  Hf
  Hf7      1.0000 0.85841  0.95818  0.33043  Biso   1.000  Hf
  O1       1.0000 0.03638  0.33120  0.08344  Biso   1.000  O
  O2       1.0000 0.03121  0.16826  0.33577  Biso   1.000  O
  O3       1.0000 0.46721  0.83189  0.08365  Biso   1.000  O
  O4       1.0000 0.46457  0.66430  0.33508  Biso   1.000  O
  O5       1.0000 0.27586  0.24665  0.29350  Biso   1.000  O
  O6       1.0000 0.27942  0.25856  0.04191  Biso   1.000  O
  O7       1.0000 0.22267  0.74850  0.29295  Biso   1.000  O
  O8       1.0000 0.22273  0.75931  0.04429  Biso   1.000  O
  O9       1.0000 0.53388  0.33258  0.16542  Biso   1.000  O
  O10      1.0000 0.53374  0.16565  0.41534  Biso   1.000  O
  O11      1.0000 0.96245  0.83259  0.16607  Biso   1.000  O
  O12      1.0000 0.96551  0.66862  0.41667  Biso   1.000  O
  O13      1.0000 0.77598  0.24770  0.45601  Biso   1.000  O
  O14      1.0000 0.77593  0.25186  0.20575  Biso   1.000  O
  O15      1.0000 0.72223  0.74690  0.45631  Biso   1.000  O
  O16      1.0000 0.72338  0.75122  0.20623  Biso   1.000  O
  Hf8      1.0000 0.13902  0.04209  0.67070  Biso   1.000  Hf
  Hf9      1.0000 0.14018  0.45779  0.92036  Biso   1.000  Hf
  Hf10     1.0000 0.36163  0.54283  0.67080  Biso   1.000  Hf
  Hf11     1.0000 0.36204  0.95996  0.92059  Biso   1.000  Hf
  Hf12     1.0000 0.63865  0.04231  0.57960  Biso   1.000  Hf
  Hf13     1.0000 0.63947  0.45835  0.82898  Biso   1.000  Hf
  Hf14     1.0000 0.86117  0.54220  0.57948  Biso   1.000  Hf
  Hf15     1.0000 0.86258  0.95717  0.82964  Biso   1.000  Hf
  O17      1.0000 0.03359  0.33287  0.58404  Biso   1.000  O
  O18      1.0000 0.03449  0.16754  0.83363  Biso   1.000  O
  O19      1.0000 0.46632  0.83470  0.58500  Biso   1.000  O
  O20      1.0000 0.46700  0.66724  0.83420  Biso   1.000  O
  O21      1.0000 0.27717  0.24765  0.79311  Biso   1.000  O
  O22      1.0000 0.27658  0.25347  0.54367  Biso   1.000  O
  O23      1.0000 0.22442  0.74782  0.79420  Biso   1.000  O
  O24      1.0000 0.22361  0.75302  0.54384  Biso   1.000  O
  O25      1.0000 0.53417  0.33434  0.66523  Biso   1.000  O
  O26      1.0000 0.53447  0.16729  0.91517  Biso   1.000  O
  O27      1.0000 0.96705  0.83160  0.66651  Biso   1.000  O
  O28      1.0000 0.96710  0.66531  0.91695  Biso   1.000  O
  O29      1.0000 0.77712  0.24588  0.95549  Biso   1.000  O
  O30      1.0000 0.77710  0.25237  0.70581  Biso   1.000  O
  O31      1.0000 0.72437  0.74599  0.95604  Biso   1.000  O
  O32      1.0000 0.72417  0.75304  0.70608  Biso   1.000  O
