data_image0
_cell_length_a       10.3786
_cell_length_b       5.33083
_cell_length_c       10.4993
_cell_angle_alpha    102.248
_cell_angle_beta     88.8471
_cell_angle_gamma    92.5853

_symmetry_space_group_name_H-M    "P 1"
_symmetry_int_tables_number       1

loop_
  _symmetry_equiv_pos_as_xyz
  'x, y, z'

loop_
  _atom_site_label
  _atom_site_occupancy
  _atom_site_fract_x
  _atom_site_fract_y
  _atom_site_fract_z
  _atom_site_thermal_displace_type
  _atom_site_B_iso_or_equiv
  _atom_site_type_symbol
  Hf1      1.0000 0.16018  0.97925  0.13583  Biso   1.000  Hf
  Hf2      1.0000 0.09152  0.42999  0.39700  Biso   1.000  Hf
  Hf3      1.0000 0.36461  0.46206  0.13383  Biso   1.000  Hf
  Hf4      1.0000 0.39516  0.04371  0.35623  Biso   1.000  Hf
  O1       1.0000 0.96087  0.40683  0.95999  Biso   1.000  O
  O2       1.0000 0.02374  0.06673  0.28599  Biso   1.000  O
  O3       1.0000 0.93803  0.55567  0.30908  Biso   1.000  O
  O4       1.0000 0.04317  0.90440  0.97169  Biso   1.000  O
  O5       1.0000 0.25930  0.27407  0.28636  Biso   1.000  O
  O6       1.0000 0.30158  0.11230  0.02420  Biso   1.000  O
  O7       1.0000 0.23177  0.61199  0.01033  Biso   1.000  O
  O8       1.0000 0.26419  0.76878  0.25307  Biso   1.000  O
  Hf5      1.0000 0.15479  0.95246  0.63756  Biso   1.000  Hf
  Hf6      1.0000 0.11131  0.53809  0.84697  Biso   1.000  Hf
  Hf7      1.0000 0.35949  0.46861  0.63207  Biso   1.000  Hf
  Hf8      1.0000 0.40416  0.06370  0.85668  Biso   1.000  Hf
  O9       1.0000 0.99206  0.27332  0.52172  Biso   1.000  O
  O10      1.0000 0.02441  0.18682  0.74756  Biso   1.000  O
  O11      1.0000 0.99240  0.69486  0.74128  Biso   1.000  O
  O12      1.0000 0.00528  0.77711  0.51925  Biso   1.000  O
  O13      1.0000 0.26013  0.28745  0.76515  Biso   1.000  O
  O14      1.0000 0.27491  0.11217  0.52022  Biso   1.000  O
  O15      1.0000 0.22633  0.60604  0.53113  Biso   1.000  O
  O16      1.0000 0.25494  0.78741  0.76911  Biso   1.000  O
  Hf9      1.0000 0.64171  0.98994  0.13213  Biso   1.000  Hf
  Hf10     1.0000 0.59611  0.56700  0.35776  Biso   1.000  Hf
  Hf11     1.0000 0.82333  0.49732  0.12749  Biso   1.000  Hf
  Hf12     1.0000 0.89381  0.93438  0.40187  Biso   1.000  Hf
  O17      1.0000 0.47433  0.42121  0.96243  Biso   1.000  O
  O18      1.0000 0.49121  0.23578  0.22002  Biso   1.000  O
  O19      1.0000 0.50550  0.74003  0.22208  Biso   1.000  O
  O20      1.0000 0.53890  0.92565  0.95860  Biso   1.000  O
  O21      1.0000 0.72052  0.31925  0.24897  Biso   1.000  O
  O22      1.0000 0.78226  0.13271  0.02265  Biso   1.000  O
  O23      1.0000 0.71506  0.64944  0.01290  Biso   1.000  O
  O24      1.0000 0.74860  0.81750  0.25928  Biso   1.000  O
  Hf13     1.0000 0.64641  0.00523  0.63092  Biso   1.000  Hf
  Hf14     1.0000 0.60479  0.57803  0.84921  Biso   1.000  Hf
  Hf15     1.0000 0.84812  0.50323  0.61618  Biso   1.000  Hf
  Hf16     1.0000 0.90871  0.02633  0.86821  Biso   1.000  Hf
  O25      1.0000 0.47605  0.39478  0.46920  Biso   1.000  O
  O26      1.0000 0.50515  0.25310  0.71982  Biso   1.000  O
  O27      1.0000 0.50008  0.75165  0.71793  Biso   1.000  O
  O28      1.0000 0.52476  0.90297  0.46982  Biso   1.000  O
  O29      1.0000 0.74731  0.33419  0.75096  Biso   1.000  O
  O30      1.0000 0.75883  0.16934  0.50972  Biso   1.000  O
  O31      1.0000 0.73814  0.68002  0.50296  Biso   1.000  O
  O32      1.0000 0.75346  0.82537  0.75437  Biso   1.000  O
  Sn1      1.0000 0.08338  0.48139  0.12710  Biso   1.000  Sn
