data_image0
_cell_length_a       10.2145
_cell_length_b       10.3051
_cell_length_c       10.5158
_cell_angle_alpha    90.0511
_cell_angle_beta     79.3012
_cell_angle_gamma    89.9099

_symmetry_space_group_name_H-M    "P 1"
_symmetry_int_tables_number       1

loop_
  _symmetry_equiv_pos_as_xyz
  'x, y, z'

loop_
  _atom_site_label
  _atom_site_occupancy
  _atom_site_fract_x
  _atom_site_fract_y
  _atom_site_fract_z
  _atom_site_thermal_displace_type
  _atom_site_B_iso_or_equiv
  _atom_site_type_symbol
  Hf1      1.0000 0.12960  0.01880  0.14422  Biso   1.000  Hf
  Hf2      1.0000 0.14077  0.22671  0.39135  Biso   1.000  Hf
  Hf3      1.0000 0.33586  0.26737  0.09126  Biso   1.000  Hf
  Hf4      1.0000 0.35542  0.48363  0.35062  Biso   1.000  Hf
  O1       1.0000 0.03035  0.16844  0.07832  Biso   1.000  O
  O2       1.0000 0.03090  0.08007  0.33209  Biso   1.000  O
  O3       1.0000 0.45814  0.44021  0.15573  Biso   1.000  O
  O4       1.0000 0.48111  0.35276  0.43882  Biso   1.000  O
  O5       1.0000 0.26108  0.11926  0.23230  Biso   1.000  O
  O6       1.0000 0.27963  0.12184  0.48545  Biso   1.000  O
  O7       1.0000 0.21222  0.38401  0.00159  Biso   1.000  O
  O8       1.0000 0.21200  0.37397  0.25321  Biso   1.000  O
  Hf5      1.0000 0.13834  0.02118  0.64486  Biso   1.000  Hf
  Hf6      1.0000 0.13042  0.22937  0.89111  Biso   1.000  Hf
  Hf7      1.0000 0.36296  0.27336  0.60426  Biso   1.000  Hf
  Hf8      1.0000 0.35937  0.47937  0.85423  Biso   1.000  Hf
  O9       1.0000 0.03933  0.16810  0.57873  Biso   1.000  O
  O10      1.0000 0.03018  0.08346  0.82700  Biso   1.000  O
  O11      1.0000 0.46691  0.41505  0.67859  Biso   1.000  O
  O12      1.0000 0.45914  0.33161  0.92210  Biso   1.000  O
  O13      1.0000 0.27319  0.12804  0.73646  Biso   1.000  O
  O14      1.0000 0.26483  0.12155  0.98244  Biso   1.000  O
  O15      1.0000 0.22746  0.37758  0.50510  Biso   1.000  O
  O16      1.0000 0.22328  0.37095  0.75602  Biso   1.000  O
  Hf9      1.0000 0.13723  0.52436  0.14450  Biso   1.000  Hf
  Hf10     1.0000 0.13803  0.72951  0.39735  Biso   1.000  Hf
  Hf11     1.0000 0.36008  0.77396  0.10435  Biso   1.000  Hf
  Hf12     1.0000 0.35959  0.97201  0.35582  Biso   1.000  Hf
  O17      1.0000 0.03226  0.66873  0.07769  Biso   1.000  O
  O18      1.0000 0.03598  0.58728  0.32695  Biso   1.000  O
  O19      1.0000 0.46524  0.91679  0.17412  Biso   1.000  O
  O20      1.0000 0.45949  0.82309  0.42193  Biso   1.000  O
  O21      1.0000 0.27567  0.63006  0.24135  Biso   1.000  O
  O22      1.0000 0.27310  0.62053  0.49093  Biso   1.000  O
  O23      1.0000 0.22324  0.87918  0.00945  Biso   1.000  O
  O24      1.0000 0.22162  0.86848  0.25949  Biso   1.000  O
  Hf13     1.0000 0.13833  0.52124  0.64636  Biso   1.000  Hf
  Hf14     1.0000 0.13664  0.72856  0.89662  Biso   1.000  Hf
  Hf15     1.0000 0.36081  0.76981  0.60520  Biso   1.000  Hf
  Hf16     1.0000 0.35919  0.97824  0.85184  Biso   1.000  Hf
  O25      1.0000 0.03209  0.66502  0.58001  Biso   1.000  O
  O26      1.0000 0.03309  0.58306  0.82939  Biso   1.000  O
  O27      1.0000 0.46472  0.91567  0.67023  Biso   1.000  O
  O28      1.0000 0.46468  0.83576  0.92130  Biso   1.000  O
  O29      1.0000 0.27419  0.62743  0.74045  Biso   1.000  O
  O30      1.0000 0.27576  0.62411  0.99091  Biso   1.000  O
  O31      1.0000 0.22233  0.87789  0.51118  Biso   1.000  O
  O32      1.0000 0.22288  0.87093  0.76006  Biso   1.000  O
  Hf17     1.0000 0.64172  0.01638  0.15197  Biso   1.000  Hf
  Hf18     1.0000 0.66128  0.23263  0.41131  Biso   1.000  Hf
  Hf19     1.0000 0.85637  0.27329  0.11123  Biso   1.000  Hf
  Hf20     1.0000 0.86754  0.48120  0.35836  Biso   1.000  Hf
  O33      1.0000 0.51603  0.14725  0.06376  Biso   1.000  O
  O34      1.0000 0.53900  0.05979  0.34685  Biso   1.000  O
  O35      1.0000 0.96623  0.41993  0.17049  Biso   1.000  O
  O36      1.0000 0.96679  0.33156  0.42426  Biso   1.000  O
  O37      1.0000 0.78514  0.12603  0.24936  Biso   1.000  O
  O38      1.0000 0.78491  0.11598  0.50099  Biso   1.000  O
  O39      1.0000 0.71751  0.37816  0.01712  Biso   1.000  O
  O40      1.0000 0.73606  0.38074  0.27028  Biso   1.000  O
  Hf21     1.0000 0.63777  0.02063  0.64834  Biso   1.000  Hf
  Hf22     1.0000 0.63418  0.22664  0.89831  Biso   1.000  Hf
  Hf23     1.0000 0.86672  0.27063  0.61147  Biso   1.000  Hf
  Hf24     1.0000 0.85880  0.47882  0.85772  Biso   1.000  Hf
  O41      1.0000 0.53800  0.16839  0.58048  Biso   1.000  O
  O42      1.0000 0.53023  0.08495  0.82399  Biso   1.000  O
  O43      1.0000 0.96696  0.41654  0.67557  Biso   1.000  O
  O44      1.0000 0.95782  0.33190  0.92385  Biso   1.000  O
  O45      1.0000 0.77386  0.12905  0.74656  Biso   1.000  O
  O46      1.0000 0.76968  0.12242  0.99748  Biso   1.000  O
  O47      1.0000 0.73231  0.37845  0.52013  Biso   1.000  O
  O48      1.0000 0.72395  0.37196  0.76612  Biso   1.000  O
  Hf25     1.0000 0.63755  0.52799  0.14675  Biso   1.000  Hf
  Hf26     1.0000 0.63707  0.72604  0.39822  Biso   1.000  Hf
  Hf27     1.0000 0.85911  0.77049  0.10523  Biso   1.000  Hf
  Hf28     1.0000 0.85991  0.97564  0.35807  Biso   1.000  Hf
  O49      1.0000 0.53764  0.67691  0.08065  Biso   1.000  O
  O50      1.0000 0.53190  0.58322  0.32846  Biso   1.000  O
  O51      1.0000 0.96116  0.91271  0.17562  Biso   1.000  O
  O52      1.0000 0.96488  0.83127  0.42488  Biso   1.000  O
  O53      1.0000 0.77552  0.63152  0.24309  Biso   1.000  O
  O54      1.0000 0.77390  0.62082  0.49312  Biso   1.000  O
  O55      1.0000 0.72404  0.87947  0.01165  Biso   1.000  O
  O56      1.0000 0.72147  0.86994  0.26122  Biso   1.000  O
  Hf29     1.0000 0.63796  0.52176  0.65074  Biso   1.000  Hf
  Hf30     1.0000 0.63633  0.73019  0.89738  Biso   1.000  Hf
  Hf31     1.0000 0.86050  0.77144  0.60596  Biso   1.000  Hf
  Hf32     1.0000 0.85881  0.97876  0.85622  Biso   1.000  Hf
  O57      1.0000 0.53246  0.66424  0.58128  Biso   1.000  O
  O58      1.0000 0.53242  0.58433  0.83235  Biso   1.000  O
  O59      1.0000 0.96405  0.91694  0.67319  Biso   1.000  O
  O60      1.0000 0.96506  0.83498  0.92257  Biso   1.000  O
  O61      1.0000 0.77426  0.62907  0.74252  Biso   1.000  O
  O62      1.0000 0.77481  0.62211  0.99140  Biso   1.000  O
  O63      1.0000 0.72139  0.87588  0.51166  Biso   1.000  O
  O64      1.0000 0.72295  0.87257  0.76213  Biso   1.000  O
  Sn1      1.0000 0.49856  0.25000  0.25130  Biso   1.000  Sn
