data_image0
_cell_length_a       10.2061
_cell_length_b       10.4673
_cell_length_c       5.30122
_cell_angle_alpha    90.4258
_cell_angle_beta     92.7159
_cell_angle_gamma    89.5486

_symmetry_space_group_name_H-M    "P 1"
_symmetry_int_tables_number       1

loop_
  _symmetry_equiv_pos_as_xyz
  'x, y, z'

loop_
  _atom_site_label
  _atom_site_occupancy
  _atom_site_fract_x
  _atom_site_fract_y
  _atom_site_fract_z
  _atom_site_thermal_displace_type
  _atom_site_B_iso_or_equiv
  _atom_site_type_symbol
  Zr1      1.0000 0.13547  0.01754  0.35832  Biso   1.000  Zr
  Zr2      1.0000 0.14164  0.22794  0.86808  Biso   1.000  Zr
  Zr3      1.0000 0.34360  0.26525  0.38707  Biso   1.000  Zr
  Zr4      1.0000 0.36097  0.48857  0.85646  Biso   1.000  Zr
  Zr5      1.0000 0.64469  0.01143  0.15376  Biso   1.000  Zr
  Zr6      1.0000 0.66206  0.23475  0.62315  Biso   1.000  Zr
  Zr7      1.0000 0.86402  0.27207  0.14214  Biso   1.000  Zr
  Zr8      1.0000 0.87019  0.48246  0.65190  Biso   1.000  Zr
  O1       1.0000 0.03347  0.16803  0.17964  Biso   1.000  O
  O2       1.0000 0.03682  0.08237  0.67805  Biso   1.000  O
  O3       1.0000 0.47395  0.44246  0.18109  Biso   1.000  O
  O4       1.0000 0.47894  0.35013  0.63718  Biso   1.000  O
  O5       1.0000 0.27361  0.12422  0.61776  Biso   1.000  O
  O6       1.0000 0.26447  0.10930  0.11982  Biso   1.000  O
  O7       1.0000 0.22325  0.37715  0.62342  Biso   1.000  O
  O8       1.0000 0.21988  0.37624  0.12526  Biso   1.000  O
  O9       1.0000 0.52672  0.14989  0.37305  Biso   1.000  O
  O10      1.0000 0.53171  0.05755  0.82915  Biso   1.000  O
  O11      1.0000 0.96884  0.41764  0.33217  Biso   1.000  O
  O12      1.0000 0.97219  0.33197  0.83058  Biso   1.000  O
  O13      1.0000 0.78579  0.12377  0.88495  Biso   1.000  O
  O14      1.0000 0.78241  0.12286  0.38680  Biso   1.000  O
  O15      1.0000 0.74119  0.39071  0.89040  Biso   1.000  O
  O16      1.0000 0.73205  0.37578  0.39245  Biso   1.000  O
  Zr9      1.0000 0.13883  0.52104  0.34851  Biso   1.000  Zr
  Zr10     1.0000 0.13949  0.73013  0.84918  Biso   1.000  Zr
  Zr11     1.0000 0.36408  0.76901  0.35595  Biso   1.000  Zr
  Zr12     1.0000 0.35882  0.96955  0.86497  Biso   1.000  Zr
  Zr13     1.0000 0.64685  0.53046  0.14526  Biso   1.000  Zr
  Zr14     1.0000 0.64158  0.73099  0.65428  Biso   1.000  Zr
  Zr15     1.0000 0.86618  0.76987  0.16105  Biso   1.000  Zr
  Zr16     1.0000 0.86683  0.97896  0.66171  Biso   1.000  Zr
  O17      1.0000 0.03613  0.66601  0.17140  Biso   1.000  O
  O18      1.0000 0.03797  0.58422  0.67455  Biso   1.000  O
  O19      1.0000 0.47074  0.91176  0.18442  Biso   1.000  O
  O20      1.0000 0.46659  0.82653  0.68198  Biso   1.000  O
  O21      1.0000 0.27579  0.62623  0.59455  Biso   1.000  O
  O22      1.0000 0.27447  0.62382  0.09480  Biso   1.000  O
  O23      1.0000 0.22464  0.87272  0.60503  Biso   1.000  O
  O24      1.0000 0.22584  0.86836  0.10801  Biso   1.000  O
  O25      1.0000 0.53908  0.67348  0.32825  Biso   1.000  O
  O26      1.0000 0.53493  0.58825  0.82582  Biso   1.000  O
  O27      1.0000 0.96769  0.91578  0.33568  Biso   1.000  O
  O28      1.0000 0.96953  0.83399  0.83883  Biso   1.000  O
  O29      1.0000 0.77982  0.63164  0.90222  Biso   1.000  O
  O30      1.0000 0.78102  0.62728  0.40519  Biso   1.000  O
  O31      1.0000 0.73119  0.87619  0.91544  Biso   1.000  O
  O32      1.0000 0.72987  0.87378  0.41568  Biso   1.000  O
  Sn1      1.0000 0.50284  0.25001  0.00512  Biso   1.000  Sn
