data_image0
_cell_length_a       10.1746
_cell_length_b       10.3532
_cell_length_c       10.4928
_cell_angle_alpha    90.0059
_cell_angle_beta     80.5584
_cell_angle_gamma    89.9284

_symmetry_space_group_name_H-M    "P 1"
_symmetry_int_tables_number       1

loop_
  _symmetry_equiv_pos_as_xyz
  'x, y, z'

loop_
  _atom_site_label
  _atom_site_occupancy
  _atom_site_fract_x
  _atom_site_fract_y
  _atom_site_fract_z
  _atom_site_thermal_displace_type
  _atom_site_B_iso_or_equiv
  _atom_site_type_symbol
  Sn1      1.0000 0.13563  0.01769  0.14897  Biso   1.000  Sn
  Zr1      1.0000 0.13861  0.02132  0.64453  Biso   1.000  Zr
  Zr2      1.0000 0.13901  0.52168  0.14513  Biso   1.000  Zr
  Zr3      1.0000 0.13921  0.52131  0.64537  Biso   1.000  Zr
  Zr4      1.0000 0.63889  0.02150  0.14524  Biso   1.000  Zr
  Zr5      1.0000 0.63868  0.02159  0.64572  Biso   1.000  Zr
  Zr6      1.0000 0.63888  0.52048  0.14517  Biso   1.000  Zr
  Zr7      1.0000 0.63894  0.52132  0.64564  Biso   1.000  Zr
  Zr8      1.0000 0.13825  0.22891  0.39470  Biso   1.000  Zr
  Zr9      1.0000 0.14028  0.22780  0.89445  Biso   1.000  Zr
  Zr10     1.0000 0.13802  0.72864  0.39568  Biso   1.000  Zr
  Zr11     1.0000 0.13866  0.72938  0.89530  Biso   1.000  Zr
  Zr12     1.0000 0.63883  0.22918  0.39540  Biso   1.000  Zr
  Zr13     1.0000 0.63940  0.22914  0.89581  Biso   1.000  Zr
  Zr14     1.0000 0.63858  0.72815  0.39534  Biso   1.000  Zr
  Zr15     1.0000 0.63867  0.72885  0.89534  Biso   1.000  Zr
  Zr16     1.0000 0.36057  0.27076  0.10372  Biso   1.000  Zr
  Zr17     1.0000 0.36128  0.27178  0.60417  Biso   1.000  Zr
  Zr18     1.0000 0.36174  0.77160  0.10462  Biso   1.000  Zr
  Zr19     1.0000 0.36119  0.77143  0.60488  Biso   1.000  Zr
  Zr20     1.0000 0.86324  0.26983  0.10529  Biso   1.000  Zr
  Zr21     1.0000 0.86122  0.27154  0.60513  Biso   1.000  Zr
  Zr22     1.0000 0.86083  0.77085  0.10449  Biso   1.000  Zr
  Zr23     1.0000 0.86087  0.77109  0.60521  Biso   1.000  Zr
  Zr24     1.0000 0.36112  0.47886  0.35430  Biso   1.000  Zr
  Zr25     1.0000 0.36127  0.47919  0.85464  Biso   1.000  Zr
  Zr26     1.0000 0.36156  0.97874  0.35458  Biso   1.000  Zr
  Zr27     1.0000 0.36160  0.98028  0.85428  Biso   1.000  Zr
  Zr28     1.0000 0.86113  0.47881  0.35468  Biso   1.000  Zr
  Zr29     1.0000 0.86198  0.47818  0.85542  Biso   1.000  Zr
  Zr30     1.0000 0.85863  0.97842  0.35650  Biso   1.000  Zr
  Zr31     1.0000 0.86151  0.97900  0.85482  Biso   1.000  Zr
  O1       1.0000 0.03868  0.16838  0.08003  Biso   1.000  O
  O2       1.0000 0.03599  0.17002  0.58008  Biso   1.000  O
  O3       1.0000 0.03596  0.66995  0.08065  Biso   1.000  O
  O4       1.0000 0.03578  0.66977  0.58100  Biso   1.000  O
  O5       1.0000 0.53629  0.17021  0.08087  Biso   1.000  O
  O6       1.0000 0.53606  0.17044  0.58075  Biso   1.000  O
  O7       1.0000 0.53637  0.67019  0.08088  Biso   1.000  O
  O8       1.0000 0.53601  0.67006  0.58089  Biso   1.000  O
  O9       1.0000 0.03437  0.07944  0.33161  Biso   1.000  O
  O10      1.0000 0.03613  0.08029  0.82941  Biso   1.000  O
  O11      1.0000 0.03620  0.57970  0.33088  Biso   1.000  O
  O12      1.0000 0.03632  0.58043  0.83105  Biso   1.000  O
  O13      1.0000 0.53553  0.08038  0.33087  Biso   1.000  O
  O14      1.0000 0.53691  0.08002  0.83085  Biso   1.000  O
  O15      1.0000 0.53616  0.57944  0.33082  Biso   1.000  O
  O16      1.0000 0.53602  0.58017  0.83091  Biso   1.000  O
  O17      1.0000 0.46395  0.42005  0.16875  Biso   1.000  O
  O18      1.0000 0.46418  0.42029  0.66914  Biso   1.000  O
  O19      1.0000 0.46442  0.91959  0.16973  Biso   1.000  O
  O20      1.0000 0.46413  0.92059  0.66838  Biso   1.000  O
  O21      1.0000 0.96467  0.41976  0.16958  Biso   1.000  O
  O22      1.0000 0.96459  0.41953  0.67010  Biso   1.000  O
  O23      1.0000 0.96119  0.91960  0.16980  Biso   1.000  O
  O24      1.0000 0.96396  0.91982  0.66917  Biso   1.000  O
  O25      1.0000 0.46413  0.33025  0.41896  Biso   1.000  O
  O26      1.0000 0.46460  0.33037  0.91894  Biso   1.000  O
  O27      1.0000 0.46365  0.82938  0.41879  Biso   1.000  O
  O28      1.0000 0.46218  0.82925  0.91884  Biso   1.000  O
  O29      1.0000 0.96370  0.33021  0.41967  Biso   1.000  O
  O30      1.0000 0.96507  0.32952  0.92069  Biso   1.000  O
  O31      1.0000 0.96323  0.82973  0.41981  Biso   1.000  O
  O32      1.0000 0.96383  0.83005  0.91937  Biso   1.000  O
  O33      1.0000 0.27387  0.12640  0.23776  Biso   1.000  O
  O34      1.0000 0.27620  0.12890  0.73869  Biso   1.000  O
  O35      1.0000 0.27613  0.62938  0.24069  Biso   1.000  O
  O36      1.0000 0.27603  0.62920  0.74057  Biso   1.000  O
  O37      1.0000 0.77543  0.12883  0.24128  Biso   1.000  O
  O38      1.0000 0.77639  0.12939  0.74089  Biso   1.000  O
  O39      1.0000 0.77589  0.62869  0.24065  Biso   1.000  O
  O40      1.0000 0.77611  0.62896  0.74105  Biso   1.000  O
  O41      1.0000 0.27631  0.12160  0.48881  Biso   1.000  O
  O42      1.0000 0.27879  0.12316  0.98719  Biso   1.000  O
  O43      1.0000 0.27596  0.62109  0.49066  Biso   1.000  O
  O44      1.0000 0.27600  0.62261  0.99047  Biso   1.000  O
  O45      1.0000 0.77587  0.12111  0.49126  Biso   1.000  O
  O46      1.0000 0.77642  0.12083  0.99099  Biso   1.000  O
  O47      1.0000 0.77600  0.62088  0.49085  Biso   1.000  O
  O48      1.0000 0.77587  0.62056  0.99050  Biso   1.000  O
  O49      1.0000 0.22451  0.38042  0.00889  Biso   1.000  O
  O50      1.0000 0.22383  0.37928  0.50896  Biso   1.000  O
  O51      1.0000 0.22324  0.88324  0.01079  Biso   1.000  O
  O52      1.0000 0.22408  0.87902  0.50904  Biso   1.000  O
  O53      1.0000 0.72513  0.37830  0.00994  Biso   1.000  O
  O54      1.0000 0.72392  0.37904  0.50970  Biso   1.000  O
  O55      1.0000 0.72343  0.87895  0.00939  Biso   1.000  O
  O56      1.0000 0.72300  0.87871  0.51008  Biso   1.000  O
  O57      1.0000 0.22466  0.37004  0.25911  Biso   1.000  O
  O58      1.0000 0.22462  0.37118  0.75900  Biso   1.000  O
  O59      1.0000 0.22239  0.87092  0.25858  Biso   1.000  O
  O60      1.0000 0.22421  0.87112  0.75957  Biso   1.000  O
  O61      1.0000 0.72470  0.37070  0.25944  Biso   1.000  O
  O62      1.0000 0.72442  0.37136  0.75989  Biso   1.000  O
  O63      1.0000 0.72411  0.87076  0.25979  Biso   1.000  O
  O64      1.0000 0.72394  0.87118  0.75973  Biso   1.000  O
