data_image0
_cell_length_a       5.0678
_cell_length_b       10.5174
_cell_length_c       10.2481
_cell_angle_alpha    87.8446
_cell_angle_beta     93.089
_cell_angle_gamma    92.6396

_symmetry_space_group_name_H-M    "P 1"
_symmetry_int_tables_number       1

loop_
  _symmetry_equiv_pos_as_xyz
  'x, y, z'

loop_
  _atom_site_label
  _atom_site_occupancy
  _atom_site_fract_x
  _atom_site_fract_y
  _atom_site_fract_z
  _atom_site_thermal_displace_type
  _atom_site_B_iso_or_equiv
  _atom_site_type_symbol
  Zr1      1.0000 0.28831  0.99497  0.10304  Biso   1.000  Zr
  Zr2      1.0000 0.23352  0.23158  0.41173  Biso   1.000  Zr
  Zr3      1.0000 0.59992  0.26912  0.16387  Biso   1.000  Zr
  Zr4      1.0000 0.72628  0.49516  0.38703  Biso   1.000  Zr
  O1       1.0000 0.90353  0.18419  0.27312  Biso   1.000  O
  O2       1.0000 0.07906  0.05468  0.46065  Biso   1.000  O
  O3       1.0000 0.85564  0.44730  0.21231  Biso   1.000  O
  O4       1.0000 0.95272  0.34056  0.47072  Biso   1.000  O
  O5       1.0000 0.42333  0.10906  0.25885  Biso   1.000  O
  O6       1.0000 0.56894  0.14076  0.50257  Biso   1.000  O
  O7       1.0000 0.47833  0.38705  0.50697  Biso   1.000  O
  O8       1.0000 0.36068  0.37348  0.26561  Biso   1.000  O
  Zr5      1.0000 0.31136  0.00726  0.62329  Biso   1.000  Zr
  Zr6      1.0000 0.33752  0.21824  0.85192  Biso   1.000  Zr
  Zr7      1.0000 0.77962  0.27351  0.63777  Biso   1.000  Zr
  Zr8      1.0000 0.73329  0.47917  0.87320  Biso   1.000  Zr
  O9       1.0000 0.14036  0.18403  0.66149  Biso   1.000  O
  O10      1.0000 0.13906  0.04545  0.91045  Biso   1.000  O
  O11      1.0000 0.92881  0.45570  0.68857  Biso   1.000  O
  O12      1.0000 0.95451  0.29443  0.85817  Biso   1.000  O
  O13      1.0000 0.59122  0.10968  0.75027  Biso   1.000  O
  O14      1.0000 0.62014  0.12313  0.00975  Biso   1.000  O
  O15      1.0000 0.46641  0.37585  0.99506  Biso   1.000  O
  O16      1.0000 0.47861  0.36810  0.74424  Biso   1.000  O
  Zr9      1.0000 0.22331  0.52496  0.13895  Biso   1.000  Zr
  Zr10     1.0000 0.27412  0.74618  0.37829  Biso   1.000  Zr
  Zr11     1.0000 0.72792  0.76199  0.12908  Biso   1.000  Zr
  Zr12     1.0000 0.74661  0.00469  0.35866  Biso   1.000  Zr
  O17      1.0000 0.06466  0.68688  0.20012  Biso   1.000  O
  O18      1.0000 0.07008  0.58112  0.44803  Biso   1.000  O
  O19      1.0000 0.94183  0.94486  0.18156  Biso   1.000  O
  O20      1.0000 0.93864  0.82228  0.43769  Biso   1.000  O
  O21      1.0000 0.51949  0.62391  0.25761  Biso   1.000  O
  O22      1.0000 0.53889  0.64074  0.50330  Biso   1.000  O
  O23      1.0000 0.48666  0.89141  0.49270  Biso   1.000  O
  O24      1.0000 0.48253  0.86741  0.24173  Biso   1.000  O
  Zr13     1.0000 0.27644  0.51548  0.62120  Biso   1.000  Zr
  Zr14     1.0000 0.28188  0.72882  0.87192  Biso   1.000  Zr
  Zr15     1.0000 0.76321  0.76947  0.61851  Biso   1.000  Zr
  Zr16     1.0000 0.77529  0.96898  0.87087  Biso   1.000  Zr
  O25      1.0000 0.09130  0.68629  0.69386  Biso   1.000  O
  O26      1.0000 0.06383  0.56190  0.95253  Biso   1.000  O
  O27      1.0000 0.96895  0.92803  0.69783  Biso   1.000  O
  O28      1.0000 0.96625  0.80906  0.95567  Biso   1.000  O
  O29      1.0000 0.54662  0.61326  0.75592  Biso   1.000  O
  O30      1.0000 0.53117  0.62949  0.00755  Biso   1.000  O
  O31      1.0000 0.49349  0.87386  0.99096  Biso   1.000  O
  O32      1.0000 0.50324  0.85851  0.74556  Biso   1.000  O
  Sn1      1.0000 0.04033  0.24706  0.05701  Biso   1.000  Sn
