data_image0
_cell_length_a       10.3871
_cell_length_b       10.4693
_cell_length_c       5.30271
_cell_angle_alpha    89.5695
_cell_angle_beta     78.3784
_cell_angle_gamma    89.5692

_symmetry_space_group_name_H-M    "P 1"
_symmetry_int_tables_number       1

loop_
  _symmetry_equiv_pos_as_xyz
  'x, y, z'

loop_
  _atom_site_label
  _atom_site_occupancy
  _atom_site_fract_x
  _atom_site_fract_y
  _atom_site_fract_z
  _atom_site_thermal_displace_type
  _atom_site_B_iso_or_equiv
  _atom_site_type_symbol
  Zr1      1.0000 0.12949  0.01743  0.28532  Biso   1.000  Zr
  Zr2      1.0000 0.13171  0.22704  0.77245  Biso   1.000  Zr
  Zr3      1.0000 0.33531  0.26553  0.18010  Biso   1.000  Zr
  Zr4      1.0000 0.35476  0.48733  0.70501  Biso   1.000  Zr
  O1       1.0000 0.03528  0.17006  0.15937  Biso   1.000  O
  O2       1.0000 0.02687  0.08031  0.66233  Biso   1.000  O
  O3       1.0000 0.46265  0.44299  0.33806  Biso   1.000  O
  O4       1.0000 0.47052  0.34979  0.88074  Biso   1.000  O
  O5       1.0000 0.25796  0.11824  0.45888  Biso   1.000  O
  O6       1.0000 0.26874  0.12164  0.95521  Biso   1.000  O
  O7       1.0000 0.21513  0.38310  0.99342  Biso   1.000  O
  O8       1.0000 0.21276  0.37145  0.49756  Biso   1.000  O
  Zr5      1.0000 0.13693  0.52277  0.29010  Biso   1.000  Zr
  Zr6      1.0000 0.13480  0.72899  0.79445  Biso   1.000  Zr
  Zr7      1.0000 0.35920  0.77150  0.20857  Biso   1.000  Zr
  Zr8      1.0000 0.35574  0.97037  0.70213  Biso   1.000  Zr
  O9       1.0000 0.02950  0.66643  0.15911  Biso   1.000  O
  O10      1.0000 0.03378  0.58621  0.65701  Biso   1.000  O
  O11      1.0000 0.46297  0.91490  0.33741  Biso   1.000  O
  O12      1.0000 0.45891  0.82485  0.84040  Biso   1.000  O
  O13      1.0000 0.27169  0.62840  0.48319  Biso   1.000  O
  O14      1.0000 0.27150  0.62406  0.98370  Biso   1.000  O
  O15      1.0000 0.22107  0.87769  0.01814  Biso   1.000  O
  O16      1.0000 0.22059  0.86736  0.51606  Biso   1.000  O
  Zr9      1.0000 0.63958  0.01267  0.30519  Biso   1.000  Zr
  Zr10     1.0000 0.65903  0.23448  0.83011  Biso   1.000  Zr
  Zr11     1.0000 0.86262  0.27297  0.23777  Biso   1.000  Zr
  Zr12     1.0000 0.86485  0.48258  0.72488  Biso   1.000  Zr
  O17      1.0000 0.52383  0.15021  0.12946  Biso   1.000  O
  O18      1.0000 0.53168  0.05701  0.67212  Biso   1.000  O
  O19      1.0000 0.96747  0.41969  0.34788  Biso   1.000  O
  O20      1.0000 0.95906  0.32994  0.85085  Biso   1.000  O
  O21      1.0000 0.78159  0.12855  0.51267  Biso   1.000  O
  O22      1.0000 0.77921  0.11691  0.01681  Biso   1.000  O
  O23      1.0000 0.72561  0.37838  0.05499  Biso   1.000  O
  O24      1.0000 0.73638  0.38177  0.55132  Biso   1.000  O
  Zr13     1.0000 0.63859  0.52963  0.30807  Biso   1.000  Zr
  Zr14     1.0000 0.63514  0.72850  0.80162  Biso   1.000  Zr
  Zr15     1.0000 0.85954  0.77101  0.21575  Biso   1.000  Zr
  Zr16     1.0000 0.85741  0.97724  0.72011  Biso   1.000  Zr
  O25      1.0000 0.53542  0.67515  0.16979  Biso   1.000  O
  O26      1.0000 0.53136  0.58510  0.67279  Biso   1.000  O
  O27      1.0000 0.96056  0.91380  0.35319  Biso   1.000  O
  O28      1.0000 0.96483  0.83357  0.85109  Biso   1.000  O
  O29      1.0000 0.77375  0.63265  0.49415  Biso   1.000  O
  O30      1.0000 0.77327  0.62232  0.99207  Biso   1.000  O
  O31      1.0000 0.72283  0.87594  0.02650  Biso   1.000  O
  O32      1.0000 0.72265  0.87160  0.52701  Biso   1.000  O
  Sn1      1.0000 0.49717  0.24999  0.50510  Biso   1.000  Sn
