data_image0
_cell_length_a       10.0656
_cell_length_b       10.4954
_cell_length_c       10.1591
_cell_angle_alpha    89.4324
_cell_angle_beta     91.1143
_cell_angle_gamma    90.6061

_symmetry_space_group_name_H-M    "P 1"
_symmetry_int_tables_number       1

loop_
  _symmetry_equiv_pos_as_xyz
  'x, y, z'

loop_
  _atom_site_label
  _atom_site_occupancy
  _atom_site_fract_x
  _atom_site_fract_y
  _atom_site_fract_z
  _atom_site_thermal_displace_type
  _atom_site_B_iso_or_equiv
  _atom_site_type_symbol
  Zr1      1.0000 0.13887  0.01101  0.11415  Biso   1.000  Zr
  Zr2      1.0000 0.12884  0.23087  0.39117  Biso   1.000  Zr
  Zr3      1.0000 0.36808  0.26261  0.11737  Biso   1.000  Zr
  Zr4      1.0000 0.36923  0.48617  0.37213  Biso   1.000  Zr
  O1       1.0000 0.99421  0.17597  0.23744  Biso   1.000  O
  O2       1.0000 0.04355  0.05577  0.44549  Biso   1.000  O
  O3       1.0000 0.45472  0.43457  0.19240  Biso   1.000  O
  O4       1.0000 0.46240  0.31681  0.44285  Biso   1.000  O
  O5       1.0000 0.26206  0.11571  0.24508  Biso   1.000  O
  O6       1.0000 0.27612  0.13069  0.49532  Biso   1.000  O
  O7       1.0000 0.23348  0.38538  0.49243  Biso   1.000  O
  O8       1.0000 0.20796  0.35961  0.23721  Biso   1.000  O
  Zr5      1.0000 0.13856  0.00350  0.62084  Biso   1.000  Zr
  Zr6      1.0000 0.14657  0.21860  0.84322  Biso   1.000  Zr
  Zr7      1.0000 0.37389  0.26502  0.62093  Biso   1.000  Zr
  Zr8      1.0000 0.37121  0.48544  0.87087  Biso   1.000  Zr
  O9       1.0000 0.05284  0.17663  0.66392  Biso   1.000  O
  O10      1.0000 0.04541  0.05568  0.92955  Biso   1.000  O
  O11      1.0000 0.46638  0.43313  0.69292  Biso   1.000  O
  O12      1.0000 0.47315  0.31573  0.94232  Biso   1.000  O
  O13      1.0000 0.27972  0.10800  0.73799  Biso   1.000  O
  O14      1.0000 0.29520  0.12191  0.98377  Biso   1.000  O
  O15      1.0000 0.24176  0.39231  0.99236  Biso   1.000  O
  O16      1.0000 0.23479  0.36463  0.73881  Biso   1.000  O
  Zr9      1.0000 0.12581  0.53125  0.12557  Biso   1.000  Zr
  Zr10     1.0000 0.13469  0.73738  0.37623  Biso   1.000  Zr
  Zr11     1.0000 0.36525  0.76508  0.12631  Biso   1.000  Zr
  Zr12     1.0000 0.36574  0.98572  0.37241  Biso   1.000  Zr
  O17      1.0000 0.03407  0.68828  0.19608  Biso   1.000  O
  O18      1.0000 0.03834  0.57245  0.44157  Biso   1.000  O
  O19      1.0000 0.46434  0.93410  0.19595  Biso   1.000  O
  O20      1.0000 0.46752  0.81719  0.44485  Biso   1.000  O
  O21      1.0000 0.26840  0.61823  0.25032  Biso   1.000  O
  O22      1.0000 0.27145  0.63430  0.49841  Biso   1.000  O
  O23      1.0000 0.23685  0.88103  0.49600  Biso   1.000  O
  O24      1.0000 0.23242  0.86577  0.24643  Biso   1.000  O
  Zr13     1.0000 0.13594  0.51733  0.61896  Biso   1.000  Zr
  Zr14     1.0000 0.13325  0.73598  0.87170  Biso   1.000  Zr
  Zr15     1.0000 0.37279  0.76311  0.62439  Biso   1.000  Zr
  Zr16     1.0000 0.37603  0.97782  0.87292  Biso   1.000  Zr
  O25      1.0000 0.04158  0.68746  0.69124  Biso   1.000  O
  O26      1.0000 0.03385  0.56523  0.94372  Biso   1.000  O
  O27      1.0000 0.47473  0.92812  0.69579  Biso   1.000  O
  O28      1.0000 0.47167  0.81527  0.95190  Biso   1.000  O
  O29      1.0000 0.27050  0.61463  0.74863  Biso   1.000  O
  O30      1.0000 0.26598  0.63814  0.99938  Biso   1.000  O
  O31      1.0000 0.23472  0.88120  0.99652  Biso   1.000  O
  O32      1.0000 0.24004  0.86128  0.74744  Biso   1.000  O
  Zr17     1.0000 0.63093  0.01300  0.12563  Biso   1.000  Zr
  Zr18     1.0000 0.63027  0.22976  0.39232  Biso   1.000  Zr
  Zr19     1.0000 0.82465  0.27105  0.15569  Biso   1.000  Zr
  Zr20     1.0000 0.86474  0.48653  0.39038  Biso   1.000  Zr
  O33      1.0000 0.53318  0.18321  0.19446  Biso   1.000  O
  O34      1.0000 0.53420  0.06527  0.45179  Biso   1.000  O
  O35      1.0000 0.94423  0.44472  0.21454  Biso   1.000  O
  O36      1.0000 0.96654  0.31961  0.45678  Biso   1.000  O
  O37      1.0000 0.75037  0.11420  0.26340  Biso   1.000  O
  O38      1.0000 0.77718  0.13345  0.50828  Biso   1.000  O
  O39      1.0000 0.72879  0.37848  0.51024  Biso   1.000  O
  O40      1.0000 0.70615  0.37743  0.26724  Biso   1.000  O
  Zr21     1.0000 0.64239  0.01476  0.62914  Biso   1.000  Zr
  Zr22     1.0000 0.63983  0.23264  0.87813  Biso   1.000  Zr
  Zr23     1.0000 0.87526  0.27198  0.64091  Biso   1.000  Zr
  Zr24     1.0000 0.86840  0.47896  0.87197  Biso   1.000  Zr
  O41      1.0000 0.54205  0.18320  0.69245  Biso   1.000  O
  O42      1.0000 0.54812  0.06234  0.94007  Biso   1.000  O
  O43      1.0000 0.95355  0.45613  0.67003  Biso   1.000  O
  O44      1.0000 0.95939  0.30317  0.84883  Biso   1.000  O
  O45      1.0000 0.77468  0.11632  0.75701  Biso   1.000  O
  O46      1.0000 0.77590  0.13597  0.01157  Biso   1.000  O
  O47      1.0000 0.73782  0.38316  0.00774  Biso   1.000  O
  O48      1.0000 0.72415  0.37168  0.75504  Biso   1.000  O
  Zr25     1.0000 0.63032  0.52189  0.13134  Biso   1.000  Zr
  Zr26     1.0000 0.63580  0.73743  0.37878  Biso   1.000  Zr
  Zr27     1.0000 0.86249  0.76709  0.12940  Biso   1.000  Zr
  Zr28     1.0000 0.87136  0.98837  0.37406  Biso   1.000  Zr
  O49      1.0000 0.53297  0.68267  0.20005  Biso   1.000  O
  O50      1.0000 0.53338  0.56727  0.44824  Biso   1.000  O
  O51      1.0000 0.96631  0.93596  0.19033  Biso   1.000  O
  O52      1.0000 0.96695  0.81763  0.44675  Biso   1.000  O
  O53      1.0000 0.76672  0.62232  0.25738  Biso   1.000  O
  O54      1.0000 0.76681  0.63558  0.50579  Biso   1.000  O
  O55      1.0000 0.73581  0.88593  0.50042  Biso   1.000  O
  O56      1.0000 0.73154  0.86858  0.25076  Biso   1.000  O
  Zr29     1.0000 0.63713  0.51547  0.62976  Biso   1.000  Zr
  Zr30     1.0000 0.63776  0.73381  0.87848  Biso   1.000  Zr
  Zr31     1.0000 0.86967  0.76720  0.62815  Biso   1.000  Zr
  Zr32     1.0000 0.86854  0.98166  0.87972  Biso   1.000  Zr
  O57      1.0000 0.53731  0.67973  0.70072  Biso   1.000  O
  O58      1.0000 0.53462  0.56825  0.95017  Biso   1.000  O
  O59      1.0000 0.96966  0.93168  0.70004  Biso   1.000  O
  O60      1.0000 0.96614  0.81175  0.94766  Biso   1.000  O
  O61      1.0000 0.77304  0.61840  0.75594  Biso   1.000  O
  O62      1.0000 0.76707  0.63325  0.00592  Biso   1.000  O
  O63      1.0000 0.73322  0.88275  0.00212  Biso   1.000  O
  O64      1.0000 0.73620  0.86566  0.75173  Biso   1.000  O
  Sn1      1.0000 0.07598  0.27852  0.08369  Biso   1.000  Sn
