data_image0
_cell_length_a       5.08701
_cell_length_b       10.347
_cell_length_c       10.4981
_cell_angle_alpha    90.0118
_cell_angle_beta     80.666
_cell_angle_gamma    89.8531

_symmetry_space_group_name_H-M    "P 1"
_symmetry_int_tables_number       1

loop_
  _symmetry_equiv_pos_as_xyz
  'x, y, z'

loop_
  _atom_site_label
  _atom_site_occupancy
  _atom_site_fract_x
  _atom_site_fract_y
  _atom_site_fract_z
  _atom_site_thermal_displace_type
  _atom_site_B_iso_or_equiv
  _atom_site_type_symbol
  Sn1      1.0000 0.27115  0.01779  0.14891  Biso   1.000  Sn
  Zr1      1.0000 0.27686  0.02161  0.64493  Biso   1.000  Zr
  Zr2      1.0000 0.27805  0.52083  0.14496  Biso   1.000  Zr
  Zr3      1.0000 0.27860  0.52131  0.64568  Biso   1.000  Zr
  Zr4      1.0000 0.27642  0.22939  0.39473  Biso   1.000  Zr
  Zr5      1.0000 0.28172  0.22824  0.89494  Biso   1.000  Zr
  Zr6      1.0000 0.27546  0.72808  0.39570  Biso   1.000  Zr
  Zr7      1.0000 0.27689  0.72954  0.89531  Biso   1.000  Zr
  Zr8      1.0000 0.72534  0.26927  0.10432  Biso   1.000  Zr
  Zr9      1.0000 0.72271  0.27202  0.60464  Biso   1.000  Zr
  Zr10     1.0000 0.72276  0.77113  0.10444  Biso   1.000  Zr
  Zr11     1.0000 0.72182  0.77122  0.60545  Biso   1.000  Zr
  Zr12     1.0000 0.72220  0.47897  0.35431  Biso   1.000  Zr
  Zr13     1.0000 0.72420  0.47868  0.85540  Biso   1.000  Zr
  Zr14     1.0000 0.71795  0.97845  0.35643  Biso   1.000  Zr
  Zr15     1.0000 0.72395  0.98061  0.85445  Biso   1.000  Zr
  O1       1.0000 0.07790  0.16835  0.07978  Biso   1.000  O
  O2       1.0000 0.07197  0.17018  0.57975  Biso   1.000  O
  O3       1.0000 0.07252  0.66985  0.08046  Biso   1.000  O
  O4       1.0000 0.07146  0.66956  0.58083  Biso   1.000  O
  O5       1.0000 0.06750  0.08013  0.33139  Biso   1.000  O
  O6       1.0000 0.07394  0.08062  0.82917  Biso   1.000  O
  O7       1.0000 0.07256  0.57940  0.33066  Biso   1.000  O
  O8       1.0000 0.07254  0.58090  0.83088  Biso   1.000  O
  O9       1.0000 0.92938  0.41954  0.16941  Biso   1.000  O
  O10      1.0000 0.92974  0.41953  0.67033  Biso   1.000  O
  O11      1.0000 0.92346  0.91882  0.17062  Biso   1.000  O
  O12      1.0000 0.92835  0.92012  0.66863  Biso   1.000  O
  O13      1.0000 0.92780  0.33074  0.41972  Biso   1.000  O
  O14      1.0000 0.93151  0.33020  0.92073  Biso   1.000  O
  O15      1.0000 0.92592  0.82941  0.41970  Biso   1.000  O
  O16      1.0000 0.92419  0.82959  0.91929  Biso   1.000  O
  O17      1.0000 0.54639  0.12618  0.23830  Biso   1.000  O
  O18      1.0000 0.55305  0.12925  0.73887  Biso   1.000  O
  O19      1.0000 0.55184  0.62905  0.24067  Biso   1.000  O
  O20      1.0000 0.55215  0.62913  0.74094  Biso   1.000  O
  O21      1.0000 0.55223  0.12174  0.48936  Biso   1.000  O
  O22      1.0000 0.55852  0.12307  0.98743  Biso   1.000  O
  O23      1.0000 0.55180  0.62100  0.49084  Biso   1.000  O
  O24      1.0000 0.55164  0.62222  0.99028  Biso   1.000  O
  O25      1.0000 0.45142  0.37973  0.00950  Biso   1.000  O
  O26      1.0000 0.44762  0.37929  0.50933  Biso   1.000  O
  O27      1.0000 0.44544  0.88322  0.01090  Biso   1.000  O
  O28      1.0000 0.44628  0.87871  0.50978  Biso   1.000  O
  O29      1.0000 0.45088  0.36973  0.25923  Biso   1.000  O
  O30      1.0000 0.45027  0.37157  0.75957  Biso   1.000  O
  O31      1.0000 0.44517  0.87073  0.25904  Biso   1.000  O
  O32      1.0000 0.44846  0.87132  0.76001  Biso   1.000  O
