data_image0
_cell_length_a       10.1746
_cell_length_b       5.17306
_cell_length_c       10.5007
_cell_angle_alpha    90.0361
_cell_angle_beta     80.6752
_cell_angle_gamma    89.8368

_symmetry_space_group_name_H-M    "P 1"
_symmetry_int_tables_number       1

loop_
  _symmetry_equiv_pos_as_xyz
  'x, y, z'

loop_
  _atom_site_label
  _atom_site_occupancy
  _atom_site_fract_x
  _atom_site_fract_y
  _atom_site_fract_z
  _atom_site_thermal_displace_type
  _atom_site_B_iso_or_equiv
  _atom_site_type_symbol
  Sn1      1.0000 0.13537  0.03541  0.14912  Biso   1.000  Sn
  Zr1      1.0000 0.13895  0.04257  0.64449  Biso   1.000  Zr
  Zr2      1.0000 0.63881  0.04115  0.14508  Biso   1.000  Zr
  Zr3      1.0000 0.63877  0.04331  0.64607  Biso   1.000  Zr
  Zr4      1.0000 0.13738  0.45742  0.39503  Biso   1.000  Zr
  Zr5      1.0000 0.14011  0.45718  0.89423  Biso   1.000  Zr
  Zr6      1.0000 0.63849  0.45705  0.39541  Biso   1.000  Zr
  Zr7      1.0000 0.63923  0.45890  0.89585  Biso   1.000  Zr
  Zr8      1.0000 0.36113  0.54194  0.10354  Biso   1.000  Zr
  Zr9      1.0000 0.36132  0.54393  0.60439  Biso   1.000  Zr
  Zr10     1.0000 0.86288  0.53819  0.10516  Biso   1.000  Zr
  Zr11     1.0000 0.86093  0.54259  0.60576  Biso   1.000  Zr
  Zr12     1.0000 0.36149  0.95753  0.35413  Biso   1.000  Zr
  Zr13     1.0000 0.36181  0.96233  0.85427  Biso   1.000  Zr
  Zr14     1.0000 0.85842  0.95668  0.35667  Biso   1.000  Zr
  Zr15     1.0000 0.86242  0.95695  0.85563  Biso   1.000  Zr
  O1       1.0000 0.03892  0.33608  0.07952  Biso   1.000  O
  O2       1.0000 0.03561  0.33859  0.57989  Biso   1.000  O
  O3       1.0000 0.53647  0.33980  0.08051  Biso   1.000  O
  O4       1.0000 0.53591  0.34014  0.58040  Biso   1.000  O
  O5       1.0000 0.03426  0.15875  0.33143  Biso   1.000  O
  O6       1.0000 0.03636  0.16230  0.82930  Biso   1.000  O
  O7       1.0000 0.53548  0.16034  0.33049  Biso   1.000  O
  O8       1.0000 0.53685  0.16184  0.83039  Biso   1.000  O
  O9       1.0000 0.46452  0.83812  0.16975  Biso   1.000  O
  O10      1.0000 0.46449  0.84100  0.66874  Biso   1.000  O
  O11      1.0000 0.96177  0.83739  0.17084  Biso   1.000  O
  O12      1.0000 0.96475  0.83766  0.67058  Biso   1.000  O
  O13      1.0000 0.46387  0.65995  0.41895  Biso   1.000  O
  O14      1.0000 0.46319  0.66126  0.91917  Biso   1.000  O
  O15      1.0000 0.96304  0.66054  0.42079  Biso   1.000  O
  O16      1.0000 0.96502  0.66009  0.92144  Biso   1.000  O
  O17      1.0000 0.27375  0.25245  0.23733  Biso   1.000  O
  O18      1.0000 0.27604  0.25819  0.73819  Biso   1.000  O
  O19      1.0000 0.77522  0.25662  0.24125  Biso   1.000  O
  O20      1.0000 0.77648  0.25872  0.74127  Biso   1.000  O
  O21      1.0000 0.27617  0.24338  0.48853  Biso   1.000  O
  O22      1.0000 0.27950  0.25187  0.98597  Biso   1.000  O
  O23      1.0000 0.77575  0.24195  0.49147  Biso   1.000  O
  O24      1.0000 0.77621  0.24079  0.99083  Biso   1.000  O
  O25      1.0000 0.22390  0.77088  0.01055  Biso   1.000  O
  O26      1.0000 0.22393  0.75840  0.50871  Biso   1.000  O
  O27      1.0000 0.72471  0.75634  0.01011  Biso   1.000  O
  O28      1.0000 0.72295  0.75728  0.51053  Biso   1.000  O
  O29      1.0000 0.22308  0.73929  0.25851  Biso   1.000  O
  O30      1.0000 0.22502  0.74290  0.75936  Biso   1.000  O
  O31      1.0000 0.72479  0.74063  0.25998  Biso   1.000  O
  O32      1.0000 0.72449  0.74332  0.76039  Biso   1.000  O
