data_image0
_cell_length_a       10.2892
_cell_length_b       10.382
_cell_length_c       10.5736
_cell_angle_alpha    90.0236
_cell_angle_beta     79.2936
_cell_angle_gamma    89.9296

_symmetry_space_group_name_H-M    "P 1"
_symmetry_int_tables_number       1

loop_
  _symmetry_equiv_pos_as_xyz
  'x, y, z'

loop_
  _atom_site_label
  _atom_site_occupancy
  _atom_site_fract_x
  _atom_site_fract_y
  _atom_site_fract_z
  _atom_site_thermal_displace_type
  _atom_site_B_iso_or_equiv
  _atom_site_type_symbol
  Zr1      1.0000 0.12994  0.01888  0.14380  Biso   1.000  Zr
  Zr2      1.0000 0.14037  0.22690  0.39096  Biso   1.000  Zr
  Zr3      1.0000 0.33588  0.26745  0.09085  Biso   1.000  Zr
  Zr4      1.0000 0.35504  0.48421  0.35105  Biso   1.000  Zr
  O1       1.0000 0.03001  0.16823  0.07807  Biso   1.000  O
  O2       1.0000 0.03051  0.08049  0.33187  Biso   1.000  O
  O3       1.0000 0.45928  0.43916  0.15719  Biso   1.000  O
  O4       1.0000 0.48052  0.35151  0.43768  Biso   1.000  O
  O5       1.0000 0.26096  0.11938  0.23252  Biso   1.000  O
  O6       1.0000 0.27890  0.12210  0.48514  Biso   1.000  O
  O7       1.0000 0.21253  0.38393  0.00090  Biso   1.000  O
  O8       1.0000 0.21275  0.37407  0.25316  Biso   1.000  O
  Zr5      1.0000 0.13838  0.02115  0.64406  Biso   1.000  Zr
  Zr6      1.0000 0.13031  0.22928  0.89016  Biso   1.000  Zr
  Zr7      1.0000 0.36277  0.27329  0.60426  Biso   1.000  Zr
  Zr8      1.0000 0.35914  0.47933  0.85396  Biso   1.000  Zr
  O9       1.0000 0.03888  0.16799  0.57879  Biso   1.000  O
  O10      1.0000 0.02967  0.08376  0.82665  Biso   1.000  O
  O11      1.0000 0.46740  0.41470  0.67827  Biso   1.000  O
  O12      1.0000 0.45947  0.33216  0.92201  Biso   1.000  O
  O13      1.0000 0.27244  0.12788  0.73613  Biso   1.000  O
  O14      1.0000 0.26423  0.12171  0.98211  Biso   1.000  O
  O15      1.0000 0.22803  0.37782  0.50485  Biso   1.000  O
  O16      1.0000 0.22388  0.37112  0.75540  Biso   1.000  O
  Zr9      1.0000 0.13724  0.52417  0.14394  Biso   1.000  Zr
  Zr10     1.0000 0.13765  0.72952  0.39672  Biso   1.000  Zr
  Zr11     1.0000 0.36006  0.77382  0.10428  Biso   1.000  Zr
  Zr12     1.0000 0.35934  0.97224  0.35562  Biso   1.000  Zr
  O17      1.0000 0.03186  0.66827  0.07732  Biso   1.000  O
  O18      1.0000 0.03508  0.58751  0.32659  Biso   1.000  O
  O19      1.0000 0.46568  0.91636  0.17369  Biso   1.000  O
  O20      1.0000 0.46024  0.82388  0.42224  Biso   1.000  O
  O21      1.0000 0.27471  0.62971  0.24109  Biso   1.000  O
  O22      1.0000 0.27224  0.62122  0.49074  Biso   1.000  O
  O23      1.0000 0.22388  0.87899  0.00918  Biso   1.000  O
  O24      1.0000 0.22232  0.86853  0.25919  Biso   1.000  O
  Zr13     1.0000 0.13816  0.52143  0.64578  Biso   1.000  Zr
  Zr14     1.0000 0.13667  0.72854  0.89600  Biso   1.000  Zr
  Zr15     1.0000 0.36085  0.77014  0.60536  Biso   1.000  Zr
  Zr16     1.0000 0.35909  0.97817  0.85214  Biso   1.000  Zr
  O25      1.0000 0.03130  0.66450  0.57955  Biso   1.000  O
  O26      1.0000 0.03244  0.58353  0.82910  Biso   1.000  O
  O27      1.0000 0.46532  0.91530  0.67067  Biso   1.000  O
  O28      1.0000 0.46516  0.83599  0.92128  Biso   1.000  O
  O29      1.0000 0.27336  0.62733  0.74010  Biso   1.000  O
  O30      1.0000 0.27497  0.62418  0.99054  Biso   1.000  O
  O31      1.0000 0.22285  0.87778  0.51085  Biso   1.000  O
  O32      1.0000 0.22356  0.87116  0.75976  Biso   1.000  O
  Zr17     1.0000 0.64201  0.01578  0.15140  Biso   1.000  Zr
  Zr18     1.0000 0.66117  0.23254  0.41161  Biso   1.000  Zr
  Zr19     1.0000 0.85668  0.27309  0.11150  Biso   1.000  Zr
  Zr20     1.0000 0.86711  0.48112  0.35865  Biso   1.000  Zr
  O33      1.0000 0.51653  0.14848  0.06478  Biso   1.000  O
  O34      1.0000 0.53778  0.06083  0.34527  Biso   1.000  O
  O35      1.0000 0.96654  0.41950  0.17059  Biso   1.000  O
  O36      1.0000 0.96704  0.33176  0.42438  Biso   1.000  O
  O37      1.0000 0.78430  0.12592  0.24929  Biso   1.000  O
  O38      1.0000 0.78452  0.11606  0.50156  Biso   1.000  O
  O39      1.0000 0.71816  0.37789  0.01731  Biso   1.000  O
  O40      1.0000 0.73609  0.38061  0.26993  Biso   1.000  O
  Zr21     1.0000 0.63791  0.02066  0.64849  Biso   1.000  Zr
  Zr22     1.0000 0.63428  0.22670  0.89820  Biso   1.000  Zr
  Zr23     1.0000 0.86674  0.27071  0.61230  Biso   1.000  Zr
  Zr24     1.0000 0.85868  0.47884  0.85839  Biso   1.000  Zr
  O41      1.0000 0.53758  0.16783  0.58045  Biso   1.000  O
  O42      1.0000 0.52965  0.08529  0.82418  Biso   1.000  O
  O43      1.0000 0.96739  0.41623  0.67580  Biso   1.000  O
  O44      1.0000 0.95817  0.33200  0.92366  Biso   1.000  O
  O45      1.0000 0.77317  0.12886  0.74705  Biso   1.000  O
  O46      1.0000 0.76902  0.12217  0.99761  Biso   1.000  O
  O47      1.0000 0.73282  0.37828  0.52034  Biso   1.000  O
  O48      1.0000 0.72462  0.37211  0.76632  Biso   1.000  O
  Zr25     1.0000 0.63772  0.52775  0.14683  Biso   1.000  Zr
  Zr26     1.0000 0.63700  0.72617  0.39818  Biso   1.000  Zr
  Zr27     1.0000 0.85941  0.77047  0.10573  Biso   1.000  Zr
  Zr28     1.0000 0.85982  0.97582  0.35852  Biso   1.000  Zr
  O49      1.0000 0.53682  0.67611  0.08022  Biso   1.000  O
  O50      1.0000 0.53138  0.58363  0.32877  Biso   1.000  O
  O51      1.0000 0.96198  0.91247  0.17586  Biso   1.000  O
  O52      1.0000 0.96520  0.83172  0.42513  Biso   1.000  O
  O53      1.0000 0.77474  0.63146  0.24327  Biso   1.000  O
  O54      1.0000 0.77318  0.62100  0.49327  Biso   1.000  O
  O55      1.0000 0.72482  0.87877  0.01171  Biso   1.000  O
  O56      1.0000 0.72235  0.87028  0.26136  Biso   1.000  O
  Zr29     1.0000 0.63796  0.52182  0.65032  Biso   1.000  Zr
  Zr30     1.0000 0.63620  0.72985  0.89710  Biso   1.000  Zr
  Zr31     1.0000 0.86038  0.77145  0.60646  Biso   1.000  Zr
  Zr32     1.0000 0.85890  0.97856  0.85667  Biso   1.000  Zr
  O57      1.0000 0.53189  0.66400  0.58118  Biso   1.000  O
  O58      1.0000 0.53174  0.58468  0.83178  Biso   1.000  O
  O59      1.0000 0.96461  0.91646  0.67335  Biso   1.000  O
  O60      1.0000 0.96576  0.83549  0.92291  Biso   1.000  O
  O61      1.0000 0.77350  0.62883  0.74270  Biso   1.000  O
  O62      1.0000 0.77420  0.62221  0.99161  Biso   1.000  O
  O63      1.0000 0.72208  0.87580  0.51192  Biso   1.000  O
  O64      1.0000 0.72369  0.87265  0.76235  Biso   1.000  O
  Sn1      1.0000 0.49853  0.24999  0.25123  Biso   1.000  Sn
