data_image0
_cell_length_a       10.2171
_cell_length_b       10.3921
_cell_length_c       5.15784
_cell_angle_alpha    90.0011
_cell_angle_beta     95.8235
_cell_angle_gamma    89.9992

_symmetry_space_group_name_H-M    "P 1"
_symmetry_int_tables_number       1

loop_
  _symmetry_equiv_pos_as_xyz
  'x, y, z'

loop_
  _atom_site_label
  _atom_site_occupancy
  _atom_site_fract_x
  _atom_site_fract_y
  _atom_site_fract_z
  _atom_site_thermal_displace_type
  _atom_site_B_iso_or_equiv
  _atom_site_type_symbol
  Zr1      1.0000 0.12550  0.98138  0.25081  Biso   1.000  Zr
  Zr2      1.0000 0.12550  0.19852  0.75082  Biso   1.000  Zr
  Zr3      1.0000 0.38306  0.25006  0.17295  Biso   1.000  Zr
  Zr4      1.0000 0.39068  0.01005  0.70625  Biso   1.000  Zr
  O1       1.0000 0.99351  0.13270  0.03773  Biso   1.000  O
  O2       1.0000 0.98735  0.08165  0.52010  Biso   1.000  O
  O3       1.0000 0.96839  0.33305  0.68672  Biso   1.000  O
  O4       1.0000 0.98257  0.43608  0.15386  Biso   1.000  O
  O5       1.0000 0.25749  0.13268  0.46389  Biso   1.000  O
  O6       1.0000 0.26366  0.08165  0.98150  Biso   1.000  O
  O7       1.0000 0.28261  0.33304  0.81487  Biso   1.000  O
  O8       1.0000 0.26844  0.43608  0.34772  Biso   1.000  O
  Zr5      1.0000 0.12550  0.57925  0.25079  Biso   1.000  Zr
  Zr6      1.0000 0.12550  0.76164  0.75080  Biso   1.000  Zr
  Zr7      1.0000 0.39642  0.73976  0.21858  Biso   1.000  Zr
  Zr8      1.0000 0.37045  0.49721  0.70504  Biso   1.000  Zr
  O9       1.0000 0.98522  0.66675  0.00344  Biso   1.000  O
  O10      1.0000 0.00463  0.60477  0.54762  Biso   1.000  O
  O11      1.0000 0.01842  0.83312  0.40568  Biso   1.000  O
  O12      1.0000 0.01689  0.90542  0.91194  Biso   1.000  O
  O13      1.0000 0.26577  0.66674  0.49816  Biso   1.000  O
  O14      1.0000 0.24635  0.60476  0.95396  Biso   1.000  O
  O15      1.0000 0.23259  0.83312  0.09592  Biso   1.000  O
  O16      1.0000 0.23412  0.90540  0.58967  Biso   1.000  O
  Zr9      1.0000 0.62550  0.99855  0.25080  Biso   1.000  Zr
  Zr10     1.0000 0.62550  0.26032  0.75079  Biso   1.000  Zr
  Zr11     1.0000 0.86795  0.25005  0.32864  Biso   1.000  Zr
  Zr12     1.0000 0.86032  0.01005  0.79536  Biso   1.000  Zr
  O17      1.0000 0.50527  0.14351  0.95232  Biso   1.000  O
  O18      1.0000 0.50100  0.10579  0.44633  Biso   1.000  O
  O19      1.0000 0.49919  0.35378  0.47867  Biso   1.000  O
  O20      1.0000 0.50545  0.39292  0.98239  Biso   1.000  O
  O21      1.0000 0.74574  0.14352  0.54929  Biso   1.000  O
  O22      1.0000 0.75001  0.10579  0.05529  Biso   1.000  O
  O23      1.0000 0.75180  0.35377  0.02294  Biso   1.000  O
  O24      1.0000 0.74555  0.39292  0.51921  Biso   1.000  O
  Zr13     1.0000 0.62550  0.49188  0.25081  Biso   1.000  Zr
  Zr14     1.0000 0.62549  0.74247  0.75083  Biso   1.000  Zr
  Zr15     1.0000 0.85458  0.73976  0.28306  Biso   1.000  Zr
  Zr16     1.0000 0.88054  0.49720  0.79657  Biso   1.000  Zr
  O25      1.0000 0.49822  0.63914  0.96045  Biso   1.000  O
  O26      1.0000 0.50634  0.60313  0.46837  Biso   1.000  O
  O27      1.0000 0.49850  0.85645  0.50409  Biso   1.000  O
  O28      1.0000 0.49644  0.88793  0.00382  Biso   1.000  O
  O29      1.0000 0.75276  0.63914  0.54118  Biso   1.000  O
  O30      1.0000 0.74465  0.60313  0.03326  Biso   1.000  O
  O31      1.0000 0.75251  0.85644  0.99751  Biso   1.000  O
  O32      1.0000 0.75457  0.88794  0.49778  Biso   1.000  O
  Sn1      1.0000 0.12551  0.29355  0.25083  Biso   1.000  Sn
