data_image0
_cell_length_a       10.1926
_cell_length_b       5.2109
_cell_length_c       10.6359
_cell_angle_alpha    89.688
_cell_angle_beta     92.6372
_cell_angle_gamma    89.913

_symmetry_space_group_name_H-M    "P 1"
_symmetry_int_tables_number       1

loop_
  _symmetry_equiv_pos_as_xyz
  'x, y, z'

loop_
  _atom_site_label
  _atom_site_occupancy
  _atom_site_fract_x
  _atom_site_fract_y
  _atom_site_fract_z
  _atom_site_thermal_displace_type
  _atom_site_B_iso_or_equiv
  _atom_site_type_symbol
  Zr1      1.0000 0.12853  0.03889  0.17706  Biso   1.000  Zr
  Zr2      1.0000 0.13604  0.45475  0.42844  Biso   1.000  Zr
  Zr3      1.0000 0.34248  0.53865  0.19326  Biso   1.000  Zr
  Zr4      1.0000 0.36218  0.95737  0.43009  Biso   1.000  Zr
  Zr5      1.0000 0.65112  0.04077  0.07182  Biso   1.000  Zr
  Zr6      1.0000 0.63657  0.46142  0.33052  Biso   1.000  Zr
  Zr7      1.0000 0.86023  0.53934  0.07635  Biso   1.000  Zr
  Zr8      1.0000 0.85883  0.95940  0.32876  Biso   1.000  Zr
  O1       1.0000 0.03068  0.33616  0.08812  Biso   1.000  O
  O2       1.0000 0.02701  0.17168  0.33765  Biso   1.000  O
  O3       1.0000 0.47197  0.87461  0.09972  Biso   1.000  O
  O4       1.0000 0.46502  0.67725  0.33876  Biso   1.000  O
  O5       1.0000 0.26576  0.25145  0.30408  Biso   1.000  O
  O6       1.0000 0.26087  0.22173  0.05501  Biso   1.000  O
  O7       1.0000 0.21699  0.75439  0.30943  Biso   1.000  O
  O8       1.0000 0.21419  0.74783  0.06211  Biso   1.000  O
  O9       1.0000 0.51845  0.31774  0.18800  Biso   1.000  O
  O10      1.0000 0.52925  0.17944  0.42394  Biso   1.000  O
  O11      1.0000 0.95869  0.83467  0.16821  Biso   1.000  O
  O12      1.0000 0.96787  0.67100  0.41860  Biso   1.000  O
  O13      1.0000 0.77528  0.25230  0.45078  Biso   1.000  O
  O14      1.0000 0.77196  0.25450  0.20114  Biso   1.000  O
  O15      1.0000 0.72808  0.75471  0.45421  Biso   1.000  O
  O16      1.0000 0.72204  0.74768  0.20443  Biso   1.000  O
  Zr9      1.0000 0.14683  0.04062  0.67636  Biso   1.000  Zr
  Zr10     1.0000 0.14544  0.46068  0.92877  Biso   1.000  Zr
  Zr11     1.0000 0.36909  0.53859  0.67459  Biso   1.000  Zr
  Zr12     1.0000 0.35455  0.95924  0.93329  Biso   1.000  Zr
  Zr13     1.0000 0.64348  0.04265  0.57502  Biso   1.000  Zr
  Zr14     1.0000 0.66318  0.46137  0.81185  Biso   1.000  Zr
  Zr15     1.0000 0.86962  0.54526  0.57667  Biso   1.000  Zr
  Zr16     1.0000 0.87713  0.96112  0.82805  Biso   1.000  Zr
  O17      1.0000 0.03779  0.32901  0.58651  Biso   1.000  O
  O18      1.0000 0.04697  0.16535  0.83690  Biso   1.000  O
  O19      1.0000 0.47641  0.82058  0.58118  Biso   1.000  O
  O20      1.0000 0.48721  0.68228  0.81711  Biso   1.000  O
  O21      1.0000 0.28363  0.25233  0.80068  Biso   1.000  O
  O22      1.0000 0.27757  0.24530  0.55090  Biso   1.000  O
  O23      1.0000 0.23370  0.74552  0.80397  Biso   1.000  O
  O24      1.0000 0.23038  0.74771  0.55433  Biso   1.000  O
  O25      1.0000 0.54064  0.32278  0.66635  Biso   1.000  O
  O26      1.0000 0.53369  0.12541  0.90539  Biso   1.000  O
  O27      1.0000 0.97865  0.82834  0.66746  Biso   1.000  O
  O28      1.0000 0.97498  0.66386  0.91700  Biso   1.000  O
  O29      1.0000 0.79147  0.25218  0.94301  Biso   1.000  O
  O30      1.0000 0.78867  0.24562  0.69569  Biso   1.000  O
  O31      1.0000 0.74479  0.77828  0.95010  Biso   1.000  O
  O32      1.0000 0.73990  0.74856  0.70104  Biso   1.000  O
  Sn1      1.0000 0.50283  0.50001  0.00256  Biso   1.000  Sn
