data_image0
_cell_length_a       10.1478
_cell_length_b       10.3621
_cell_length_c       10.5625
_cell_angle_alpha    89.917
_cell_angle_beta     91.314
_cell_angle_gamma    89.9584

_symmetry_space_group_name_H-M    "P 1"
_symmetry_int_tables_number       1

loop_
  _symmetry_equiv_pos_as_xyz
  'x, y, z'

loop_
  _atom_site_label
  _atom_site_occupancy
  _atom_site_fract_x
  _atom_site_fract_y
  _atom_site_fract_z
  _atom_site_thermal_displace_type
  _atom_site_B_iso_or_equiv
  _atom_site_type_symbol
  Zr1      1.0000 0.13321  0.01769  0.17467  Biso   1.000  Zr
  Zr2      1.0000 0.13689  0.22744  0.42772  Biso   1.000  Zr
  Zr3      1.0000 0.34016  0.26846  0.18979  Biso   1.000  Zr
  Zr4      1.0000 0.36169  0.48014  0.42410  Biso   1.000  Zr
  Zr5      1.0000 0.64454  0.01509  0.07391  Biso   1.000  Zr
  Zr6      1.0000 0.63589  0.22755  0.32907  Biso   1.000  Zr
  Zr7      1.0000 0.85993  0.27128  0.07576  Biso   1.000  Zr
  Zr8      1.0000 0.86035  0.47859  0.32758  Biso   1.000  Zr
  O1       1.0000 0.03143  0.16850  0.08799  Biso   1.000  O
  O2       1.0000 0.02896  0.08525  0.33578  Biso   1.000  O
  O3       1.0000 0.46614  0.43841  0.10170  Biso   1.000  O
  O4       1.0000 0.46291  0.33380  0.33640  Biso   1.000  O
  O5       1.0000 0.26723  0.12389  0.30377  Biso   1.000  O
  O6       1.0000 0.26296  0.11156  0.05297  Biso   1.000  O
  O7       1.0000 0.21546  0.37800  0.30554  Biso   1.000  O
  O8       1.0000 0.21535  0.37955  0.05543  Biso   1.000  O
  O9       1.0000 0.51669  0.14875  0.18477  Biso   1.000  O
  O10      1.0000 0.53036  0.08644  0.42365  Biso   1.000  O
  O11      1.0000 0.96257  0.41739  0.16714  Biso   1.000  O
  O12      1.0000 0.96828  0.33562  0.41745  Biso   1.000  O
  O13      1.0000 0.77460  0.12546  0.45142  Biso   1.000  O
  O14      1.0000 0.77007  0.12622  0.20140  Biso   1.000  O
  O15      1.0000 0.72557  0.37558  0.45246  Biso   1.000  O
  O16      1.0000 0.72069  0.37455  0.20351  Biso   1.000  O
  Zr9      1.0000 0.14264  0.02144  0.67486  Biso   1.000  Zr
  Zr10     1.0000 0.14306  0.22875  0.92668  Biso   1.000  Zr
  Zr11     1.0000 0.36710  0.27248  0.67337  Biso   1.000  Zr
  Zr12     1.0000 0.35845  0.48493  0.92853  Biso   1.000  Zr
  Zr13     1.0000 0.64130  0.01988  0.57834  Biso   1.000  Zr
  Zr14     1.0000 0.66283  0.23156  0.81266  Biso   1.000  Zr
  Zr15     1.0000 0.86610  0.27258  0.57473  Biso   1.000  Zr
  Zr16     1.0000 0.86978  0.48234  0.82778  Biso   1.000  Zr
  O17      1.0000 0.03470  0.16441  0.58499  Biso   1.000  O
  O18      1.0000 0.04042  0.08264  0.83530  Biso   1.000  O
  O19      1.0000 0.47263  0.41358  0.57879  Biso   1.000  O
  O20      1.0000 0.48630  0.35128  0.81768  Biso   1.000  O
  O21      1.0000 0.28229  0.12548  0.79893  Biso   1.000  O
  O22      1.0000 0.27742  0.12445  0.54998  Biso   1.000  O
  O23      1.0000 0.23292  0.37381  0.80105  Biso   1.000  O
  O24      1.0000 0.22839  0.37457  0.55103  Biso   1.000  O
  O25      1.0000 0.54008  0.16623  0.66605  Biso   1.000  O
  O26      1.0000 0.53685  0.06162  0.90074  Biso   1.000  O
  O27      1.0000 0.97403  0.41478  0.66667  Biso   1.000  O
  O28      1.0000 0.97156  0.33152  0.91446  Biso   1.000  O
  O29      1.0000 0.78764  0.12048  0.94701  Biso   1.000  O
  O30      1.0000 0.78753  0.12203  0.69691  Biso   1.000  O
  O31      1.0000 0.74002  0.38846  0.94947  Biso   1.000  O
  O32      1.0000 0.73575  0.37614  0.69867  Biso   1.000  O
  Zr17     1.0000 0.13500  0.52308  0.17380  Biso   1.000  Zr
  Zr18     1.0000 0.13816  0.72901  0.42273  Biso   1.000  Zr
  Zr19     1.0000 0.36258  0.77228  0.17515  Biso   1.000  Zr
  Zr20     1.0000 0.36201  0.97767  0.42689  Biso   1.000  Zr
  Zr21     1.0000 0.64270  0.52723  0.07900  Biso   1.000  Zr
  Zr22     1.0000 0.63951  0.73093  0.32913  Biso   1.000  Zr
  Zr23     1.0000 0.86239  0.76997  0.07939  Biso   1.000  Zr
  Zr24     1.0000 0.86016  0.98016  0.32965  Biso   1.000  Zr
  O33      1.0000 0.03303  0.66622  0.08391  Biso   1.000  O
  O34      1.0000 0.03050  0.58608  0.33523  Biso   1.000  O
  O35      1.0000 0.46977  0.91417  0.08382  Biso   1.000  O
  O36      1.0000 0.46899  0.83702  0.33630  Biso   1.000  O
  O37      1.0000 0.27405  0.62598  0.29622  Biso   1.000  O
  O38      1.0000 0.27455  0.62574  0.04670  Biso   1.000  O
  O39      1.0000 0.22498  0.87465  0.29902  Biso   1.000  O
  O40      1.0000 0.22475  0.87029  0.04968  Biso   1.000  O
  O41      1.0000 0.53676  0.67361  0.16675  Biso   1.000  O
  O42      1.0000 0.53208  0.58705  0.41589  Biso   1.000  O
  O43      1.0000 0.96337  0.91657  0.16690  Biso   1.000  O
  O44      1.0000 0.96725  0.83485  0.41728  Biso   1.000  O
  O45      1.0000 0.77622  0.62501  0.45424  Biso   1.000  O
  O46      1.0000 0.77720  0.62706  0.20505  Biso   1.000  O
  O47      1.0000 0.72685  0.87587  0.45602  Biso   1.000  O
  O48      1.0000 0.72536  0.87529  0.20552  Biso   1.000  O
  Zr25     1.0000 0.14283  0.51987  0.67279  Biso   1.000  Zr
  Zr26     1.0000 0.14060  0.73006  0.92305  Biso   1.000  Zr
  Zr27     1.0000 0.36348  0.76910  0.67332  Biso   1.000  Zr
  Zr28     1.0000 0.36029  0.97280  0.92345  Biso   1.000  Zr
  Zr29     1.0000 0.64098  0.52236  0.57555  Biso   1.000  Zr
  Zr30     1.0000 0.64041  0.72775  0.82730  Biso   1.000  Zr
  Zr31     1.0000 0.86483  0.77102  0.57972  Biso   1.000  Zr
  Zr32     1.0000 0.86799  0.97695  0.82865  Biso   1.000  Zr
  O49      1.0000 0.03573  0.66518  0.58516  Biso   1.000  O
  O50      1.0000 0.03962  0.58345  0.83555  Biso   1.000  O
  O51      1.0000 0.47091  0.91297  0.58655  Biso   1.000  O
  O52      1.0000 0.46623  0.82642  0.83570  Biso   1.000  O
  O53      1.0000 0.27763  0.62474  0.79692  Biso   1.000  O
  O54      1.0000 0.27614  0.62415  0.54642  Biso   1.000  O
  O55      1.0000 0.22579  0.87297  0.79740  Biso   1.000  O
  O56      1.0000 0.22677  0.87502  0.54820  Biso   1.000  O
  O57      1.0000 0.53400  0.66301  0.66614  Biso   1.000  O
  O58      1.0000 0.53322  0.58586  0.91863  Biso   1.000  O
  O59      1.0000 0.97249  0.91395  0.66721  Biso   1.000  O
  O60      1.0000 0.96996  0.83381  0.91854  Biso   1.000  O
  O61      1.0000 0.77824  0.62974  0.95277  Biso   1.000  O
  O62      1.0000 0.77801  0.62537  0.70342  Biso   1.000  O
  O63      1.0000 0.72844  0.87429  0.95575  Biso   1.000  O
  O64      1.0000 0.72894  0.87405  0.70623  Biso   1.000  O
  Sn1      1.0000 0.50150  0.25002  0.00122  Biso   1.000  Sn
