data_image0
_cell_length_a       10.0999
_cell_length_b       10.275
_cell_length_c       5.01665
_cell_angle_alpha    89.9986
_cell_angle_beta     89.9997
_cell_angle_gamma    90.0021

_symmetry_space_group_name_H-M    "P 1"
_symmetry_int_tables_number       1

loop_
  _symmetry_equiv_pos_as_xyz
  'x, y, z'

loop_
  _atom_site_label
  _atom_site_occupancy
  _atom_site_fract_x
  _atom_site_fract_y
  _atom_site_fract_z
  _atom_site_thermal_displace_type
  _atom_site_B_iso_or_equiv
  _atom_site_type_symbol
  Sr1      1.0000 0.12560  0.99998  0.25313  Biso   1.000  Sr
  Hf1      1.0000 0.12560  0.49999  0.25309  Biso   1.000  Hf
  Hf2      1.0000 0.62560  0.99999  0.25297  Biso   1.000  Hf
  Hf3      1.0000 0.62560  0.49999  0.25306  Biso   1.000  Hf
  Hf4      1.0000 0.12559  0.25616  0.75310  Biso   1.000  Hf
  Hf5      1.0000 0.12561  0.74381  0.75308  Biso   1.000  Hf
  Hf6      1.0000 0.62562  0.24620  0.75300  Biso   1.000  Hf
  Hf7      1.0000 0.62558  0.75377  0.75300  Biso   1.000  Hf
  Hf8      1.0000 0.37647  0.25372  0.25133  Biso   1.000  Hf
  Hf9      1.0000 0.37647  0.74624  0.25479  Biso   1.000  Hf
  Hf10     1.0000 0.87474  0.25374  0.25480  Biso   1.000  Hf
  Hf11     1.0000 0.87473  0.74626  0.25133  Biso   1.000  Hf
  Hf12     1.0000 0.37549  0.00005  0.75309  Biso   1.000  Hf
  Hf13     1.0000 0.37725  0.49997  0.75308  Biso   1.000  Hf
  Hf14     1.0000 0.87571  0.99992  0.75310  Biso   1.000  Hf
  Hf15     1.0000 0.87395  0.49999  0.75309  Biso   1.000  Hf
  O1       1.0000 0.99585  0.15107  0.00044  Biso   1.000  O
  O2       1.0000 0.00702  0.64003  0.02485  Biso   1.000  O
  O3       1.0000 0.51087  0.14979  0.02732  Biso   1.000  O
  O4       1.0000 0.50563  0.64689  0.00342  Biso   1.000  O
  O5       1.0000 0.98584  0.12333  0.52977  Biso   1.000  O
  O6       1.0000 0.99897  0.60402  0.51898  Biso   1.000  O
  O7       1.0000 0.50106  0.10058  0.51868  Biso   1.000  O
  O8       1.0000 0.49594  0.60200  0.50008  Biso   1.000  O
  O9       1.0000 0.00701  0.35994  0.48131  Biso   1.000  O
  O10      1.0000 0.99589  0.84886  0.50575  Biso   1.000  O
  O11      1.0000 0.50560  0.35309  0.50273  Biso   1.000  O
  O12      1.0000 0.51098  0.85016  0.47849  Biso   1.000  O
  O13      1.0000 0.99895  0.39594  0.98720  Biso   1.000  O
  O14      1.0000 0.98592  0.87664  0.97644  Biso   1.000  O
  O15      1.0000 0.49593  0.39797  0.00609  Biso   1.000  O
  O16      1.0000 0.50113  0.89938  0.98711  Biso   1.000  O
  O17      1.0000 0.25531  0.15111  0.50575  Biso   1.000  O
  O18      1.0000 0.24418  0.64004  0.48128  Biso   1.000  O
  O19      1.0000 0.74022  0.14982  0.47845  Biso   1.000  O
  O20      1.0000 0.74560  0.64689  0.50274  Biso   1.000  O
  O21      1.0000 0.26528  0.12333  0.97644  Biso   1.000  O
  O22      1.0000 0.25224  0.60403  0.98717  Biso   1.000  O
  O23      1.0000 0.75006  0.10058  0.98707  Biso   1.000  O
  O24      1.0000 0.75527  0.60200  0.00610  Biso   1.000  O
  O25      1.0000 0.24418  0.35994  0.02486  Biso   1.000  O
  O26      1.0000 0.25534  0.84890  0.00044  Biso   1.000  O
  O27      1.0000 0.74557  0.35308  0.00342  Biso   1.000  O
  O28      1.0000 0.74032  0.85018  0.02731  Biso   1.000  O
  O29      1.0000 0.25222  0.39595  0.51898  Biso   1.000  O
  O30      1.0000 0.26535  0.87664  0.52977  Biso   1.000  O
  O31      1.0000 0.75525  0.39797  0.50010  Biso   1.000  O
  O32      1.0000 0.75015  0.89939  0.51867  Biso   1.000  O
