data_image0
_cell_length_a       10.1243
_cell_length_b       10.3094
_cell_length_c       5.23915
_cell_angle_alpha    89.9266
_cell_angle_beta     90.1831
_cell_angle_gamma    90.2334

_symmetry_space_group_name_H-M    "P 1"
_symmetry_int_tables_number       1

loop_
  _symmetry_equiv_pos_as_xyz
  'x, y, z'

loop_
  _atom_site_label
  _atom_site_occupancy
  _atom_site_fract_x
  _atom_site_fract_y
  _atom_site_fract_z
  _atom_site_thermal_displace_type
  _atom_site_B_iso_or_equiv
  _atom_site_type_symbol
  Sr1      1.0000 0.13253  0.01087  0.32953  Biso   1.000  Sr
  Hf1      1.0000 0.14117  0.52002  0.34198  Biso   1.000  Hf
  Hf2      1.0000 0.13968  0.23044  0.84341  Biso   1.000  Hf
  Hf3      1.0000 0.14518  0.72712  0.84009  Biso   1.000  Hf
  Hf4      1.0000 0.35802  0.26665  0.34220  Biso   1.000  Hf
  Hf5      1.0000 0.36434  0.76847  0.33886  Biso   1.000  Hf
  Hf6      1.0000 0.36034  0.47611  0.84206  Biso   1.000  Hf
  Hf7      1.0000 0.36269  0.98008  0.83913  Biso   1.000  Hf
  Hf8      1.0000 0.63957  0.02148  0.16329  Biso   1.000  Hf
  Hf9      1.0000 0.63672  0.51845  0.15400  Biso   1.000  Hf
  Hf10     1.0000 0.63784  0.23017  0.65707  Biso   1.000  Hf
  Hf11     1.0000 0.63923  0.72737  0.65590  Biso   1.000  Hf
  Hf12     1.0000 0.85817  0.27359  0.15304  Biso   1.000  Hf
  Hf13     1.0000 0.86056  0.76489  0.15146  Biso   1.000  Hf
  Hf14     1.0000 0.86069  0.48048  0.65244  Biso   1.000  Hf
  Hf15     1.0000 0.85725  0.98139  0.67391  Biso   1.000  Hf
  O1       1.0000 0.03482  0.19690  0.17987  Biso   1.000  O
  O2       1.0000 0.03691  0.67095  0.17553  Biso   1.000  O
  O3       1.0000 0.02466  0.08242  0.72280  Biso   1.000  O
  O4       1.0000 0.03412  0.58210  0.67028  Biso   1.000  O
  O5       1.0000 0.46837  0.41065  0.16236  Biso   1.000  O
  O6       1.0000 0.47172  0.91453  0.16551  Biso   1.000  O
  O7       1.0000 0.46882  0.33701  0.66209  Biso   1.000  O
  O8       1.0000 0.47590  0.83938  0.65870  Biso   1.000  O
  O9       1.0000 0.28229  0.12923  0.60246  Biso   1.000  O
  O10      1.0000 0.27843  0.61887  0.58821  Biso   1.000  O
  O11      1.0000 0.28741  0.13382  0.07228  Biso   1.000  O
  O12      1.0000 0.27588  0.61931  0.09141  Biso   1.000  O
  O13      1.0000 0.22285  0.37359  0.58731  Biso   1.000  O
  O14      1.0000 0.23731  0.86071  0.59499  Biso   1.000  O
  O15      1.0000 0.22382  0.37785  0.08928  Biso   1.000  O
  O16      1.0000 0.24341  0.86079  0.06964  Biso   1.000  O
  O17      1.0000 0.53309  0.16467  0.33416  Biso   1.000  O
  O18      1.0000 0.53331  0.65992  0.33660  Biso   1.000  O
  O19      1.0000 0.53704  0.08332  0.83153  Biso   1.000  O
  O20      1.0000 0.52926  0.58709  0.83727  Biso   1.000  O
  O21      1.0000 0.96221  0.42662  0.31696  Biso   1.000  O
  O22      1.0000 0.92997  0.91769  0.33319  Biso   1.000  O
  O23      1.0000 0.96360  0.33530  0.81528  Biso   1.000  O
  O24      1.0000 0.97058  0.83219  0.83058  Biso   1.000  O
  O25      1.0000 0.77295  0.12716  0.91925  Biso   1.000  O
  O26      1.0000 0.77379  0.62163  0.90433  Biso   1.000  O
  O27      1.0000 0.77560  0.12877  0.41927  Biso   1.000  O
  O28      1.0000 0.77538  0.62707  0.40573  Biso   1.000  O
  O29      1.0000 0.72253  0.37623  0.90404  Biso   1.000  O
  O30      1.0000 0.72624  0.87269  0.91539  Biso   1.000  O
  O31      1.0000 0.72358  0.37729  0.40680  Biso   1.000  O
  O32      1.0000 0.71021  0.87664  0.41851  Biso   1.000  O
