data_image0
_cell_length_a       10.0579
_cell_length_b       5.16394
_cell_length_c       10.6588
_cell_angle_alpha    89.8582
_cell_angle_beta     91.4019
_cell_angle_gamma    90.3871

_symmetry_space_group_name_H-M    "P 1"
_symmetry_int_tables_number       1

loop_
  _symmetry_equiv_pos_as_xyz
  'x, y, z'

loop_
  _atom_site_label
  _atom_site_occupancy
  _atom_site_fract_x
  _atom_site_fract_y
  _atom_site_fract_z
  _atom_site_thermal_displace_type
  _atom_site_B_iso_or_equiv
  _atom_site_type_symbol
  Hf1      1.0000 0.13774  0.04407  0.17536  Biso   1.000  Hf
  Hf2      1.0000 0.13790  0.45012  0.42734  Biso   1.000  Hf
  Hf3      1.0000 0.34965  0.55092  0.19360  Biso   1.000  Hf
  Hf4      1.0000 0.36154  0.95465  0.42970  Biso   1.000  Hf
  Hf5      1.0000 0.64546  0.04997  0.08438  Biso   1.000  Hf
  Hf6      1.0000 0.63916  0.44959  0.33237  Biso   1.000  Hf
  Hf7      1.0000 0.86760  0.54129  0.07713  Biso   1.000  Hf
  Hf8      1.0000 0.86093  0.95348  0.32661  Biso   1.000  Hf
  O1       1.0000 0.03561  0.32044  0.08074  Biso   1.000  O
  O2       1.0000 0.03048  0.17235  0.33345  Biso   1.000  O
  O3       1.0000 0.44938  0.86949  0.10206  Biso   1.000  O
  O4       1.0000 0.46834  0.67054  0.34116  Biso   1.000  O
  O5       1.0000 0.27085  0.24934  0.30254  Biso   1.000  O
  O6       1.0000 0.28352  0.27322  0.04581  Biso   1.000  O
  O7       1.0000 0.21882  0.75250  0.30705  Biso   1.000  O
  O8       1.0000 0.21689  0.76143  0.05273  Biso   1.000  O
  O9       1.0000 0.52341  0.30224  0.19094  Biso   1.000  O
  O10      1.0000 0.53024  0.17265  0.42514  Biso   1.000  O
  O11      1.0000 0.96813  0.82578  0.17305  Biso   1.000  O
  O12      1.0000 0.97097  0.67406  0.42208  Biso   1.000  O
  O13      1.0000 0.77749  0.24462  0.45177  Biso   1.000  O
  O14      1.0000 0.78411  0.25047  0.20554  Biso   1.000  O
  O15      1.0000 0.72721  0.74590  0.45412  Biso   1.000  O
  O16      1.0000 0.72039  0.73731  0.20277  Biso   1.000  O
  Hf9      1.0000 0.14193  0.03930  0.67619  Biso   1.000  Hf
  Hf10     1.0000 0.14243  0.46429  0.92420  Biso   1.000  Hf
  Hf11     1.0000 0.36289  0.54162  0.67515  Biso   1.000  Hf
  Hf12     1.0000 0.35819  0.97014  0.92809  Biso   1.000  Hf
  Hf13     1.0000 0.64311  0.03186  0.57200  Biso   1.000  Hf
  Hf14     1.0000 0.65232  0.44745  0.79537  Biso   1.000  Hf
  Hf15     1.0000 0.86966  0.54289  0.57544  Biso   1.000  Hf
  Hf16     1.0000 0.86767  0.96181  0.83115  Biso   1.000  Hf
  O17      1.0000 0.03470  0.31977  0.58274  Biso   1.000  O
  O18      1.0000 0.03652  0.17675  0.83304  Biso   1.000  O
  O19      1.0000 0.47407  0.81184  0.58044  Biso   1.000  O
  O20      1.0000 0.47673  0.66946  0.82305  Biso   1.000  O
  O21      1.0000 0.27750  0.25241  0.79743  Biso   1.000  O
  O22      1.0000 0.27665  0.24492  0.54916  Biso   1.000  O
  O23      1.0000 0.22762  0.74792  0.80140  Biso   1.000  O
  O24      1.0000 0.22601  0.74769  0.55305  Biso   1.000  O
  O25      1.0000 0.53033  0.30572  0.66334  Biso   1.000  O
  O26      1.0000 0.53475  0.14630  0.91659  Biso   1.000  O
  O27      1.0000 0.97407  0.81876  0.67420  Biso   1.000  O
  O28      1.0000 0.97295  0.67514  0.92112  Biso   1.000  O
  O29      1.0000 0.77138  0.27171  0.94648  Biso   1.000  O
  O30      1.0000 0.78707  0.23559  0.69315  Biso   1.000  O
  O31      1.0000 0.73762  0.77456  0.95717  Biso   1.000  O
  O32      1.0000 0.73345  0.74773  0.70067  Biso   1.000  O
  Sr1      1.0000 0.55341  0.53855  0.01720  Biso   1.000  Sr
