data_image0
_cell_length_a       10.0728
_cell_length_b       10.3194
_cell_length_c       5.3193
_cell_angle_alpha    90.0831
_cell_angle_beta     91.2035
_cell_angle_gamma    90.4188

_symmetry_space_group_name_H-M    "P 1"
_symmetry_int_tables_number       1

loop_
  _symmetry_equiv_pos_as_xyz
  'x, y, z'

loop_
  _atom_site_label
  _atom_site_occupancy
  _atom_site_fract_x
  _atom_site_fract_y
  _atom_site_fract_z
  _atom_site_thermal_displace_type
  _atom_site_B_iso_or_equiv
  _atom_site_type_symbol
  Hf1      1.0000 0.14087  0.02048  0.35234  Biso   1.000  Hf
  Hf2      1.0000 0.14250  0.22776  0.85775  Biso   1.000  Hf
  Hf3      1.0000 0.34858  0.27508  0.38565  Biso   1.000  Hf
  Hf4      1.0000 0.35865  0.48696  0.85599  Biso   1.000  Hf
  Hf5      1.0000 0.64284  0.00344  0.15755  Biso   1.000  Hf
  Hf6      1.0000 0.65295  0.21846  0.60327  Biso   1.000  Hf
  Hf7      1.0000 0.87115  0.27256  0.14299  Biso   1.000  Hf
  Hf8      1.0000 0.86248  0.47843  0.65300  Biso   1.000  Hf
  O1       1.0000 0.03691  0.16109  0.16602  Biso   1.000  O
  O2       1.0000 0.03434  0.08743  0.66710  Biso   1.000  O
  O3       1.0000 0.45264  0.43981  0.19686  Biso   1.000  O
  O4       1.0000 0.47087  0.33606  0.67062  Biso   1.000  O
  O5       1.0000 0.27415  0.12457  0.60817  Biso   1.000  O
  O6       1.0000 0.28419  0.12889  0.10231  Biso   1.000  O
  O7       1.0000 0.21900  0.37750  0.61567  Biso   1.000  O
  O8       1.0000 0.22062  0.37667  0.10882  Biso   1.000  O
  O9       1.0000 0.52211  0.13062  0.37287  Biso   1.000  O
  O10      1.0000 0.53644  0.07280  0.83849  Biso   1.000  O
  O11      1.0000 0.96877  0.41256  0.34501  Biso   1.000  O
  O12      1.0000 0.97405  0.33676  0.84057  Biso   1.000  O
  O13      1.0000 0.77306  0.12753  0.90016  Biso   1.000  O
  O14      1.0000 0.78972  0.11810  0.38993  Biso   1.000  O
  O15      1.0000 0.73292  0.38176  0.89395  Biso   1.000  O
  O16      1.0000 0.71875  0.37246  0.38029  Biso   1.000  O
  Hf9      1.0000 0.13951  0.52199  0.35043  Biso   1.000  Hf
  Hf10     1.0000 0.13813  0.73019  0.84764  Biso   1.000  Hf
  Hf11     1.0000 0.36091  0.77122  0.35233  Biso   1.000  Hf
  Hf12     1.0000 0.36362  0.97525  0.85252  Biso   1.000  Hf
  Hf13     1.0000 0.64153  0.53634  0.15434  Biso   1.000  Hf
  Hf14     1.0000 0.64096  0.73034  0.65732  Biso   1.000  Hf
  Hf15     1.0000 0.86742  0.76990  0.16042  Biso   1.000  Hf
  Hf16     1.0000 0.86585  0.97981  0.66080  Biso   1.000  Hf
  O17      1.0000 0.03402  0.66174  0.16569  Biso   1.000  O
  O18      1.0000 0.03265  0.58746  0.66765  Biso   1.000  O
  O19      1.0000 0.47100  0.90127  0.15721  Biso   1.000  O
  O20      1.0000 0.46935  0.83547  0.66530  Biso   1.000  O
  O21      1.0000 0.27458  0.62697  0.59511  Biso   1.000  O
  O22      1.0000 0.27405  0.62939  0.09220  Biso   1.000  O
  O23      1.0000 0.22566  0.87447  0.59927  Biso   1.000  O
  O24      1.0000 0.22398  0.87818  0.10134  Biso   1.000  O
  O25      1.0000 0.53466  0.66944  0.34182  Biso   1.000  O
  O26      1.0000 0.53221  0.58949  0.83849  Biso   1.000  O
  O27      1.0000 0.97266  0.91128  0.34705  Biso   1.000  O
  O28      1.0000 0.97108  0.83884  0.84654  Biso   1.000  O
  O29      1.0000 0.77918  0.62902  0.90482  Biso   1.000  O
  O30      1.0000 0.78032  0.62570  0.41107  Biso   1.000  O
  O31      1.0000 0.72932  0.87296  0.91214  Biso   1.000  O
  O32      1.0000 0.73124  0.87027  0.41545  Biso   1.000  O
  Sr1      1.0000 0.55637  0.26555  0.04821  Biso   1.000  Sr
