data_image0
_cell_length_a       10.1044
_cell_length_b       5.14877
_cell_length_c       10.4847
_cell_angle_alpha    89.9818
_cell_angle_beta     90.5149
_cell_angle_gamma    90.3688

_symmetry_space_group_name_H-M    "P 1"
_symmetry_int_tables_number       1

loop_
  _symmetry_equiv_pos_as_xyz
  'x, y, z'

loop_
  _atom_site_label
  _atom_site_occupancy
  _atom_site_fract_x
  _atom_site_fract_y
  _atom_site_fract_z
  _atom_site_thermal_displace_type
  _atom_site_B_iso_or_equiv
  _atom_site_type_symbol
  Sr1      1.0000 0.12745  0.01389  0.16120  Biso   1.000  Sr
  Hf1      1.0000 0.14012  0.04171  0.67154  Biso   1.000  Hf
  Hf2      1.0000 0.14120  0.45118  0.42099  Biso   1.000  Hf
  Hf3      1.0000 0.14390  0.46230  0.91918  Biso   1.000  Hf
  Hf4      1.0000 0.36118  0.52663  0.16860  Biso   1.000  Hf
  Hf5      1.0000 0.36042  0.54078  0.67036  Biso   1.000  Hf
  Hf6      1.0000 0.35766  0.95614  0.41909  Biso   1.000  Hf
  Hf7      1.0000 0.36467  0.95864  0.92007  Biso   1.000  Hf
  Hf8      1.0000 0.64199  0.04006  0.07863  Biso   1.000  Hf
  Hf9      1.0000 0.63727  0.03951  0.58086  Biso   1.000  Hf
  Hf10     1.0000 0.63779  0.45526  0.33159  Biso   1.000  Hf
  Hf11     1.0000 0.63944  0.45888  0.82739  Biso   1.000  Hf
  Hf12     1.0000 0.86150  0.52965  0.07382  Biso   1.000  Hf
  Hf13     1.0000 0.86316  0.54227  0.58055  Biso   1.000  Hf
  Hf14     1.0000 0.85517  0.96591  0.33780  Biso   1.000  Hf
  Hf15     1.0000 0.86198  0.95800  0.82876  Biso   1.000  Hf
  O1       1.0000 0.04266  0.40927  0.09066  Biso   1.000  O
  O2       1.0000 0.03655  0.34752  0.59409  Biso   1.000  O
  O3       1.0000 0.02350  0.16400  0.35515  Biso   1.000  O
  O4       1.0000 0.03768  0.15330  0.84190  Biso   1.000  O
  O5       1.0000 0.47504  0.82024  0.08063  Biso   1.000  O
  O6       1.0000 0.46850  0.82172  0.57981  Biso   1.000  O
  O7       1.0000 0.47525  0.68317  0.32831  Biso   1.000  O
  O8       1.0000 0.47112  0.67354  0.82786  Biso   1.000  O
  O9       1.0000 0.28242  0.24650  0.30203  Biso   1.000  O
  O10      1.0000 0.27679  0.24893  0.79163  Biso   1.000  O
  O11      1.0000 0.28649  0.25096  0.03527  Biso   1.000  O
  O12      1.0000 0.27516  0.24796  0.54587  Biso   1.000  O
  O13      1.0000 0.23518  0.72007  0.30047  Biso   1.000  O
  O14      1.0000 0.22559  0.74851  0.79067  Biso   1.000  O
  O15      1.0000 0.24593  0.72638  0.03190  Biso   1.000  O
  O16      1.0000 0.22317  0.75313  0.54522  Biso   1.000  O
  O17      1.0000 0.53390  0.31926  0.16916  Biso   1.000  O
  O18      1.0000 0.53141  0.32432  0.66724  Biso   1.000  O
  O19      1.0000 0.53158  0.17073  0.41912  Biso   1.000  O
  O20      1.0000 0.53652  0.17224  0.91726  Biso   1.000  O
  O21      1.0000 0.91279  0.86617  0.15608  Biso   1.000  O
  O22      1.0000 0.96430  0.84587  0.66104  Biso   1.000  O
  O23      1.0000 0.96571  0.66360  0.41142  Biso   1.000  O
  O24      1.0000 0.96511  0.65845  0.90516  Biso   1.000  O
  O25      1.0000 0.77783  0.24275  0.95413  Biso   1.000  O
  O26      1.0000 0.77201  0.25067  0.46015  Biso   1.000  O
  O27      1.0000 0.77547  0.26887  0.20998  Biso   1.000  O
  O28      1.0000 0.77615  0.25362  0.70629  Biso   1.000  O
  O29      1.0000 0.72410  0.74546  0.95377  Biso   1.000  O
  O30      1.0000 0.72488  0.74827  0.45927  Biso   1.000  O
  O31      1.0000 0.70670  0.76317  0.21302  Biso   1.000  O
  O32      1.0000 0.72563  0.75054  0.70502  Biso   1.000  O
