data_image0
_cell_length_a       10.2034
_cell_length_b       10.3425
_cell_length_c       5.12938
_cell_angle_alpha    83.883
_cell_angle_beta     90.5442
_cell_angle_gamma    88.9393

_symmetry_space_group_name_H-M    "P 1"
_symmetry_int_tables_number       1

loop_
  _symmetry_equiv_pos_as_xyz
  'x, y, z'

loop_
  _atom_site_label
  _atom_site_occupancy
  _atom_site_fract_x
  _atom_site_fract_y
  _atom_site_fract_z
  _atom_site_thermal_displace_type
  _atom_site_B_iso_or_equiv
  _atom_site_type_symbol
  Hf1      1.0000 0.14139  0.96962  0.24936  Biso   1.000  Hf
  Hf2      1.0000 0.14566  0.22717  0.63119  Biso   1.000  Hf
  Hf3      1.0000 0.41476  0.26395  0.24547  Biso   1.000  Hf
  Hf4      1.0000 0.37083  0.99696  0.72977  Biso   1.000  Hf
  O1       1.0000 0.96720  0.18774  0.86279  Biso   1.000  O
  O2       1.0000 0.01074  0.12461  0.39771  Biso   1.000  O
  O3       1.0000 0.03127  0.39715  0.60610  Biso   1.000  O
  O4       1.0000 0.95233  0.42412  0.10260  Biso   1.000  O
  O5       1.0000 0.26610  0.11997  0.38289  Biso   1.000  O
  O6       1.0000 0.19906  0.05851  0.88693  Biso   1.000  O
  O7       1.0000 0.31477  0.28346  0.86780  Biso   1.000  O
  O8       1.0000 0.26004  0.38282  0.41105  Biso   1.000  O
  Hf5      1.0000 0.09537  0.53156  0.30900  Biso   1.000  Hf
  Hf6      1.0000 0.13880  0.72549  0.77701  Biso   1.000  Hf
  Hf7      1.0000 0.39489  0.75920  0.31045  Biso   1.000  Hf
  Hf8      1.0000 0.35818  0.47192  0.71750  Biso   1.000  Hf
  O9       1.0000 0.00715  0.68345  0.07867  Biso   1.000  O
  O10      1.0000 0.98565  0.63299  0.57628  Biso   1.000  O
  O11      1.0000 0.01722  0.87257  0.55279  Biso   1.000  O
  O12      1.0000 0.96916  0.92798  0.06663  Biso   1.000  O
  O13      1.0000 0.24699  0.63053  0.48868  Biso   1.000  O
  O14      1.0000 0.21128  0.54505  0.95949  Biso   1.000  O
  O15      1.0000 0.23293  0.81617  0.06366  Biso   1.000  O
  O16      1.0000 0.26337  0.86968  0.54416  Biso   1.000  O
  Hf9      1.0000 0.62602  0.99565  0.25558  Biso   1.000  Hf
  Hf10     1.0000 0.64295  0.22949  0.70884  Biso   1.000  Hf
  Hf11     1.0000 0.84922  0.24223  0.18202  Biso   1.000  Hf
  Hf12     1.0000 0.90205  0.02108  0.72138  Biso   1.000  Hf
  O17      1.0000 0.53740  0.16370  0.03725  Biso   1.000  O
  O18      1.0000 0.50720  0.11028  0.52824  Biso   1.000  O
  O19      1.0000 0.51402  0.36497  0.52657  Biso   1.000  O
  O20      1.0000 0.47840  0.43450  0.04575  Biso   1.000  O
  O21      1.0000 0.75341  0.12660  0.46659  Biso   1.000  O
  O22      1.0000 0.75720  0.08993  0.97652  Biso   1.000  O
  O23      1.0000 0.72742  0.35018  0.94272  Biso   1.000  O
  O24      1.0000 0.76259  0.37703  0.45741  Biso   1.000  O
  Hf13     1.0000 0.61424  0.51787  0.27385  Biso   1.000  Hf
  Hf14     1.0000 0.64689  0.73985  0.77729  Biso   1.000  Hf
  Hf15     1.0000 0.88019  0.77659  0.31137  Biso   1.000  Hf
  Hf16     1.0000 0.85814  0.48301  0.73812  Biso   1.000  Hf
  O25      1.0000 0.51150  0.67968  0.05751  Biso   1.000  O
  O26      1.0000 0.49745  0.60832  0.55180  Biso   1.000  O
  O27      1.0000 0.51187  0.86200  0.54990  Biso   1.000  O
  O28      1.0000 0.45821  0.93191  0.07366  Biso   1.000  O
  O29      1.0000 0.74408  0.63591  0.49411  Biso   1.000  O
  O30      1.0000 0.74471  0.58964  0.98863  Biso   1.000  O
  O31      1.0000 0.71474  0.84101  0.08443  Biso   1.000  O
  O32      1.0000 0.76592  0.88700  0.56411  Biso   1.000  O
  Sr1      1.0000 0.12867  0.28389  0.10504  Biso   1.000  Sr
