data_image0
_cell_length_a       10.1562
_cell_length_b       5.19072
_cell_length_c       10.6487
_cell_angle_alpha    89.7591
_cell_angle_beta     79.1016
_cell_angle_gamma    90.2049

_symmetry_space_group_name_H-M    "P 1"
_symmetry_int_tables_number       1

loop_
  _symmetry_equiv_pos_as_xyz
  'x, y, z'

loop_
  _atom_site_label
  _atom_site_occupancy
  _atom_site_fract_x
  _atom_site_fract_y
  _atom_site_fract_z
  _atom_site_thermal_displace_type
  _atom_site_B_iso_or_equiv
  _atom_site_type_symbol
  Hf1      1.0000 0.13368  0.04127  0.14832  Biso   1.000  Hf
  Hf2      1.0000 0.13104  0.45451  0.39515  Biso   1.000  Hf
  Hf3      1.0000 0.34193  0.55055  0.07757  Biso   1.000  Hf
  Hf4      1.0000 0.35680  0.96140  0.35908  Biso   1.000  Hf
  O1       1.0000 0.03239  0.33041  0.07683  Biso   1.000  O
  O2       1.0000 0.02772  0.16439  0.32912  Biso   1.000  O
  O3       1.0000 0.45915  0.86021  0.16595  Biso   1.000  O
  O4       1.0000 0.47527  0.70655  0.44761  Biso   1.000  O
  O5       1.0000 0.26768  0.24753  0.23757  Biso   1.000  O
  O6       1.0000 0.28256  0.26345  0.48459  Biso   1.000  O
  O7       1.0000 0.20765  0.77278  0.00077  Biso   1.000  O
  O8       1.0000 0.22565  0.72726  0.25669  Biso   1.000  O
  Hf5      1.0000 0.13831  0.04689  0.64475  Biso   1.000  Hf
  Hf6      1.0000 0.13127  0.45563  0.89224  Biso   1.000  Hf
  Hf7      1.0000 0.36080  0.55508  0.60797  Biso   1.000  Hf
  Hf8      1.0000 0.35666  0.96491  0.85053  Biso   1.000  Hf
  O9       1.0000 0.03628  0.33622  0.57902  Biso   1.000  O
  O10      1.0000 0.03054  0.16726  0.82631  Biso   1.000  O
  O11      1.0000 0.46760  0.83065  0.68140  Biso   1.000  O
  O12      1.0000 0.46408  0.67877  0.91832  Biso   1.000  O
  O13      1.0000 0.27368  0.25667  0.73818  Biso   1.000  O
  O14      1.0000 0.27044  0.24575  0.98565  Biso   1.000  O
  O15      1.0000 0.21976  0.76530  0.50999  Biso   1.000  O
  O16      1.0000 0.22140  0.74338  0.75750  Biso   1.000  O
  Hf9      1.0000 0.63887  0.03432  0.14750  Biso   1.000  Hf
  Hf10     1.0000 0.65234  0.44918  0.41835  Biso   1.000  Hf
  Hf11     1.0000 0.85826  0.53752  0.10809  Biso   1.000  Hf
  Hf12     1.0000 0.85497  0.95255  0.35614  Biso   1.000  Hf
  O17      1.0000 0.52850  0.33344  0.07190  Biso   1.000  O
  O18      1.0000 0.55047  0.12980  0.33974  Biso   1.000  O
  O19      1.0000 0.96159  0.82420  0.17737  Biso   1.000  O
  O20      1.0000 0.96156  0.66489  0.42510  Biso   1.000  O
  O21      1.0000 0.77919  0.25200  0.24380  Biso   1.000  O
  O22      1.0000 0.78543  0.23155  0.50153  Biso   1.000  O
  O23      1.0000 0.72110  0.75263  0.01434  Biso   1.000  O
  O24      1.0000 0.71652  0.72595  0.26322  Biso   1.000  O
  Hf13     1.0000 0.63898  0.04304  0.65319  Biso   1.000  Hf
  Hf14     1.0000 0.63660  0.45495  0.89903  Biso   1.000  Hf
  Hf15     1.0000 0.86306  0.54649  0.61117  Biso   1.000  Hf
  Hf16     1.0000 0.85825  0.95579  0.85818  Biso   1.000  Hf
  O25      1.0000 0.53368  0.33102  0.58570  Biso   1.000  O
  O26      1.0000 0.52964  0.17645  0.82858  Biso   1.000  O
  O27      1.0000 0.96629  0.83378  0.67622  Biso   1.000  O
  O28      1.0000 0.96045  0.66420  0.92375  Biso   1.000  O
  O29      1.0000 0.77518  0.26036  0.74661  Biso   1.000  O
  O30      1.0000 0.77423  0.24053  0.99402  Biso   1.000  O
  O31      1.0000 0.72623  0.75437  0.51895  Biso   1.000  O
  O32      1.0000 0.72342  0.74618  0.76554  Biso   1.000  O
  Sr1      1.0000 0.45416  0.47792  0.27581  Biso   1.000  Sr
