data_image0
_cell_length_a       10.1459
_cell_length_b       10.3159
_cell_length_c       10.551
_cell_angle_alpha    89.8429
_cell_angle_beta     79.6561
_cell_angle_gamma    90.1023

_symmetry_space_group_name_H-M    "P 1"
_symmetry_int_tables_number       1

loop_
  _symmetry_equiv_pos_as_xyz
  'x, y, z'

loop_
  _atom_site_label
  _atom_site_occupancy
  _atom_site_fract_x
  _atom_site_fract_y
  _atom_site_fract_z
  _atom_site_thermal_displace_type
  _atom_site_B_iso_or_equiv
  _atom_site_type_symbol
  Hf1      1.0000 0.13435  0.02016  0.14534  Biso   1.000  Hf
  Hf2      1.0000 0.13351  0.22673  0.39376  Biso   1.000  Hf
  Hf3      1.0000 0.34334  0.27267  0.07882  Biso   1.000  Hf
  Hf4      1.0000 0.35833  0.49218  0.35721  Biso   1.000  Hf
  O1       1.0000 0.03352  0.16766  0.07606  Biso   1.000  O
  O2       1.0000 0.02979  0.08228  0.32808  Biso   1.000  O
  O3       1.0000 0.45890  0.42757  0.16301  Biso   1.000  O
  O4       1.0000 0.47890  0.36488  0.44575  Biso   1.000  O
  O5       1.0000 0.26965  0.12319  0.23300  Biso   1.000  O
  O6       1.0000 0.28730  0.12746  0.47851  Biso   1.000  O
  O7       1.0000 0.21025  0.38628  0.00142  Biso   1.000  O
  O8       1.0000 0.22799  0.36690  0.25768  Biso   1.000  O
  Hf5      1.0000 0.14008  0.02210  0.64390  Biso   1.000  Hf
  Hf6      1.0000 0.13272  0.22817  0.88991  Biso   1.000  Hf
  Hf7      1.0000 0.36233  0.27900  0.60529  Biso   1.000  Hf
  Hf8      1.0000 0.35856  0.48310  0.85302  Biso   1.000  Hf
  O9       1.0000 0.04039  0.16946  0.57897  Biso   1.000  O
  O10      1.0000 0.03261  0.08200  0.82590  Biso   1.000  O
  O11      1.0000 0.46689  0.41726  0.68148  Biso   1.000  O
  O12      1.0000 0.46412  0.33502  0.91683  Biso   1.000  O
  O13      1.0000 0.27506  0.12885  0.73575  Biso   1.000  O
  O14      1.0000 0.26987  0.11969  0.98266  Biso   1.000  O
  O15      1.0000 0.22289  0.38124  0.50787  Biso   1.000  O
  O16      1.0000 0.22273  0.37231  0.75711  Biso   1.000  O
  Hf9      1.0000 0.13775  0.52171  0.14817  Biso   1.000  Hf
  Hf10     1.0000 0.13422  0.72929  0.39694  Biso   1.000  Hf
  Hf11     1.0000 0.35896  0.77248  0.10330  Biso   1.000  Hf
  Hf12     1.0000 0.36207  0.96732  0.35457  Biso   1.000  Hf
  O17      1.0000 0.03351  0.66542  0.07959  Biso   1.000  O
  O18      1.0000 0.03291  0.58173  0.33019  Biso   1.000  O
  O19      1.0000 0.46502  0.91541  0.17356  Biso   1.000  O
  O20      1.0000 0.46256  0.82473  0.42414  Biso   1.000  O
  O21      1.0000 0.27323  0.63052  0.24180  Biso   1.000  O
  O22      1.0000 0.27191  0.62629  0.49335  Biso   1.000  O
  O23      1.0000 0.22181  0.87895  0.00944  Biso   1.000  O
  O24      1.0000 0.22010  0.86849  0.25929  Biso   1.000  O
  Hf13     1.0000 0.13717  0.52252  0.64634  Biso   1.000  Hf
  Hf14     1.0000 0.13697  0.72820  0.89737  Biso   1.000  Hf
  Hf15     1.0000 0.36098  0.77110  0.60609  Biso   1.000  Hf
  Hf16     1.0000 0.35962  0.97753  0.85190  Biso   1.000  Hf
  O25      1.0000 0.03139  0.66697  0.57933  Biso   1.000  O
  O26      1.0000 0.03330  0.58334  0.82930  Biso   1.000  O
  O27      1.0000 0.46511  0.91673  0.67132  Biso   1.000  O
  O28      1.0000 0.46430  0.83491  0.92178  Biso   1.000  O
  O29      1.0000 0.27517  0.62861  0.74129  Biso   1.000  O
  O30      1.0000 0.27589  0.62415  0.99215  Biso   1.000  O
  O31      1.0000 0.22290  0.88031  0.51085  Biso   1.000  O
  O32      1.0000 0.22239  0.87049  0.75994  Biso   1.000  O
  Hf17     1.0000 0.64100  0.01597  0.14827  Biso   1.000  Hf
  Hf18     1.0000 0.65551  0.22710  0.41629  Biso   1.000  Hf
  Hf19     1.0000 0.85901  0.27113  0.10688  Biso   1.000  Hf
  Hf20     1.0000 0.85905  0.47827  0.35510  Biso   1.000  Hf
  O33      1.0000 0.52896  0.16252  0.07458  Biso   1.000  O
  O34      1.0000 0.55235  0.05916  0.34285  Biso   1.000  O
  O35      1.0000 0.96387  0.41561  0.17428  Biso   1.000  O
  O36      1.0000 0.96258  0.33111  0.42293  Biso   1.000  O
  O37      1.0000 0.77808  0.12875  0.24304  Biso   1.000  O
  O38      1.0000 0.78813  0.11548  0.50115  Biso   1.000  O
  O39      1.0000 0.72117  0.37783  0.01351  Biso   1.000  O
  O40      1.0000 0.71753  0.36817  0.26416  Biso   1.000  O
  Hf21     1.0000 0.63897  0.02061  0.64878  Biso   1.000  Hf
  Hf22     1.0000 0.63769  0.22644  0.89826  Biso   1.000  Hf
  Hf23     1.0000 0.86391  0.27188  0.61041  Biso   1.000  Hf
  Hf24     1.0000 0.85895  0.47878  0.85675  Biso   1.000  Hf
  O41      1.0000 0.53690  0.17004  0.58451  Biso   1.000  O
  O42      1.0000 0.53226  0.08317  0.82812  Biso   1.000  O
  O43      1.0000 0.96603  0.41755  0.67444  Biso   1.000  O
  O44      1.0000 0.96046  0.33130  0.92120  Biso   1.000  O
  O45      1.0000 0.77591  0.12913  0.74562  Biso   1.000  O
  O46      1.0000 0.77565  0.12043  0.99360  Biso   1.000  O
  O47      1.0000 0.72922  0.38030  0.51764  Biso   1.000  O
  O48      1.0000 0.72384  0.37157  0.76420  Biso   1.000  O
  Hf25     1.0000 0.63490  0.52316  0.14520  Biso   1.000  Hf
  Hf26     1.0000 0.63962  0.72673  0.39779  Biso   1.000  Hf
  Hf27     1.0000 0.86019  0.76922  0.10534  Biso   1.000  Hf
  Hf28     1.0000 0.85667  0.97660  0.35523  Biso   1.000  Hf
  O49      1.0000 0.53427  0.67142  0.07817  Biso   1.000  O
  O50      1.0000 0.53307  0.58959  0.32400  Biso   1.000  O
  O51      1.0000 0.96253  0.91431  0.17387  Biso   1.000  O
  O52      1.0000 0.96306  0.83312  0.42323  Biso   1.000  O
  O53      1.0000 0.77671  0.62585  0.24136  Biso   1.000  O
  O54      1.0000 0.77523  0.62046  0.49138  Biso   1.000  O
  O55      1.0000 0.72340  0.87722  0.01077  Biso   1.000  O
  O56      1.0000 0.72350  0.86620  0.25932  Biso   1.000  O
  Hf29     1.0000 0.63841  0.52273  0.64971  Biso   1.000  Hf
  Hf30     1.0000 0.63725  0.72951  0.89739  Biso   1.000  Hf
  Hf31     1.0000 0.86003  0.77281  0.60591  Biso   1.000  Hf
  Hf32     1.0000 0.86002  0.97778  0.85571  Biso   1.000  Hf
  O57      1.0000 0.53290  0.66471  0.58027  Biso   1.000  O
  O58      1.0000 0.53268  0.58623  0.83044  Biso   1.000  O
  O59      1.0000 0.96544  0.91724  0.67282  Biso   1.000  O
  O60      1.0000 0.96491  0.83304  0.92347  Biso   1.000  O
  O61      1.0000 0.77528  0.62976  0.74184  Biso   1.000  O
  O62      1.0000 0.77448  0.62081  0.99102  Biso   1.000  O
  O63      1.0000 0.72145  0.87602  0.51196  Biso   1.000  O
  O64      1.0000 0.72313  0.87237  0.76156  Biso   1.000  O
  Sr1      1.0000 0.45177  0.23743  0.28131  Biso   1.000  Sr
