data_image0
_cell_length_a       10.2112
_cell_length_b       5.1615
_cell_length_c       10.4687
_cell_angle_alpha    90.0377
_cell_angle_beta     80.6172
_cell_angle_gamma    90.4138

_symmetry_space_group_name_H-M    "P 1"
_symmetry_int_tables_number       1

loop_
  _symmetry_equiv_pos_as_xyz
  'x, y, z'

loop_
  _atom_site_label
  _atom_site_occupancy
  _atom_site_fract_x
  _atom_site_fract_y
  _atom_site_fract_z
  _atom_site_thermal_displace_type
  _atom_site_B_iso_or_equiv
  _atom_site_type_symbol
  Sr1      1.0000 0.12879  0.01672  0.13870  Biso   1.000  Sr
  Hf1      1.0000 0.14034  0.04280  0.64550  Biso   1.000  Hf
  Hf2      1.0000 0.64130  0.03589  0.14647  Biso   1.000  Hf
  Hf3      1.0000 0.63991  0.04160  0.64757  Biso   1.000  Hf
  Hf4      1.0000 0.14073  0.45016  0.39475  Biso   1.000  Hf
  Hf5      1.0000 0.14290  0.46407  0.89405  Biso   1.000  Hf
  Hf6      1.0000 0.63373  0.45557  0.39920  Biso   1.000  Hf
  Hf7      1.0000 0.64344  0.45792  0.89546  Biso   1.000  Hf
  Hf8      1.0000 0.36254  0.52644  0.10251  Biso   1.000  Hf
  Hf9      1.0000 0.35895  0.54296  0.60325  Biso   1.000  Hf
  Hf10     1.0000 0.86000  0.53210  0.10099  Biso   1.000  Hf
  Hf11     1.0000 0.86344  0.54311  0.60433  Biso   1.000  Hf
  Hf12     1.0000 0.35822  0.95574  0.35081  Biso   1.000  Hf
  Hf13     1.0000 0.36387  0.95723  0.85280  Biso   1.000  Hf
  Hf14     1.0000 0.85452  0.96241  0.36158  Biso   1.000  Hf
  Hf15     1.0000 0.86307  0.95754  0.85391  Biso   1.000  Hf
  O1       1.0000 0.04320  0.41321  0.08426  Biso   1.000  O
  O2       1.0000 0.03852  0.35076  0.58754  Biso   1.000  O
  O3       1.0000 0.53879  0.33032  0.07816  Biso   1.000  O
  O4       1.0000 0.53156  0.33159  0.58173  Biso   1.000  O
  O5       1.0000 0.02351  0.16281  0.35056  Biso   1.000  O
  O6       1.0000 0.03996  0.15054  0.83618  Biso   1.000  O
  O7       1.0000 0.53425  0.16075  0.32981  Biso   1.000  O
  O8       1.0000 0.53953  0.16356  0.82857  Biso   1.000  O
  O9       1.0000 0.46823  0.83026  0.16857  Biso   1.000  O
  O10      1.0000 0.46729  0.83162  0.67020  Biso   1.000  O
  O11      1.0000 0.91481  0.87003  0.16897  Biso   1.000  O
  O12      1.0000 0.96365  0.84855  0.66612  Biso   1.000  O
  O13      1.0000 0.46375  0.66316  0.42210  Biso   1.000  O
  O14      1.0000 0.47846  0.67343  0.91912  Biso   1.000  O
  O15      1.0000 0.96432  0.66115  0.41619  Biso   1.000  O
  O16      1.0000 0.96182  0.65297  0.91042  Biso   1.000  O
  O17      1.0000 0.28350  0.25318  0.24620  Biso   1.000  O
  O18      1.0000 0.27690  0.25864  0.73759  Biso   1.000  O
  O19      1.0000 0.77176  0.26996  0.24544  Biso   1.000  O
  O20      1.0000 0.77924  0.25896  0.74067  Biso   1.000  O
  O21      1.0000 0.27482  0.24012  0.49158  Biso   1.000  O
  O22      1.0000 0.28722  0.24729  0.97862  Biso   1.000  O
  O23      1.0000 0.77073  0.24531  0.49510  Biso   1.000  O
  O24      1.0000 0.77757  0.23640  0.99086  Biso   1.000  O
  O25      1.0000 0.24505  0.73334  0.99183  Biso   1.000  O
  O26      1.0000 0.22350  0.75927  0.50865  Biso   1.000  O
  O27      1.0000 0.72450  0.75498  0.00814  Biso   1.000  O
  O28      1.0000 0.72425  0.75713  0.51251  Biso   1.000  O
  O29      1.0000 0.23521  0.71464  0.26137  Biso   1.000  O
  O30      1.0000 0.22434  0.74480  0.75437  Biso   1.000  O
  O31      1.0000 0.70650  0.74749  0.26868  Biso   1.000  O
  O32      1.0000 0.72748  0.74153  0.75799  Biso   1.000  O
