data_image0
_cell_length_a       10.1868
_cell_length_b       10.3615
_cell_length_c       5.238
_cell_angle_alpha    90.0241
_cell_angle_beta     80.5604
_cell_angle_gamma    90.3594

_symmetry_space_group_name_H-M    "P 1"
_symmetry_int_tables_number       1

loop_
  _symmetry_equiv_pos_as_xyz
  'x, y, z'

loop_
  _atom_site_label
  _atom_site_occupancy
  _atom_site_fract_x
  _atom_site_fract_y
  _atom_site_fract_z
  _atom_site_thermal_displace_type
  _atom_site_B_iso_or_equiv
  _atom_site_type_symbol
  Sr1      1.0000 0.13075  0.01142  0.28284  Biso   1.000  Sr
  Hf1      1.0000 0.14143  0.52002  0.28756  Biso   1.000  Hf
  Hf2      1.0000 0.64115  0.02200  0.29592  Biso   1.000  Hf
  Hf3      1.0000 0.63727  0.51785  0.29138  Biso   1.000  Hf
  Hf4      1.0000 0.13810  0.23064  0.79205  Biso   1.000  Hf
  Hf5      1.0000 0.14497  0.72632  0.78620  Biso   1.000  Hf
  Hf6      1.0000 0.63820  0.23013  0.79423  Biso   1.000  Hf
  Hf7      1.0000 0.63811  0.72554  0.79174  Biso   1.000  Hf
  Hf8      1.0000 0.35861  0.26684  0.20742  Biso   1.000  Hf
  Hf9      1.0000 0.36457  0.76957  0.20746  Biso   1.000  Hf
  Hf10     1.0000 0.85871  0.27372  0.20715  Biso   1.000  Hf
  Hf11     1.0000 0.86105  0.76350  0.20041  Biso   1.000  Hf
  Hf12     1.0000 0.36046  0.47573  0.70542  Biso   1.000  Hf
  Hf13     1.0000 0.36174  0.98009  0.70226  Biso   1.000  Hf
  Hf14     1.0000 0.86136  0.47966  0.70485  Biso   1.000  Hf
  Hf15     1.0000 0.85731  0.97933  0.72764  Biso   1.000  Hf
  O1       1.0000 0.03809  0.20070  0.16981  Biso   1.000  O
  O2       1.0000 0.04055  0.67430  0.16526  Biso   1.000  O
  O3       1.0000 0.53501  0.16756  0.15960  Biso   1.000  O
  O4       1.0000 0.53651  0.66516  0.15615  Biso   1.000  O
  O5       1.0000 0.02785  0.07859  0.71567  Biso   1.000  O
  O6       1.0000 0.03691  0.57911  0.65974  Biso   1.000  O
  O7       1.0000 0.53788  0.08254  0.65823  Biso   1.000  O
  O8       1.0000 0.53369  0.58139  0.65528  Biso   1.000  O
  O9       1.0000 0.46505  0.41479  0.34093  Biso   1.000  O
  O10      1.0000 0.46884  0.91823  0.33785  Biso   1.000  O
  O11      1.0000 0.95890  0.43044  0.32700  Biso   1.000  O
  O12      1.0000 0.92514  0.92032  0.35496  Biso   1.000  O
  O13      1.0000 0.46705  0.33350  0.84122  Biso   1.000  O
  O14      1.0000 0.47459  0.83657  0.84005  Biso   1.000  O
  O15      1.0000 0.96013  0.33146  0.82520  Biso   1.000  O
  O16      1.0000 0.96779  0.82865  0.83857  Biso   1.000  O
  O17      1.0000 0.28379  0.13430  0.49309  Biso   1.000  O
  O18      1.0000 0.27845  0.62309  0.47519  Biso   1.000  O
  O19      1.0000 0.77667  0.13245  0.48935  Biso   1.000  O
  O20      1.0000 0.77436  0.63002  0.47933  Biso   1.000  O
  O21      1.0000 0.28515  0.12816  0.96263  Biso   1.000  O
  O22      1.0000 0.27776  0.61673  0.97783  Biso   1.000  O
  O23      1.0000 0.77290  0.12277  0.99037  Biso   1.000  O
  O24      1.0000 0.77536  0.61831  0.97775  Biso   1.000  O
  O25      1.0000 0.22561  0.38017  0.01439  Biso   1.000  O
  O26      1.0000 0.24181  0.86493  0.99294  Biso   1.000  O
  O27      1.0000 0.72224  0.38013  0.01703  Biso   1.000  O
  O28      1.0000 0.72553  0.87684  0.02448  Biso   1.000  O
  O29      1.0000 0.22118  0.37177  0.51396  Biso   1.000  O
  O30      1.0000 0.23744  0.85811  0.51937  Biso   1.000  O
  O31      1.0000 0.72298  0.37269  0.51840  Biso   1.000  O
  O32      1.0000 0.70987  0.87263  0.53445  Biso   1.000  O
