data_image0
_cell_length_a       10.03
_cell_length_b       10.4198
_cell_length_c       10.0899
_cell_angle_alpha    89.6728
_cell_angle_beta     90.0904
_cell_angle_gamma    90.3476

_symmetry_space_group_name_H-M    "P 1"
_symmetry_int_tables_number       1

loop_
  _symmetry_equiv_pos_as_xyz
  'x, y, z'

loop_
  _atom_site_label
  _atom_site_occupancy
  _atom_site_fract_x
  _atom_site_fract_y
  _atom_site_fract_z
  _atom_site_thermal_displace_type
  _atom_site_B_iso_or_equiv
  _atom_site_type_symbol
  Hf1      1.0000 0.14179  0.98382  0.11084  Biso   1.000  Hf
  Hf2      1.0000 0.12611  0.22944  0.39713  Biso   1.000  Hf
  Hf3      1.0000 0.37598  0.27241  0.11775  Biso   1.000  Hf
  Hf4      1.0000 0.36712  0.48390  0.37453  Biso   1.000  Hf
  O1       1.0000 0.96212  0.17776  0.27296  Biso   1.000  O
  O2       1.0000 0.03715  0.06090  0.46490  Biso   1.000  O
  O3       1.0000 0.46711  0.43729  0.19485  Biso   1.000  O
  O4       1.0000 0.46809  0.32143  0.44930  Biso   1.000  O
  O5       1.0000 0.23536  0.10373  0.24857  Biso   1.000  O
  O6       1.0000 0.27752  0.13244  0.49832  Biso   1.000  O
  O7       1.0000 0.23561  0.38472  0.50191  Biso   1.000  O
  O8       1.0000 0.23628  0.36311  0.25662  Biso   1.000  O
  Hf5      1.0000 0.13995  0.00835  0.62677  Biso   1.000  Hf
  Hf6      1.0000 0.13294  0.23253  0.85130  Biso   1.000  Hf
  Hf7      1.0000 0.37293  0.26783  0.62379  Biso   1.000  Hf
  Hf8      1.0000 0.36854  0.48712  0.87191  Biso   1.000  Hf
  O9       1.0000 0.03505  0.17769  0.68920  Biso   1.000  O
  O10      1.0000 0.03536  0.06679  0.94998  Biso   1.000  O
  O11      1.0000 0.46998  0.43434  0.69586  Biso   1.000  O
  O12      1.0000 0.46671  0.31896  0.94015  Biso   1.000  O
  O13      1.0000 0.27247  0.11526  0.74527  Biso   1.000  O
  O14      1.0000 0.27041  0.12917  0.99544  Biso   1.000  O
  O15      1.0000 0.23391  0.39454  0.99703  Biso   1.000  O
  O16      1.0000 0.23661  0.36683  0.74549  Biso   1.000  O
  Hf9      1.0000 0.13434  0.53108  0.12448  Biso   1.000  Hf
  Hf10     1.0000 0.13407  0.73558  0.37703  Biso   1.000  Hf
  Hf11     1.0000 0.37483  0.75943  0.12145  Biso   1.000  Hf
  Hf12     1.0000 0.36499  0.98848  0.36872  Biso   1.000  Hf
  O17      1.0000 0.03550  0.68687  0.19690  Biso   1.000  O
  O18      1.0000 0.03623  0.57019  0.44222  Biso   1.000  O
  O19      1.0000 0.45835  0.93221  0.19104  Biso   1.000  O
  O20      1.0000 0.46861  0.82062  0.44234  Biso   1.000  O
  O21      1.0000 0.27436  0.61618  0.24662  Biso   1.000  O
  O22      1.0000 0.27113  0.63422  0.49646  Biso   1.000  O
  O23      1.0000 0.23485  0.88414  0.49378  Biso   1.000  O
  O24      1.0000 0.23500  0.85493  0.24269  Biso   1.000  O
  Hf13     1.0000 0.13270  0.51417  0.62077  Biso   1.000  Hf
  Hf14     1.0000 0.13253  0.73173  0.86637  Biso   1.000  Hf
  Hf15     1.0000 0.37263  0.76530  0.61914  Biso   1.000  Hf
  Hf16     1.0000 0.37236  0.98342  0.87002  Biso   1.000  Hf
  O25      1.0000 0.03637  0.68253  0.68947  Biso   1.000  O
  O26      1.0000 0.03385  0.57091  0.94663  Biso   1.000  O
  O27      1.0000 0.47094  0.93251  0.69464  Biso   1.000  O
  O28      1.0000 0.47545  0.82067  0.94677  Biso   1.000  O
  O29      1.0000 0.26901  0.61379  0.74465  Biso   1.000  O
  O30      1.0000 0.26921  0.63705  0.99447  Biso   1.000  O
  O31      1.0000 0.24102  0.87426  0.98820  Biso   1.000  O
  O32      1.0000 0.23859  0.86218  0.74397  Biso   1.000  O
  Hf17     1.0000 0.62611  0.00947  0.11995  Biso   1.000  Hf
  Hf18     1.0000 0.62775  0.23076  0.37880  Biso   1.000  Hf
  Hf19     1.0000 0.83362  0.26131  0.12978  Biso   1.000  Hf
  Hf20     1.0000 0.86816  0.48240  0.37400  Biso   1.000  Hf
  O33      1.0000 0.51630  0.17340  0.20938  Biso   1.000  O
  O34      1.0000 0.53172  0.06690  0.45184  Biso   1.000  O
  O35      1.0000 0.96550  0.42935  0.19109  Biso   1.000  O
  O36      1.0000 0.97463  0.33325  0.46878  Biso   1.000  O
  O37      1.0000 0.74011  0.10942  0.24849  Biso   1.000  O
  O38      1.0000 0.77124  0.13985  0.49747  Biso   1.000  O
  O39      1.0000 0.73387  0.38538  0.50147  Biso   1.000  O
  O40      1.0000 0.72051  0.37249  0.25589  Biso   1.000  O
  Hf21     1.0000 0.63888  0.01559  0.62267  Biso   1.000  Hf
  Hf22     1.0000 0.63496  0.23361  0.87237  Biso   1.000  Hf
  Hf23     1.0000 0.86398  0.27050  0.62872  Biso   1.000  Hf
  Hf24     1.0000 0.86732  0.48103  0.87886  Biso   1.000  Hf
  O41      1.0000 0.53916  0.18316  0.69515  Biso   1.000  O
  O42      1.0000 0.53397  0.07045  0.94436  Biso   1.000  O
  O43      1.0000 0.97084  0.43225  0.70619  Biso   1.000  O
  O44      1.0000 0.95893  0.31118  0.93737  Biso   1.000  O
  O45      1.0000 0.77335  0.11672  0.74864  Biso   1.000  O
  O46      1.0000 0.76793  0.12782  0.99721  Biso   1.000  O
  O47      1.0000 0.72271  0.38522  0.99976  Biso   1.000  O
  O48      1.0000 0.73098  0.36923  0.75041  Biso   1.000  O
  Hf25     1.0000 0.63517  0.52067  0.12728  Biso   1.000  Hf
  Hf26     1.0000 0.63877  0.73790  0.37707  Biso   1.000  Hf
  Hf27     1.0000 0.86463  0.76678  0.12633  Biso   1.000  Hf
  Hf28     1.0000 0.87555  0.00121  0.36349  Biso   1.000  Hf
  O49      1.0000 0.54113  0.68612  0.19767  Biso   1.000  O
  O50      1.0000 0.53662  0.57062  0.44612  Biso   1.000  O
  O51      1.0000 0.96737  0.93508  0.19226  Biso   1.000  O
  O52      1.0000 0.96854  0.82264  0.44331  Biso   1.000  O
  O53      1.0000 0.77388  0.61846  0.24974  Biso   1.000  O
  O54      1.0000 0.77320  0.63527  0.49833  Biso   1.000  O
  O55      1.0000 0.73612  0.88910  0.49619  Biso   1.000  O
  O56      1.0000 0.73209  0.86685  0.24634  Biso   1.000  O
  Hf29     1.0000 0.63698  0.51817  0.62370  Biso   1.000  Hf
  Hf30     1.0000 0.63893  0.73305  0.87292  Biso   1.000  Hf
  Hf31     1.0000 0.86936  0.77058  0.62015  Biso   1.000  Hf
  Hf32     1.0000 0.86871  0.98371  0.87611  Biso   1.000  Hf
  O57      1.0000 0.53739  0.68350  0.69585  Biso   1.000  O
  O58      1.0000 0.53324  0.57209  0.94960  Biso   1.000  O
  O59      1.0000 0.97428  0.92769  0.70561  Biso   1.000  O
  O60      1.0000 0.97503  0.82040  0.95361  Biso   1.000  O
  O61      1.0000 0.77289  0.61643  0.74893  Biso   1.000  O
  O62      1.0000 0.77168  0.63379  0.99954  Biso   1.000  O
  O63      1.0000 0.73449  0.88103  0.99748  Biso   1.000  O
  O64      1.0000 0.73513  0.86691  0.74703  Biso   1.000  O
  Sr1      1.0000 0.10089  0.25061  0.11550  Biso   1.000  Sr
