data_image0
_cell_length_a       10.08
_cell_length_b       10.3417
_cell_length_c       10.08
_cell_angle_alpha    90.0001
_cell_angle_beta     90
_cell_angle_gamma    90.0001

_symmetry_space_group_name_H-M    "P 1"
_symmetry_int_tables_number       1

loop_
  _symmetry_equiv_pos_as_xyz
  'x, y, z'

loop_
  _atom_site_label
  _atom_site_occupancy
  _atom_site_fract_x
  _atom_site_fract_y
  _atom_site_fract_z
  _atom_site_thermal_displace_type
  _atom_site_B_iso_or_equiv
  _atom_site_type_symbol
  Hf1      1.0000 0.12491  0.96024  0.12491  Biso   1.000  Hf
  Hf2      1.0000 0.12491  0.25005  0.39673  Biso   1.000  Hf
  Hf3      1.0000 0.39672  0.25006  0.12491  Biso   1.000  Hf
  Hf4      1.0000 0.37587  0.01280  0.37587  Biso   1.000  Hf
  O1       1.0000 0.97237  0.16738  0.97236  Biso   1.000  O
  O2       1.0000 0.00972  0.08441  0.24007  Biso   1.000  O
  O3       1.0000 0.97237  0.33272  0.27746  Biso   1.000  O
  O4       1.0000 0.00971  0.41570  0.00976  Biso   1.000  O
  O5       1.0000 0.27745  0.16739  0.27746  Biso   1.000  O
  O6       1.0000 0.24010  0.08441  0.00975  Biso   1.000  O
  O7       1.0000 0.27745  0.33272  0.97236  Biso   1.000  O
  O8       1.0000 0.24010  0.41570  0.24006  Biso   1.000  O
  Hf5      1.0000 0.12491  0.99113  0.62491  Biso   1.000  Hf
  Hf6      1.0000 0.12491  0.25005  0.85309  Biso   1.000  Hf
  Hf7      1.0000 0.37580  0.25005  0.62491  Biso   1.000  Hf
  Hf8      1.0000 0.37235  0.00488  0.87747  Biso   1.000  Hf
  O9       1.0000 0.99049  0.14296  0.49643  Biso   1.000  O
  O10      1.0000 0.00256  0.10216  0.74025  Biso   1.000  O
  O11      1.0000 0.99049  0.35714  0.75340  Biso   1.000  O
  O12      1.0000 0.00257  0.39794  0.50958  Biso   1.000  O
  O13      1.0000 0.25933  0.14296  0.75340  Biso   1.000  O
  O14      1.0000 0.24725  0.10216  0.50958  Biso   1.000  O
  O15      1.0000 0.25933  0.35714  0.49642  Biso   1.000  O
  O16      1.0000 0.24725  0.39794  0.74024  Biso   1.000  O
  Hf9      1.0000 0.12491  0.53987  0.12491  Biso   1.000  Hf
  Hf10     1.0000 0.12491  0.75005  0.38580  Biso   1.000  Hf
  Hf11     1.0000 0.38581  0.75006  0.12491  Biso   1.000  Hf
  Hf12     1.0000 0.37236  0.49522  0.37235  Biso   1.000  Hf
  O17      1.0000 0.00703  0.66353  0.00703  Biso   1.000  O
  O18      1.0000 0.99105  0.59837  0.25879  Biso   1.000  O
  O19      1.0000 0.00703  0.83658  0.24278  Biso   1.000  O
  O20      1.0000 0.99105  0.90174  0.99102  Biso   1.000  O
  O21      1.0000 0.24278  0.66353  0.24277  Biso   1.000  O
  O22      1.0000 0.25876  0.59837  0.99102  Biso   1.000  O
  O23      1.0000 0.24279  0.83658  0.00704  Biso   1.000  O
  O24      1.0000 0.25877  0.90174  0.25879  Biso   1.000  O
  Hf13     1.0000 0.12491  0.50897  0.62491  Biso   1.000  Hf
  Hf14     1.0000 0.12491  0.75005  0.86401  Biso   1.000  Hf
  Hf15     1.0000 0.37911  0.75006  0.62491  Biso   1.000  Hf
  Hf16     1.0000 0.37587  0.48731  0.87394  Biso   1.000  Hf
  O25      1.0000 0.00038  0.64841  0.50895  Biso   1.000  O
  O26      1.0000 0.00416  0.60320  0.75880  Biso   1.000  O
  O27      1.0000 0.00039  0.85169  0.74086  Biso   1.000  O
  O28      1.0000 0.00416  0.89691  0.49101  Biso   1.000  O
  O29      1.0000 0.24943  0.64841  0.74085  Biso   1.000  O
  O30      1.0000 0.24566  0.60320  0.49101  Biso   1.000  O
  O31      1.0000 0.24943  0.85170  0.50895  Biso   1.000  O
  O32      1.0000 0.24566  0.89691  0.75880  Biso   1.000  O
  Hf17     1.0000 0.62491  0.99115  0.12491  Biso   1.000  Hf
  Hf18     1.0000 0.62491  0.25005  0.37581  Biso   1.000  Hf
  Hf19     1.0000 0.85310  0.25006  0.12491  Biso   1.000  Hf
  Hf20     1.0000 0.87746  0.00488  0.37235  Biso   1.000  Hf
  O33      1.0000 0.49644  0.14297  0.99050  Biso   1.000  O
  O34      1.0000 0.50956  0.10217  0.24725  Biso   1.000  O
  O35      1.0000 0.49644  0.35714  0.25932  Biso   1.000  O
  O36      1.0000 0.50956  0.39794  0.00256  Biso   1.000  O
  O37      1.0000 0.75338  0.14297  0.25932  Biso   1.000  O
  O38      1.0000 0.74026  0.10217  0.00257  Biso   1.000  O
  O39      1.0000 0.75338  0.35714  0.99050  Biso   1.000  O
  O40      1.0000 0.74026  0.39795  0.24725  Biso   1.000  O
  Hf21     1.0000 0.62491  0.99898  0.62491  Biso   1.000  Hf
  Hf22     1.0000 0.62491  0.25005  0.87401  Biso   1.000  Hf
  Hf23     1.0000 0.87401  0.25005  0.62491  Biso   1.000  Hf
  Hf24     1.0000 0.87395  0.01279  0.87395  Biso   1.000  Hf
  O41      1.0000 0.49720  0.15153  0.49720  Biso   1.000  O
  O42      1.0000 0.50245  0.09971  0.74737  Biso   1.000  O
  O43      1.0000 0.49720  0.34858  0.75262  Biso   1.000  O
  O44      1.0000 0.50246  0.40040  0.50245  Biso   1.000  O
  O45      1.0000 0.75262  0.15152  0.75262  Biso   1.000  O
  O46      1.0000 0.74736  0.09971  0.50245  Biso   1.000  O
  O47      1.0000 0.75262  0.34858  0.49720  Biso   1.000  O
  O48      1.0000 0.74736  0.40040  0.74737  Biso   1.000  O
  Hf25     1.0000 0.62491  0.50896  0.12491  Biso   1.000  Hf
  Hf26     1.0000 0.62491  0.75005  0.37910  Biso   1.000  Hf
  Hf27     1.0000 0.86401  0.75005  0.12491  Biso   1.000  Hf
  Hf28     1.0000 0.87395  0.48731  0.37587  Biso   1.000  Hf
  O49      1.0000 0.50894  0.64840  0.00038  Biso   1.000  O
  O50      1.0000 0.49103  0.60320  0.24566  Biso   1.000  O
  O51      1.0000 0.50894  0.85171  0.24944  Biso   1.000  O
  O52      1.0000 0.49103  0.89691  0.00415  Biso   1.000  O
  O53      1.0000 0.74087  0.64840  0.24943  Biso   1.000  O
  O54      1.0000 0.75878  0.60320  0.00415  Biso   1.000  O
  O55      1.0000 0.74088  0.85171  0.00038  Biso   1.000  O
  O56      1.0000 0.75879  0.89691  0.24566  Biso   1.000  O
  Hf29     1.0000 0.62491  0.50113  0.62491  Biso   1.000  Hf
  Hf30     1.0000 0.62491  0.75005  0.87072  Biso   1.000  Hf
  Hf31     1.0000 0.87071  0.75005  0.62491  Biso   1.000  Hf
  Hf32     1.0000 0.87746  0.49522  0.87747  Biso   1.000  Hf
  O57      1.0000 0.49793  0.64929  0.49793  Biso   1.000  O
  O58      1.0000 0.50060  0.59965  0.74921  Biso   1.000  O
  O59      1.0000 0.49794  0.85082  0.75189  Biso   1.000  O
  O60      1.0000 0.50060  0.90046  0.50060  Biso   1.000  O
  O61      1.0000 0.75188  0.64928  0.75188  Biso   1.000  O
  O62      1.0000 0.74922  0.59965  0.50060  Biso   1.000  O
  O63      1.0000 0.75188  0.85082  0.49793  Biso   1.000  O
  O64      1.0000 0.74922  0.90046  0.74921  Biso   1.000  O
  Sr1      1.0000 0.12491  0.25005  0.12491  Biso   1.000  Sr
