data_image0
_cell_length_a       10.1769
_cell_length_b       10.4112
_cell_length_c       5.12717
_cell_angle_alpha    89.9999
_cell_angle_beta     89.9999
_cell_angle_gamma    90.0003

_symmetry_space_group_name_H-M    "P 1"
_symmetry_int_tables_number       1

loop_
  _symmetry_equiv_pos_as_xyz
  'x, y, z'

loop_
  _atom_site_label
  _atom_site_occupancy
  _atom_site_fract_x
  _atom_site_fract_y
  _atom_site_fract_z
  _atom_site_thermal_displace_type
  _atom_site_B_iso_or_equiv
  _atom_site_type_symbol
  Zr1      1.0000 0.12542  0.96596  0.25085  Biso   1.000  Zr
  Zr2      1.0000 0.12540  0.25007  0.75071  Biso   1.000  Zr
  Zr3      1.0000 0.39887  0.25008  0.25079  Biso   1.000  Zr
  Zr4      1.0000 0.37328  0.00941  0.75340  Biso   1.000  Zr
  O1       1.0000 0.97636  0.15533  0.96321  Biso   1.000  O
  O2       1.0000 0.00827  0.09078  0.48305  Biso   1.000  O
  O3       1.0000 0.97640  0.34490  0.53818  Biso   1.000  O
  O4       1.0000 0.00831  0.40941  0.01839  Biso   1.000  O
  O5       1.0000 0.27439  0.15525  0.53818  Biso   1.000  O
  O6       1.0000 0.24248  0.09074  0.01839  Biso   1.000  O
  O7       1.0000 0.27443  0.34482  0.96321  Biso   1.000  O
  O8       1.0000 0.24252  0.40937  0.48305  Biso   1.000  O
  Zr5      1.0000 0.12537  0.53419  0.25085  Biso   1.000  Zr
  Zr6      1.0000 0.12540  0.75007  0.75084  Biso   1.000  Zr
  Zr7      1.0000 0.38641  0.75005  0.25081  Biso   1.000  Zr
  Zr8      1.0000 0.37327  0.49073  0.74817  Biso   1.000  Zr
  O9       1.0000 0.00252  0.65715  0.01954  Biso   1.000  O
  O10      1.0000 0.00068  0.60349  0.52468  Biso   1.000  O
  O11      1.0000 0.00250  0.84304  0.48219  Biso   1.000  O
  O12      1.0000 0.00068  0.89671  0.97703  Biso   1.000  O
  O13      1.0000 0.24829  0.65711  0.48219  Biso   1.000  O
  O14      1.0000 0.25011  0.60344  0.97703  Biso   1.000  O
  O15      1.0000 0.24827  0.84300  0.01954  Biso   1.000  O
  O16      1.0000 0.25011  0.89666  0.52468  Biso   1.000  O
  Zr9      1.0000 0.62539  0.99314  0.25079  Biso   1.000  Zr
  Zr10     1.0000 0.62540  0.25007  0.75080  Biso   1.000  Zr
  Zr11     1.0000 0.85192  0.25007  0.25079  Biso   1.000  Zr
  Zr12     1.0000 0.87752  0.00941  0.74816  Biso   1.000  Zr
  O17      1.0000 0.49733  0.14461  0.97897  Biso   1.000  O
  O18      1.0000 0.50816  0.10222  0.48892  Biso   1.000  O
  O19      1.0000 0.49734  0.35553  0.52262  Biso   1.000  O
  O20      1.0000 0.50818  0.39793  0.01267  Biso   1.000  O
  O21      1.0000 0.75346  0.14462  0.52262  Biso   1.000  O
  O22      1.0000 0.74262  0.10222  0.01267  Biso   1.000  O
  O23      1.0000 0.75347  0.35554  0.97898  Biso   1.000  O
  O24      1.0000 0.74263  0.39793  0.48893  Biso   1.000  O
  Zr13     1.0000 0.62540  0.50701  0.25079  Biso   1.000  Zr
  Zr14     1.0000 0.62539  0.75008  0.75080  Biso   1.000  Zr
  Zr15     1.0000 0.86438  0.75010  0.25082  Biso   1.000  Zr
  Zr16     1.0000 0.87751  0.49074  0.75341  Biso   1.000  Zr
  O25      1.0000 0.50277  0.64730  0.99569  Biso   1.000  O
  O26      1.0000 0.49734  0.60352  0.49303  Biso   1.000  O
  O27      1.0000 0.50276  0.85284  0.50591  Biso   1.000  O
  O28      1.0000 0.49732  0.89662  0.00857  Biso   1.000  O
  O29      1.0000 0.74803  0.64731  0.50591  Biso   1.000  O
  O30      1.0000 0.75347  0.60353  0.00857  Biso   1.000  O
  O31      1.0000 0.74802  0.85285  0.99569  Biso   1.000  O
  O32      1.0000 0.75345  0.89663  0.49302  Biso   1.000  O
  Sr1      1.0000 0.12540  0.25007  0.25070  Biso   1.000  Sr
