data_image0
_cell_length_a       10.1497
_cell_length_b       10.3954
_cell_length_c       5.35125
_cell_angle_alpha    90.0779
_cell_angle_beta     91.2967
_cell_angle_gamma    90.4762

_symmetry_space_group_name_H-M    "P 1"
_symmetry_int_tables_number       1

loop_
  _symmetry_equiv_pos_as_xyz
  'x, y, z'

loop_
  _atom_site_label
  _atom_site_occupancy
  _atom_site_fract_x
  _atom_site_fract_y
  _atom_site_fract_z
  _atom_site_thermal_displace_type
  _atom_site_B_iso_or_equiv
  _atom_site_type_symbol
  Zr1      1.0000 0.14102  0.02055  0.35195  Biso   1.000  Zr
  Zr2      1.0000 0.14243  0.22764  0.85786  Biso   1.000  Zr
  Zr3      1.0000 0.34838  0.27526  0.38640  Biso   1.000  Zr
  Zr4      1.0000 0.35787  0.48717  0.85678  Biso   1.000  Zr
  Zr5      1.0000 0.64352  0.00314  0.15681  Biso   1.000  Zr
  Zr6      1.0000 0.65410  0.21843  0.60279  Biso   1.000  Zr
  Zr7      1.0000 0.87132  0.27241  0.14266  Biso   1.000  Zr
  Zr8      1.0000 0.86205  0.47823  0.65279  Biso   1.000  Zr
  O1       1.0000 0.03617  0.16003  0.16448  Biso   1.000  O
  O2       1.0000 0.03359  0.08819  0.66536  Biso   1.000  O
  O3       1.0000 0.45358  0.43815  0.19460  Biso   1.000  O
  O4       1.0000 0.47046  0.33617  0.67166  Biso   1.000  O
  O5       1.0000 0.27317  0.12497  0.60839  Biso   1.000  O
  O6       1.0000 0.28313  0.12861  0.10289  Biso   1.000  O
  O7       1.0000 0.21937  0.37793  0.61630  Biso   1.000  O
  O8       1.0000 0.22083  0.37649  0.10977  Biso   1.000  O
  O9       1.0000 0.52293  0.13243  0.37052  Biso   1.000  O
  O10      1.0000 0.53506  0.07368  0.83992  Biso   1.000  O
  O11      1.0000 0.96912  0.41193  0.34674  Biso   1.000  O
  O12      1.0000 0.97420  0.33704  0.84219  Biso   1.000  O
  O13      1.0000 0.77187  0.12771  0.90075  Biso   1.000  O
  O14      1.0000 0.78948  0.11744  0.38980  Biso   1.000  O
  O15      1.0000 0.73246  0.38127  0.89194  Biso   1.000  O
  O16      1.0000 0.71940  0.37191  0.37823  Biso   1.000  O
  Zr9      1.0000 0.13910  0.52214  0.35028  Biso   1.000  Zr
  Zr10     1.0000 0.13806  0.73007  0.84725  Biso   1.000  Zr
  Zr11     1.0000 0.36096  0.77162  0.35285  Biso   1.000  Zr
  Zr12     1.0000 0.36361  0.97537  0.85312  Biso   1.000  Zr
  Zr13     1.0000 0.64170  0.53678  0.15449  Biso   1.000  Zr
  Zr14     1.0000 0.64100  0.73031  0.65726  Biso   1.000  Zr
  Zr15     1.0000 0.86781  0.76995  0.16107  Biso   1.000  Zr
  Zr16     1.0000 0.86623  0.97965  0.66108  Biso   1.000  Zr
  O17      1.0000 0.03310  0.66088  0.16433  Biso   1.000  O
  O18      1.0000 0.03185  0.58802  0.66670  Biso   1.000  O
  O19      1.0000 0.47194  0.90073  0.15642  Biso   1.000  O
  O20      1.0000 0.47034  0.83626  0.66406  Biso   1.000  O
  O21      1.0000 0.27365  0.62739  0.59544  Biso   1.000  O
  O22      1.0000 0.27309  0.62902  0.09321  Biso   1.000  O
  O23      1.0000 0.22664  0.87493  0.60002  Biso   1.000  O
  O24      1.0000 0.22505  0.87769  0.10223  Biso   1.000  O
  O25      1.0000 0.53406  0.66866  0.34296  Biso   1.000  O
  O26      1.0000 0.53134  0.59023  0.83982  Biso   1.000  O
  O27      1.0000 0.97374  0.91035  0.34857  Biso   1.000  O
  O28      1.0000 0.97220  0.83946  0.84819  Biso   1.000  O
  O29      1.0000 0.77811  0.62929  0.90502  Biso   1.000  O
  O30      1.0000 0.77967  0.62564  0.41122  Biso   1.000  O
  O31      1.0000 0.73051  0.87320  0.91167  Biso   1.000  O
  O32      1.0000 0.73227  0.86989  0.41495  Biso   1.000  O
  Sr1      1.0000 0.55716  0.26583  0.04673  Biso   1.000  Sr
