data_image0
_cell_length_a       10.2611
_cell_length_b       10.3657
_cell_length_c       10.5226
_cell_angle_alpha    90.0251
_cell_angle_beta     80.2786
_cell_angle_gamma    90.1292

_symmetry_space_group_name_H-M    "P 1"
_symmetry_int_tables_number       1

loop_
  _symmetry_equiv_pos_as_xyz
  'x, y, z'

loop_
  _atom_site_label
  _atom_site_occupancy
  _atom_site_fract_x
  _atom_site_fract_y
  _atom_site_fract_z
  _atom_site_thermal_displace_type
  _atom_site_B_iso_or_equiv
  _atom_site_type_symbol
  Sr1      1.0000 0.13642  0.01249  0.14298  Biso   1.000  Sr
  Zr1      1.0000 0.13978  0.02122  0.64577  Biso   1.000  Zr
  Zr2      1.0000 0.13969  0.52019  0.14385  Biso   1.000  Zr
  Zr3      1.0000 0.13974  0.52122  0.64557  Biso   1.000  Zr
  Zr4      1.0000 0.64054  0.02022  0.14600  Biso   1.000  Zr
  Zr5      1.0000 0.63961  0.02184  0.64643  Biso   1.000  Zr
  Zr6      1.0000 0.63757  0.51835  0.14552  Biso   1.000  Zr
  Zr7      1.0000 0.63896  0.52096  0.64475  Biso   1.000  Zr
  Zr8      1.0000 0.13974  0.22716  0.39599  Biso   1.000  Zr
  Zr9      1.0000 0.13887  0.23077  0.89577  Biso   1.000  Zr
  Zr10     1.0000 0.14115  0.72716  0.39499  Biso   1.000  Zr
  Zr11     1.0000 0.14196  0.72953  0.89465  Biso   1.000  Zr
  Zr12     1.0000 0.63755  0.22945  0.39584  Biso   1.000  Zr
  Zr13     1.0000 0.63982  0.22899  0.89616  Biso   1.000  Zr
  Zr14     1.0000 0.63604  0.72743  0.39605  Biso   1.000  Zr
  Zr15     1.0000 0.64131  0.72893  0.89401  Biso   1.000  Zr
  Zr16     1.0000 0.35857  0.26667  0.10484  Biso   1.000  Zr
  Zr17     1.0000 0.36005  0.27046  0.60465  Biso   1.000  Zr
  Zr18     1.0000 0.36468  0.76886  0.10351  Biso   1.000  Zr
  Zr19     1.0000 0.36024  0.77219  0.60438  Biso   1.000  Zr
  Zr20     1.0000 0.86033  0.27184  0.10274  Biso   1.000  Zr
  Zr21     1.0000 0.86089  0.27155  0.60457  Biso   1.000  Zr
  Zr22     1.0000 0.85733  0.76750  0.10445  Biso   1.000  Zr
  Zr23     1.0000 0.86201  0.77147  0.60354  Biso   1.000  Zr
  Zr24     1.0000 0.35892  0.47689  0.35299  Biso   1.000  Zr
  Zr25     1.0000 0.36205  0.47766  0.85484  Biso   1.000  Zr
  Zr26     1.0000 0.36066  0.97972  0.35422  Biso   1.000  Zr
  Zr27     1.0000 0.36214  0.97949  0.85413  Biso   1.000  Zr
  Zr28     1.0000 0.86013  0.47936  0.35432  Biso   1.000  Zr
  Zr29     1.0000 0.86046  0.47975  0.85294  Biso   1.000  Zr
  Zr30     1.0000 0.85653  0.97958  0.35781  Biso   1.000  Zr
  Zr31     1.0000 0.86189  0.97835  0.85548  Biso   1.000  Zr
  O1       1.0000 0.03487  0.19103  0.07681  Biso   1.000  O
  O2       1.0000 0.03595  0.17318  0.58655  Biso   1.000  O
  O3       1.0000 0.03684  0.67211  0.08107  Biso   1.000  O
  O4       1.0000 0.03526  0.66866  0.58084  Biso   1.000  O
  O5       1.0000 0.53566  0.16694  0.07897  Biso   1.000  O
  O6       1.0000 0.53238  0.16638  0.57992  Biso   1.000  O
  O7       1.0000 0.53584  0.66464  0.07734  Biso   1.000  O
  O8       1.0000 0.53271  0.66575  0.57968  Biso   1.000  O
  O9       1.0000 0.02367  0.08507  0.35014  Biso   1.000  O
  O10      1.0000 0.03629  0.07929  0.83311  Biso   1.000  O
  O11      1.0000 0.03412  0.58241  0.32950  Biso   1.000  O
  O12      1.0000 0.03532  0.58048  0.82984  Biso   1.000  O
  O13      1.0000 0.53585  0.08154  0.33045  Biso   1.000  O
  O14      1.0000 0.53701  0.08331  0.82804  Biso   1.000  O
  O15      1.0000 0.53158  0.58223  0.32830  Biso   1.000  O
  O16      1.0000 0.53446  0.58388  0.82775  Biso   1.000  O
  O17      1.0000 0.46519  0.41409  0.17167  Biso   1.000  O
  O18      1.0000 0.46663  0.41588  0.67115  Biso   1.000  O
  O19      1.0000 0.46773  0.91803  0.16957  Biso   1.000  O
  O20      1.0000 0.46733  0.91590  0.67188  Biso   1.000  O
  O21      1.0000 0.96069  0.42526  0.16771  Biso   1.000  O
  O22      1.0000 0.96457  0.42141  0.66679  Biso   1.000  O
  O23      1.0000 0.93417  0.91968  0.17440  Biso   1.000  O
  O24      1.0000 0.96540  0.91897  0.66976  Biso   1.000  O
  O25      1.0000 0.46472  0.33244  0.42150  Biso   1.000  O
  O26      1.0000 0.46920  0.33544  0.92145  Biso   1.000  O
  O27      1.0000 0.46535  0.83313  0.42369  Biso   1.000  O
  O28      1.0000 0.47652  0.83793  0.92136  Biso   1.000  O
  O29      1.0000 0.96525  0.33416  0.42042  Biso   1.000  O
  O30      1.0000 0.96191  0.33196  0.91218  Biso   1.000  O
  O31      1.0000 0.96660  0.83159  0.41894  Biso   1.000  O
  O32      1.0000 0.96655  0.83078  0.91947  Biso   1.000  O
  O33      1.0000 0.28514  0.13543  0.25091  Biso   1.000  O
  O34      1.0000 0.27510  0.12839  0.73879  Biso   1.000  O
  O35      1.0000 0.27588  0.62261  0.23863  Biso   1.000  O
  O36      1.0000 0.27585  0.62920  0.74034  Biso   1.000  O
  O37      1.0000 0.77366  0.13078  0.24228  Biso   1.000  O
  O38      1.0000 0.77712  0.12879  0.74109  Biso   1.000  O
  O39      1.0000 0.77274  0.62760  0.24090  Biso   1.000  O
  O40      1.0000 0.77561  0.62898  0.73847  Biso   1.000  O
  O41      1.0000 0.27417  0.12039  0.49388  Biso   1.000  O
  O42      1.0000 0.28638  0.12906  0.97910  Biso   1.000  O
  O43      1.0000 0.27524  0.62073  0.49029  Biso   1.000  O
  O44      1.0000 0.27620  0.61740  0.99006  Biso   1.000  O
  O45      1.0000 0.77127  0.12341  0.49342  Biso   1.000  O
  O46      1.0000 0.77594  0.12079  0.99071  Biso   1.000  O
  O47      1.0000 0.77461  0.62181  0.49003  Biso   1.000  O
  O48      1.0000 0.77451  0.61935  0.98918  Biso   1.000  O
  O49      1.0000 0.22605  0.37921  0.00805  Biso   1.000  O
  O50      1.0000 0.22450  0.37874  0.50927  Biso   1.000  O
  O51      1.0000 0.24096  0.86429  0.99515  Biso   1.000  O
  O52      1.0000 0.22421  0.87871  0.51047  Biso   1.000  O
  O53      1.0000 0.72352  0.37909  0.00842  Biso   1.000  O
  O54      1.0000 0.72420  0.37926  0.50927  Biso   1.000  O
  O55      1.0000 0.72576  0.87760  0.00845  Biso   1.000  O
  O56      1.0000 0.72502  0.87846  0.51070  Biso   1.000  O
  O57      1.0000 0.22080  0.37166  0.25813  Biso   1.000  O
  O58      1.0000 0.22542  0.37256  0.75857  Biso   1.000  O
  O59      1.0000 0.23845  0.85849  0.26459  Biso   1.000  O
  O60      1.0000 0.22456  0.87232  0.75634  Biso   1.000  O
  O61      1.0000 0.72325  0.37227  0.26049  Biso   1.000  O
  O62      1.0000 0.72496  0.37131  0.75809  Biso   1.000  O
  O63      1.0000 0.71036  0.86916  0.26342  Biso   1.000  O
  O64      1.0000 0.72732  0.87137  0.75851  Biso   1.000  O
