data_image0
_cell_length_a       10.1314
_cell_length_b       5.21992
_cell_length_c       10.1656
_cell_angle_alpha    90.111
_cell_angle_beta     90.3505
_cell_angle_gamma    90.1257

_symmetry_space_group_name_H-M    "P 1"
_symmetry_int_tables_number       1

loop_
  _symmetry_equiv_pos_as_xyz
  'x, y, z'

loop_
  _atom_site_label
  _atom_site_occupancy
  _atom_site_fract_x
  _atom_site_fract_y
  _atom_site_fract_z
  _atom_site_thermal_displace_type
  _atom_site_B_iso_or_equiv
  _atom_site_type_symbol
  Sr1      1.0000 0.12359  0.01453  0.12260  Biso   1.000  Sr
  Zr1      1.0000 0.13404  0.03241  0.62537  Biso   1.000  Zr
  Zr2      1.0000 0.63521  0.02699  0.12415  Biso   1.000  Zr
  Zr3      1.0000 0.63224  0.02897  0.62616  Biso   1.000  Zr
  Zr4      1.0000 0.13772  0.47007  0.37692  Biso   1.000  Zr
  Zr5      1.0000 0.14039  0.46924  0.87284  Biso   1.000  Zr
  Zr6      1.0000 0.63036  0.46492  0.37851  Biso   1.000  Zr
  Zr7      1.0000 0.63620  0.46501  0.87436  Biso   1.000  Zr
  Zr8      1.0000 0.36513  0.52189  0.12564  Biso   1.000  Zr
  Zr9      1.0000 0.36619  0.53100  0.62536  Biso   1.000  Zr
  Zr10     1.0000 0.86011  0.52770  0.12793  Biso   1.000  Zr
  Zr11     1.0000 0.86714  0.53118  0.62374  Biso   1.000  Zr
  Zr12     1.0000 0.36317  0.96906  0.37397  Biso   1.000  Zr
  Zr13     1.0000 0.36691  0.96474  0.87637  Biso   1.000  Zr
  Zr14     1.0000 0.86165  0.96934  0.38146  Biso   1.000  Zr
  Zr15     1.0000 0.86402  0.96413  0.87278  Biso   1.000  Zr
  O1       1.0000 0.03043  0.41448  0.20376  Biso   1.000  O
  O2       1.0000 0.03992  0.37731  0.68372  Biso   1.000  O
  O3       1.0000 0.53794  0.36302  0.19533  Biso   1.000  O
  O4       1.0000 0.53434  0.36278  0.69603  Biso   1.000  O
  O5       1.0000 0.03445  0.13041  0.44108  Biso   1.000  O
  O6       1.0000 0.02813  0.15571  0.91695  Biso   1.000  O
  O7       1.0000 0.53390  0.13090  0.44753  Biso   1.000  O
  O8       1.0000 0.53676  0.13333  0.94530  Biso   1.000  O
  O9       1.0000 0.46797  0.86595  0.19616  Biso   1.000  O
  O10      1.0000 0.46754  0.86185  0.69784  Biso   1.000  O
  O11      1.0000 0.92422  0.87791  0.19631  Biso   1.000  O
  O12      1.0000 0.96345  0.86899  0.69123  Biso   1.000  O
  O13      1.0000 0.46651  0.63382  0.45016  Biso   1.000  O
  O14      1.0000 0.47634  0.63914  0.94818  Biso   1.000  O
  O15      1.0000 0.96473  0.63739  0.44598  Biso   1.000  O
  O16      1.0000 0.97310  0.64805  0.95011  Biso   1.000  O
  O17      1.0000 0.28109  0.24499  0.25572  Biso   1.000  O
  O18      1.0000 0.27114  0.23367  0.74697  Biso   1.000  O
  O19      1.0000 0.76552  0.23570  0.25173  Biso   1.000  O
  O20      1.0000 0.76997  0.23174  0.74678  Biso   1.000  O
  O21      1.0000 0.26880  0.26351  0.50165  Biso   1.000  O
  O22      1.0000 0.27790  0.26263  0.99126  Biso   1.000  O
  O23      1.0000 0.76730  0.26658  0.49990  Biso   1.000  O
  O24      1.0000 0.77046  0.26134  0.99761  Biso   1.000  O
  O25      1.0000 0.23062  0.76809  0.50019  Biso   1.000  O
  O26      1.0000 0.24460  0.74001  0.99079  Biso   1.000  O
  O27      1.0000 0.72931  0.76378  0.50084  Biso   1.000  O
  O28      1.0000 0.73130  0.76027  0.99801  Biso   1.000  O
  O29      1.0000 0.24456  0.71587  0.25723  Biso   1.000  O
  O30      1.0000 0.23165  0.73762  0.74538  Biso   1.000  O
  O31      1.0000 0.71629  0.73063  0.25052  Biso   1.000  O
  O32      1.0000 0.73207  0.73016  0.74826  Biso   1.000  O
