data_image0
_cell_length_a       5.1326
_cell_length_b       10.4404
_cell_length_c       10.702
_cell_angle_alpha    89.8312
_cell_angle_beta     78.8917
_cell_angle_gamma    90.4773

_symmetry_space_group_name_H-M    "P 1"
_symmetry_int_tables_number       1

loop_
  _symmetry_equiv_pos_as_xyz
  'x, y, z'

loop_
  _atom_site_label
  _atom_site_occupancy
  _atom_site_fract_x
  _atom_site_fract_y
  _atom_site_fract_z
  _atom_site_thermal_displace_type
  _atom_site_B_iso_or_equiv
  _atom_site_type_symbol
  Zr1      1.0000 0.28014  0.01423  0.14964  Biso   1.000  Zr
  Zr2      1.0000 0.30448  0.22840  0.41653  Biso   1.000  Zr
  Zr3      1.0000 0.67980  0.27166  0.08071  Biso   1.000  Zr
  Zr4      1.0000 0.71016  0.49033  0.35806  Biso   1.000  Zr
  O1       1.0000 0.05193  0.16269  0.06991  Biso   1.000  O
  O2       1.0000 0.09436  0.06045  0.34259  Biso   1.000  O
  O3       1.0000 0.91286  0.42863  0.16596  Biso   1.000  O
  O4       1.0000 0.95485  0.35794  0.44560  Biso   1.000  O
  O5       1.0000 0.55319  0.12239  0.23832  Biso   1.000  O
  O6       1.0000 0.58842  0.12215  0.49142  Biso   1.000  O
  O7       1.0000 0.41724  0.38526  0.00386  Biso   1.000  O
  O8       1.0000 0.43717  0.36388  0.25835  Biso   1.000  O
  Zr5      1.0000 0.28124  0.02072  0.64715  Biso   1.000  Zr
  Zr6      1.0000 0.26058  0.22574  0.89189  Biso   1.000  Zr
  Zr7      1.0000 0.73029  0.27873  0.61158  Biso   1.000  Zr
  Zr8      1.0000 0.71054  0.48375  0.85505  Biso   1.000  Zr
  O9       1.0000 0.07974  0.16961  0.58723  Biso   1.000  O
  O10      1.0000 0.05768  0.08288  0.82523  Biso   1.000  O
  O11      1.0000 0.93497  0.41789  0.68309  Biso   1.000  O
  O12      1.0000 0.91657  0.33434  0.91598  Biso   1.000  O
  O13      1.0000 0.54629  0.12871  0.74183  Biso   1.000  O
  O14      1.0000 0.53507  0.11890  0.98666  Biso   1.000  O
  O15      1.0000 0.45602  0.38139  0.51580  Biso   1.000  O
  O16      1.0000 0.44630  0.37296  0.76042  Biso   1.000  O
  Zr9      1.0000 0.26635  0.52448  0.14665  Biso   1.000  Zr
  Zr10     1.0000 0.26983  0.72718  0.39902  Biso   1.000  Zr
  Zr11     1.0000 0.71743  0.77088  0.10534  Biso   1.000  Zr
  Zr12     1.0000 0.71833  0.96680  0.35681  Biso   1.000  Zr
  O17      1.0000 0.06365  0.66977  0.07881  Biso   1.000  O
  O18      1.0000 0.05864  0.58817  0.32652  Biso   1.000  O
  O19      1.0000 0.92950  0.91233  0.17695  Biso   1.000  O
  O20      1.0000 0.92376  0.82622  0.42637  Biso   1.000  O
  O21      1.0000 0.54261  0.62787  0.24355  Biso   1.000  O
  O22      1.0000 0.53961  0.62512  0.49477  Biso   1.000  O
  O23      1.0000 0.44692  0.87682  0.01096  Biso   1.000  O
  O24      1.0000 0.44319  0.86488  0.25953  Biso   1.000  O
  Zr13     1.0000 0.27357  0.52427  0.64989  Biso   1.000  Zr
  Zr14     1.0000 0.27033  0.72960  0.89885  Biso   1.000  Zr
  Zr15     1.0000 0.72005  0.77199  0.60789  Biso   1.000  Zr
  Zr16     1.0000 0.71686  0.97622  0.85427  Biso   1.000  Zr
  O25      1.0000 0.05701  0.66331  0.58018  Biso   1.000  O
  O26      1.0000 0.05991  0.58816  0.83017  Biso   1.000  O
  O27      1.0000 0.93296  0.91444  0.67438  Biso   1.000  O
  O28      1.0000 0.93061  0.83651  0.92500  Biso   1.000  O
  O29      1.0000 0.54640  0.62929  0.74335  Biso   1.000  O
  O30      1.0000 0.54574  0.62430  0.99290  Biso   1.000  O
  O31      1.0000 0.44464  0.87718  0.51335  Biso   1.000  O
  O32      1.0000 0.44503  0.87203  0.76194  Biso   1.000  O
  Sr1      1.0000 0.91979  0.23867  0.27471  Biso   1.000  Sr
