data_image0
_cell_length_a       10.1329
_cell_length_b       10.4814
_cell_length_c       5.06034
_cell_angle_alpha    90.0924
_cell_angle_beta     90.309
_cell_angle_gamma    89.9622

_symmetry_space_group_name_H-M    "P 1"
_symmetry_int_tables_number       1

loop_
  _symmetry_equiv_pos_as_xyz
  'x, y, z'

loop_
  _atom_site_label
  _atom_site_occupancy
  _atom_site_fract_x
  _atom_site_fract_y
  _atom_site_fract_z
  _atom_site_thermal_displace_type
  _atom_site_B_iso_or_equiv
  _atom_site_type_symbol
  Sr1      1.0000 0.12319  0.00975  0.24749  Biso   1.000  Sr
  Zr1      1.0000 0.13533  0.51572  0.25064  Biso   1.000  Zr
  Zr2      1.0000 0.63380  0.01466  0.24776  Biso   1.000  Zr
  Zr3      1.0000 0.63231  0.51453  0.25247  Biso   1.000  Zr
  Zr4      1.0000 0.13452  0.23808  0.74741  Biso   1.000  Zr
  Zr5      1.0000 0.13869  0.73371  0.75555  Biso   1.000  Zr
  Zr6      1.0000 0.63294  0.23282  0.74827  Biso   1.000  Zr
  Zr7      1.0000 0.63321  0.73162  0.75333  Biso   1.000  Zr
  Zr8      1.0000 0.36667  0.26592  0.25205  Biso   1.000  Zr
  Zr9      1.0000 0.36763  0.76334  0.24929  Biso   1.000  Zr
  Zr10     1.0000 0.85880  0.26826  0.24986  Biso   1.000  Zr
  Zr11     1.0000 0.86343  0.76086  0.25057  Biso   1.000  Zr
  Zr12     1.0000 0.36561  0.48272  0.75190  Biso   1.000  Zr
  Zr13     1.0000 0.36630  0.98218  0.74829  Biso   1.000  Zr
  Zr14     1.0000 0.86607  0.48428  0.75623  Biso   1.000  Zr
  Zr15     1.0000 0.86084  0.98090  0.75011  Biso   1.000  Zr
  O1       1.0000 0.03135  0.20942  0.39186  Biso   1.000  O
  O2       1.0000 0.03694  0.68575  0.39098  Biso   1.000  O
  O3       1.0000 0.53970  0.18506  0.38013  Biso   1.000  O
  O4       1.0000 0.53542  0.67995  0.39479  Biso   1.000  O
  O5       1.0000 0.03343  0.07047  0.81112  Biso   1.000  O
  O6       1.0000 0.03384  0.56881  0.89382  Biso   1.000  O
  O7       1.0000 0.53786  0.06571  0.88375  Biso   1.000  O
  O8       1.0000 0.53250  0.56656  0.89559  Biso   1.000  O
  O9       1.0000 0.46596  0.43232  0.39253  Biso   1.000  O
  O10      1.0000 0.46634  0.93436  0.38940  Biso   1.000  O
  O11      1.0000 0.96247  0.44053  0.39185  Biso   1.000  O
  O12      1.0000 0.93257  0.92640  0.39344  Biso   1.000  O
  O13      1.0000 0.46706  0.31741  0.88834  Biso   1.000  O
  O14      1.0000 0.47454  0.81937  0.90081  Biso   1.000  O
  O15      1.0000 0.96547  0.32109  0.89763  Biso   1.000  O
  O16      1.0000 0.97081  0.81977  0.90143  Biso   1.000  O
  O17      1.0000 0.28462  0.12942  0.51213  Biso   1.000  O
  O18      1.0000 0.26923  0.61290  0.49838  Biso   1.000  O
  O19      1.0000 0.76761  0.11775  0.49722  Biso   1.000  O
  O20      1.0000 0.76996  0.61548  0.49678  Biso   1.000  O
  O21      1.0000 0.27651  0.13639  0.98871  Biso   1.000  O
  O22      1.0000 0.27079  0.62847  0.00013  Biso   1.000  O
  O23      1.0000 0.77024  0.13292  0.99718  Biso   1.000  O
  O24      1.0000 0.76738  0.62965  0.99499  Biso   1.000  O
  O25      1.0000 0.23211  0.38366  0.99893  Biso   1.000  O
  O26      1.0000 0.24300  0.87095  0.98621  Biso   1.000  O
  O27      1.0000 0.72892  0.38319  0.99778  Biso   1.000  O
  O28      1.0000 0.73114  0.87886  0.00097  Biso   1.000  O
  O29      1.0000 0.23025  0.37015  0.49649  Biso   1.000  O
  O30      1.0000 0.24415  0.85539  0.50770  Biso   1.000  O
  O31      1.0000 0.72995  0.36846  0.50098  Biso   1.000  O
  O32      1.0000 0.71784  0.86504  0.50014  Biso   1.000  O
