data_image0
_cell_length_a       10.0775
_cell_length_b       10.592
_cell_length_c       5.06038
_cell_angle_alpha    90.0931
_cell_angle_beta     89.8277
_cell_angle_gamma    89.7225

_symmetry_space_group_name_H-M    "P 1"
_symmetry_int_tables_number       1

loop_
  _symmetry_equiv_pos_as_xyz
  'x, y, z'

loop_
  _atom_site_label
  _atom_site_occupancy
  _atom_site_fract_x
  _atom_site_fract_y
  _atom_site_fract_z
  _atom_site_thermal_displace_type
  _atom_site_B_iso_or_equiv
  _atom_site_type_symbol
  Hf1      1.0000 0.12982  0.00737  0.24591  Biso   1.000  Hf
  Hf2      1.0000 0.12735  0.21165  0.73007  Biso   1.000  Hf
  Hf3      1.0000 0.39068  0.27676  0.23384  Biso   1.000  Hf
  Hf4      1.0000 0.36957  0.48969  0.73912  Biso   1.000  Hf
  O1       1.0000 0.99975  0.15952  0.41811  Biso   1.000  O
  O2       1.0000 0.02646  0.05771  0.90761  Biso   1.000  O
  O3       1.0000 0.47920  0.43572  0.40102  Biso   1.000  O
  O4       1.0000 0.47920  0.32695  0.89006  Biso   1.000  O
  O5       1.0000 0.25207  0.08706  0.52348  Biso   1.000  O
  O6       1.0000 0.25898  0.15532  0.03804  Biso   1.000  O
  O7       1.0000 0.25697  0.41341  0.03135  Biso   1.000  O
  O8       1.0000 0.25473  0.34300  0.53074  Biso   1.000  O
  Hf5      1.0000 0.12925  0.54273  0.21874  Biso   1.000  Hf
  Hf6      1.0000 0.12988  0.74206  0.73411  Biso   1.000  Hf
  Hf7      1.0000 0.37071  0.76255  0.23804  Biso   1.000  Hf
  Hf8      1.0000 0.37354  0.97844  0.74078  Biso   1.000  Hf
  O9       1.0000 0.02420  0.68693  0.40203  Biso   1.000  O
  O10      1.0000 0.03165  0.57348  0.87467  Biso   1.000  O
  O11      1.0000 0.46828  0.92727  0.39405  Biso   1.000  O
  O12      1.0000 0.47337  0.81894  0.89335  Biso   1.000  O
  O13      1.0000 0.27102  0.61227  0.47931  Biso   1.000  O
  O14      1.0000 0.26832  0.65130  0.97055  Biso   1.000  O
  O15      1.0000 0.23549  0.89238  0.98435  Biso   1.000  O
  O16      1.0000 0.23479  0.85358  0.47911  Biso   1.000  O
  Hf9      1.0000 0.63096  0.01140  0.24639  Biso   1.000  Hf
  Hf10     1.0000 0.63387  0.23060  0.74565  Biso   1.000  Hf
  Hf11     1.0000 0.85061  0.26184  0.24530  Biso   1.000  Hf
  Hf12     1.0000 0.86926  0.48015  0.74274  Biso   1.000  Hf
  O17      1.0000 0.53024  0.17411  0.41200  Biso   1.000  O
  O18      1.0000 0.52411  0.07405  0.91103  Biso   1.000  O
  O19      1.0000 0.97677  0.42492  0.40117  Biso   1.000  O
  O20      1.0000 0.97308  0.31832  0.91570  Biso   1.000  O
  O21      1.0000 0.75797  0.10710  0.49748  Biso   1.000  O
  O22      1.0000 0.76387  0.13245  0.99332  Biso   1.000  O
  O23      1.0000 0.73354  0.38634  0.99630  Biso   1.000  O
  O24      1.0000 0.73227  0.36344  0.50363  Biso   1.000  O
  Hf13     1.0000 0.63731  0.51902  0.24268  Biso   1.000  Hf
  Hf14     1.0000 0.63562  0.73129  0.74573  Biso   1.000  Hf
  Hf15     1.0000 0.86285  0.76655  0.24549  Biso   1.000  Hf
  Hf16     1.0000 0.86567  0.98148  0.74353  Biso   1.000  Hf
  O25      1.0000 0.53587  0.68192  0.39563  Biso   1.000  O
  O26      1.0000 0.53237  0.57290  0.90111  Biso   1.000  O
  O27      1.0000 0.96716  0.92258  0.40716  Biso   1.000  O
  O28      1.0000 0.96682  0.81849  0.90455  Biso   1.000  O
  O29      1.0000 0.77046  0.61048  0.49485  Biso   1.000  O
  O30      1.0000 0.77022  0.63472  0.99233  Biso   1.000  O
  O31      1.0000 0.73087  0.88530  0.99302  Biso   1.000  O
  O32      1.0000 0.72961  0.86141  0.49391  Biso   1.000  O
  Ta1      1.0000 0.11860  0.29413  0.22435  Biso   1.000  Ta
