data_image0
_cell_length_a       10.1516
_cell_length_b       5.1934
_cell_length_c       10.4788
_cell_angle_alpha    90.2383
_cell_angle_beta     90.4235
_cell_angle_gamma    89.8252

_symmetry_space_group_name_H-M    "P 1"
_symmetry_int_tables_number       1

loop_
  _symmetry_equiv_pos_as_xyz
  'x, y, z'

loop_
  _atom_site_label
  _atom_site_occupancy
  _atom_site_fract_x
  _atom_site_fract_y
  _atom_site_fract_z
  _atom_site_thermal_displace_type
  _atom_site_B_iso_or_equiv
  _atom_site_type_symbol
  Hf1      1.0000 0.13973  0.03986  0.17048  Biso   1.000  Hf
  Hf2      1.0000 0.13617  0.45481  0.42445  Biso   1.000  Hf
  Hf3      1.0000 0.34286  0.53738  0.17659  Biso   1.000  Hf
  Hf4      1.0000 0.36032  0.95133  0.42510  Biso   1.000  Hf
  Hf5      1.0000 0.64061  0.08776  0.06339  Biso   1.000  Hf
  Hf6      1.0000 0.63266  0.44825  0.35396  Biso   1.000  Hf
  Hf7      1.0000 0.87888  0.55151  0.07160  Biso   1.000  Hf
  Hf8      1.0000 0.86792  0.95411  0.33438  Biso   1.000  Hf
  O1       1.0000 0.03917  0.31995  0.07769  Biso   1.000  O
  O2       1.0000 0.02828  0.18170  0.32813  Biso   1.000  O
  O3       1.0000 0.45790  0.84238  0.08392  Biso   1.000  O
  O4       1.0000 0.46236  0.66328  0.33328  Biso   1.000  O
  O5       1.0000 0.26875  0.24663  0.29788  Biso   1.000  O
  O6       1.0000 0.27705  0.24500  0.04121  Biso   1.000  O
  O7       1.0000 0.21897  0.74969  0.29970  Biso   1.000  O
  O8       1.0000 0.22115  0.74704  0.04326  Biso   1.000  O
  O9       1.0000 0.50578  0.29602  0.17447  Biso   1.000  O
  O10      1.0000 0.53178  0.15126  0.42332  Biso   1.000  O
  O11      1.0000 0.97687  0.82113  0.17366  Biso   1.000  O
  O12      1.0000 0.96556  0.66940  0.42097  Biso   1.000  O
  O13      1.0000 0.78041  0.22839  0.45999  Biso   1.000  O
  O14      1.0000 0.75645  0.33607  0.20201  Biso   1.000  O
  O15      1.0000 0.72472  0.73543  0.46171  Biso   1.000  O
  O16      1.0000 0.73328  0.83748  0.20208  Biso   1.000  O
  Hf9      1.0000 0.13911  0.03366  0.66990  Biso   1.000  Hf
  Hf10     1.0000 0.14449  0.45020  0.91691  Biso   1.000  Hf
  Hf11     1.0000 0.36542  0.53159  0.67136  Biso   1.000  Hf
  Hf12     1.0000 0.36093  0.95223  0.91549  Biso   1.000  Hf
  Hf13     1.0000 0.64002  0.03248  0.58560  Biso   1.000  Hf
  Hf14     1.0000 0.64065  0.45290  0.83371  Biso   1.000  Hf
  Hf15     1.0000 0.86191  0.53291  0.58382  Biso   1.000  Hf
  Hf16     1.0000 0.86658  0.95564  0.82820  Biso   1.000  Hf
  O17      1.0000 0.03334  0.32343  0.58242  Biso   1.000  O
  O18      1.0000 0.03820  0.16502  0.82932  Biso   1.000  O
  O19      1.0000 0.46694  0.82555  0.58756  Biso   1.000  O
  O20      1.0000 0.46334  0.64604  0.83841  Biso   1.000  O
  O21      1.0000 0.27825  0.23995  0.79167  Biso   1.000  O
  O22      1.0000 0.27403  0.24401  0.54481  Biso   1.000  O
  O23      1.0000 0.22691  0.74219  0.79252  Biso   1.000  O
  O24      1.0000 0.22650  0.74305  0.54565  Biso   1.000  O
  O25      1.0000 0.53707  0.33313  0.66212  Biso   1.000  O
  O26      1.0000 0.53801  0.12918  0.89390  Biso   1.000  O
  O27      1.0000 0.96923  0.82440  0.66426  Biso   1.000  O
  O28      1.0000 0.97775  0.67058  0.91110  Biso   1.000  O
  O29      1.0000 0.79561  0.24462  0.94760  Biso   1.000  O
  O30      1.0000 0.77814  0.24336  0.70516  Biso   1.000  O
  O31      1.0000 0.73225  0.75456  0.95999  Biso   1.000  O
  O32      1.0000 0.72749  0.74468  0.71033  Biso   1.000  O
  Ta1      1.0000 0.60908  0.58941  0.11023  Biso   1.000  Ta
