data_image0
_cell_length_a       10.2353
_cell_length_b       5.15547
_cell_length_c       10.5692
_cell_angle_alpha    90.3745
_cell_angle_beta     78.1816
_cell_angle_gamma    90.4325

_symmetry_space_group_name_H-M    "P 1"
_symmetry_int_tables_number       1

loop_
  _symmetry_equiv_pos_as_xyz
  'x, y, z'

loop_
  _atom_site_label
  _atom_site_occupancy
  _atom_site_fract_x
  _atom_site_fract_y
  _atom_site_fract_z
  _atom_site_thermal_displace_type
  _atom_site_B_iso_or_equiv
  _atom_site_type_symbol
  Hf1      1.0000 0.13153  0.05157  0.14347  Biso   1.000  Hf
  Hf2      1.0000 0.14350  0.46574  0.39170  Biso   1.000  Hf
  Hf3      1.0000 0.34041  0.54927  0.08216  Biso   1.000  Hf
  Hf4      1.0000 0.35217  0.93523  0.35160  Biso   1.000  Hf
  O1       1.0000 0.02744  0.34291  0.07667  Biso   1.000  O
  O2       1.0000 0.03769  0.17341  0.32756  Biso   1.000  O
  O3       1.0000 0.46930  0.78961  0.18195  Biso   1.000  O
  O4       1.0000 0.47716  0.66609  0.42833  Biso   1.000  O
  O5       1.0000 0.28031  0.24255  0.23326  Biso   1.000  O
  O6       1.0000 0.28954  0.26610  0.47704  Biso   1.000  O
  O7       1.0000 0.21237  0.77557  0.99743  Biso   1.000  O
  O8       1.0000 0.20715  0.74277  0.24382  Biso   1.000  O
  Hf5      1.0000 0.13446  0.04674  0.64569  Biso   1.000  Hf
  Hf6      1.0000 0.12648  0.46344  0.89286  Biso   1.000  Hf
  Hf7      1.0000 0.36319  0.54407  0.60659  Biso   1.000  Hf
  Hf8      1.0000 0.35601  0.96543  0.84779  Biso   1.000  Hf
  O9       1.0000 0.03875  0.33541  0.57779  Biso   1.000  O
  O10      1.0000 0.02781  0.16856  0.82858  Biso   1.000  O
  O11      1.0000 0.46623  0.83867  0.67114  Biso   1.000  O
  O12      1.0000 0.46283  0.68075  0.91816  Biso   1.000  O
  O13      1.0000 0.27175  0.25651  0.73530  Biso   1.000  O
  O14      1.0000 0.26595  0.25321  0.98137  Biso   1.000  O
  O15      1.0000 0.22172  0.76606  0.51090  Biso   1.000  O
  O16      1.0000 0.22189  0.74278  0.75521  Biso   1.000  O
  Hf9      1.0000 0.63865  0.05083  0.16174  Biso   1.000  Hf
  Hf10     1.0000 0.65503  0.45122  0.40727  Biso   1.000  Hf
  Hf11     1.0000 0.85259  0.54734  0.11071  Biso   1.000  Hf
  Hf12     1.0000 0.86558  0.95621  0.35928  Biso   1.000  Hf
  O17      1.0000 0.51285  0.32020  0.08210  Biso   1.000  O
  O18      1.0000 0.53744  0.11984  0.35350  Biso   1.000  O
  O19      1.0000 0.96312  0.83795  0.17162  Biso   1.000  O
  O20      1.0000 0.96952  0.67237  0.42764  Biso   1.000  O
  O21      1.0000 0.78680  0.25166  0.25036  Biso   1.000  O
  O22      1.0000 0.78495  0.23491  0.50179  Biso   1.000  O
  O23      1.0000 0.71608  0.76238  0.01796  Biso   1.000  O
  O24      1.0000 0.72899  0.75190  0.26922  Biso   1.000  O
  Hf13     1.0000 0.63999  0.04639  0.65208  Biso   1.000  Hf
  Hf14     1.0000 0.63350  0.46102  0.90319  Biso   1.000  Hf
  Hf15     1.0000 0.86431  0.54499  0.60944  Biso   1.000  Hf
  Hf16     1.0000 0.85294  0.96074  0.86150  Biso   1.000  Hf
  O25      1.0000 0.53719  0.33831  0.58722  Biso   1.000  O
  O26      1.0000 0.52901  0.17554  0.83156  Biso   1.000  O
  O27      1.0000 0.96392  0.83505  0.67827  Biso   1.000  O
  O28      1.0000 0.95651  0.67111  0.92394  Biso   1.000  O
  O29      1.0000 0.77368  0.26230  0.74969  Biso   1.000  O
  O30      1.0000 0.76697  0.25156  0.00008  Biso   1.000  O
  O31      1.0000 0.72843  0.75303  0.51843  Biso   1.000  O
  O32      1.0000 0.72096  0.74588  0.76721  Biso   1.000  O
  Ta1      1.0000 0.44920  0.43617  0.28064  Biso   1.000  Ta
