data_image0
_cell_length_a       10.2198
_cell_length_b       10.3054
_cell_length_c       5.29697
_cell_angle_alpha    90.5424
_cell_angle_beta     78.5279
_cell_angle_gamma    90.5885

_symmetry_space_group_name_H-M    "P 1"
_symmetry_int_tables_number       1

loop_
  _symmetry_equiv_pos_as_xyz
  'x, y, z'

loop_
  _atom_site_label
  _atom_site_occupancy
  _atom_site_fract_x
  _atom_site_fract_y
  _atom_site_fract_z
  _atom_site_thermal_displace_type
  _atom_site_B_iso_or_equiv
  _atom_site_type_symbol
  Hf1      1.0000 0.13017  0.02078  0.30155  Biso   1.000  Hf
  Hf2      1.0000 0.14250  0.23597  0.76704  Biso   1.000  Hf
  Hf3      1.0000 0.34295  0.28004  0.16779  Biso   1.000  Hf
  Hf4      1.0000 0.34770  0.48434  0.69815  Biso   1.000  Hf
  O1       1.0000 0.04585  0.16866  0.14671  Biso   1.000  O
  O2       1.0000 0.03332  0.08387  0.65790  Biso   1.000  O
  O3       1.0000 0.46588  0.39925  0.36637  Biso   1.000  O
  O4       1.0000 0.48003  0.35323  0.85558  Biso   1.000  O
  O5       1.0000 0.27939  0.12530  0.44484  Biso   1.000  O
  O6       1.0000 0.29889  0.13716  0.91023  Biso   1.000  O
  O7       1.0000 0.20896  0.39059  0.99811  Biso   1.000  O
  O8       1.0000 0.20681  0.37971  0.48291  Biso   1.000  O
  Hf5      1.0000 0.13304  0.52940  0.28798  Biso   1.000  Hf
  Hf6      1.0000 0.13146  0.73126  0.79842  Biso   1.000  Hf
  Hf7      1.0000 0.35858  0.76991  0.20998  Biso   1.000  Hf
  Hf8      1.0000 0.36166  0.96367  0.70670  Biso   1.000  Hf
  O9       1.0000 0.02420  0.66904  0.15578  Biso   1.000  O
  O10      1.0000 0.02862  0.59139  0.65420  Biso   1.000  O
  O11      1.0000 0.46845  0.91011  0.35078  Biso   1.000  O
  O12      1.0000 0.46301  0.82550  0.85289  Biso   1.000  O
  O13      1.0000 0.27252  0.62935  0.48313  Biso   1.000  O
  O14      1.0000 0.26795  0.62950  0.98337  Biso   1.000  O
  O15      1.0000 0.22241  0.88505  0.02505  Biso   1.000  O
  O16      1.0000 0.21911  0.86747  0.51965  Biso   1.000  O
  Hf9      1.0000 0.63934  0.02197  0.31285  Biso   1.000  Hf
  Hf10     1.0000 0.64999  0.22931  0.82132  Biso   1.000  Hf
  Hf11     1.0000 0.86625  0.27087  0.22143  Biso   1.000  Hf
  Hf12     1.0000 0.86170  0.47760  0.71956  Biso   1.000  Hf
  O17      1.0000 0.52212  0.16734  0.18113  Biso   1.000  O
  O18      1.0000 0.54076  0.06294  0.69866  Biso   1.000  O
  O19      1.0000 0.96299  0.42058  0.34810  Biso   1.000  O
  O20      1.0000 0.96427  0.33466  0.84844  Biso   1.000  O
  O21      1.0000 0.78344  0.12766  0.50045  Biso   1.000  O
  O22      1.0000 0.77968  0.11822  0.00897  Biso   1.000  O
  O23      1.0000 0.72734  0.37629  0.04509  Biso   1.000  O
  O24      1.0000 0.72885  0.37281  0.54044  Biso   1.000  O
  Hf13     1.0000 0.63804  0.52110  0.30503  Biso   1.000  Hf
  Hf14     1.0000 0.63487  0.72319  0.80088  Biso   1.000  Hf
  Hf15     1.0000 0.85418  0.77325  0.21565  Biso   1.000  Hf
  Hf16     1.0000 0.85603  0.97820  0.72212  Biso   1.000  Hf
  O25      1.0000 0.52662  0.65517  0.15802  Biso   1.000  O
  O26      1.0000 0.52633  0.58645  0.65156  Biso   1.000  O
  O27      1.0000 0.96190  0.91419  0.35740  Biso   1.000  O
  O28      1.0000 0.96264  0.83911  0.85723  Biso   1.000  O
  O29      1.0000 0.77116  0.62832  0.48735  Biso   1.000  O
  O30      1.0000 0.77092  0.62084  0.98869  Biso   1.000  O
  O31      1.0000 0.71839  0.87736  0.03218  Biso   1.000  O
  O32      1.0000 0.72071  0.87053  0.53128  Biso   1.000  O
  Ta1      1.0000 0.44222  0.22597  0.57575  Biso   1.000  Ta
