data_image0
_cell_length_a       10.0931
_cell_length_b       5.12701
_cell_length_c       10.4504
_cell_angle_alpha    90.0073
_cell_angle_beta     80.0299
_cell_angle_gamma    89.8529

_symmetry_space_group_name_H-M    "P 1"
_symmetry_int_tables_number       1

loop_
  _symmetry_equiv_pos_as_xyz
  'x, y, z'

loop_
  _atom_site_label
  _atom_site_occupancy
  _atom_site_fract_x
  _atom_site_fract_y
  _atom_site_fract_z
  _atom_site_thermal_displace_type
  _atom_site_B_iso_or_equiv
  _atom_site_type_symbol
  Ta1      1.0000 0.13953  0.04593  0.14695  Biso   1.000  Ta
  Hf1      1.0000 0.14010  0.45819  0.39538  Biso   1.000  Hf
  Hf2      1.0000 0.35932  0.54949  0.10477  Biso   1.000  Hf
  Hf3      1.0000 0.36195  0.95792  0.35411  Biso   1.000  Hf
  O1       1.0000 0.03646  0.32782  0.08169  Biso   1.000  O
  O2       1.0000 0.04080  0.15411  0.32594  Biso   1.000  O
  O3       1.0000 0.46524  0.83934  0.17066  Biso   1.000  O
  O4       1.0000 0.46537  0.66207  0.41993  Biso   1.000  O
  O5       1.0000 0.27695  0.25772  0.23974  Biso   1.000  O
  O6       1.0000 0.27827  0.24310  0.49082  Biso   1.000  O
  O7       1.0000 0.21476  0.76281  0.01156  Biso   1.000  O
  O8       1.0000 0.22189  0.74680  0.25962  Biso   1.000  O
  Hf4      1.0000 0.13887  0.04272  0.64556  Biso   1.000  Hf
  Hf5      1.0000 0.13862  0.45681  0.89510  Biso   1.000  Hf
  Hf6      1.0000 0.36168  0.54332  0.60417  Biso   1.000  Hf
  Hf7      1.0000 0.35948  0.95816  0.85490  Biso   1.000  Hf
  O9       1.0000 0.03528  0.33521  0.57776  Biso   1.000  O
  O10      1.0000 0.03479  0.16235  0.82922  Biso   1.000  O
  O11      1.0000 0.46368  0.83995  0.67033  Biso   1.000  O
  O12      1.0000 0.46000  0.65938  0.92039  Biso   1.000  O
  O13      1.0000 0.27667  0.25809  0.74075  Biso   1.000  O
  O14      1.0000 0.27308  0.24070  0.99309  Biso   1.000  O
  O15      1.0000 0.22347  0.75729  0.50922  Biso   1.000  O
  O16      1.0000 0.22250  0.74204  0.75956  Biso   1.000  O
  Hf8      1.0000 0.63935  0.04590  0.14584  Biso   1.000  Hf
  Hf9      1.0000 0.64054  0.45690  0.39565  Biso   1.000  Hf
  Hf10     1.0000 0.86182  0.54494  0.10347  Biso   1.000  Hf
  Hf11     1.0000 0.86138  0.95645  0.35317  Biso   1.000  Hf
  O17      1.0000 0.53419  0.34092  0.08119  Biso   1.000  O
  O18      1.0000 0.53720  0.16202  0.33080  Biso   1.000  O
  O19      1.0000 0.97165  0.83617  0.16785  Biso   1.000  O
  O20      1.0000 0.96439  0.65885  0.41833  Biso   1.000  O
  O21      1.0000 0.77926  0.25769  0.24044  Biso   1.000  O
  O22      1.0000 0.77881  0.24034  0.49018  Biso   1.000  O
  O23      1.0000 0.72108  0.75888  0.00913  Biso   1.000  O
  O24      1.0000 0.72628  0.74238  0.25901  Biso   1.000  O
  Hf12     1.0000 0.63882  0.04268  0.64635  Biso   1.000  Hf
  Hf13     1.0000 0.63768  0.45762  0.89667  Biso   1.000  Hf
  Hf14     1.0000 0.86071  0.54227  0.60408  Biso   1.000  Hf
  Hf15     1.0000 0.86019  0.95648  0.85454  Biso   1.000  Hf
  O25      1.0000 0.53729  0.34041  0.58061  Biso   1.000  O
  O26      1.0000 0.53448  0.16074  0.83138  Biso   1.000  O
  O27      1.0000 0.96446  0.83620  0.66985  Biso   1.000  O
  O28      1.0000 0.96342  0.65906  0.92033  Biso   1.000  O
  O29      1.0000 0.77605  0.25794  0.74075  Biso   1.000  O
  O30      1.0000 0.77599  0.24336  0.99023  Biso   1.000  O
  O31      1.0000 0.72389  0.75843  0.50930  Biso   1.000  O
  O32      1.0000 0.72232  0.74204  0.75964  Biso   1.000  O
