data_image0
_cell_length_a       10.0617
_cell_length_b       5.13935
_cell_length_c       10.517
_cell_angle_alpha    90.0207
_cell_angle_beta     90.0565
_cell_angle_gamma    89.8794

_symmetry_space_group_name_H-M    "P 1"
_symmetry_int_tables_number       1

loop_
  _symmetry_equiv_pos_as_xyz
  'x, y, z'

loop_
  _atom_site_label
  _atom_site_occupancy
  _atom_site_fract_x
  _atom_site_fract_y
  _atom_site_fract_z
  _atom_site_thermal_displace_type
  _atom_site_B_iso_or_equiv
  _atom_site_type_symbol
  Ta1      1.0000 0.13958  0.04502  0.17277  Biso   1.000  Ta
  Zr1      1.0000 0.13887  0.04253  0.67184  Biso   1.000  Zr
  Zr2      1.0000 0.13868  0.45928  0.42147  Biso   1.000  Zr
  Zr3      1.0000 0.14034  0.45650  0.92234  Biso   1.000  Zr
  Zr4      1.0000 0.35935  0.55008  0.17171  Biso   1.000  Zr
  Zr5      1.0000 0.36153  0.54317  0.67155  Biso   1.000  Zr
  Zr6      1.0000 0.36047  0.95903  0.42144  Biso   1.000  Zr
  Zr7      1.0000 0.36111  0.95741  0.92220  Biso   1.000  Zr
  Zr8      1.0000 0.63913  0.04522  0.07775  Biso   1.000  Zr
  Zr9      1.0000 0.63888  0.04232  0.57857  Biso   1.000  Zr
  Zr10     1.0000 0.63856  0.45708  0.32770  Biso   1.000  Zr
  Zr11     1.0000 0.63959  0.45831  0.82872  Biso   1.000  Zr
  Zr12     1.0000 0.86201  0.54380  0.07843  Biso   1.000  Zr
  Zr13     1.0000 0.86059  0.54156  0.57859  Biso   1.000  Zr
  Zr14     1.0000 0.86079  0.95720  0.32804  Biso   1.000  Zr
  Zr15     1.0000 0.86173  0.95632  0.82909  Biso   1.000  Zr
  O1       1.0000 0.03457  0.31604  0.08640  Biso   1.000  O
  O2       1.0000 0.03135  0.32464  0.57998  Biso   1.000  O
  O3       1.0000 0.03682  0.16306  0.32879  Biso   1.000  O
  O4       1.0000 0.03212  0.17306  0.83213  Biso   1.000  O
  O5       1.0000 0.46724  0.83200  0.08248  Biso   1.000  O
  O6       1.0000 0.46701  0.83164  0.58324  Biso   1.000  O
  O7       1.0000 0.46527  0.66891  0.33357  Biso   1.000  O
  O8       1.0000 0.46771  0.67171  0.83318  Biso   1.000  O
  O9       1.0000 0.27377  0.24549  0.29326  Biso   1.000  O
  O10      1.0000 0.27670  0.24835  0.79604  Biso   1.000  O
  O11      1.0000 0.27337  0.24892  0.05022  Biso   1.000  O
  O12      1.0000 0.27635  0.25258  0.54538  Biso   1.000  O
  O13      1.0000 0.21836  0.75337  0.29530  Biso   1.000  O
  O14      1.0000 0.22378  0.74762  0.79615  Biso   1.000  O
  O15      1.0000 0.21505  0.76126  0.04854  Biso   1.000  O
  O16      1.0000 0.22368  0.75135  0.54531  Biso   1.000  O
  O17      1.0000 0.53243  0.33527  0.16580  Biso   1.000  O
  O18      1.0000 0.53307  0.33161  0.66611  Biso   1.000  O
  O19      1.0000 0.53238  0.16961  0.41588  Biso   1.000  O
  O20      1.0000 0.53193  0.17170  0.91645  Biso   1.000  O
  O21      1.0000 0.97654  0.82722  0.16696  Biso   1.000  O
  O22      1.0000 0.96873  0.82556  0.66781  Biso   1.000  O
  O23      1.0000 0.96667  0.66829  0.41579  Biso   1.000  O
  O24      1.0000 0.96796  0.66713  0.91870  Biso   1.000  O
  O25      1.0000 0.77708  0.24916  0.95449  Biso   1.000  O
  O26      1.0000 0.77677  0.24646  0.45390  Biso   1.000  O
  O27      1.0000 0.77711  0.25110  0.20447  Biso   1.000  O
  O28      1.0000 0.77654  0.25094  0.70426  Biso   1.000  O
  O29      1.0000 0.72342  0.74890  0.95403  Biso   1.000  O
  O30      1.0000 0.72367  0.74743  0.45447  Biso   1.000  O
  O31      1.0000 0.72711  0.75274  0.20435  Biso   1.000  O
  O32      1.0000 0.72426  0.75207  0.70435  Biso   1.000  O
