data_image0
_cell_length_a       10.3413
_cell_length_b       5.19704
_cell_length_c       10.632
_cell_angle_alpha    89.2213
_cell_angle_beta     79.2143
_cell_angle_gamma    89.4904

_symmetry_space_group_name_H-M    "P 1"
_symmetry_int_tables_number       1

loop_
  _symmetry_equiv_pos_as_xyz
  'x, y, z'

loop_
  _atom_site_label
  _atom_site_occupancy
  _atom_site_fract_x
  _atom_site_fract_y
  _atom_site_fract_z
  _atom_site_thermal_displace_type
  _atom_site_B_iso_or_equiv
  _atom_site_type_symbol
  Zr1      1.0000 0.13492  0.03604  0.14473  Biso   1.000  Zr
  Zr2      1.0000 0.11532  0.44420  0.39950  Biso   1.000  Zr
  Zr3      1.0000 0.35900  0.53631  0.08977  Biso   1.000  Zr
  Zr4      1.0000 0.36041  0.98189  0.35327  Biso   1.000  Zr
  O1       1.0000 0.02968  0.31255  0.07005  Biso   1.000  O
  O2       1.0000 0.02275  0.17293  0.31707  Biso   1.000  O
  O3       1.0000 0.47820  0.77127  0.19703  Biso   1.000  O
  O4       1.0000 0.48804  0.72993  0.43980  Biso   1.000  O
  O5       1.0000 0.26893  0.24950  0.23875  Biso   1.000  O
  O6       1.0000 0.26965  0.25049  0.49035  Biso   1.000  O
  O7       1.0000 0.22142  0.75796  0.00488  Biso   1.000  O
  O8       1.0000 0.23592  0.72867  0.25941  Biso   1.000  O
  Zr5      1.0000 0.13800  0.04166  0.64651  Biso   1.000  Zr
  Zr6      1.0000 0.13589  0.45413  0.89324  Biso   1.000  Zr
  Zr7      1.0000 0.36792  0.55086  0.61068  Biso   1.000  Zr
  Zr8      1.0000 0.36151  0.96207  0.85304  Biso   1.000  Zr
  O9       1.0000 0.02362  0.31658  0.57831  Biso   1.000  O
  O10      1.0000 0.03043  0.17704  0.82100  Biso   1.000  O
  O11      1.0000 0.47388  0.81836  0.68533  Biso   1.000  O
  O12      1.0000 0.47497  0.69717  0.93066  Biso   1.000  O
  O13      1.0000 0.27236  0.25582  0.73993  Biso   1.000  O
  O14      1.0000 0.27195  0.24484  0.98759  Biso   1.000  O
  O15      1.0000 0.24057  0.73650  0.49727  Biso   1.000  O
  O16      1.0000 0.22567  0.74949  0.75794  Biso   1.000  O
  Zr9      1.0000 0.63980  0.03392  0.14529  Biso   1.000  Zr
  Zr10     1.0000 0.64944  0.46372  0.40076  Biso   1.000  Zr
  Zr11     1.0000 0.86117  0.54226  0.10555  Biso   1.000  Zr
  Zr12     1.0000 0.85637  0.95849  0.35516  Biso   1.000  Zr
  O17      1.0000 0.52490  0.29160  0.06631  Biso   1.000  O
  O18      1.0000 0.52405  0.22683  0.31361  Biso   1.000  O
  O19      1.0000 0.97271  0.80516  0.17983  Biso   1.000  O
  O20      1.0000 0.96309  0.69238  0.43373  Biso   1.000  O
  O21      1.0000 0.77239  0.25117  0.23879  Biso   1.000  O
  O22      1.0000 0.78122  0.24934  0.49425  Biso   1.000  O
  O23      1.0000 0.72263  0.74871  0.01159  Biso   1.000  O
  O24      1.0000 0.72735  0.74684  0.26186  Biso   1.000  O
  Zr13     1.0000 0.63853  0.04812  0.64754  Biso   1.000  Zr
  Zr14     1.0000 0.63851  0.45073  0.89802  Biso   1.000  Zr
  Zr15     1.0000 0.85800  0.55056  0.61114  Biso   1.000  Zr
  Zr16     1.0000 0.86115  0.95548  0.85605  Biso   1.000  Zr
  O25      1.0000 0.53088  0.31637  0.56839  Biso   1.000  O
  O26      1.0000 0.52552  0.19770  0.81816  Biso   1.000  O
  O27      1.0000 0.97247  0.81788  0.67930  Biso   1.000  O
  O28      1.0000 0.96702  0.67487  0.92741  Biso   1.000  O
  O29      1.0000 0.77171  0.25595  0.74363  Biso   1.000  O
  O30      1.0000 0.77481  0.23996  0.99232  Biso   1.000  O
  O31      1.0000 0.72335  0.75713  0.51397  Biso   1.000  O
  O32      1.0000 0.72703  0.74794  0.76359  Biso   1.000  O
  Ta1      1.0000 0.37619  0.50082  0.34262  Biso   1.000  Ta
