data_image0
_cell_length_a       10.2943
_cell_length_b       10.3194
_cell_length_c       10.6169
_cell_angle_alpha    89.7293
_cell_angle_beta     79.566
_cell_angle_gamma    89.7342

_symmetry_space_group_name_H-M    "P 1"
_symmetry_int_tables_number       1

loop_
  _symmetry_equiv_pos_as_xyz
  'x, y, z'

loop_
  _atom_site_label
  _atom_site_occupancy
  _atom_site_fract_x
  _atom_site_fract_y
  _atom_site_fract_z
  _atom_site_thermal_displace_type
  _atom_site_B_iso_or_equiv
  _atom_site_type_symbol
  Zr1      1.0000 0.13517  0.01941  0.14356  Biso   1.000  Zr
  Zr2      1.0000 0.11933  0.22162  0.39678  Biso   1.000  Zr
  Zr3      1.0000 0.35723  0.26910  0.08992  Biso   1.000  Zr
  Zr4      1.0000 0.36527  0.50112  0.35439  Biso   1.000  Zr
  O1       1.0000 0.03112  0.16144  0.07214  Biso   1.000  O
  O2       1.0000 0.02348  0.08328  0.31887  Biso   1.000  O
  O3       1.0000 0.47826  0.38889  0.19567  Biso   1.000  O
  O4       1.0000 0.49075  0.36484  0.44041  Biso   1.000  O
  O5       1.0000 0.27245  0.12279  0.23747  Biso   1.000  O
  O6       1.0000 0.27562  0.11860  0.48245  Biso   1.000  O
  O7       1.0000 0.22047  0.38063  0.00421  Biso   1.000  O
  O8       1.0000 0.23785  0.36567  0.25889  Biso   1.000  O
  Zr5      1.0000 0.13822  0.02107  0.64525  Biso   1.000  Zr
  Zr6      1.0000 0.13650  0.22785  0.89197  Biso   1.000  Zr
  Zr7      1.0000 0.36852  0.27370  0.60932  Biso   1.000  Zr
  Zr8      1.0000 0.36043  0.48132  0.85405  Biso   1.000  Zr
  O9       1.0000 0.02772  0.16039  0.57695  Biso   1.000  O
  O10      1.0000 0.03111  0.08589  0.82393  Biso   1.000  O
  O11      1.0000 0.47222  0.41016  0.68493  Biso   1.000  O
  O12      1.0000 0.47344  0.34706  0.92880  Biso   1.000  O
  O13      1.0000 0.27366  0.12738  0.73827  Biso   1.000  O
  O14      1.0000 0.27202  0.12111  0.98612  Biso   1.000  O
  O15      1.0000 0.24540  0.36511  0.49342  Biso   1.000  O
  O16      1.0000 0.22456  0.37361  0.75643  Biso   1.000  O
  Zr9      1.0000 0.13928  0.52034  0.14554  Biso   1.000  Zr
  Zr10     1.0000 0.13281  0.72792  0.39782  Biso   1.000  Zr
  Zr11     1.0000 0.36119  0.77154  0.10252  Biso   1.000  Zr
  Zr12     1.0000 0.35558  0.96636  0.35381  Biso   1.000  Zr
  O17      1.0000 0.03169  0.65953  0.07355  Biso   1.000  O
  O18      1.0000 0.03257  0.58698  0.32358  Biso   1.000  O
  O19      1.0000 0.46874  0.90854  0.17839  Biso   1.000  O
  O20      1.0000 0.46875  0.83962  0.42954  Biso   1.000  O
  O21      1.0000 0.27342  0.62956  0.23993  Biso   1.000  O
  O22      1.0000 0.26864  0.62489  0.49646  Biso   1.000  O
  O23      1.0000 0.22446  0.87746  0.00941  Biso   1.000  O
  O24      1.0000 0.22067  0.86892  0.25886  Biso   1.000  O
  Zr13     1.0000 0.13821  0.52017  0.64671  Biso   1.000  Zr
  Zr14     1.0000 0.13809  0.72781  0.89554  Biso   1.000  Zr
  Zr15     1.0000 0.36093  0.77271  0.60684  Biso   1.000  Zr
  Zr16     1.0000 0.36132  0.97851  0.85314  Biso   1.000  Zr
  O25      1.0000 0.02773  0.66034  0.57574  Biso   1.000  O
  O26      1.0000 0.03286  0.58669  0.82235  Biso   1.000  O
  O27      1.0000 0.46926  0.91100  0.67738  Biso   1.000  O
  O28      1.0000 0.46945  0.84079  0.92796  Biso   1.000  O
  O29      1.0000 0.27406  0.62812  0.74069  Biso   1.000  O
  O30      1.0000 0.27511  0.62356  0.99082  Biso   1.000  O
  O31      1.0000 0.22197  0.87522  0.51085  Biso   1.000  O
  O32      1.0000 0.22467  0.87232  0.76035  Biso   1.000  O
  Zr17     1.0000 0.63840  0.02130  0.14368  Biso   1.000  Zr
  Zr18     1.0000 0.64854  0.23413  0.39971  Biso   1.000  Zr
  Zr19     1.0000 0.86236  0.27200  0.10469  Biso   1.000  Zr
  Zr20     1.0000 0.86185  0.48158  0.35485  Biso   1.000  Zr
  O33      1.0000 0.52843  0.15578  0.07075  Biso   1.000  O
  O34      1.0000 0.52155  0.09980  0.32700  Biso   1.000  O
  O35      1.0000 0.97266  0.40869  0.17707  Biso   1.000  O
  O36      1.0000 0.96456  0.34338  0.43028  Biso   1.000  O
  O37      1.0000 0.77040  0.12793  0.24000  Biso   1.000  O
  O38      1.0000 0.77874  0.12224  0.49118  Biso   1.000  O
  O39      1.0000 0.72476  0.37670  0.01168  Biso   1.000  O
  O40      1.0000 0.73121  0.37407  0.26162  Biso   1.000  O
  Zr21     1.0000 0.63877  0.02197  0.64705  Biso   1.000  Zr
  Zr22     1.0000 0.63936  0.22800  0.89694  Biso   1.000  Zr
  Zr23     1.0000 0.85916  0.27314  0.60984  Biso   1.000  Zr
  Zr24     1.0000 0.86105  0.47874  0.85521  Biso   1.000  Zr
  O41      1.0000 0.53395  0.16023  0.57131  Biso   1.000  O
  O42      1.0000 0.52880  0.09255  0.82250  Biso   1.000  O
  O43      1.0000 0.97040  0.41080  0.67598  Biso   1.000  O
  O44      1.0000 0.96626  0.33668  0.92465  Biso   1.000  O
  O45      1.0000 0.77331  0.12796  0.74187  Biso   1.000  O
  O46      1.0000 0.77480  0.12081  0.99098  Biso   1.000  O
  O47      1.0000 0.72731  0.37875  0.51437  Biso   1.000  O
  O48      1.0000 0.72625  0.37314  0.76261  Biso   1.000  O
  Zr25     1.0000 0.63884  0.51914  0.14670  Biso   1.000  Zr
  Zr26     1.0000 0.64075  0.73038  0.39698  Biso   1.000  Zr
  Zr27     1.0000 0.86073  0.76985  0.10385  Biso   1.000  Zr
  Zr28     1.0000 0.85645  0.97606  0.35363  Biso   1.000  Zr
  O49      1.0000 0.52741  0.65355  0.07106  Biso   1.000  O
  O50      1.0000 0.53465  0.60151  0.31584  Biso   1.000  O
  O51      1.0000 0.96506  0.91021  0.17310  Biso   1.000  O
  O52      1.0000 0.96465  0.83690  0.42553  Biso   1.000  O
  O53      1.0000 0.77642  0.62721  0.23862  Biso   1.000  O
  O54      1.0000 0.77457  0.62310  0.49041  Biso   1.000  O
  O55      1.0000 0.72402  0.87773  0.01168  Biso   1.000  O
  O56      1.0000 0.72122  0.87306  0.26045  Biso   1.000  O
  Zr29     1.0000 0.63775  0.52348  0.64698  Biso   1.000  Zr
  Zr30     1.0000 0.63759  0.72733  0.89616  Biso   1.000  Zr
  Zr31     1.0000 0.86011  0.77272  0.60636  Biso   1.000  Zr
  Zr32     1.0000 0.86105  0.97732  0.85476  Biso   1.000  Zr
  O57      1.0000 0.52917  0.65889  0.57186  Biso   1.000  O
  O58      1.0000 0.52905  0.59408  0.82179  Biso   1.000  O
  O59      1.0000 0.96816  0.91209  0.67542  Biso   1.000  O
  O60      1.0000 0.96662  0.83456  0.92403  Biso   1.000  O
  O61      1.0000 0.77354  0.62817  0.74036  Biso   1.000  O
  O62      1.0000 0.77381  0.62119  0.99003  Biso   1.000  O
  O63      1.0000 0.72251  0.87842  0.51141  Biso   1.000  O
  O64      1.0000 0.72451  0.87244  0.76169  Biso   1.000  O
  Ta1      1.0000 0.37957  0.24846  0.34017  Biso   1.000  Ta
