data_image0
_cell_length_a       5.13184
_cell_length_b       10.1384
_cell_length_c       10.1185
_cell_angle_alpha    90.0001
_cell_angle_beta     90.0013
_cell_angle_gamma    89.9993

_symmetry_space_group_name_H-M    "P 1"
_symmetry_int_tables_number       1

loop_
  _symmetry_equiv_pos_as_xyz
  'x, y, z'

loop_
  _atom_site_label
  _atom_site_occupancy
  _atom_site_fract_x
  _atom_site_fract_y
  _atom_site_fract_z
  _atom_site_thermal_displace_type
  _atom_site_B_iso_or_equiv
  _atom_site_type_symbol
  Zr1      1.0000 0.25035  0.98253  0.10669  Biso   1.000  Zr
  Zr2      1.0000 0.25036  0.24998  0.37959  Biso   1.000  Zr
  Zr3      1.0000 0.75041  0.24999  0.10668  Biso   1.000  Zr
  Zr4      1.0000 0.75037  0.49915  0.35413  Biso   1.000  Zr
  O1       1.0000 0.99343  0.12911  0.22759  Biso   1.000  O
  O2       1.0000 0.01901  0.11092  0.47765  Biso   1.000  O
  O3       1.0000 0.02152  0.37700  0.23242  Biso   1.000  O
  O4       1.0000 0.96759  0.36986  0.48255  Biso   1.000  O
  O5       1.0000 0.47929  0.12296  0.23244  Biso   1.000  O
  O6       1.0000 0.53312  0.13010  0.48256  Biso   1.000  O
  O7       1.0000 0.48170  0.38905  0.47765  Biso   1.000  O
  O8       1.0000 0.50738  0.37085  0.22758  Biso   1.000  O
  Zr5      1.0000 0.25035  0.00165  0.60669  Biso   1.000  Zr
  Zr6      1.0000 0.25035  0.24999  0.83379  Biso   1.000  Zr
  Zr7      1.0000 0.75037  0.24999  0.60669  Biso   1.000  Zr
  Zr8      1.0000 0.75032  0.49914  0.85925  Biso   1.000  Zr
  O9       1.0000 0.96759  0.13011  0.73083  Biso   1.000  O
  O10      1.0000 0.02152  0.12297  0.98094  Biso   1.000  O
  O11      1.0000 0.01901  0.38904  0.73571  Biso   1.000  O
  O12      1.0000 0.99342  0.37084  0.98578  Biso   1.000  O
  O13      1.0000 0.48169  0.11092  0.73573  Biso   1.000  O
  O14      1.0000 0.50737  0.12911  0.98580  Biso   1.000  O
  O15      1.0000 0.47928  0.37700  0.98095  Biso   1.000  O
  O16      1.0000 0.53312  0.36985  0.73083  Biso   1.000  O
  Zr9      1.0000 0.25036  0.51744  0.10669  Biso   1.000  Zr
  Zr10     1.0000 0.25037  0.75000  0.36195  Biso   1.000  Zr
  Zr11     1.0000 0.75035  0.74998  0.10669  Biso   1.000  Zr
  Zr12     1.0000 0.75033  0.00084  0.35412  Biso   1.000  Zr
  O17      1.0000 0.97130  0.62878  0.22602  Biso   1.000  O
  O18      1.0000 0.03637  0.61418  0.47290  Biso   1.000  O
  O19      1.0000 0.02595  0.87660  0.24087  Biso   1.000  O
  O20      1.0000 0.96577  0.86691  0.48553  Biso   1.000  O
  O21      1.0000 0.47473  0.62337  0.24087  Biso   1.000  O
  O22      1.0000 0.53499  0.63305  0.48553  Biso   1.000  O
  O23      1.0000 0.46437  0.88580  0.47291  Biso   1.000  O
  O24      1.0000 0.52938  0.87117  0.22604  Biso   1.000  O
  Zr13     1.0000 0.25036  0.49832  0.60668  Biso   1.000  Zr
  Zr14     1.0000 0.25037  0.74998  0.85144  Biso   1.000  Zr
  Zr15     1.0000 0.75038  0.74999  0.60669  Biso   1.000  Zr
  Zr16     1.0000 0.75037  0.00082  0.85925  Biso   1.000  Zr
  O25      1.0000 0.96573  0.63305  0.72785  Biso   1.000  O
  O26      1.0000 0.02597  0.62336  0.97251  Biso   1.000  O
  O27      1.0000 0.03637  0.88579  0.74047  Biso   1.000  O
  O28      1.0000 0.97130  0.87118  0.98735  Biso   1.000  O
  O29      1.0000 0.46435  0.61416  0.74048  Biso   1.000  O
  O30      1.0000 0.52940  0.62878  0.98735  Biso   1.000  O
  O31      1.0000 0.47474  0.87660  0.97251  Biso   1.000  O
  O32      1.0000 0.53499  0.86690  0.72786  Biso   1.000  O
  Ta1      1.0000 0.25041  0.24998  0.10669  Biso   1.000  Ta
