data_image0
_cell_length_a       10.1594
_cell_length_b       10.3291
_cell_length_c       5.24968
_cell_angle_alpha    89.9821
_cell_angle_beta     80.0754
_cell_angle_gamma    89.857

_symmetry_space_group_name_H-M    "P 1"
_symmetry_int_tables_number       1

loop_
  _symmetry_equiv_pos_as_xyz
  'x, y, z'

loop_
  _atom_site_label
  _atom_site_occupancy
  _atom_site_fract_x
  _atom_site_fract_y
  _atom_site_fract_z
  _atom_site_thermal_displace_type
  _atom_site_B_iso_or_equiv
  _atom_site_type_symbol
  Ta1      1.0000 0.13927  0.02301  0.29178  Biso   1.000  Ta
  Zr1      1.0000 0.13922  0.52178  0.29093  Biso   1.000  Zr
  Zr2      1.0000 0.63919  0.02179  0.29163  Biso   1.000  Zr
  Zr3      1.0000 0.63913  0.52273  0.29130  Biso   1.000  Zr
  Zr4      1.0000 0.14007  0.22885  0.78757  Biso   1.000  Zr
  Zr5      1.0000 0.13851  0.72884  0.79083  Biso   1.000  Zr
  Zr6      1.0000 0.63944  0.22847  0.79020  Biso   1.000  Zr
  Zr7      1.0000 0.63903  0.72883  0.79243  Biso   1.000  Zr
  Zr8      1.0000 0.36179  0.27253  0.20850  Biso   1.000  Zr
  Zr9      1.0000 0.35955  0.77390  0.21079  Biso   1.000  Zr
  Zr10     1.0000 0.86048  0.27114  0.20976  Biso   1.000  Zr
  Zr11     1.0000 0.86168  0.77250  0.20848  Biso   1.000  Zr
  Zr12     1.0000 0.36104  0.47963  0.70974  Biso   1.000  Zr
  Zr13     1.0000 0.36044  0.97840  0.70969  Biso   1.000  Zr
  Zr14     1.0000 0.86101  0.47828  0.70944  Biso   1.000  Zr
  Zr15     1.0000 0.86070  0.97851  0.70927  Biso   1.000  Zr
  O1       1.0000 0.03639  0.16117  0.16010  Biso   1.000  O
  O2       1.0000 0.03540  0.66856  0.16054  Biso   1.000  O
  O3       1.0000 0.53601  0.17027  0.16134  Biso   1.000  O
  O4       1.0000 0.53551  0.67160  0.16360  Biso   1.000  O
  O5       1.0000 0.04035  0.07782  0.64601  Biso   1.000  O
  O6       1.0000 0.03566  0.57953  0.66215  Biso   1.000  O
  O7       1.0000 0.53517  0.08078  0.66216  Biso   1.000  O
  O8       1.0000 0.53594  0.58008  0.66332  Biso   1.000  O
  O9       1.0000 0.46403  0.42133  0.33730  Biso   1.000  O
  O10      1.0000 0.46442  0.91983  0.34212  Biso   1.000  O
  O11      1.0000 0.96613  0.41649  0.34043  Biso   1.000  O
  O12      1.0000 0.97273  0.91992  0.33406  Biso   1.000  O
  O13      1.0000 0.46305  0.32928  0.83759  Biso   1.000  O
  O14      1.0000 0.46160  0.82999  0.84045  Biso   1.000  O
  O15      1.0000 0.96454  0.32732  0.84025  Biso   1.000  O
  O16      1.0000 0.96374  0.83059  0.83812  Biso   1.000  O
  O17      1.0000 0.27529  0.12578  0.47613  Biso   1.000  O
  O18      1.0000 0.27566  0.63072  0.48186  Biso   1.000  O
  O19      1.0000 0.77804  0.12841  0.48156  Biso   1.000  O
  O20      1.0000 0.77700  0.62902  0.48225  Biso   1.000  O
  O21      1.0000 0.27264  0.11972  0.98767  Biso   1.000  O
  O22      1.0000 0.27657  0.62215  0.98203  Biso   1.000  O
  O23      1.0000 0.77732  0.12087  0.98018  Biso   1.000  O
  O24      1.0000 0.77682  0.62150  0.98219  Biso   1.000  O
  O25      1.0000 0.22262  0.37825  0.01886  Biso   1.000  O
  O26      1.0000 0.21599  0.88304  0.02501  Biso   1.000  O
  O27      1.0000 0.72390  0.37890  0.01911  Biso   1.000  O
  O28      1.0000 0.72215  0.87926  0.01834  Biso   1.000  O
  O29      1.0000 0.22510  0.37041  0.51922  Biso   1.000  O
  O30      1.0000 0.21876  0.87530  0.51673  Biso   1.000  O
  O31      1.0000 0.72389  0.37103  0.51848  Biso   1.000  O
  O32      1.0000 0.72706  0.87190  0.51852  Biso   1.000  O
