data_image0
_cell_length_a       10.0629
_cell_length_b       10.2004
_cell_length_c       10.0629
_cell_angle_alpha    90.0001
_cell_angle_beta     89.9996
_cell_angle_gamma    89.9999

_symmetry_space_group_name_H-M    "P 1"
_symmetry_int_tables_number       1

loop_
  _symmetry_equiv_pos_as_xyz
  'x, y, z'

loop_
  _atom_site_label
  _atom_site_occupancy
  _atom_site_fract_x
  _atom_site_fract_y
  _atom_site_fract_z
  _atom_site_thermal_displace_type
  _atom_site_B_iso_or_equiv
  _atom_site_type_symbol
  Ta1      1.0000 0.12504  0.00006  0.12503  Biso   1.000  Ta
  Zr1      1.0000 0.12503  0.00007  0.62503  Biso   1.000  Zr
  Zr2      1.0000 0.12502  0.50008  0.12503  Biso   1.000  Zr
  Zr3      1.0000 0.12502  0.50007  0.62503  Biso   1.000  Zr
  Zr4      1.0000 0.62503  0.00007  0.12503  Biso   1.000  Zr
  Zr5      1.0000 0.62503  0.00007  0.62503  Biso   1.000  Zr
  Zr6      1.0000 0.62502  0.50007  0.12502  Biso   1.000  Zr
  Zr7      1.0000 0.62502  0.50007  0.62503  Biso   1.000  Zr
  Zr8      1.0000 0.12648  0.25078  0.37574  Biso   1.000  Zr
  Zr9      1.0000 0.12356  0.25078  0.87432  Biso   1.000  Zr
  Zr10     1.0000 0.12357  0.74937  0.37575  Biso   1.000  Zr
  Zr11     1.0000 0.12649  0.74937  0.87432  Biso   1.000  Zr
  Zr12     1.0000 0.62581  0.24963  0.37500  Biso   1.000  Zr
  Zr13     1.0000 0.62424  0.24963  0.87506  Biso   1.000  Zr
  Zr14     1.0000 0.62425  0.75051  0.37500  Biso   1.000  Zr
  Zr15     1.0000 0.62581  0.75051  0.87506  Biso   1.000  Zr
  Zr16     1.0000 0.37573  0.25078  0.12649  Biso   1.000  Zr
  Zr17     1.0000 0.37499  0.24963  0.62581  Biso   1.000  Zr
  Zr18     1.0000 0.37574  0.74937  0.12357  Biso   1.000  Zr
  Zr19     1.0000 0.37500  0.75051  0.62425  Biso   1.000  Zr
  Zr20     1.0000 0.87431  0.25077  0.12357  Biso   1.000  Zr
  Zr21     1.0000 0.87505  0.24963  0.62424  Biso   1.000  Zr
  Zr22     1.0000 0.87432  0.74937  0.12649  Biso   1.000  Zr
  Zr23     1.0000 0.87505  0.75051  0.62582  Biso   1.000  Zr
  Zr24     1.0000 0.37553  0.00127  0.37553  Biso   1.000  Zr
  Zr25     1.0000 0.37552  0.99888  0.87454  Biso   1.000  Zr
  Zr26     1.0000 0.37572  0.50092  0.37572  Biso   1.000  Zr
  Zr27     1.0000 0.37572  0.49922  0.87433  Biso   1.000  Zr
  Zr28     1.0000 0.87454  0.99888  0.37552  Biso   1.000  Zr
  Zr29     1.0000 0.87453  0.00127  0.87454  Biso   1.000  Zr
  Zr30     1.0000 0.87433  0.49922  0.37572  Biso   1.000  Zr
  Zr31     1.0000 0.87433  0.50092  0.87433  Biso   1.000  Zr
  O1       1.0000 0.99765  0.14634  0.99766  Biso   1.000  O
  O2       1.0000 0.99668  0.14538  0.49429  Biso   1.000  O
  O3       1.0000 0.99911  0.64897  0.99911  Biso   1.000  O
  O4       1.0000 0.99879  0.64547  0.49935  Biso   1.000  O
  O5       1.0000 0.49429  0.14538  0.99668  Biso   1.000  O
  O6       1.0000 0.49720  0.14551  0.49720  Biso   1.000  O
  O7       1.0000 0.49934  0.64547  0.99879  Biso   1.000  O
  O8       1.0000 0.49886  0.64565  0.49886  Biso   1.000  O
  O9       1.0000 0.00611  0.09770  0.24394  Biso   1.000  O
  O10      1.0000 0.00137  0.10515  0.74724  Biso   1.000  O
  O11      1.0000 0.00037  0.60273  0.24971  Biso   1.000  O
  O12      1.0000 0.00086  0.60469  0.74936  Biso   1.000  O
  O13      1.0000 0.50281  0.10515  0.24869  Biso   1.000  O
  O14      1.0000 0.50152  0.10447  0.74854  Biso   1.000  O
  O15      1.0000 0.50072  0.60468  0.24920  Biso   1.000  O
  O16      1.0000 0.50077  0.60463  0.74930  Biso   1.000  O
  O17      1.0000 0.99909  0.35118  0.25096  Biso   1.000  O
  O18      1.0000 0.99878  0.35467  0.75072  Biso   1.000  O
  O19      1.0000 0.99768  0.85381  0.25239  Biso   1.000  O
  O20      1.0000 0.99668  0.85477  0.75576  Biso   1.000  O
  O21      1.0000 0.49933  0.35467  0.25127  Biso   1.000  O
  O22      1.0000 0.49885  0.35449  0.75120  Biso   1.000  O
  O23      1.0000 0.49430  0.85477  0.25338  Biso   1.000  O
  O24      1.0000 0.49720  0.85464  0.75286  Biso   1.000  O
  O25      1.0000 0.00036  0.39742  0.00036  Biso   1.000  O
  O26      1.0000 0.00085  0.39546  0.50071  Biso   1.000  O
  O27      1.0000 0.00611  0.90244  0.00611  Biso   1.000  O
  O28      1.0000 0.00137  0.89499  0.50281  Biso   1.000  O
  O29      1.0000 0.50071  0.39546  0.00086  Biso   1.000  O
  O30      1.0000 0.50076  0.39551  0.50076  Biso   1.000  O
  O31      1.0000 0.50281  0.89499  0.00137  Biso   1.000  O
  O32      1.0000 0.50152  0.89567  0.50152  Biso   1.000  O
  O33      1.0000 0.25239  0.14634  0.25239  Biso   1.000  O
  O34      1.0000 0.25337  0.14538  0.75576  Biso   1.000  O
  O35      1.0000 0.25097  0.64897  0.25097  Biso   1.000  O
  O36      1.0000 0.25128  0.64547  0.75074  Biso   1.000  O
  O37      1.0000 0.75576  0.14538  0.25337  Biso   1.000  O
  O38      1.0000 0.75285  0.14551  0.75286  Biso   1.000  O
  O39      1.0000 0.75073  0.64547  0.25128  Biso   1.000  O
  O40      1.0000 0.75121  0.64565  0.75121  Biso   1.000  O
  O41      1.0000 0.24395  0.09771  0.00610  Biso   1.000  O
  O42      1.0000 0.24869  0.10515  0.50281  Biso   1.000  O
  O43      1.0000 0.24971  0.60273  0.00037  Biso   1.000  O
  O44      1.0000 0.24920  0.60468  0.50072  Biso   1.000  O
  O45      1.0000 0.74724  0.10515  0.00137  Biso   1.000  O
  O46      1.0000 0.74853  0.10447  0.50152  Biso   1.000  O
  O47      1.0000 0.74935  0.60469  0.00087  Biso   1.000  O
  O48      1.0000 0.74930  0.60463  0.50077  Biso   1.000  O
  O49      1.0000 0.25096  0.35117  0.99909  Biso   1.000  O
  O50      1.0000 0.25126  0.35467  0.49933  Biso   1.000  O
  O51      1.0000 0.25239  0.85380  0.99768  Biso   1.000  O
  O52      1.0000 0.25337  0.85477  0.49431  Biso   1.000  O
  O53      1.0000 0.75072  0.35467  0.99879  Biso   1.000  O
  O54      1.0000 0.75120  0.35449  0.49886  Biso   1.000  O
  O55      1.0000 0.75576  0.85476  0.99668  Biso   1.000  O
  O56      1.0000 0.75286  0.85464  0.49720  Biso   1.000  O
  O57      1.0000 0.24969  0.39742  0.24969  Biso   1.000  O
  O58      1.0000 0.24920  0.39546  0.74934  Biso   1.000  O
  O59      1.0000 0.24396  0.90244  0.24396  Biso   1.000  O
  O60      1.0000 0.24868  0.89499  0.74725  Biso   1.000  O
  O61      1.0000 0.74934  0.39546  0.24920  Biso   1.000  O
  O62      1.0000 0.74929  0.39551  0.74929  Biso   1.000  O
  O63      1.0000 0.74725  0.89499  0.24869  Biso   1.000  O
  O64      1.0000 0.74853  0.89567  0.74854  Biso   1.000  O
