data_image0
_cell_length_a       10.0614
_cell_length_b       10.2805
_cell_length_c       5.2564
_cell_angle_alpha    90.0334
_cell_angle_beta     89.9992
_cell_angle_gamma    89.9186

_symmetry_space_group_name_H-M    "P 1"
_symmetry_int_tables_number       1

loop_
  _symmetry_equiv_pos_as_xyz
  'x, y, z'

loop_
  _atom_site_label
  _atom_site_occupancy
  _atom_site_fract_x
  _atom_site_fract_y
  _atom_site_fract_z
  _atom_site_thermal_displace_type
  _atom_site_B_iso_or_equiv
  _atom_site_type_symbol
  Ta1      1.0000 0.13936  0.02336  0.34564  Biso   1.000  Ta
  Zr1      1.0000 0.13890  0.52153  0.34319  Biso   1.000  Zr
  Zr2      1.0000 0.13996  0.22968  0.84039  Biso   1.000  Zr
  Zr3      1.0000 0.13871  0.72938  0.84386  Biso   1.000  Zr
  Zr4      1.0000 0.36170  0.27185  0.34321  Biso   1.000  Zr
  Zr5      1.0000 0.35960  0.77372  0.34359  Biso   1.000  Zr
  Zr6      1.0000 0.36133  0.48022  0.84334  Biso   1.000  Zr
  Zr7      1.0000 0.36017  0.97811  0.84414  Biso   1.000  Zr
  Zr8      1.0000 0.63917  0.02123  0.15508  Biso   1.000  Zr
  Zr9      1.0000 0.63917  0.52217  0.15837  Biso   1.000  Zr
  Zr10     1.0000 0.63890  0.22881  0.65762  Biso   1.000  Zr
  Zr11     1.0000 0.63908  0.72875  0.65641  Biso   1.000  Zr
  Zr12     1.0000 0.86085  0.27022  0.15818  Biso   1.000  Zr
  Zr13     1.0000 0.86199  0.77237  0.15605  Biso   1.000  Zr
  Zr14     1.0000 0.86114  0.47857  0.65790  Biso   1.000  Zr
  Zr15     1.0000 0.86053  0.97827  0.65566  Biso   1.000  Zr
  O1       1.0000 0.03368  0.15745  0.16677  Biso   1.000  O
  O2       1.0000 0.03258  0.66452  0.16757  Biso   1.000  O
  O3       1.0000 0.03790  0.08109  0.65731  Biso   1.000  O
  O4       1.0000 0.03279  0.58400  0.66823  Biso   1.000  O
  O5       1.0000 0.46672  0.41687  0.16974  Biso   1.000  O
  O6       1.0000 0.46623  0.91629  0.16612  Biso   1.000  O
  O7       1.0000 0.46620  0.33367  0.67023  Biso   1.000  O
  O8       1.0000 0.46626  0.83489  0.66642  Biso   1.000  O
  O9       1.0000 0.27534  0.12191  0.58954  Biso   1.000  O
  O10      1.0000 0.27599  0.62532  0.59059  Biso   1.000  O
  O11      1.0000 0.27253  0.12366  0.09737  Biso   1.000  O
  O12      1.0000 0.27616  0.62753  0.09194  Biso   1.000  O
  O13      1.0000 0.22464  0.37444  0.59149  Biso   1.000  O
  O14      1.0000 0.21840  0.87712  0.59036  Biso   1.000  O
  O15      1.0000 0.22390  0.37493  0.08992  Biso   1.000  O
  O16      1.0000 0.21580  0.88140  0.09913  Biso   1.000  O
  O17      1.0000 0.53278  0.16587  0.33277  Biso   1.000  O
  O18      1.0000 0.53293  0.66785  0.32974  Biso   1.000  O
  O19      1.0000 0.53170  0.08487  0.83233  Biso   1.000  O
  O20      1.0000 0.53358  0.58392  0.83102  Biso   1.000  O
  O21      1.0000 0.96878  0.41238  0.33443  Biso   1.000  O
  O22      1.0000 0.97477  0.91698  0.33073  Biso   1.000  O
  O23      1.0000 0.96726  0.33092  0.83268  Biso   1.000  O
  O24      1.0000 0.96690  0.83509  0.83233  Biso   1.000  O
  O25      1.0000 0.77691  0.12341  0.90601  Biso   1.000  O
  O26      1.0000 0.77704  0.62437  0.91063  Biso   1.000  O
  O27      1.0000 0.77718  0.12568  0.40836  Biso   1.000  O
  O28      1.0000 0.77660  0.62531  0.40982  Biso   1.000  O
  O29      1.0000 0.72459  0.37391  0.91057  Biso   1.000  O
  O30      1.0000 0.72275  0.87408  0.90628  Biso   1.000  O
  O31      1.0000 0.72401  0.37564  0.40978  Biso   1.000  O
  O32      1.0000 0.72657  0.87639  0.40714  Biso   1.000  O
