data_image0
_cell_length_a       5.08033
_cell_length_b       10.3282
_cell_length_c       10.4999
_cell_angle_alpha    89.9864
_cell_angle_beta     80.0523
_cell_angle_gamma    89.8426

_symmetry_space_group_name_H-M    "P 1"
_symmetry_int_tables_number       1

loop_
  _symmetry_equiv_pos_as_xyz
  'x, y, z'

loop_
  _atom_site_label
  _atom_site_occupancy
  _atom_site_fract_x
  _atom_site_fract_y
  _atom_site_fract_z
  _atom_site_thermal_displace_type
  _atom_site_B_iso_or_equiv
  _atom_site_type_symbol
  Ta1      1.0000 0.28043  0.02284  0.14636  Biso   1.000  Ta
  Zr1      1.0000 0.27770  0.02087  0.64502  Biso   1.000  Zr
  Zr2      1.0000 0.27805  0.52282  0.14545  Biso   1.000  Zr
  Zr3      1.0000 0.27841  0.52157  0.64580  Biso   1.000  Zr
  Zr4      1.0000 0.28071  0.22923  0.39493  Biso   1.000  Zr
  Zr5      1.0000 0.27815  0.22809  0.89444  Biso   1.000  Zr
  Zr6      1.0000 0.28010  0.72891  0.39531  Biso   1.000  Zr
  Zr7      1.0000 0.27507  0.72855  0.89656  Biso   1.000  Zr
  Zr8      1.0000 0.72266  0.27191  0.10522  Biso   1.000  Zr
  Zr9      1.0000 0.72245  0.27138  0.60409  Biso   1.000  Zr
  Zr10     1.0000 0.72021  0.77537  0.10447  Biso   1.000  Zr
  Zr11     1.0000 0.72210  0.77110  0.60521  Biso   1.000  Zr
  Zr12     1.0000 0.72329  0.47927  0.35449  Biso   1.000  Zr
  Zr13     1.0000 0.72069  0.47850  0.85516  Biso   1.000  Zr
  Zr14     1.0000 0.72374  0.97809  0.35420  Biso   1.000  Zr
  Zr15     1.0000 0.71939  0.97892  0.85485  Biso   1.000  Zr
  O1       1.0000 0.07375  0.16329  0.08243  Biso   1.000  O
  O2       1.0000 0.07178  0.16811  0.57788  Biso   1.000  O
  O3       1.0000 0.06917  0.67081  0.08202  Biso   1.000  O
  O4       1.0000 0.07264  0.66971  0.58033  Biso   1.000  O
  O5       1.0000 0.08326  0.07765  0.32420  Biso   1.000  O
  O6       1.0000 0.06814  0.08104  0.82985  Biso   1.000  O
  O7       1.0000 0.07266  0.57973  0.33130  Biso   1.000  O
  O8       1.0000 0.06971  0.58010  0.83137  Biso   1.000  O
  O9       1.0000 0.93066  0.41906  0.16886  Biso   1.000  O
  O10      1.0000 0.92960  0.41860  0.66998  Biso   1.000  O
  O11      1.0000 0.94586  0.92099  0.16804  Biso   1.000  O
  O12      1.0000 0.92805  0.91956  0.66985  Biso   1.000  O
  O13      1.0000 0.92802  0.32845  0.41769  Biso   1.000  O
  O14      1.0000 0.92750  0.32834  0.92114  Biso   1.000  O
  O15      1.0000 0.93141  0.83127  0.41948  Biso   1.000  O
  O16      1.0000 0.91991  0.82975  0.91999  Biso   1.000  O
  O17      1.0000 0.55244  0.12586  0.23812  Biso   1.000  O
  O18      1.0000 0.55192  0.12873  0.74066  Biso   1.000  O
  O19      1.0000 0.55233  0.63110  0.24066  Biso   1.000  O
  O20      1.0000 0.55214  0.62851  0.74139  Biso   1.000  O
  O21      1.0000 0.55755  0.12082  0.48943  Biso   1.000  O
  O22      1.0000 0.54389  0.11971  0.99380  Biso   1.000  O
  O23      1.0000 0.55508  0.62129  0.49108  Biso   1.000  O
  O24      1.0000 0.55168  0.62216  0.99133  Biso   1.000  O
  O25      1.0000 0.44669  0.37806  0.01006  Biso   1.000  O
  O26      1.0000 0.44732  0.37880  0.50927  Biso   1.000  O
  O27      1.0000 0.42685  0.88350  0.01212  Biso   1.000  O
  O28      1.0000 0.44927  0.87848  0.50915  Biso   1.000  O
  O29      1.0000 0.45043  0.37081  0.25919  Biso   1.000  O
  O30      1.0000 0.44699  0.37091  0.75980  Biso   1.000  O
  O31      1.0000 0.44479  0.87628  0.25781  Biso   1.000  O
  O32      1.0000 0.44536  0.87109  0.76016  Biso   1.000  O
