data_image0
_cell_length_a       10.0638
_cell_length_b       5.0893
_cell_length_c       10.0638
_cell_angle_alpha    89.9973
_cell_angle_beta     89.9971
_cell_angle_gamma    89.9979

_symmetry_space_group_name_H-M    "P 1"
_symmetry_int_tables_number       1

loop_
  _symmetry_equiv_pos_as_xyz
  'x, y, z'

loop_
  _atom_site_label
  _atom_site_occupancy
  _atom_site_fract_x
  _atom_site_fract_y
  _atom_site_fract_z
  _atom_site_thermal_displace_type
  _atom_site_B_iso_or_equiv
  _atom_site_type_symbol
  Ta1      1.0000 0.12504  0.00097  0.12504  Biso   1.000  Ta
  Zr1      1.0000 0.12507  0.00100  0.62506  Biso   1.000  Zr
  Zr2      1.0000 0.62506  0.00100  0.12507  Biso   1.000  Zr
  Zr3      1.0000 0.62505  0.00101  0.62505  Biso   1.000  Zr
  Zr4      1.0000 0.12507  0.50103  0.37629  Biso   1.000  Zr
  Zr5      1.0000 0.12506  0.50100  0.87384  Biso   1.000  Zr
  Zr6      1.0000 0.62507  0.50102  0.37521  Biso   1.000  Zr
  Zr7      1.0000 0.62506  0.50101  0.87491  Biso   1.000  Zr
  Zr8      1.0000 0.37629  0.50103  0.12507  Biso   1.000  Zr
  Zr9      1.0000 0.37521  0.50102  0.62507  Biso   1.000  Zr
  Zr10     1.0000 0.87384  0.50100  0.12506  Biso   1.000  Zr
  Zr11     1.0000 0.87491  0.50101  0.62506  Biso   1.000  Zr
  Zr12     1.0000 0.37590  0.00423  0.37590  Biso   1.000  Zr
  Zr13     1.0000 0.37590  0.99783  0.87424  Biso   1.000  Zr
  Zr14     1.0000 0.87423  0.99783  0.37590  Biso   1.000  Zr
  Zr15     1.0000 0.87421  0.00418  0.87421  Biso   1.000  Zr
  O1       1.0000 0.99649  0.29685  0.99649  Biso   1.000  O
  O2       1.0000 0.99554  0.28987  0.49379  Biso   1.000  O
  O3       1.0000 0.49379  0.28986  0.99554  Biso   1.000  O
  O4       1.0000 0.49610  0.28994  0.49610  Biso   1.000  O
  O5       1.0000 0.00628  0.19726  0.24388  Biso   1.000  O
  O6       1.0000 0.00225  0.21319  0.74652  Biso   1.000  O
  O7       1.0000 0.50363  0.21323  0.24789  Biso   1.000  O
  O8       1.0000 0.50237  0.21223  0.74776  Biso   1.000  O
  O9       1.0000 0.99649  0.70511  0.25364  Biso   1.000  O
  O10      1.0000 0.99552  0.71214  0.75634  Biso   1.000  O
  O11      1.0000 0.49379  0.71219  0.25460  Biso   1.000  O
  O12      1.0000 0.49609  0.71209  0.75404  Biso   1.000  O
  O13      1.0000 0.00625  0.80472  0.00626  Biso   1.000  O
  O14      1.0000 0.00225  0.78882  0.50361  Biso   1.000  O
  O15      1.0000 0.50361  0.78882  0.00225  Biso   1.000  O
  O16      1.0000 0.50237  0.78980  0.50237  Biso   1.000  O
  O17      1.0000 0.25368  0.29696  0.25369  Biso   1.000  O
  O18      1.0000 0.25460  0.28987  0.75636  Biso   1.000  O
  O19      1.0000 0.75636  0.28987  0.25460  Biso   1.000  O
  O20      1.0000 0.75404  0.28993  0.75404  Biso   1.000  O
  O21      1.0000 0.24388  0.19726  0.00629  Biso   1.000  O
  O22      1.0000 0.24789  0.21323  0.50363  Biso   1.000  O
  O23      1.0000 0.74652  0.21319  0.00225  Biso   1.000  O
  O24      1.0000 0.74776  0.21223  0.50237  Biso   1.000  O
  O25      1.0000 0.25364  0.70511  0.99648  Biso   1.000  O
  O26      1.0000 0.25459  0.71219  0.49379  Biso   1.000  O
  O27      1.0000 0.75634  0.71214  0.99552  Biso   1.000  O
  O28      1.0000 0.75404  0.71209  0.49609  Biso   1.000  O
  O29      1.0000 0.24387  0.80482  0.24387  Biso   1.000  O
  O30      1.0000 0.24788  0.78883  0.74653  Biso   1.000  O
  O31      1.0000 0.74653  0.78883  0.24788  Biso   1.000  O
  O32      1.0000 0.74775  0.78979  0.74775  Biso   1.000  O
