data_image0
_cell_length_a       10.1108
_cell_length_b       10.186
_cell_length_c       10.1108
_cell_angle_alpha    89.9987
_cell_angle_beta     90
_cell_angle_gamma    89.9978

_symmetry_space_group_name_H-M    "P 1"
_symmetry_int_tables_number       1

loop_
  _symmetry_equiv_pos_as_xyz
  'x, y, z'

loop_
  _atom_site_label
  _atom_site_occupancy
  _atom_site_fract_x
  _atom_site_fract_y
  _atom_site_fract_z
  _atom_site_thermal_displace_type
  _atom_site_B_iso_or_equiv
  _atom_site_type_symbol
  Zr1      1.0000 0.12512  0.98255  0.12513  Biso   1.000  Zr
  Zr2      1.0000 0.12513  0.25002  0.39285  Biso   1.000  Zr
  Zr3      1.0000 0.39285  0.25002  0.12513  Biso   1.000  Zr
  Zr4      1.0000 0.37414  0.00058  0.37415  Biso   1.000  Zr
  O1       1.0000 0.99852  0.14049  0.99853  Biso   1.000  O
  O2       1.0000 0.00478  0.11485  0.24548  Biso   1.000  O
  O3       1.0000 0.99851  0.35956  0.25174  Biso   1.000  O
  O4       1.0000 0.00478  0.38520  0.00479  Biso   1.000  O
  O5       1.0000 0.25174  0.14049  0.25175  Biso   1.000  O
  O6       1.0000 0.24548  0.11485  0.00479  Biso   1.000  O
  O7       1.0000 0.25173  0.35956  0.99852  Biso   1.000  O
  O8       1.0000 0.24547  0.38520  0.24548  Biso   1.000  O
  Zr5      1.0000 0.12512  0.99618  0.62513  Biso   1.000  Zr
  Zr6      1.0000 0.12513  0.25002  0.85742  Biso   1.000  Zr
  Zr7      1.0000 0.37869  0.25002  0.62514  Biso   1.000  Zr
  Zr8      1.0000 0.37314  0.00208  0.87711  Biso   1.000  Zr
  O9       1.0000 0.99420  0.14002  0.50178  Biso   1.000  O
  O10      1.0000 0.00205  0.10655  0.74880  Biso   1.000  O
  O11      1.0000 0.99420  0.36003  0.74848  Biso   1.000  O
  O12      1.0000 0.00205  0.39350  0.50147  Biso   1.000  O
  O13      1.0000 0.25605  0.14002  0.74849  Biso   1.000  O
  O14      1.0000 0.24820  0.10655  0.50147  Biso   1.000  O
  O15      1.0000 0.25605  0.36002  0.50178  Biso   1.000  O
  O16      1.0000 0.24820  0.39350  0.74880  Biso   1.000  O
  Zr9      1.0000 0.12513  0.51750  0.12513  Biso   1.000  Zr
  Zr10     1.0000 0.12513  0.75002  0.37852  Biso   1.000  Zr
  Zr11     1.0000 0.37851  0.75002  0.12514  Biso   1.000  Zr
  Zr12     1.0000 0.37314  0.49797  0.37315  Biso   1.000  Zr
  O17      1.0000 0.00014  0.64105  0.00014  Biso   1.000  O
  O18      1.0000 0.99745  0.61346  0.25280  Biso   1.000  O
  O19      1.0000 0.00014  0.85900  0.25012  Biso   1.000  O
  O20      1.0000 0.99745  0.88659  0.99746  Biso   1.000  O
  O21      1.0000 0.25012  0.64105  0.25012  Biso   1.000  O
  O22      1.0000 0.25280  0.61346  0.99746  Biso   1.000  O
  O23      1.0000 0.25012  0.85900  0.00014  Biso   1.000  O
  O24      1.0000 0.25280  0.88659  0.25280  Biso   1.000  O
  Zr13     1.0000 0.12512  0.50387  0.62513  Biso   1.000  Zr
  Zr14     1.0000 0.12513  0.75003  0.87175  Biso   1.000  Zr
  Zr15     1.0000 0.37650  0.75002  0.62514  Biso   1.000  Zr
  Zr16     1.0000 0.37414  0.49947  0.87611  Biso   1.000  Zr
  O25      1.0000 0.99878  0.64312  0.50202  Biso   1.000  O
  O26      1.0000 0.00235  0.60722  0.75254  Biso   1.000  O
  O27      1.0000 0.99878  0.85693  0.74823  Biso   1.000  O
  O28      1.0000 0.00235  0.89283  0.49772  Biso   1.000  O
  O29      1.0000 0.25147  0.64312  0.74823  Biso   1.000  O
  O30      1.0000 0.24791  0.60722  0.49772  Biso   1.000  O
  O31      1.0000 0.25147  0.85693  0.50203  Biso   1.000  O
  O32      1.0000 0.24791  0.89283  0.75255  Biso   1.000  O
  Zr17     1.0000 0.62512  0.99618  0.12513  Biso   1.000  Zr
  Zr18     1.0000 0.62513  0.25003  0.37869  Biso   1.000  Zr
  Zr19     1.0000 0.85741  0.25003  0.12513  Biso   1.000  Zr
  Zr20     1.0000 0.87711  0.00208  0.37315  Biso   1.000  Zr
  O33      1.0000 0.50178  0.14002  0.99421  Biso   1.000  O
  O34      1.0000 0.50146  0.10655  0.24821  Biso   1.000  O
  O35      1.0000 0.50177  0.36003  0.25606  Biso   1.000  O
  O36      1.0000 0.50146  0.39350  0.00205  Biso   1.000  O
  O37      1.0000 0.74848  0.14002  0.25606  Biso   1.000  O
  O38      1.0000 0.74879  0.10655  0.00206  Biso   1.000  O
  O39      1.0000 0.74847  0.36003  0.99421  Biso   1.000  O
  O40      1.0000 0.74879  0.39350  0.24821  Biso   1.000  O
  Zr21     1.0000 0.62512  0.99868  0.62513  Biso   1.000  Zr
  Zr22     1.0000 0.62513  0.25003  0.87158  Biso   1.000  Zr
  Zr23     1.0000 0.87157  0.25003  0.62514  Biso   1.000  Zr
  Zr24     1.0000 0.87610  0.00058  0.87611  Biso   1.000  Zr
  O41      1.0000 0.49758  0.14447  0.49759  Biso   1.000  O
  O42      1.0000 0.50208  0.10522  0.74818  Biso   1.000  O
  O43      1.0000 0.49758  0.35558  0.75268  Biso   1.000  O
  O44      1.0000 0.50208  0.39482  0.50209  Biso   1.000  O
  O45      1.0000 0.75267  0.14447  0.75268  Biso   1.000  O
  O46      1.0000 0.74817  0.10522  0.50209  Biso   1.000  O
  O47      1.0000 0.75267  0.35558  0.49758  Biso   1.000  O
  O48      1.0000 0.74817  0.39483  0.74818  Biso   1.000  O
  Zr25     1.0000 0.62512  0.50387  0.12513  Biso   1.000  Zr
  Zr26     1.0000 0.62513  0.75002  0.37650  Biso   1.000  Zr
  Zr27     1.0000 0.87175  0.75003  0.12514  Biso   1.000  Zr
  Zr28     1.0000 0.87610  0.49947  0.37414  Biso   1.000  Zr
  O49      1.0000 0.50202  0.64312  0.99879  Biso   1.000  O
  O50      1.0000 0.49771  0.60722  0.24791  Biso   1.000  O
  O51      1.0000 0.50202  0.85693  0.25147  Biso   1.000  O
  O52      1.0000 0.49772  0.89283  0.00235  Biso   1.000  O
  O53      1.0000 0.74823  0.64312  0.25147  Biso   1.000  O
  O54      1.0000 0.75254  0.60722  0.00236  Biso   1.000  O
  O55      1.0000 0.74823  0.85693  0.99879  Biso   1.000  O
  O56      1.0000 0.75254  0.89283  0.24791  Biso   1.000  O
  Zr29     1.0000 0.62512  0.50137  0.62513  Biso   1.000  Zr
  Zr30     1.0000 0.62513  0.75003  0.87377  Biso   1.000  Zr
  Zr31     1.0000 0.87376  0.75002  0.62514  Biso   1.000  Zr
  Zr32     1.0000 0.87710  0.49798  0.87711  Biso   1.000  Zr
  O57      1.0000 0.49781  0.64412  0.49781  Biso   1.000  O
  O58      1.0000 0.50073  0.60519  0.74953  Biso   1.000  O
  O59      1.0000 0.49780  0.85593  0.75245  Biso   1.000  O
  O60      1.0000 0.50073  0.89486  0.50073  Biso   1.000  O
  O61      1.0000 0.75245  0.64412  0.75245  Biso   1.000  O
  O62      1.0000 0.74952  0.60519  0.50074  Biso   1.000  O
  O63      1.0000 0.75244  0.85593  0.49781  Biso   1.000  O
  O64      1.0000 0.74953  0.89486  0.74953  Biso   1.000  O
  Ta1      1.0000 0.12513  0.25003  0.12514  Biso   1.000  Ta
