data_image0
_cell_length_a       10.2306
_cell_length_b       5.22139
_cell_length_c       10.5487
_cell_angle_alpha    89.9294
_cell_angle_beta     90.5679
_cell_angle_gamma    89.7867

_symmetry_space_group_name_H-M    "P 1"
_symmetry_int_tables_number       1

loop_
  _symmetry_equiv_pos_as_xyz
  'x, y, z'

loop_
  _atom_site_label
  _atom_site_occupancy
  _atom_site_fract_x
  _atom_site_fract_y
  _atom_site_fract_z
  _atom_site_thermal_displace_type
  _atom_site_B_iso_or_equiv
  _atom_site_type_symbol
  Zr1      1.0000 0.13936  0.04034  0.17096  Biso   1.000  Zr
  Zr2      1.0000 0.13547  0.45669  0.42465  Biso   1.000  Zr
  Zr3      1.0000 0.34188  0.53724  0.17779  Biso   1.000  Zr
  Zr4      1.0000 0.36115  0.95337  0.42548  Biso   1.000  Zr
  Zr5      1.0000 0.64109  0.07726  0.06386  Biso   1.000  Zr
  Zr6      1.0000 0.63341  0.45632  0.35159  Biso   1.000  Zr
  Zr7      1.0000 0.87973  0.55159  0.07382  Biso   1.000  Zr
  Zr8      1.0000 0.86616  0.95921  0.33366  Biso   1.000  Zr
  O1       1.0000 0.03875  0.31810  0.07666  Biso   1.000  O
  O2       1.0000 0.02640  0.18763  0.32675  Biso   1.000  O
  O3       1.0000 0.46139  0.83193  0.08389  Biso   1.000  O
  O4       1.0000 0.46157  0.66667  0.33287  Biso   1.000  O
  O5       1.0000 0.26721  0.24799  0.29858  Biso   1.000  O
  O6       1.0000 0.27603  0.24327  0.04188  Biso   1.000  O
  O7       1.0000 0.21904  0.75112  0.30039  Biso   1.000  O
  O8       1.0000 0.22249  0.74637  0.04429  Biso   1.000  O
  O9       1.0000 0.50401  0.29574  0.17089  Biso   1.000  O
  O10      1.0000 0.53138  0.15822  0.42332  Biso   1.000  O
  O11      1.0000 0.97679  0.82324  0.17454  Biso   1.000  O
  O12      1.0000 0.96643  0.67718  0.42192  Biso   1.000  O
  O13      1.0000 0.78024  0.23442  0.45887  Biso   1.000  O
  O14      1.0000 0.75333  0.32265  0.19930  Biso   1.000  O
  O15      1.0000 0.72598  0.74143  0.46244  Biso   1.000  O
  O16      1.0000 0.73301  0.81384  0.20442  Biso   1.000  O
  Zr9      1.0000 0.13941  0.03497  0.66991  Biso   1.000  Zr
  Zr10     1.0000 0.14453  0.44993  0.91697  Biso   1.000  Zr
  Zr11     1.0000 0.36563  0.53293  0.67169  Biso   1.000  Zr
  Zr12     1.0000 0.36097  0.95154  0.91588  Biso   1.000  Zr
  Zr13     1.0000 0.64058  0.03565  0.58445  Biso   1.000  Zr
  Zr14     1.0000 0.64191  0.45081  0.83166  Biso   1.000  Zr
  Zr15     1.0000 0.86215  0.53624  0.58371  Biso   1.000  Zr
  Zr16     1.0000 0.86679  0.95599  0.82880  Biso   1.000  Zr
  O17      1.0000 0.03239  0.32296  0.58120  Biso   1.000  O
  O18      1.0000 0.03737  0.16894  0.82822  Biso   1.000  O
  O19      1.0000 0.46846  0.82543  0.58696  Biso   1.000  O
  O20      1.0000 0.46455  0.64690  0.83884  Biso   1.000  O
  O21      1.0000 0.27766  0.24031  0.79228  Biso   1.000  O
  O22      1.0000 0.27331  0.24528  0.54543  Biso   1.000  O
  O23      1.0000 0.22800  0.74312  0.79333  Biso   1.000  O
  O24      1.0000 0.22756  0.74432  0.54640  Biso   1.000  O
  O25      1.0000 0.53631  0.33239  0.66285  Biso   1.000  O
  O26      1.0000 0.53693  0.13049  0.89580  Biso   1.000  O
  O27      1.0000 0.97064  0.82304  0.66624  Biso   1.000  O
  O28      1.0000 0.97860  0.67389  0.91376  Biso   1.000  O
  O29      1.0000 0.79421  0.24437  0.94647  Biso   1.000  O
  O30      1.0000 0.77785  0.24344  0.70382  Biso   1.000  O
  O31      1.0000 0.73181  0.75050  0.96116  Biso   1.000  O
  O32      1.0000 0.72893  0.74586  0.71048  Biso   1.000  O
  Ta1      1.0000 0.60990  0.57928  0.10614  Biso   1.000  Ta
