data_image0
_cell_length_a       10.1984
_cell_length_b       10.2695
_cell_length_c       5.34639
_cell_angle_alpha    90.2447
_cell_angle_beta     90.7325
_cell_angle_gamma    89.6071

_symmetry_space_group_name_H-M    "P 1"
_symmetry_int_tables_number       1

loop_
  _symmetry_equiv_pos_as_xyz
  'x, y, z'

loop_
  _atom_site_label
  _atom_site_occupancy
  _atom_site_fract_x
  _atom_site_fract_y
  _atom_site_fract_z
  _atom_site_thermal_displace_type
  _atom_site_B_iso_or_equiv
  _atom_site_type_symbol
  Zr1      1.0000 0.13859  0.02051  0.34806  Biso   1.000  Zr
  Zr2      1.0000 0.14302  0.22647  0.84641  Biso   1.000  Zr
  Zr3      1.0000 0.35358  0.26962  0.35823  Biso   1.000  Zr
  Zr4      1.0000 0.35978  0.47979  0.84681  Biso   1.000  Zr
  Zr5      1.0000 0.63437  0.99348  0.16178  Biso   1.000  Zr
  Zr6      1.0000 0.63289  0.22639  0.64251  Biso   1.000  Zr
  Zr7      1.0000 0.88036  0.27770  0.14811  Biso   1.000  Zr
  Zr8      1.0000 0.86497  0.47965  0.65373  Biso   1.000  Zr
  O1       1.0000 0.03280  0.15130  0.14272  Biso   1.000  O
  O2       1.0000 0.02311  0.10014  0.64328  Biso   1.000  O
  O3       1.0000 0.48079  0.39591  0.14804  Biso   1.000  O
  O4       1.0000 0.46949  0.34700  0.65059  Biso   1.000  O
  O5       1.0000 0.27146  0.12433  0.59712  Biso   1.000  O
  O6       1.0000 0.27576  0.12413  0.10093  Biso   1.000  O
  O7       1.0000 0.22204  0.37570  0.60329  Biso   1.000  O
  O8       1.0000 0.22690  0.37663  0.09652  Biso   1.000  O
  O9       1.0000 0.51106  0.12978  0.37892  Biso   1.000  O
  O10      1.0000 0.51882  0.11138  0.89457  Biso   1.000  O
  O11      1.0000 0.97623  0.41341  0.35407  Biso   1.000  O
  O12      1.0000 0.97925  0.34721  0.84422  Biso   1.000  O
  O13      1.0000 0.76194  0.12787  0.91107  Biso   1.000  O
  O14      1.0000 0.76034  0.13169  0.37905  Biso   1.000  O
  O15      1.0000 0.72855  0.37738  0.90468  Biso   1.000  O
  O16      1.0000 0.72403  0.37815  0.39197  Biso   1.000  O
  Zr9      1.0000 0.14222  0.52389  0.35028  Biso   1.000  Zr
  Zr10     1.0000 0.13994  0.72905  0.84961  Biso   1.000  Zr
  Zr11     1.0000 0.35952  0.77227  0.35343  Biso   1.000  Zr
  Zr12     1.0000 0.36127  0.97895  0.85211  Biso   1.000  Zr
  Zr13     1.0000 0.64323  0.53277  0.15143  Biso   1.000  Zr
  Zr14     1.0000 0.63851  0.72751  0.65552  Biso   1.000  Zr
  Zr15     1.0000 0.86787  0.77161  0.15858  Biso   1.000  Zr
  Zr16     1.0000 0.86363  0.98199  0.65947  Biso   1.000  Zr
  O17      1.0000 0.03268  0.65963  0.15518  Biso   1.000  O
  O18      1.0000 0.02870  0.59698  0.65433  Biso   1.000  O
  O19      1.0000 0.47065  0.88482  0.12636  Biso   1.000  O
  O20      1.0000 0.47802  0.85383  0.63656  Biso   1.000  O
  O21      1.0000 0.27658  0.62490  0.59940  Biso   1.000  O
  O22      1.0000 0.27762  0.62568  0.09995  Biso   1.000  O
  O23      1.0000 0.22551  0.87366  0.60345  Biso   1.000  O
  O24      1.0000 0.22386  0.87694  0.09992  Biso   1.000  O
  O25      1.0000 0.52749  0.65296  0.35992  Biso   1.000  O
  O26      1.0000 0.52703  0.59727  0.85546  Biso   1.000  O
  O27      1.0000 0.97159  0.90906  0.35505  Biso   1.000  O
  O28      1.0000 0.97283  0.84779  0.85252  Biso   1.000  O
  O29      1.0000 0.77761  0.62597  0.90391  Biso   1.000  O
  O30      1.0000 0.77723  0.62715  0.40598  Biso   1.000  O
  O31      1.0000 0.73018  0.87119  0.90824  Biso   1.000  O
  O32      1.0000 0.73369  0.87061  0.41929  Biso   1.000  O
  Ta1      1.0000 0.62114  0.24809  0.13790  Biso   1.000  Ta
