data_image0
_cell_length_a       10.1575
_cell_length_b       5.16632
_cell_length_c       10.4949
_cell_angle_alpha    89.9847
_cell_angle_beta     80.0911
_cell_angle_gamma    89.8675

_symmetry_space_group_name_H-M    "P 1"
_symmetry_int_tables_number       1

loop_
  _symmetry_equiv_pos_as_xyz
  'x, y, z'

loop_
  _atom_site_label
  _atom_site_occupancy
  _atom_site_fract_x
  _atom_site_fract_y
  _atom_site_fract_z
  _atom_site_thermal_displace_type
  _atom_site_B_iso_or_equiv
  _atom_site_type_symbol
  Ta1      1.0000 0.13898  0.04575  0.14643  Biso   1.000  Ta
  Zr1      1.0000 0.13911  0.04268  0.64499  Biso   1.000  Zr
  Zr2      1.0000 0.63966  0.04594  0.14538  Biso   1.000  Zr
  Zr3      1.0000 0.63891  0.04252  0.64588  Biso   1.000  Zr
  Zr4      1.0000 0.13976  0.45906  0.39489  Biso   1.000  Zr
  Zr5      1.0000 0.13902  0.45640  0.89494  Biso   1.000  Zr
  Zr6      1.0000 0.64069  0.45730  0.39523  Biso   1.000  Zr
  Zr7      1.0000 0.63786  0.45745  0.89594  Biso   1.000  Zr
  Zr8      1.0000 0.35995  0.54879  0.10524  Biso   1.000  Zr
  Zr9      1.0000 0.36162  0.54307  0.60451  Biso   1.000  Zr
  Zr10     1.0000 0.86185  0.54491  0.10413  Biso   1.000  Zr
  Zr11     1.0000 0.86054  0.54213  0.60473  Biso   1.000  Zr
  Zr12     1.0000 0.36193  0.95774  0.35461  Biso   1.000  Zr
  Zr13     1.0000 0.35961  0.95820  0.85495  Biso   1.000  Zr
  Zr14     1.0000 0.86131  0.95728  0.35419  Biso   1.000  Zr
  Zr15     1.0000 0.86035  0.95644  0.85517  Biso   1.000  Zr
  O1       1.0000 0.03705  0.32617  0.08375  Biso   1.000  O
  O2       1.0000 0.03520  0.33540  0.57754  Biso   1.000  O
  O3       1.0000 0.53460  0.34288  0.08183  Biso   1.000  O
  O4       1.0000 0.53734  0.34182  0.58111  Biso   1.000  O
  O5       1.0000 0.04114  0.15246  0.32507  Biso   1.000  O
  O6       1.0000 0.03500  0.16217  0.82979  Biso   1.000  O
  O7       1.0000 0.53680  0.16161  0.33095  Biso   1.000  O
  O8       1.0000 0.53458  0.15835  0.83232  Biso   1.000  O
  O9       1.0000 0.46471  0.84147  0.16966  Biso   1.000  O
  O10      1.0000 0.46351  0.84145  0.66944  Biso   1.000  O
  O11      1.0000 0.97352  0.83879  0.16673  Biso   1.000  O
  O12      1.0000 0.96483  0.83644  0.66983  Biso   1.000  O
  O13      1.0000 0.46524  0.66067  0.41885  Biso   1.000  O
  O14      1.0000 0.45878  0.65567  0.91936  Biso   1.000  O
  O15      1.0000 0.96415  0.65771  0.41763  Biso   1.000  O
  O16      1.0000 0.96422  0.65815  0.92097  Biso   1.000  O
  O17      1.0000 0.27392  0.25603  0.23798  Biso   1.000  O
  O18      1.0000 0.27647  0.25771  0.74101  Biso   1.000  O
  O19      1.0000 0.77889  0.25774  0.24069  Biso   1.000  O
  O20      1.0000 0.77576  0.25742  0.74111  Biso   1.000  O
  O21      1.0000 0.27792  0.24369  0.49022  Biso   1.000  O
  O22      1.0000 0.27178  0.23887  0.99462  Biso   1.000  O
  O23      1.0000 0.77841  0.24053  0.49044  Biso   1.000  O
  O24      1.0000 0.77588  0.24402  0.99065  Biso   1.000  O
  O25      1.0000 0.21534  0.76617  0.01333  Biso   1.000  O
  O26      1.0000 0.22380  0.75716  0.50892  Biso   1.000  O
  O27      1.0000 0.72162  0.75838  0.00907  Biso   1.000  O
  O28      1.0000 0.72418  0.75822  0.50933  Biso   1.000  O
  O29      1.0000 0.22082  0.74983  0.25830  Biso   1.000  O
  O30      1.0000 0.22281  0.74152  0.75993  Biso   1.000  O
  O31      1.0000 0.72765  0.74357  0.25862  Biso   1.000  O
  O32      1.0000 0.72292  0.74229  0.75972  Biso   1.000  O
