data_image0
_cell_length_a       9.99266
_cell_length_b       5.05721
_cell_length_c       9.99259
_cell_angle_alpha    89.9999
_cell_angle_beta     90
_cell_angle_gamma    90.0002

_symmetry_space_group_name_H-M    "P 1"
_symmetry_int_tables_number       1

loop_
  _symmetry_equiv_pos_as_xyz
  'x, y, z'

loop_
  _atom_site_label
  _atom_site_occupancy
  _atom_site_fract_x
  _atom_site_fract_y
  _atom_site_fract_z
  _atom_site_thermal_displace_type
  _atom_site_B_iso_or_equiv
  _atom_site_type_symbol
  Tc1      1.0000 0.12491  0.00011  0.12491  Biso   1.000  Tc
  Hf1      1.0000 0.12491  0.50011  0.37213  Biso   1.000  Hf
  Hf2      1.0000 0.37212  0.50011  0.12491  Biso   1.000  Hf
  Hf3      1.0000 0.37409  0.99928  0.37408  Biso   1.000  Hf
  O1       1.0000 0.99497  0.28040  0.99498  Biso   1.000  O
  O2       1.0000 0.00753  0.21334  0.24231  Biso   1.000  O
  O3       1.0000 0.99497  0.71982  0.25484  Biso   1.000  O
  O4       1.0000 0.00753  0.78688  0.00751  Biso   1.000  O
  O5       1.0000 0.25485  0.28040  0.25484  Biso   1.000  O
  O6       1.0000 0.24228  0.21334  0.00751  Biso   1.000  O
  O7       1.0000 0.25485  0.71982  0.99498  Biso   1.000  O
  O8       1.0000 0.24228  0.78688  0.24231  Biso   1.000  O
  Hf4      1.0000 0.12491  0.00011  0.62491  Biso   1.000  Hf
  Hf5      1.0000 0.12491  0.50011  0.87769  Biso   1.000  Hf
  Hf6      1.0000 0.37513  0.50011  0.62491  Biso   1.000  Hf
  Hf7      1.0000 0.37409  0.00094  0.87573  Biso   1.000  Hf
  O9       1.0000 0.99284  0.29122  0.49072  Biso   1.000  O
  O10      1.0000 0.00347  0.21174  0.74509  Biso   1.000  O
  O11      1.0000 0.99284  0.70899  0.75910  Biso   1.000  O
  O12      1.0000 0.00347  0.78848  0.50473  Biso   1.000  O
  O13      1.0000 0.25698  0.29123  0.75910  Biso   1.000  O
  O14      1.0000 0.24635  0.21174  0.50473  Biso   1.000  O
  O15      1.0000 0.25698  0.70899  0.49072  Biso   1.000  O
  O16      1.0000 0.24634  0.78848  0.74509  Biso   1.000  O
  Hf8      1.0000 0.62491  0.00011  0.12491  Biso   1.000  Hf
  Hf9      1.0000 0.62491  0.50011  0.37513  Biso   1.000  Hf
  Hf10     1.0000 0.87770  0.50011  0.12491  Biso   1.000  Hf
  Hf11     1.0000 0.87573  0.00094  0.37408  Biso   1.000  Hf
  O17      1.0000 0.49071  0.29123  0.99285  Biso   1.000  O
  O18      1.0000 0.50475  0.21174  0.24637  Biso   1.000  O
  O19      1.0000 0.49071  0.70899  0.25696  Biso   1.000  O
  O20      1.0000 0.50476  0.78848  0.00345  Biso   1.000  O
  O21      1.0000 0.75911  0.29123  0.25696  Biso   1.000  O
  O22      1.0000 0.74506  0.21174  0.00345  Biso   1.000  O
  O23      1.0000 0.75911  0.70899  0.99285  Biso   1.000  O
  O24      1.0000 0.74506  0.78848  0.24637  Biso   1.000  O
  Hf12     1.0000 0.62491  0.00011  0.62491  Biso   1.000  Hf
  Hf13     1.0000 0.62491  0.50011  0.87469  Biso   1.000  Hf
  Hf14     1.0000 0.87469  0.50011  0.62491  Biso   1.000  Hf
  Hf15     1.0000 0.87573  0.99928  0.87573  Biso   1.000  Hf
  O25      1.0000 0.49349  0.28886  0.49351  Biso   1.000  O
  O26      1.0000 0.50376  0.21243  0.74608  Biso   1.000  O
  O27      1.0000 0.49349  0.71136  0.75631  Biso   1.000  O
  O28      1.0000 0.50376  0.78779  0.50373  Biso   1.000  O
  O29      1.0000 0.75633  0.28886  0.75631  Biso   1.000  O
  O30      1.0000 0.74606  0.21243  0.50373  Biso   1.000  O
  O31      1.0000 0.75633  0.71136  0.49351  Biso   1.000  O
  O32      1.0000 0.74606  0.78778  0.74609  Biso   1.000  O
