data_image0
_cell_length_a       5.09385
_cell_length_b       10.2636
_cell_length_c       10.601
_cell_angle_alpha    89.6485
_cell_angle_beta     79.8369
_cell_angle_gamma    90.4656

_symmetry_space_group_name_H-M    "P 1"
_symmetry_int_tables_number       1

loop_
  _symmetry_equiv_pos_as_xyz
  'x, y, z'

loop_
  _atom_site_label
  _atom_site_occupancy
  _atom_site_fract_x
  _atom_site_fract_y
  _atom_site_fract_z
  _atom_site_thermal_displace_type
  _atom_site_B_iso_or_equiv
  _atom_site_type_symbol
  Hf1      1.0000 0.27506  0.02056  0.14539  Biso   1.000  Hf
  Hf2      1.0000 0.28537  0.23844  0.40278  Biso   1.000  Hf
  Hf3      1.0000 0.71854  0.26837  0.09429  Biso   1.000  Hf
  Hf4      1.0000 0.70823  0.48687  0.35757  Biso   1.000  Hf
  O1       1.0000 0.05951  0.15360  0.06555  Biso   1.000  O
  O2       1.0000 0.08607  0.07332  0.33229  Biso   1.000  O
  O3       1.0000 0.94814  0.38910  0.19263  Biso   1.000  O
  O4       1.0000 0.96751  0.36559  0.44177  Biso   1.000  O
  O5       1.0000 0.56348  0.12293  0.23206  Biso   1.000  O
  O6       1.0000 0.57839  0.12218  0.48208  Biso   1.000  O
  O7       1.0000 0.44347  0.37868  0.00813  Biso   1.000  O
  O8       1.0000 0.44313  0.37788  0.25565  Biso   1.000  O
  Hf5      1.0000 0.27367  0.02297  0.64482  Biso   1.000  Hf
  Hf6      1.0000 0.27357  0.22740  0.89268  Biso   1.000  Hf
  Hf7      1.0000 0.72597  0.27762  0.60595  Biso   1.000  Hf
  Hf8      1.0000 0.71593  0.47999  0.85657  Biso   1.000  Hf
  O9       1.0000 0.07229  0.16729  0.57741  Biso   1.000  O
  O10      1.0000 0.05984  0.08847  0.82075  Biso   1.000  O
  O11      1.0000 0.93460  0.41223  0.68451  Biso   1.000  O
  O12      1.0000 0.94112  0.34370  0.92731  Biso   1.000  O
  O13      1.0000 0.54863  0.12897  0.73686  Biso   1.000  O
  O14      1.0000 0.54720  0.12192  0.98404  Biso   1.000  O
  O15      1.0000 0.44738  0.38490  0.51996  Biso   1.000  O
  O16      1.0000 0.44833  0.37318  0.76168  Biso   1.000  O
  Hf9      1.0000 0.27310  0.51948  0.14766  Biso   1.000  Hf
  Hf10     1.0000 0.26618  0.72732  0.39707  Biso   1.000  Hf
  Hf11     1.0000 0.71852  0.77056  0.10401  Biso   1.000  Hf
  Hf12     1.0000 0.71940  0.96884  0.35409  Biso   1.000  Hf
  O17      1.0000 0.04932  0.65512  0.07273  Biso   1.000  O
  O18      1.0000 0.05479  0.59395  0.31876  Biso   1.000  O
  O19      1.0000 0.93618  0.90832  0.17695  Biso   1.000  O
  O20      1.0000 0.92772  0.83328  0.42849  Biso   1.000  O
  O21      1.0000 0.54545  0.62698  0.24035  Biso   1.000  O
  O22      1.0000 0.53764  0.62644  0.49326  Biso   1.000  O
  O23      1.0000 0.44536  0.87849  0.01205  Biso   1.000  O
  O24      1.0000 0.44524  0.86683  0.25985  Biso   1.000  O
  Hf13     1.0000 0.26999  0.52494  0.64997  Biso   1.000  Hf
  Hf14     1.0000 0.26970  0.72842  0.89840  Biso   1.000  Hf
  Hf15     1.0000 0.71611  0.77218  0.60676  Biso   1.000  Hf
  Hf16     1.0000 0.71946  0.97821  0.85324  Biso   1.000  Hf
  O25      1.0000 0.05192  0.66062  0.57541  Biso   1.000  O
  O26      1.0000 0.05602  0.59229  0.82531  Biso   1.000  O
  O27      1.0000 0.93288  0.91290  0.67565  Biso   1.000  O
  O28      1.0000 0.93179  0.83938  0.92711  Biso   1.000  O
  O29      1.0000 0.54564  0.62952  0.74289  Biso   1.000  O
  O30      1.0000 0.54213  0.62272  0.99193  Biso   1.000  O
  O31      1.0000 0.44259  0.87949  0.51160  Biso   1.000  O
  O32      1.0000 0.44381  0.87256  0.76160  Biso   1.000  O
  Tc1      1.0000 0.81623  0.23496  0.32707  Biso   1.000  Tc
