data_image0
_cell_length_a       5.06373
_cell_length_b       10.497
_cell_length_c       10.1082
_cell_angle_alpha    92.2336
_cell_angle_beta     88.0802
_cell_angle_gamma    88.0464

_symmetry_space_group_name_H-M    "P 1"
_symmetry_int_tables_number       1

loop_
  _symmetry_equiv_pos_as_xyz
  'x, y, z'

loop_
  _atom_site_label
  _atom_site_occupancy
  _atom_site_fract_x
  _atom_site_fract_y
  _atom_site_fract_z
  _atom_site_thermal_displace_type
  _atom_site_B_iso_or_equiv
  _atom_site_type_symbol
  Hf1      1.0000 0.22208  0.94460  0.11570  Biso   1.000  Hf
  Hf2      1.0000 0.28633  0.28298  0.38806  Biso   1.000  Hf
  Hf3      1.0000 0.75033  0.28051  0.14008  Biso   1.000  Hf
  Hf4      1.0000 0.75875  0.99407  0.35728  Biso   1.000  Hf
  O1       1.0000 0.92834  0.15194  0.99982  Biso   1.000  O
  O2       1.0000 0.04061  0.07527  0.25548  Biso   1.000  O
  O3       1.0000 0.99164  0.35817  0.27767  Biso   1.000  O
  O4       1.0000 0.97568  0.39895  0.00247  Biso   1.000  O
  O5       1.0000 0.55310  0.16336  0.27010  Biso   1.000  O
  O6       1.0000 0.41292  0.05987  0.97457  Biso   1.000  O
  O7       1.0000 0.44517  0.32177  0.02133  Biso   1.000  O
  O8       1.0000 0.49905  0.41794  0.26373  Biso   1.000  O
  Hf5      1.0000 0.28569  0.02135  0.60926  Biso   1.000  Hf
  Hf6      1.0000 0.21575  0.23864  0.88033  Biso   1.000  Hf
  Hf7      1.0000 0.76699  0.24885  0.63851  Biso   1.000  Hf
  Hf8      1.0000 0.73648  0.00377  0.86160  Biso   1.000  Hf
  O9       1.0000 0.09313  0.18398  0.52495  Biso   1.000  O
  O10      1.0000 0.00155  0.10667  0.75101  Biso   1.000  O
  O11      1.0000 0.03602  0.36283  0.74904  Biso   1.000  O
  O12      1.0000 0.06583  0.43763  0.49920  Biso   1.000  O
  O13      1.0000 0.50582  0.15041  0.75195  Biso   1.000  O
  O14      1.0000 0.59073  0.10717  0.51217  Biso   1.000  O
  O15      1.0000 0.56574  0.36755  0.51181  Biso   1.000  O
  O16      1.0000 0.53884  0.39371  0.76416  Biso   1.000  O
  Hf9      1.0000 0.25038  0.49665  0.12627  Biso   1.000  Hf
  Hf10     1.0000 0.25327  0.76755  0.38569  Biso   1.000  Hf
  Hf11     1.0000 0.72052  0.72697  0.12181  Biso   1.000  Hf
  Hf12     1.0000 0.77347  0.51320  0.38748  Biso   1.000  Hf
  O17      1.0000 0.01466  0.64360  0.98252  Biso   1.000  O
  O18      1.0000 0.92597  0.58442  0.22183  Biso   1.000  O
  O19      1.0000 0.98680  0.82943  0.24325  Biso   1.000  O
  O20      1.0000 0.93947  0.88749  0.98677  Biso   1.000  O
  O21      1.0000 0.42697  0.65433  0.24176  Biso   1.000  O
  O22      1.0000 0.54064  0.56562  0.01394  Biso   1.000  O
  O23      1.0000 0.44749  0.80798  0.99896  Biso   1.000  O
  O24      1.0000 0.50330  0.89159  0.24447  Biso   1.000  O
  Hf13     1.0000 0.30402  0.49505  0.64211  Biso   1.000  Hf
  Hf14     1.0000 0.20143  0.76019  0.85386  Biso   1.000  Hf
  Hf15     1.0000 0.71474  0.75131  0.62835  Biso   1.000  Hf
  Hf16     1.0000 0.79382  0.50861  0.86648  Biso   1.000  Hf
  O25      1.0000 0.94577  0.68087  0.47131  Biso   1.000  O
  O26      1.0000 0.00545  0.61532  0.72883  Biso   1.000  O
  O27      1.0000 0.95939  0.86143  0.73511  Biso   1.000  O
  O28      1.0000 0.04934  0.93194  0.48003  Biso   1.000  O
  O29      1.0000 0.50490  0.64340  0.76097  Biso   1.000  O
  O30      1.0000 0.47076  0.61861  0.50806  Biso   1.000  O
  O31      1.0000 0.52672  0.86628  0.49690  Biso   1.000  O
  O32      1.0000 0.46275  0.89703  0.74779  Biso   1.000  O
  Tc1      1.0000 0.25126  0.18165  0.13349  Biso   1.000  Tc
