data_image0
_cell_length_a       9.98972
_cell_length_b       10.1312
_cell_length_c       4.99622
_cell_angle_alpha    90.0001
_cell_angle_beta     90
_cell_angle_gamma    90.0001

_symmetry_space_group_name_H-M    "P 1"
_symmetry_int_tables_number       1

loop_
  _symmetry_equiv_pos_as_xyz
  'x, y, z'

loop_
  _atom_site_label
  _atom_site_occupancy
  _atom_site_fract_x
  _atom_site_fract_y
  _atom_site_fract_z
  _atom_site_thermal_displace_type
  _atom_site_B_iso_or_equiv
  _atom_site_type_symbol
  Tc1      1.0000 0.12491  0.00005  0.24982  Biso   1.000  Tc
  Hf1      1.0000 0.12491  0.24843  0.74982  Biso   1.000  Hf
  Hf2      1.0000 0.37334  0.24897  0.25144  Biso   1.000  Hf
  Hf3      1.0000 0.37343  0.00005  0.74982  Biso   1.000  Hf
  O1       1.0000 0.99450  0.14207  0.98587  Biso   1.000  O
  O2       1.0000 0.00708  0.10369  0.48490  Biso   1.000  O
  O3       1.0000 0.99560  0.35369  0.50884  Biso   1.000  O
  O4       1.0000 0.00240  0.39462  0.00512  Biso   1.000  O
  O5       1.0000 0.25532  0.14207  0.51376  Biso   1.000  O
  O6       1.0000 0.24274  0.10369  0.01474  Biso   1.000  O
  O7       1.0000 0.25422  0.35369  0.99079  Biso   1.000  O
  O8       1.0000 0.24741  0.39461  0.49451  Biso   1.000  O
  Hf4      1.0000 0.12491  0.50005  0.24982  Biso   1.000  Hf
  Hf5      1.0000 0.12491  0.75168  0.74982  Biso   1.000  Hf
  Hf6      1.0000 0.37333  0.75114  0.24820  Biso   1.000  Hf
  Hf7      1.0000 0.37553  0.50005  0.74982  Biso   1.000  Hf
  O9       1.0000 0.99560  0.64642  0.99079  Biso   1.000  O
  O10      1.0000 0.00240  0.60549  0.49451  Biso   1.000  O
  O11      1.0000 0.99450  0.85804  0.51376  Biso   1.000  O
  O12      1.0000 0.00708  0.89642  0.01474  Biso   1.000  O
  O13      1.0000 0.25422  0.64642  0.50884  Biso   1.000  O
  O14      1.0000 0.24741  0.60549  0.00512  Biso   1.000  O
  O15      1.0000 0.25532  0.85804  0.98587  Biso   1.000  O
  O16      1.0000 0.24273  0.89642  0.48490  Biso   1.000  O
  Hf8      1.0000 0.62491  0.00005  0.24982  Biso   1.000  Hf
  Hf9      1.0000 0.62491  0.25019  0.74982  Biso   1.000  Hf
  Hf10     1.0000 0.87648  0.24897  0.24820  Biso   1.000  Hf
  Hf11     1.0000 0.87639  0.00005  0.74982  Biso   1.000  Hf
  O17      1.0000 0.49084  0.14585  0.98544  Biso   1.000  O
  O18      1.0000 0.50452  0.10524  0.49288  Biso   1.000  O
  O19      1.0000 0.49556  0.35423  0.50679  Biso   1.000  O
  O20      1.0000 0.50282  0.39534  0.00334  Biso   1.000  O
  O21      1.0000 0.75897  0.14585  0.51420  Biso   1.000  O
  O22      1.0000 0.74529  0.10524  0.00676  Biso   1.000  O
  O23      1.0000 0.75425  0.35423  0.99284  Biso   1.000  O
  O24      1.0000 0.74700  0.39534  0.49629  Biso   1.000  O
  Hf12     1.0000 0.62491  0.50005  0.24982  Biso   1.000  Hf
  Hf13     1.0000 0.62491  0.74992  0.74982  Biso   1.000  Hf
  Hf14     1.0000 0.87648  0.75114  0.25144  Biso   1.000  Hf
  Hf15     1.0000 0.87429  0.50005  0.74982  Biso   1.000  Hf
  O25      1.0000 0.49556  0.64587  0.99284  Biso   1.000  O
  O26      1.0000 0.50282  0.60477  0.49629  Biso   1.000  O
  O27      1.0000 0.49084  0.85425  0.51420  Biso   1.000  O
  O28      1.0000 0.50452  0.89487  0.00676  Biso   1.000  O
  O29      1.0000 0.75426  0.64587  0.50679  Biso   1.000  O
  O30      1.0000 0.74700  0.60477  0.00334  Biso   1.000  O
  O31      1.0000 0.75897  0.85426  0.98543  Biso   1.000  O
  O32      1.0000 0.74529  0.89487  0.49288  Biso   1.000  O
