data_image0
_cell_length_a       10.0766
_cell_length_b       10.2927
_cell_length_c       10.0777
_cell_angle_alpha    90.0914
_cell_angle_beta     88.2206
_cell_angle_gamma    89.9252

_symmetry_space_group_name_H-M    "P 1"
_symmetry_int_tables_number       1

loop_
  _symmetry_equiv_pos_as_xyz
  'x, y, z'

loop_
  _atom_site_label
  _atom_site_occupancy
  _atom_site_fract_x
  _atom_site_fract_y
  _atom_site_fract_z
  _atom_site_thermal_displace_type
  _atom_site_B_iso_or_equiv
  _atom_site_type_symbol
  Hf1      1.0000 0.11870  0.95287  0.12598  Biso   1.000  Hf
  Hf2      1.0000 0.12934  0.26553  0.38484  Biso   1.000  Hf
  Hf3      1.0000 0.38230  0.25949  0.13092  Biso   1.000  Hf
  Hf4      1.0000 0.36771  0.00513  0.38106  Biso   1.000  Hf
  O1       1.0000 0.98570  0.16149  0.96574  Biso   1.000  O
  O2       1.0000 0.96857  0.07329  0.20802  Biso   1.000  O
  O3       1.0000 0.00358  0.33391  0.23747  Biso   1.000  O
  O4       1.0000 0.00544  0.41489  0.98898  Biso   1.000  O
  O5       1.0000 0.26144  0.16249  0.26739  Biso   1.000  O
  O6       1.0000 0.24593  0.08087  0.01748  Biso   1.000  O
  O7       1.0000 0.27015  0.34536  0.98391  Biso   1.000  O
  O8       1.0000 0.25422  0.40984  0.25580  Biso   1.000  O
  Hf5      1.0000 0.12683  0.99116  0.63158  Biso   1.000  Hf
  Hf6      1.0000 0.12369  0.27428  0.86777  Biso   1.000  Hf
  Hf7      1.0000 0.36594  0.25350  0.63381  Biso   1.000  Hf
  Hf8      1.0000 0.36972  0.99790  0.88472  Biso   1.000  Hf
  O9       1.0000 0.97680  0.15857  0.45946  Biso   1.000  O
  O10      1.0000 0.97766  0.09777  0.71473  Biso   1.000  O
  O11      1.0000 0.99215  0.35306  0.73709  Biso   1.000  O
  O12      1.0000 0.99898  0.40447  0.49564  Biso   1.000  O
  O13      1.0000 0.23775  0.14881  0.75631  Biso   1.000  O
  O14      1.0000 0.23620  0.10773  0.50677  Biso   1.000  O
  O15      1.0000 0.25097  0.36022  0.50727  Biso   1.000  O
  O16      1.0000 0.24737  0.40793  0.74923  Biso   1.000  O
  Hf9      1.0000 0.12265  0.49805  0.12698  Biso   1.000  Hf
  Hf10     1.0000 0.12596  0.74901  0.38254  Biso   1.000  Hf
  Hf11     1.0000 0.38525  0.74079  0.12238  Biso   1.000  Hf
  Hf12     1.0000 0.37900  0.50766  0.37548  Biso   1.000  Hf
  O17      1.0000 0.03102  0.66282  0.03758  Biso   1.000  O
  O18      1.0000 0.02839  0.58300  0.28604  Biso   1.000  O
  O19      1.0000 0.99310  0.83146  0.25453  Biso   1.000  O
  O20      1.0000 0.98970  0.89639  0.98635  Biso   1.000  O
  O21      1.0000 0.27456  0.66177  0.27570  Biso   1.000  O
  O22      1.0000 0.27999  0.58409  0.03150  Biso   1.000  O
  O23      1.0000 0.25010  0.83223  0.00745  Biso   1.000  O
  O24      1.0000 0.23880  0.90332  0.27186  Biso   1.000  O
  Hf13     1.0000 0.11875  0.50211  0.62225  Biso   1.000  Hf
  Hf14     1.0000 0.11834  0.75006  0.87218  Biso   1.000  Hf
  Hf15     1.0000 0.37709  0.74844  0.62628  Biso   1.000  Hf
  Hf16     1.0000 0.37899  0.50070  0.87485  Biso   1.000  Hf
  O25      1.0000 0.01678  0.65814  0.53171  Biso   1.000  O
  O26      1.0000 0.02456  0.59457  0.78103  Biso   1.000  O
  O27      1.0000 0.99698  0.84958  0.74605  Biso   1.000  O
  O28      1.0000 0.99772  0.90637  0.49636  Biso   1.000  O
  O29      1.0000 0.27360  0.65612  0.77677  Biso   1.000  O
  O30      1.0000 0.26289  0.60325  0.51943  Biso   1.000  O
  O31      1.0000 0.24727  0.85225  0.51544  Biso   1.000  O
  O32      1.0000 0.24260  0.90000  0.76363  Biso   1.000  O
  Hf17     1.0000 0.61770  0.00114  0.12491  Biso   1.000  Hf
  Hf18     1.0000 0.61504  0.24738  0.37779  Biso   1.000  Hf
  Hf19     1.0000 0.86040  0.24485  0.11687  Biso   1.000  Hf
  Hf20     1.0000 0.86985  0.00164  0.37065  Biso   1.000  Hf
  O33      1.0000 0.49518  0.14630  0.00052  Biso   1.000  O
  O34      1.0000 0.49606  0.10432  0.25370  Biso   1.000  O
  O35      1.0000 0.50478  0.36009  0.25455  Biso   1.000  O
  O36      1.0000 0.50939  0.39930  0.00235  Biso   1.000  O
  O37      1.0000 0.73682  0.14884  0.24810  Biso   1.000  O
  O38      1.0000 0.74268  0.10268  0.99688  Biso   1.000  O
  O39      1.0000 0.75320  0.35266  0.98211  Biso   1.000  O
  O40      1.0000 0.75961  0.39889  0.23241  Biso   1.000  O
  Hf21     1.0000 0.61362  0.00391  0.62555  Biso   1.000  Hf
  Hf22     1.0000 0.61660  0.25052  0.87443  Biso   1.000  Hf
  Hf23     1.0000 0.86791  0.24623  0.61335  Biso   1.000  Hf
  Hf24     1.0000 0.86943  0.00646  0.86452  Biso   1.000  Hf
  O41      1.0000 0.48784  0.15044  0.50343  Biso   1.000  O
  O42      1.0000 0.48760  0.10289  0.75191  Biso   1.000  O
  O43      1.0000 0.49244  0.35137  0.75428  Biso   1.000  O
  O44      1.0000 0.49927  0.39973  0.50355  Biso   1.000  O
  O45      1.0000 0.73848  0.15038  0.74569  Biso   1.000  O
  O46      1.0000 0.73759  0.10314  0.49784  Biso   1.000  O
  O47      1.0000 0.74876  0.35302  0.48404  Biso   1.000  O
  O48      1.0000 0.74616  0.39742  0.73423  Biso   1.000  O
  Hf25     1.0000 0.63243  0.50148  0.11798  Biso   1.000  Hf
  Hf26     1.0000 0.62392  0.75599  0.36489  Biso   1.000  Hf
  Hf27     1.0000 0.86597  0.75576  0.11343  Biso   1.000  Hf
  Hf28     1.0000 0.86790  0.49504  0.36791  Biso   1.000  Hf
  O49      1.0000 0.52055  0.64802  0.99975  Biso   1.000  O
  O50      1.0000 0.51495  0.60533  0.24924  Biso   1.000  O
  O51      1.0000 0.49576  0.85597  0.25112  Biso   1.000  O
  O52      1.0000 0.49549  0.89644  0.00208  Biso   1.000  O
  O53      1.0000 0.76432  0.64808  0.25591  Biso   1.000  O
  O54      1.0000 0.77310  0.60192  0.00608  Biso   1.000  O
  O55      1.0000 0.74541  0.85472  0.98908  Biso   1.000  O
  O56      1.0000 0.74531  0.89727  0.23912  Biso   1.000  O
  Hf29     1.0000 0.62564  0.50077  0.61463  Biso   1.000  Hf
  Hf30     1.0000 0.62666  0.75396  0.86350  Biso   1.000  Hf
  Hf31     1.0000 0.86823  0.76341  0.61512  Biso   1.000  Hf
  Hf32     1.0000 0.86839  0.49168  0.86076  Biso   1.000  Hf
  O57      1.0000 0.50935  0.65178  0.49964  Biso   1.000  O
  O58      1.0000 0.51626  0.60256  0.75014  Biso   1.000  O
  O59      1.0000 0.49827  0.85422  0.75067  Biso   1.000  O
  O60      1.0000 0.49548  0.90140  0.50049  Biso   1.000  O
  O61      1.0000 0.76884  0.65131  0.75585  Biso   1.000  O
  O62      1.0000 0.76303  0.60405  0.50458  Biso   1.000  O
  O63      1.0000 0.74816  0.85528  0.48813  Biso   1.000  O
  O64      1.0000 0.74603  0.90210  0.73885  Biso   1.000  O
  Tc1      1.0000 0.11877  0.19239  0.12436  Biso   1.000  Tc
