data_image0
_cell_length_a       10.0958
_cell_length_b       10.2644
_cell_length_c       10.4292
_cell_angle_alpha    89.9414
_cell_angle_beta     80.2406
_cell_angle_gamma    89.9752

_symmetry_space_group_name_H-M    "P 1"
_symmetry_int_tables_number       1

loop_
  _symmetry_equiv_pos_as_xyz
  'x, y, z'

loop_
  _atom_site_label
  _atom_site_occupancy
  _atom_site_fract_x
  _atom_site_fract_y
  _atom_site_fract_z
  _atom_site_thermal_displace_type
  _atom_site_B_iso_or_equiv
  _atom_site_type_symbol
  Tc1      1.0000 0.14030  0.02269  0.15015  Biso   1.000  Tc
  Hf1      1.0000 0.14016  0.22948  0.39504  Biso   1.000  Hf
  Hf2      1.0000 0.36007  0.27094  0.10511  Biso   1.000  Hf
  Hf3      1.0000 0.36177  0.47931  0.35413  Biso   1.000  Hf
  O1       1.0000 0.03686  0.16599  0.08082  Biso   1.000  O
  O2       1.0000 0.04015  0.08146  0.32130  Biso   1.000  O
  O3       1.0000 0.46359  0.42029  0.16891  Biso   1.000  O
  O4       1.0000 0.46356  0.33003  0.41945  Biso   1.000  O
  O5       1.0000 0.27782  0.12740  0.24120  Biso   1.000  O
  O6       1.0000 0.27738  0.12121  0.49132  Biso   1.000  O
  O7       1.0000 0.22289  0.37879  0.01002  Biso   1.000  O
  O8       1.0000 0.22376  0.37119  0.25954  Biso   1.000  O
  Hf4      1.0000 0.13890  0.02119  0.64579  Biso   1.000  Hf
  Hf5      1.0000 0.13782  0.22636  0.89802  Biso   1.000  Hf
  Hf6      1.0000 0.36096  0.27151  0.60502  Biso   1.000  Hf
  Hf7      1.0000 0.36018  0.47843  0.85454  Biso   1.000  Hf
  O9       1.0000 0.03473  0.16658  0.57646  Biso   1.000  O
  O10      1.0000 0.03462  0.08147  0.82824  Biso   1.000  O
  O11      1.0000 0.46355  0.42044  0.66922  Biso   1.000  O
  O12      1.0000 0.46159  0.32775  0.91891  Biso   1.000  O
  O13      1.0000 0.27695  0.12887  0.74299  Biso   1.000  O
  O14      1.0000 0.27283  0.11687  0.99821  Biso   1.000  O
  O15      1.0000 0.22295  0.37881  0.50935  Biso   1.000  O
  O16      1.0000 0.22276  0.37027  0.75991  Biso   1.000  O
  Hf8      1.0000 0.13928  0.52172  0.14588  Biso   1.000  Hf
  Hf9      1.0000 0.13869  0.72917  0.39546  Biso   1.000  Hf
  Hf10     1.0000 0.35835  0.77488  0.10437  Biso   1.000  Hf
  Hf11     1.0000 0.36054  0.97854  0.35342  Biso   1.000  Hf
  O17      1.0000 0.03587  0.66857  0.08005  Biso   1.000  O
  O18      1.0000 0.03591  0.58063  0.33053  Biso   1.000  O
  O19      1.0000 0.46515  0.91908  0.17033  Biso   1.000  O
  O20      1.0000 0.46446  0.82984  0.41879  Biso   1.000  O
  O21      1.0000 0.27659  0.63098  0.24098  Biso   1.000  O
  O22      1.0000 0.27684  0.62091  0.49072  Biso   1.000  O
  O23      1.0000 0.21870  0.88139  0.00988  Biso   1.000  O
  O24      1.0000 0.22037  0.87355  0.25766  Biso   1.000  O
  Hf12     1.0000 0.13881  0.52130  0.64613  Biso   1.000  Hf
  Hf13     1.0000 0.13875  0.72920  0.89595  Biso   1.000  Hf
  Hf14     1.0000 0.36144  0.77131  0.60386  Biso   1.000  Hf
  Hf15     1.0000 0.35925  0.97827  0.85560  Biso   1.000  Hf
  O25      1.0000 0.03559  0.66928  0.57993  Biso   1.000  O
  O26      1.0000 0.03575  0.58031  0.83051  Biso   1.000  O
  O27      1.0000 0.46323  0.91995  0.66973  Biso   1.000  O
  O28      1.0000 0.46208  0.82997  0.91948  Biso   1.000  O
  O29      1.0000 0.27679  0.62909  0.74068  Biso   1.000  O
  O30      1.0000 0.27661  0.62156  0.99075  Biso   1.000  O
  O31      1.0000 0.22344  0.87901  0.50861  Biso   1.000  O
  O32      1.0000 0.22296  0.87078  0.75887  Biso   1.000  O
  Hf16     1.0000 0.63883  0.02192  0.14569  Biso   1.000  Hf
  Hf17     1.0000 0.63886  0.22865  0.39568  Biso   1.000  Hf
  Hf18     1.0000 0.86305  0.27000  0.10451  Biso   1.000  Hf
  Hf19     1.0000 0.86098  0.47869  0.35359  Biso   1.000  Hf
  O33      1.0000 0.53607  0.17057  0.08159  Biso   1.000  O
  O34      1.0000 0.53634  0.07990  0.33125  Biso   1.000  O
  O35      1.0000 0.96457  0.41960  0.16937  Biso   1.000  O
  O36      1.0000 0.96408  0.32976  0.41849  Biso   1.000  O
  O37      1.0000 0.77695  0.12894  0.24054  Biso   1.000  O
  O38      1.0000 0.77788  0.12030  0.48943  Biso   1.000  O
  O39      1.0000 0.72345  0.37918  0.00937  Biso   1.000  O
  O40      1.0000 0.72352  0.37062  0.25912  Biso   1.000  O
  Hf20     1.0000 0.63822  0.02098  0.64607  Biso   1.000  Hf
  Hf21     1.0000 0.63839  0.22857  0.89603  Biso   1.000  Hf
  Hf22     1.0000 0.86084  0.27115  0.60361  Biso   1.000  Hf
  Hf23     1.0000 0.86094  0.47831  0.85468  Biso   1.000  Hf
  O41      1.0000 0.53676  0.17061  0.58143  Biso   1.000  O
  O42      1.0000 0.53514  0.07942  0.83200  Biso   1.000  O
  O43      1.0000 0.96438  0.41814  0.66986  Biso   1.000  O
  O44      1.0000 0.96468  0.32970  0.92047  Biso   1.000  O
  O45      1.0000 0.77593  0.12902  0.74024  Biso   1.000  O
  O46      1.0000 0.77626  0.12103  0.99026  Biso   1.000  O
  O47      1.0000 0.72340  0.37908  0.50939  Biso   1.000  O
  O48      1.0000 0.72302  0.37078  0.75952  Biso   1.000  O
  Hf24     1.0000 0.63889  0.52217  0.14543  Biso   1.000  Hf
  Hf25     1.0000 0.63976  0.72898  0.39565  Biso   1.000  Hf
  Hf26     1.0000 0.86357  0.77288  0.10345  Biso   1.000  Hf
  Hf27     1.0000 0.86225  0.97936  0.35215  Biso   1.000  Hf
  O49      1.0000 0.53462  0.67048  0.08120  Biso   1.000  O
  O50      1.0000 0.53697  0.57980  0.33125  Biso   1.000  O
  O51      1.0000 0.97211  0.92080  0.16659  Biso   1.000  O
  O52      1.0000 0.96468  0.83235  0.41927  Biso   1.000  O
  O53      1.0000 0.77712  0.62997  0.24026  Biso   1.000  O
  O54      1.0000 0.77719  0.62096  0.49058  Biso   1.000  O
  O55      1.0000 0.72280  0.87936  0.00958  Biso   1.000  O
  O56      1.0000 0.72794  0.87204  0.25861  Biso   1.000  O
  Hf28     1.0000 0.63899  0.52137  0.64623  Biso   1.000  Hf
  Hf29     1.0000 0.63795  0.72836  0.89698  Biso   1.000  Hf
  Hf30     1.0000 0.86066  0.77153  0.60418  Biso   1.000  Hf
  Hf31     1.0000 0.86040  0.97867  0.85392  Biso   1.000  Hf
  O57      1.0000 0.53685  0.67033  0.58084  Biso   1.000  O
  O58      1.0000 0.53598  0.57928  0.83150  Biso   1.000  O
  O59      1.0000 0.96410  0.91909  0.66927  Biso   1.000  O
  O60      1.0000 0.96339  0.83011  0.91864  Biso   1.000  O
  O61      1.0000 0.77670  0.62898  0.74112  Biso   1.000  O
  O62      1.0000 0.77702  0.62152  0.99103  Biso   1.000  O
  O63      1.0000 0.72334  0.87939  0.50881  Biso   1.000  O
  O64      1.0000 0.72262  0.87067  0.75945  Biso   1.000  O
