data_image0
_cell_length_a       10.0953
_cell_length_b       10.2997
_cell_length_c       5.27687
_cell_angle_alpha    89.6539
_cell_angle_beta     91.1339
_cell_angle_gamma    89.8835

_symmetry_space_group_name_H-M    "P 1"
_symmetry_int_tables_number       1

loop_
  _symmetry_equiv_pos_as_xyz
  'x, y, z'

loop_
  _atom_site_label
  _atom_site_occupancy
  _atom_site_fract_x
  _atom_site_fract_y
  _atom_site_fract_z
  _atom_site_thermal_displace_type
  _atom_site_B_iso_or_equiv
  _atom_site_type_symbol
  Hf1      1.0000 0.14215  0.01942  0.34034  Biso   1.000  Hf
  Hf2      1.0000 0.14411  0.22732  0.83556  Biso   1.000  Hf
  Hf3      1.0000 0.36109  0.26727  0.35154  Biso   1.000  Hf
  Hf4      1.0000 0.36066  0.47992  0.84335  Biso   1.000  Hf
  Hf5      1.0000 0.63811  0.01378  0.14828  Biso   1.000  Hf
  Hf6      1.0000 0.63191  0.22489  0.69708  Biso   1.000  Hf
  Hf7      1.0000 0.87711  0.26814  0.14403  Biso   1.000  Hf
  Hf8      1.0000 0.86390  0.48218  0.66088  Biso   1.000  Hf
  O1       1.0000 0.03905  0.15833  0.14665  Biso   1.000  O
  O2       1.0000 0.03197  0.09103  0.64497  Biso   1.000  O
  O3       1.0000 0.47059  0.41821  0.17055  Biso   1.000  O
  O4       1.0000 0.46181  0.33292  0.68174  Biso   1.000  O
  O5       1.0000 0.27321  0.12235  0.59190  Biso   1.000  O
  O6       1.0000 0.27790  0.12251  0.08825  Biso   1.000  O
  O7       1.0000 0.22307  0.37391  0.58772  Biso   1.000  O
  O8       1.0000 0.22537  0.37517  0.08777  Biso   1.000  O
  O9       1.0000 0.51264  0.13207  0.37925  Biso   1.000  O
  O10      1.0000 0.52867  0.07257  0.84052  Biso   1.000  O
  O11      1.0000 0.96619  0.41384  0.33687  Biso   1.000  O
  O12      1.0000 0.97272  0.33774  0.82841  Biso   1.000  O
  O13      1.0000 0.79060  0.11576  0.88985  Biso   1.000  O
  O14      1.0000 0.75993  0.14363  0.38536  Biso   1.000  O
  O15      1.0000 0.72938  0.37773  0.94122  Biso   1.000  O
  O16      1.0000 0.71551  0.39720  0.44843  Biso   1.000  O
  Hf9      1.0000 0.13884  0.51942  0.34002  Biso   1.000  Hf
  Hf10     1.0000 0.13866  0.72729  0.84129  Biso   1.000  Hf
  Hf11     1.0000 0.36029  0.76949  0.34611  Biso   1.000  Hf
  Hf12     1.0000 0.35939  0.97301  0.84709  Biso   1.000  Hf
  Hf13     1.0000 0.64353  0.53604  0.15952  Biso   1.000  Hf
  Hf14     1.0000 0.63975  0.73146  0.65573  Biso   1.000  Hf
  Hf15     1.0000 0.86533  0.77433  0.15597  Biso   1.000  Hf
  Hf16     1.0000 0.86588  0.97830  0.65215  Biso   1.000  Hf
  O17      1.0000 0.03272  0.66230  0.15577  Biso   1.000  O
  O18      1.0000 0.03333  0.58849  0.65449  Biso   1.000  O
  O19      1.0000 0.46732  0.90277  0.15762  Biso   1.000  O
  O20      1.0000 0.46732  0.83477  0.66057  Biso   1.000  O
  O21      1.0000 0.27506  0.62216  0.58988  Biso   1.000  O
  O22      1.0000 0.27558  0.62353  0.09054  Biso   1.000  O
  O23      1.0000 0.22311  0.87139  0.59099  Biso   1.000  O
  O24      1.0000 0.22203  0.87289  0.09236  Biso   1.000  O
  O25      1.0000 0.53199  0.66501  0.34268  Biso   1.000  O
  O26      1.0000 0.53231  0.58966  0.83967  Biso   1.000  O
  O27      1.0000 0.96959  0.91640  0.32849  Biso   1.000  O
  O28      1.0000 0.96993  0.83867  0.83230  Biso   1.000  O
  O29      1.0000 0.77879  0.62664  0.90522  Biso   1.000  O
  O30      1.0000 0.78137  0.63582  0.40764  Biso   1.000  O
  O31      1.0000 0.72632  0.87149  0.91032  Biso   1.000  O
  O32      1.0000 0.72827  0.87894  0.41316  Biso   1.000  O
  Tc1      1.0000 0.61450  0.27217  0.21045  Biso   1.000  Tc
