data_image0
_cell_length_a       10.1732
_cell_length_b       10.2877
_cell_length_c       5.2849
_cell_angle_alpha    89.7267
_cell_angle_beta     79.9577
_cell_angle_gamma    90.4498

_symmetry_space_group_name_H-M    "P 1"
_symmetry_int_tables_number       1

loop_
  _symmetry_equiv_pos_as_xyz
  'x, y, z'

loop_
  _atom_site_label
  _atom_site_occupancy
  _atom_site_fract_x
  _atom_site_fract_y
  _atom_site_fract_z
  _atom_site_thermal_displace_type
  _atom_site_B_iso_or_equiv
  _atom_site_type_symbol
  Hf1      1.0000 0.13582  0.02106  0.29364  Biso   1.000  Hf
  Hf2      1.0000 0.13635  0.23281  0.78768  Biso   1.000  Hf
  Hf3      1.0000 0.35832  0.27516  0.18328  Biso   1.000  Hf
  Hf4      1.0000 0.35226  0.48789  0.71261  Biso   1.000  Hf
  O1       1.0000 0.03834  0.16670  0.15147  Biso   1.000  O
  O2       1.0000 0.03361  0.08507  0.64967  Biso   1.000  O
  O3       1.0000 0.47334  0.39048  0.39079  Biso   1.000  O
  O4       1.0000 0.48609  0.36716  0.88196  Biso   1.000  O
  O5       1.0000 0.27900  0.12523  0.46430  Biso   1.000  O
  O6       1.0000 0.28372  0.12141  0.95341  Biso   1.000  O
  O7       1.0000 0.21470  0.38694  0.02167  Biso   1.000  O
  O8       1.0000 0.21755  0.37644  0.50574  Biso   1.000  O
  Hf5      1.0000 0.13530  0.52496  0.29429  Biso   1.000  Hf
  Hf6      1.0000 0.13201  0.73057  0.79739  Biso   1.000  Hf
  Hf7      1.0000 0.36005  0.76980  0.20944  Biso   1.000  Hf
  Hf8      1.0000 0.36125  0.96762  0.70616  Biso   1.000  Hf
  O9       1.0000 0.02725  0.66723  0.15594  Biso   1.000  O
  O10      1.0000 0.03025  0.58845  0.65596  Biso   1.000  O
  O11      1.0000 0.46760  0.90957  0.34967  Biso   1.000  O
  O12      1.0000 0.46534  0.83115  0.85387  Biso   1.000  O
  O13      1.0000 0.27352  0.62964  0.48453  Biso   1.000  O
  O14      1.0000 0.26901  0.62696  0.98643  Biso   1.000  O
  O15      1.0000 0.22298  0.87961  0.02332  Biso   1.000  O
  O16      1.0000 0.22088  0.86898  0.51990  Biso   1.000  O
  Hf9      1.0000 0.63932  0.02157  0.28895  Biso   1.000  Hf
  Hf10     1.0000 0.64355  0.23131  0.80292  Biso   1.000  Hf
  Hf11     1.0000 0.86380  0.27255  0.21508  Biso   1.000  Hf
  Hf12     1.0000 0.86012  0.47902  0.71457  Biso   1.000  Hf
  O17      1.0000 0.53182  0.15984  0.14496  Biso   1.000  O
  O18      1.0000 0.54097  0.07201  0.66357  Biso   1.000  O
  O19      1.0000 0.96454  0.41711  0.35236  Biso   1.000  O
  O20      1.0000 0.96570  0.33755  0.85044  Biso   1.000  O
  O21      1.0000 0.77683  0.12926  0.48034  Biso   1.000  O
  O22      1.0000 0.77975  0.11986  0.98452  Biso   1.000  O
  O23      1.0000 0.72803  0.37715  0.03250  Biso   1.000  O
  O24      1.0000 0.72655  0.37317  0.52786  Biso   1.000  O
  Hf13     1.0000 0.63680  0.51921  0.29941  Biso   1.000  Hf
  Hf14     1.0000 0.63653  0.72535  0.79297  Biso   1.000  Hf
  Hf15     1.0000 0.85726  0.77254  0.21125  Biso   1.000  Hf
  Hf16     1.0000 0.85847  0.97968  0.70936  Biso   1.000  Hf
  O25      1.0000 0.52597  0.65231  0.14495  Biso   1.000  O
  O26      1.0000 0.52723  0.59390  0.63727  Biso   1.000  O
  O27      1.0000 0.96475  0.91575  0.34824  Biso   1.000  O
  O28      1.0000 0.96282  0.83773  0.85066  Biso   1.000  O
  O29      1.0000 0.77253  0.62740  0.48127  Biso   1.000  O
  O30      1.0000 0.77195  0.62127  0.98296  Biso   1.000  O
  O31      1.0000 0.72045  0.87764  0.02285  Biso   1.000  O
  O32      1.0000 0.72341  0.87017  0.52224  Biso   1.000  O
  Tc1      1.0000 0.40760  0.23571  0.65529  Biso   1.000  Tc
