data_image0
_cell_length_a       10.0913
_cell_length_b       10.2419
_cell_length_c       5.21408
_cell_angle_alpha    89.8883
_cell_angle_beta     80.0726
_cell_angle_gamma    89.9667

_symmetry_space_group_name_H-M    "P 1"
_symmetry_int_tables_number       1

loop_
  _symmetry_equiv_pos_as_xyz
  'x, y, z'

loop_
  _atom_site_label
  _atom_site_occupancy
  _atom_site_fract_x
  _atom_site_fract_y
  _atom_site_fract_z
  _atom_site_thermal_displace_type
  _atom_site_B_iso_or_equiv
  _atom_site_type_symbol
  Tc1      1.0000 0.14012  0.02249  0.30086  Biso   1.000  Tc
  Hf1      1.0000 0.13927  0.22722  0.79417  Biso   1.000  Hf
  Hf2      1.0000 0.35959  0.27079  0.21220  Biso   1.000  Hf
  Hf3      1.0000 0.36083  0.47901  0.70893  Biso   1.000  Hf
  O1       1.0000 0.03486  0.16106  0.15037  Biso   1.000  O
  O2       1.0000 0.03727  0.08505  0.63535  Biso   1.000  O
  O3       1.0000 0.46359  0.42006  0.33859  Biso   1.000  O
  O4       1.0000 0.46139  0.32806  0.83908  Biso   1.000  O
  O5       1.0000 0.27858  0.12691  0.48738  Biso   1.000  O
  O6       1.0000 0.27299  0.11697  0.99803  Biso   1.000  O
  O7       1.0000 0.22245  0.37816  0.02016  Biso   1.000  O
  O8       1.0000 0.22317  0.37090  0.52012  Biso   1.000  O
  Hf4      1.0000 0.13920  0.52162  0.29238  Biso   1.000  Hf
  Hf5      1.0000 0.13871  0.72985  0.79104  Biso   1.000  Hf
  Hf6      1.0000 0.35859  0.77484  0.20778  Biso   1.000  Hf
  Hf7      1.0000 0.35897  0.97802  0.70992  Biso   1.000  Hf
  O9       1.0000 0.03487  0.66713  0.15713  Biso   1.000  O
  O10      1.0000 0.03509  0.58176  0.65931  Biso   1.000  O
  O11      1.0000 0.46501  0.91829  0.34270  Biso   1.000  O
  O12      1.0000 0.46320  0.83022  0.83897  Biso   1.000  O
  O13      1.0000 0.27671  0.63086  0.48188  Biso   1.000  O
  O14      1.0000 0.27663  0.62165  0.98149  Biso   1.000  O
  O15      1.0000 0.21854  0.88120  0.01758  Biso   1.000  O
  O16      1.0000 0.22053  0.87375  0.51374  Biso   1.000  O
  Hf8      1.0000 0.63813  0.02155  0.29198  Biso   1.000  Hf
  Hf9      1.0000 0.63822  0.22872  0.79191  Biso   1.000  Hf
  Hf10     1.0000 0.86292  0.26964  0.20797  Biso   1.000  Hf
  Hf11     1.0000 0.86093  0.47834  0.70834  Biso   1.000  Hf
  O17      1.0000 0.53620  0.17059  0.16377  Biso   1.000  O
  O18      1.0000 0.53512  0.07973  0.66432  Biso   1.000  O
  O19      1.0000 0.96554  0.41693  0.34146  Biso   1.000  O
  O20      1.0000 0.96548  0.33021  0.84087  Biso   1.000  O
  O21      1.0000 0.77598  0.12876  0.48025  Biso   1.000  O
  O22      1.0000 0.77710  0.12069  0.97803  Biso   1.000  O
  O23      1.0000 0.72378  0.37897  0.01908  Biso   1.000  O
  O24      1.0000 0.72338  0.37071  0.51881  Biso   1.000  O
  Hf12     1.0000 0.63894  0.52211  0.29179  Biso   1.000  Hf
  Hf13     1.0000 0.63894  0.72861  0.79372  Biso   1.000  Hf
  Hf14     1.0000 0.86328  0.77307  0.20690  Biso   1.000  Hf
  Hf15     1.0000 0.86145  0.97967  0.70426  Biso   1.000  Hf
  O25      1.0000 0.53492  0.67021  0.16180  Biso   1.000  O
  O26      1.0000 0.53650  0.57946  0.66332  Biso   1.000  O
  O27      1.0000 0.97288  0.91977  0.33426  Biso   1.000  O
  O28      1.0000 0.96489  0.83342  0.83831  Biso   1.000  O
  O29      1.0000 0.77706  0.62969  0.48147  Biso   1.000  O
  O30      1.0000 0.77755  0.62186  0.98207  Biso   1.000  O
  O31      1.0000 0.72309  0.87947  0.01842  Biso   1.000  O
  O32      1.0000 0.72757  0.87195  0.51771  Biso   1.000  O
