data_image0
_cell_length_a       9.99677
_cell_length_b       10.1705
_cell_length_c       9.99676
_cell_angle_alpha    90
_cell_angle_beta     90
_cell_angle_gamma    90

_symmetry_space_group_name_H-M    "P 1"
_symmetry_int_tables_number       1

loop_
  _symmetry_equiv_pos_as_xyz
  'x, y, z'

loop_
  _atom_site_label
  _atom_site_occupancy
  _atom_site_fract_x
  _atom_site_fract_y
  _atom_site_fract_z
  _atom_site_thermal_displace_type
  _atom_site_B_iso_or_equiv
  _atom_site_type_symbol
  Tc1      1.0000 0.12491  0.00005  0.12491  Biso   1.000  Tc
  Hf1      1.0000 0.12562  0.24936  0.37339  Biso   1.000  Hf
  Hf2      1.0000 0.37339  0.24935  0.12562  Biso   1.000  Hf
  Hf3      1.0000 0.37360  0.99966  0.37360  Biso   1.000  Hf
  O1       1.0000 0.99702  0.14235  0.99702  Biso   1.000  O
  O2       1.0000 0.00584  0.10311  0.24397  Biso   1.000  O
  O3       1.0000 0.99828  0.35350  0.25153  Biso   1.000  O
  O4       1.0000 0.00100  0.39553  0.00101  Biso   1.000  O
  O5       1.0000 0.25280  0.14235  0.25280  Biso   1.000  O
  O6       1.0000 0.24397  0.10311  0.00584  Biso   1.000  O
  O7       1.0000 0.25154  0.35350  0.99828  Biso   1.000  O
  O8       1.0000 0.24881  0.39553  0.24881  Biso   1.000  O
  Hf4      1.0000 0.12491  0.00005  0.62491  Biso   1.000  Hf
  Hf5      1.0000 0.12420  0.24936  0.87643  Biso   1.000  Hf
  Hf6      1.0000 0.37499  0.24976  0.62530  Biso   1.000  Hf
  Hf7      1.0000 0.37360  0.00045  0.87621  Biso   1.000  Hf
  O9       1.0000 0.99596  0.14721  0.49376  Biso   1.000  O
  O10      1.0000 0.00139  0.10319  0.74683  Biso   1.000  O
  O11      1.0000 0.99827  0.35240  0.75178  Biso   1.000  O
  O12      1.0000 0.00064  0.39721  0.50095  Biso   1.000  O
  O13      1.0000 0.25386  0.14721  0.75606  Biso   1.000  O
  O14      1.0000 0.24842  0.10319  0.50298  Biso   1.000  O
  O15      1.0000 0.25154  0.35240  0.49803  Biso   1.000  O
  O16      1.0000 0.24917  0.39720  0.74887  Biso   1.000  O
  Hf8      1.0000 0.12491  0.50005  0.12491  Biso   1.000  Hf
  Hf9      1.0000 0.12420  0.75075  0.37339  Biso   1.000  Hf
  Hf10     1.0000 0.37339  0.75075  0.12420  Biso   1.000  Hf
  Hf11     1.0000 0.37526  0.49983  0.37526  Biso   1.000  Hf
  O17      1.0000 0.99828  0.64661  0.99828  Biso   1.000  O
  O18      1.0000 0.00100  0.60457  0.24881  Biso   1.000  O
  O19      1.0000 0.99702  0.85776  0.25280  Biso   1.000  O
  O20      1.0000 0.00584  0.89700  0.00584  Biso   1.000  O
  O21      1.0000 0.25154  0.64661  0.25153  Biso   1.000  O
  O22      1.0000 0.24881  0.60458  0.00100  Biso   1.000  O
  O23      1.0000 0.25280  0.85776  0.99701  Biso   1.000  O
  O24      1.0000 0.24397  0.89700  0.24398  Biso   1.000  O
  Hf12     1.0000 0.12491  0.50005  0.62491  Biso   1.000  Hf
  Hf13     1.0000 0.12562  0.75075  0.87643  Biso   1.000  Hf
  Hf14     1.0000 0.37499  0.75035  0.62452  Biso   1.000  Hf
  Hf15     1.0000 0.37526  0.50028  0.87456  Biso   1.000  Hf
  O25      1.0000 0.99827  0.64770  0.49804  Biso   1.000  O
  O26      1.0000 0.00064  0.60290  0.74886  Biso   1.000  O
  O27      1.0000 0.99596  0.85290  0.75606  Biso   1.000  O
  O28      1.0000 0.00139  0.89692  0.50299  Biso   1.000  O
  O29      1.0000 0.25154  0.64770  0.75178  Biso   1.000  O
  O30      1.0000 0.24917  0.60290  0.50095  Biso   1.000  O
  O31      1.0000 0.25386  0.85290  0.49376  Biso   1.000  O
  O32      1.0000 0.24842  0.89692  0.74683  Biso   1.000  O
  Hf16     1.0000 0.62491  0.00005  0.12491  Biso   1.000  Hf
  Hf17     1.0000 0.62530  0.24977  0.37499  Biso   1.000  Hf
  Hf18     1.0000 0.87643  0.24935  0.12420  Biso   1.000  Hf
  Hf19     1.0000 0.87621  0.00045  0.37360  Biso   1.000  Hf
  O33      1.0000 0.49376  0.14721  0.99596  Biso   1.000  O
  O34      1.0000 0.50299  0.10319  0.24843  Biso   1.000  O
  O35      1.0000 0.49803  0.35240  0.25154  Biso   1.000  O
  O36      1.0000 0.50095  0.39720  0.00064  Biso   1.000  O
  O37      1.0000 0.75606  0.14721  0.25386  Biso   1.000  O
  O38      1.0000 0.74683  0.10319  0.00139  Biso   1.000  O
  O39      1.0000 0.75179  0.35241  0.99828  Biso   1.000  O
  O40      1.0000 0.74887  0.39721  0.24917  Biso   1.000  O
  Hf20     1.0000 0.62491  0.00005  0.62491  Biso   1.000  Hf
  Hf21     1.0000 0.62452  0.24977  0.87483  Biso   1.000  Hf
  Hf22     1.0000 0.87483  0.24976  0.62452  Biso   1.000  Hf
  Hf23     1.0000 0.87621  0.99966  0.87621  Biso   1.000  Hf
  O41      1.0000 0.49655  0.14700  0.49655  Biso   1.000  O
  O42      1.0000 0.50154  0.10318  0.74828  Biso   1.000  O
  O43      1.0000 0.49845  0.35341  0.75136  Biso   1.000  O
  O44      1.0000 0.50090  0.39672  0.50090  Biso   1.000  O
  O45      1.0000 0.75327  0.14700  0.75327  Biso   1.000  O
  O46      1.0000 0.74827  0.10317  0.50154  Biso   1.000  O
  O47      1.0000 0.75136  0.35341  0.49846  Biso   1.000  O
  O48      1.0000 0.74891  0.39672  0.74891  Biso   1.000  O
  Hf24     1.0000 0.62491  0.50005  0.12491  Biso   1.000  Hf
  Hf25     1.0000 0.62452  0.75034  0.37499  Biso   1.000  Hf
  Hf26     1.0000 0.87643  0.75075  0.12562  Biso   1.000  Hf
  Hf27     1.0000 0.87456  0.50028  0.37526  Biso   1.000  Hf
  O49      1.0000 0.49803  0.64770  0.99827  Biso   1.000  O
  O50      1.0000 0.50095  0.60290  0.24917  Biso   1.000  O
  O51      1.0000 0.49376  0.85289  0.25386  Biso   1.000  O
  O52      1.0000 0.50299  0.89692  0.00139  Biso   1.000  O
  O53      1.0000 0.75178  0.64770  0.25154  Biso   1.000  O
  O54      1.0000 0.74887  0.60290  0.00064  Biso   1.000  O
  O55      1.0000 0.75606  0.85290  0.99596  Biso   1.000  O
  O56      1.0000 0.74683  0.89692  0.24843  Biso   1.000  O
  Hf28     1.0000 0.62491  0.50005  0.62491  Biso   1.000  Hf
  Hf29     1.0000 0.62530  0.75034  0.87483  Biso   1.000  Hf
  Hf30     1.0000 0.87483  0.75035  0.62530  Biso   1.000  Hf
  Hf31     1.0000 0.87456  0.49983  0.87456  Biso   1.000  Hf
  O57      1.0000 0.49845  0.64670  0.49846  Biso   1.000  O
  O58      1.0000 0.50090  0.60339  0.74891  Biso   1.000  O
  O59      1.0000 0.49655  0.85310  0.75327  Biso   1.000  O
  O60      1.0000 0.50154  0.89693  0.50154  Biso   1.000  O
  O61      1.0000 0.75136  0.64670  0.75136  Biso   1.000  O
  O62      1.0000 0.74891  0.60338  0.50090  Biso   1.000  O
  O63      1.0000 0.75327  0.85311  0.49655  Biso   1.000  O
  O64      1.0000 0.74827  0.89693  0.74828  Biso   1.000  O
