data_image0
_cell_length_a       10.2492
_cell_length_b       5.18487
_cell_length_c       10.6418
_cell_angle_alpha    89.4431
_cell_angle_beta     79.9601
_cell_angle_gamma    90.4004

_symmetry_space_group_name_H-M    "P 1"
_symmetry_int_tables_number       1

loop_
  _symmetry_equiv_pos_as_xyz
  'x, y, z'

loop_
  _atom_site_label
  _atom_site_occupancy
  _atom_site_fract_x
  _atom_site_fract_y
  _atom_site_fract_z
  _atom_site_thermal_displace_type
  _atom_site_B_iso_or_equiv
  _atom_site_type_symbol
  Zr1      1.0000 0.13690  0.04157  0.14360  Biso   1.000  Zr
  Zr2      1.0000 0.13206  0.46539  0.39749  Biso   1.000  Zr
  Zr3      1.0000 0.35858  0.53486  0.09394  Biso   1.000  Zr
  Zr4      1.0000 0.35272  0.95185  0.35615  Biso   1.000  Zr
  O1       1.0000 0.03152  0.33141  0.07516  Biso   1.000  O
  O2       1.0000 0.03223  0.17898  0.32275  Biso   1.000  O
  O3       1.0000 0.47651  0.76582  0.19305  Biso   1.000  O
  O4       1.0000 0.48234  0.71691  0.44148  Biso   1.000  O
  O5       1.0000 0.27763  0.24804  0.23549  Biso   1.000  O
  O6       1.0000 0.27918  0.25645  0.48472  Biso   1.000  O
  O7       1.0000 0.22342  0.75939  0.00580  Biso   1.000  O
  O8       1.0000 0.21601  0.74514  0.25312  Biso   1.000  O
  Zr5      1.0000 0.13521  0.04951  0.64792  Biso   1.000  Zr
  Zr6      1.0000 0.13483  0.45851  0.89413  Biso   1.000  Zr
  Zr7      1.0000 0.36026  0.55343  0.60660  Biso   1.000  Zr
  Zr8      1.0000 0.36054  0.95921  0.85376  Biso   1.000  Zr
  O9       1.0000 0.03099  0.33064  0.57718  Biso   1.000  O
  O10      1.0000 0.02975  0.17259  0.82731  Biso   1.000  O
  O11      1.0000 0.46919  0.82100  0.68219  Biso   1.000  O
  O12      1.0000 0.47305  0.68962  0.92941  Biso   1.000  O
  O13      1.0000 0.27264  0.25944  0.73885  Biso   1.000  O
  O14      1.0000 0.27109  0.24439  0.98545  Biso   1.000  O
  O15      1.0000 0.21907  0.77064  0.51739  Biso   1.000  O
  O16      1.0000 0.22436  0.74687  0.76051  Biso   1.000  O
  Zr9      1.0000 0.63974  0.03471  0.14632  Biso   1.000  Zr
  Zr10     1.0000 0.64197  0.46352  0.40075  Biso   1.000  Zr
  Zr11     1.0000 0.86148  0.54295  0.10644  Biso   1.000  Zr
  Zr12     1.0000 0.86068  0.96297  0.35534  Biso   1.000  Zr
  O17      1.0000 0.52479  0.28737  0.06580  Biso   1.000  O
  O18      1.0000 0.53521  0.15964  0.32543  Biso   1.000  O
  O19      1.0000 0.96592  0.83118  0.17375  Biso   1.000  O
  O20      1.0000 0.96613  0.68589  0.42863  Biso   1.000  O
  O21      1.0000 0.77396  0.25516  0.23867  Biso   1.000  O
  O22      1.0000 0.77694  0.24449  0.49201  Biso   1.000  O
  O23      1.0000 0.72359  0.75106  0.01324  Biso   1.000  O
  O24      1.0000 0.72829  0.74462  0.26228  Biso   1.000  O
  Zr13     1.0000 0.63745  0.04713  0.64596  Biso   1.000  Zr
  Zr14     1.0000 0.63760  0.45085  0.89674  Biso   1.000  Zr
  Zr15     1.0000 0.86005  0.54905  0.60816  Biso   1.000  Zr
  Zr16     1.0000 0.85842  0.95545  0.85699  Biso   1.000  Zr
  O25      1.0000 0.52976  0.32458  0.57454  Biso   1.000  O
  O26      1.0000 0.52853  0.18776  0.81945  Biso   1.000  O
  O27      1.0000 0.96619  0.82879  0.67836  Biso   1.000  O
  O28      1.0000 0.96468  0.67212  0.92462  Biso   1.000  O
  O29      1.0000 0.77352  0.25722  0.74168  Biso   1.000  O
  O30      1.0000 0.77326  0.24065  0.99123  Biso   1.000  O
  O31      1.0000 0.72661  0.75849  0.51415  Biso   1.000  O
  O32      1.0000 0.72384  0.74443  0.76282  Biso   1.000  O
  Tc1      1.0000 0.40262  0.46843  0.32817  Biso   1.000  Tc
