data_image0
_cell_length_a       10.1678
_cell_length_b       10.3389
_cell_length_c       10.4801
_cell_angle_alpha    89.9325
_cell_angle_beta     80.2831
_cell_angle_gamma    89.9674

_symmetry_space_group_name_H-M    "P 1"
_symmetry_int_tables_number       1

loop_
  _symmetry_equiv_pos_as_xyz
  'x, y, z'

loop_
  _atom_site_label
  _atom_site_occupancy
  _atom_site_fract_x
  _atom_site_fract_y
  _atom_site_fract_z
  _atom_site_thermal_displace_type
  _atom_site_B_iso_or_equiv
  _atom_site_type_symbol
  Tc1      1.0000 0.14036  0.02261  0.15005  Biso   1.000  Tc
  Zr1      1.0000 0.14002  0.22951  0.39433  Biso   1.000  Zr
  Zr2      1.0000 0.36017  0.27094  0.10568  Biso   1.000  Zr
  Zr3      1.0000 0.36194  0.47951  0.35469  Biso   1.000  Zr
  O1       1.0000 0.03676  0.16475  0.08147  Biso   1.000  O
  O2       1.0000 0.04089  0.08072  0.31988  Biso   1.000  O
  O3       1.0000 0.46394  0.42043  0.16879  Biso   1.000  O
  O4       1.0000 0.46390  0.33012  0.41939  Biso   1.000  O
  O5       1.0000 0.27662  0.12674  0.24059  Biso   1.000  O
  O6       1.0000 0.27676  0.12155  0.49127  Biso   1.000  O
  O7       1.0000 0.22355  0.37849  0.01017  Biso   1.000  O
  O8       1.0000 0.22467  0.37138  0.25963  Biso   1.000  O
  Zr4      1.0000 0.13882  0.02113  0.64529  Biso   1.000  Zr
  Zr5      1.0000 0.13782  0.22605  0.89793  Biso   1.000  Zr
  Zr6      1.0000 0.36095  0.27150  0.60554  Biso   1.000  Zr
  Zr7      1.0000 0.36011  0.47848  0.85506  Biso   1.000  Zr
  O9       1.0000 0.03410  0.16587  0.57563  Biso   1.000  O
  O10      1.0000 0.03395  0.08186  0.82773  Biso   1.000  O
  O11      1.0000 0.46375  0.42056  0.66910  Biso   1.000  O
  O12      1.0000 0.46164  0.32744  0.91876  Biso   1.000  O
  O13      1.0000 0.27618  0.12858  0.74324  Biso   1.000  O
  O14      1.0000 0.27154  0.11643  0.99925  Biso   1.000  O
  O15      1.0000 0.22360  0.37859  0.50934  Biso   1.000  O
  O16      1.0000 0.22343  0.37034  0.76001  Biso   1.000  O
  Zr8      1.0000 0.13926  0.52167  0.14548  Biso   1.000  Zr
  Zr9      1.0000 0.13864  0.72941  0.39492  Biso   1.000  Zr
  Zr10     1.0000 0.35799  0.77518  0.10480  Biso   1.000  Zr
  Zr11     1.0000 0.36044  0.97873  0.35385  Biso   1.000  Zr
  O17      1.0000 0.03554  0.66826  0.07992  Biso   1.000  O
  O18      1.0000 0.03562  0.58072  0.33059  Biso   1.000  O
  O19      1.0000 0.46536  0.91905  0.17037  Biso   1.000  O
  O20      1.0000 0.46475  0.82988  0.41859  Biso   1.000  O
  O21      1.0000 0.27587  0.63123  0.24108  Biso   1.000  O
  O22      1.0000 0.27619  0.62119  0.49076  Biso   1.000  O
  O23      1.0000 0.21823  0.88201  0.01039  Biso   1.000  O
  O24      1.0000 0.22005  0.87473  0.25727  Biso   1.000  O
  Zr12     1.0000 0.13879  0.52121  0.64566  Biso   1.000  Zr
  Zr13     1.0000 0.13876  0.72936  0.89549  Biso   1.000  Zr
  Zr14     1.0000 0.36152  0.77126  0.60437  Biso   1.000  Zr
  Zr15     1.0000 0.35913  0.97849  0.85624  Biso   1.000  Zr
  O25      1.0000 0.03518  0.66907  0.57982  Biso   1.000  O
  O26      1.0000 0.03537  0.58041  0.83051  Biso   1.000  O
  O27      1.0000 0.46348  0.92006  0.66957  Biso   1.000  O
  O28      1.0000 0.46169  0.82976  0.91940  Biso   1.000  O
  O29      1.0000 0.27609  0.62884  0.74072  Biso   1.000  O
  O30      1.0000 0.27592  0.62189  0.99081  Biso   1.000  O
  O31      1.0000 0.22414  0.87879  0.50850  Biso   1.000  O
  O32      1.0000 0.22364  0.87101  0.75886  Biso   1.000  O
  Zr16     1.0000 0.63881  0.02193  0.14521  Biso   1.000  Zr
  Zr17     1.0000 0.63887  0.22879  0.39511  Biso   1.000  Zr
  Zr18     1.0000 0.86368  0.26961  0.10503  Biso   1.000  Zr
  Zr19     1.0000 0.86097  0.47886  0.35401  Biso   1.000  Zr
  O33      1.0000 0.53588  0.17069  0.08181  Biso   1.000  O
  O34      1.0000 0.53588  0.08015  0.33130  Biso   1.000  O
  O35      1.0000 0.96507  0.41948  0.16939  Biso   1.000  O
  O36      1.0000 0.96431  0.32971  0.41829  Biso   1.000  O
  O37      1.0000 0.77640  0.12862  0.24058  Biso   1.000  O
  O38      1.0000 0.77728  0.12041  0.48929  Biso   1.000  O
  O39      1.0000 0.72431  0.37897  0.00935  Biso   1.000  O
  O40      1.0000 0.72437  0.37082  0.25908  Biso   1.000  O
  Zr20     1.0000 0.63807  0.02089  0.64558  Biso   1.000  Zr
  Zr21     1.0000 0.63838  0.22871  0.89560  Biso   1.000  Zr
  Zr22     1.0000 0.86084  0.27107  0.60403  Biso   1.000  Zr
  Zr23     1.0000 0.86102  0.47833  0.85530  Biso   1.000  Zr
  O41      1.0000 0.53654  0.17076  0.58161  Biso   1.000  O
  O42      1.0000 0.53478  0.07932  0.83232  Biso   1.000  O
  O43      1.0000 0.96485  0.41771  0.66995  Biso   1.000  O
  O44      1.0000 0.96529  0.32959  0.92077  Biso   1.000  O
  O45      1.0000 0.77513  0.12882  0.74021  Biso   1.000  O
  O46      1.0000 0.77557  0.12122  0.99025  Biso   1.000  O
  O47      1.0000 0.72410  0.37886  0.50941  Biso   1.000  O
  O48      1.0000 0.72372  0.37105  0.75955  Biso   1.000  O
  Zr24     1.0000 0.63901  0.52224  0.14490  Biso   1.000  Zr
  Zr25     1.0000 0.63982  0.72922  0.39515  Biso   1.000  Zr
  Zr26     1.0000 0.86412  0.77329  0.10391  Biso   1.000  Zr
  Zr27     1.0000 0.86258  0.97951  0.35257  Biso   1.000  Zr
  O49      1.0000 0.53417  0.67058  0.08136  Biso   1.000  O
  O50      1.0000 0.53682  0.57983  0.33143  Biso   1.000  O
  O51      1.0000 0.97423  0.92070  0.16579  Biso   1.000  O
  O52      1.0000 0.96497  0.83248  0.41919  Biso   1.000  O
  O53      1.0000 0.77651  0.63000  0.24032  Biso   1.000  O
  O54      1.0000 0.77646  0.62118  0.49065  Biso   1.000  O
  O55      1.0000 0.72333  0.87919  0.00962  Biso   1.000  O
  O56      1.0000 0.72927  0.87261  0.25857  Biso   1.000  O
  Zr28     1.0000 0.63893  0.52131  0.64581  Biso   1.000  Zr
  Zr29     1.0000 0.63780  0.72837  0.89670  Biso   1.000  Zr
  Zr30     1.0000 0.86061  0.77141  0.60473  Biso   1.000  Zr
  Zr31     1.0000 0.86029  0.97874  0.85435  Biso   1.000  Zr
  O57      1.0000 0.53661  0.67046  0.58098  Biso   1.000  O
  O58      1.0000 0.53561  0.57920  0.83172  Biso   1.000  O
  O59      1.0000 0.96447  0.91879  0.66923  Biso   1.000  O
  O60      1.0000 0.96367  0.83017  0.91855  Biso   1.000  O
  O61      1.0000 0.77595  0.62872  0.74126  Biso   1.000  O
  O62      1.0000 0.77633  0.62180  0.99104  Biso   1.000  O
  O63      1.0000 0.72405  0.87915  0.50882  Biso   1.000  O
  O64      1.0000 0.72316  0.87087  0.75951  Biso   1.000  O
