data_image0
_cell_length_a       10.0042
_cell_length_b       5.19641
_cell_length_c       10.0353
_cell_angle_alpha    89.8107
_cell_angle_beta     89.854
_cell_angle_gamma    90.0124

_symmetry_space_group_name_H-M    "P 1"
_symmetry_int_tables_number       1

loop_
  _symmetry_equiv_pos_as_xyz
  'x, y, z'

loop_
  _atom_site_label
  _atom_site_occupancy
  _atom_site_fract_x
  _atom_site_fract_y
  _atom_site_fract_z
  _atom_site_thermal_displace_type
  _atom_site_B_iso_or_equiv
  _atom_site_type_symbol
  Tc1      1.0000 0.13798  0.04041  0.12267  Biso   1.000  Tc
  Zr1      1.0000 0.13254  0.46915  0.37313  Biso   1.000  Zr
  Zr2      1.0000 0.36478  0.53772  0.12636  Biso   1.000  Zr
  Zr3      1.0000 0.36484  0.97078  0.37431  Biso   1.000  Zr
  O1       1.0000 0.03752  0.35132  0.19463  Biso   1.000  O
  O2       1.0000 0.03345  0.13794  0.45005  Biso   1.000  O
  O3       1.0000 0.46561  0.86727  0.19469  Biso   1.000  O
  O4       1.0000 0.46391  0.63478  0.44270  Biso   1.000  O
  O5       1.0000 0.26709  0.23601  0.24490  Biso   1.000  O
  O6       1.0000 0.26931  0.26797  0.49725  Biso   1.000  O
  O7       1.0000 0.23018  0.76700  0.49915  Biso   1.000  O
  O8       1.0000 0.22677  0.74654  0.24759  Biso   1.000  O
  Zr4      1.0000 0.13387  0.03168  0.62627  Biso   1.000  Zr
  Zr5      1.0000 0.13375  0.46656  0.87875  Biso   1.000  Zr
  Zr6      1.0000 0.36588  0.53273  0.62522  Biso   1.000  Zr
  Zr7      1.0000 0.36414  0.96711  0.87715  Biso   1.000  Zr
  O9       1.0000 0.03217  0.36008  0.70249  Biso   1.000  O
  O10      1.0000 0.03554  0.12822  0.96028  Biso   1.000  O
  O11      1.0000 0.46293  0.86915  0.69399  Biso   1.000  O
  O12      1.0000 0.45968  0.62808  0.94343  Biso   1.000  O
  O13      1.0000 0.26933  0.23500  0.74996  Biso   1.000  O
  O14      1.0000 0.26946  0.25785  0.00203  Biso   1.000  O
  O15      1.0000 0.22393  0.76509  0.00261  Biso   1.000  O
  O16      1.0000 0.22951  0.73241  0.75088  Biso   1.000  O
  Zr8      1.0000 0.63501  0.03305  0.12489  Biso   1.000  Zr
  Zr9      1.0000 0.63470  0.47103  0.37380  Biso   1.000  Zr
  Zr10     1.0000 0.87081  0.53136  0.12358  Biso   1.000  Zr
  Zr11     1.0000 0.86999  0.97065  0.37246  Biso   1.000  Zr
  O17      1.0000 0.53552  0.36915  0.19321  Biso   1.000  O
  O18      1.0000 0.53516  0.13510  0.44281  Biso   1.000  O
  O19      1.0000 0.97709  0.85766  0.19247  Biso   1.000  O
  O20      1.0000 0.96580  0.63427  0.44604  Biso   1.000  O
  O21      1.0000 0.77079  0.23471  0.24756  Biso   1.000  O
  O22      1.0000 0.76960  0.26784  0.49758  Biso   1.000  O
  O23      1.0000 0.73144  0.76853  0.49668  Biso   1.000  O
  O24      1.0000 0.73580  0.73567  0.24651  Biso   1.000  O
  Zr12     1.0000 0.63331  0.03122  0.62374  Biso   1.000  Zr
  Zr13     1.0000 0.63296  0.46767  0.87492  Biso   1.000  Zr
  Zr14     1.0000 0.86589  0.53010  0.62569  Biso   1.000  Zr
  Zr15     1.0000 0.86668  0.96890  0.87552  Biso   1.000  Zr
  O25      1.0000 0.53580  0.36949  0.69291  Biso   1.000  O
  O26      1.0000 0.53542  0.12966  0.94307  Biso   1.000  O
  O27      1.0000 0.96516  0.86480  0.69605  Biso   1.000  O
  O28      1.0000 0.96181  0.62841  0.94094  Biso   1.000  O
  O29      1.0000 0.76817  0.23240  0.74844  Biso   1.000  O
  O30      1.0000 0.76962  0.26609  0.99778  Biso   1.000  O
  O31      1.0000 0.72958  0.76573  0.99734  Biso   1.000  O
  O32      1.0000 0.72998  0.73385  0.74789  Biso   1.000  O
