data_image0
_cell_length_a       10.1845
_cell_length_b       10.4102
_cell_length_c       5.10519
_cell_angle_alpha    91.349
_cell_angle_beta     87.3024
_cell_angle_gamma    88.5183

_symmetry_space_group_name_H-M    "P 1"
_symmetry_int_tables_number       1

loop_
  _symmetry_equiv_pos_as_xyz
  'x, y, z'

loop_
  _atom_site_label
  _atom_site_occupancy
  _atom_site_fract_x
  _atom_site_fract_y
  _atom_site_fract_z
  _atom_site_thermal_displace_type
  _atom_site_B_iso_or_equiv
  _atom_site_type_symbol
  Zr1      1.0000 0.12318  0.99838  0.21532  Biso   1.000  Zr
  Zr2      1.0000 0.13241  0.21599  0.70826  Biso   1.000  Zr
  Zr3      1.0000 0.39220  0.23523  0.26908  Biso   1.000  Zr
  Zr4      1.0000 0.36358  0.50331  0.72365  Biso   1.000  Zr
  O1       1.0000 0.01979  0.16986  0.39110  Biso   1.000  O
  O2       1.0000 0.99603  0.09772  0.92838  Biso   1.000  O
  O3       1.0000 0.50929  0.38792  0.51009  Biso   1.000  O
  O4       1.0000 0.52211  0.32626  0.02118  Biso   1.000  O
  O5       1.0000 0.26354  0.08281  0.48086  Biso   1.000  O
  O6       1.0000 0.25512  0.16039  0.00880  Biso   1.000  O
  O7       1.0000 0.27410  0.42238  0.04110  Biso   1.000  O
  O8       1.0000 0.26792  0.34465  0.55001  Biso   1.000  O
  Zr5      1.0000 0.12432  0.54756  0.19357  Biso   1.000  Zr
  Zr6      1.0000 0.11901  0.76838  0.69756  Biso   1.000  Zr
  Zr7      1.0000 0.38333  0.73693  0.22257  Biso   1.000  Zr
  Zr8      1.0000 0.38959  0.99588  0.74570  Biso   1.000  Zr
  O9       1.0000 0.99081  0.67079  0.44340  Biso   1.000  O
  O10      1.0000 0.99788  0.61305  0.92096  Biso   1.000  O
  O11      1.0000 0.49708  0.88403  0.45069  Biso   1.000  O
  O12      1.0000 0.47505  0.83164  0.92765  Biso   1.000  O
  O13      1.0000 0.24546  0.60843  0.48004  Biso   1.000  O
  O14      1.0000 0.25067  0.66760  0.95340  Biso   1.000  O
  O15      1.0000 0.22252  0.91816  0.88673  Biso   1.000  O
  O16      1.0000 0.23119  0.84242  0.38223  Biso   1.000  O
  Zr9      1.0000 0.63478  0.00359  0.26628  Biso   1.000  Zr
  Zr10     1.0000 0.64452  0.25569  0.71482  Biso   1.000  Zr
  Zr11     1.0000 0.88340  0.26149  0.15242  Biso   1.000  Zr
  Zr12     1.0000 0.87763  0.50310  0.67968  Biso   1.000  Zr
  O17      1.0000 0.51048  0.13609  0.53438  Biso   1.000  O
  O18      1.0000 0.49009  0.07453  0.04416  Biso   1.000  O
  O19      1.0000 0.98811  0.42286  0.35950  Biso   1.000  O
  O20      1.0000 0.98969  0.35257  0.84608  Biso   1.000  O
  O21      1.0000 0.76076  0.10215  0.49128  Biso   1.000  O
  O22      1.0000 0.74379  0.13835  0.98685  Biso   1.000  O
  O23      1.0000 0.75332  0.39662  0.94032  Biso   1.000  O
  O24      1.0000 0.75415  0.35156  0.44220  Biso   1.000  O
  Zr13     1.0000 0.61731  0.48196  0.22222  Biso   1.000  Zr
  Zr14     1.0000 0.61959  0.73715  0.70251  Biso   1.000  Zr
  Zr15     1.0000 0.85601  0.73992  0.18668  Biso   1.000  Zr
  Zr16     1.0000 0.85909  0.98835  0.75340  Biso   1.000  Zr
  O25      1.0000 0.49606  0.63241  0.47171  Biso   1.000  O
  O26      1.0000 0.50092  0.58614  0.97349  Biso   1.000  O
  O27      1.0000 0.00641  0.92214  0.50624  Biso   1.000  O
  O28      1.0000 0.98629  0.85658  0.99438  Biso   1.000  O
  O29      1.0000 0.74521  0.60006  0.42757  Biso   1.000  O
  O30      1.0000 0.74995  0.64073  0.92406  Biso   1.000  O
  O31      1.0000 0.73049  0.88355  0.98611  Biso   1.000  O
  O32      1.0000 0.75001  0.85137  0.48359  Biso   1.000  O
  Tc1      1.0000 0.13960  0.30403  0.21181  Biso   1.000  Tc
