data_image0
_cell_length_a       10.0502
_cell_length_b       10.1855
_cell_length_c       10.0502
_cell_angle_alpha    90
_cell_angle_beta     90
_cell_angle_gamma    90

_symmetry_space_group_name_H-M    "P 1"
_symmetry_int_tables_number       1

loop_
  _symmetry_equiv_pos_as_xyz
  'x, y, z'

loop_
  _atom_site_label
  _atom_site_occupancy
  _atom_site_fract_x
  _atom_site_fract_y
  _atom_site_fract_z
  _atom_site_thermal_displace_type
  _atom_site_B_iso_or_equiv
  _atom_site_type_symbol
  Tc1      1.0000 0.12540  0.00007  0.12540  Biso   1.000  Tc
  Zr1      1.0000 0.12615  0.24923  0.37397  Biso   1.000  Zr
  Zr2      1.0000 0.37397  0.24924  0.12615  Biso   1.000  Zr
  Zr3      1.0000 0.37415  0.99973  0.37415  Biso   1.000  Zr
  O1       1.0000 0.99774  0.14081  0.99774  Biso   1.000  O
  O2       1.0000 0.00729  0.10361  0.24350  Biso   1.000  O
  O3       1.0000 0.99784  0.35481  0.25296  Biso   1.000  O
  O4       1.0000 0.00201  0.39396  0.00201  Biso   1.000  O
  O5       1.0000 0.25305  0.14081  0.25305  Biso   1.000  O
  O6       1.0000 0.24350  0.10361  0.00729  Biso   1.000  O
  O7       1.0000 0.25296  0.35481  0.99783  Biso   1.000  O
  O8       1.0000 0.24878  0.39396  0.24879  Biso   1.000  O
  Zr4      1.0000 0.12540  0.00007  0.62540  Biso   1.000  Zr
  Zr5      1.0000 0.12464  0.24923  0.87682  Biso   1.000  Zr
  Zr6      1.0000 0.37552  0.24993  0.62570  Biso   1.000  Zr
  Zr7      1.0000 0.37415  0.00043  0.87665  Biso   1.000  Zr
  O9       1.0000 0.99598  0.14541  0.49385  Biso   1.000  O
  O10      1.0000 0.00239  0.10516  0.74717  Biso   1.000  O
  O11      1.0000 0.99807  0.35432  0.75307  Biso   1.000  O
  O12      1.0000 0.00149  0.39533  0.50200  Biso   1.000  O
  O13      1.0000 0.25481  0.14541  0.75694  Biso   1.000  O
  O14      1.0000 0.24840  0.10516  0.50362  Biso   1.000  O
  O15      1.0000 0.25272  0.35432  0.49773  Biso   1.000  O
  O16      1.0000 0.24930  0.39533  0.74880  Biso   1.000  O
  Zr8      1.0000 0.12540  0.50008  0.12540  Biso   1.000  Zr
  Zr9      1.0000 0.12464  0.75091  0.37397  Biso   1.000  Zr
  Zr10     1.0000 0.37397  0.75092  0.12464  Biso   1.000  Zr
  Zr11     1.0000 0.37572  0.50004  0.37572  Biso   1.000  Zr
  O17      1.0000 0.99783  0.64534  0.99783  Biso   1.000  O
  O18      1.0000 0.00201  0.60619  0.24879  Biso   1.000  O
  O19      1.0000 0.99774  0.85934  0.25305  Biso   1.000  O
  O20      1.0000 0.00729  0.89654  0.00729  Biso   1.000  O
  O21      1.0000 0.25296  0.64534  0.25296  Biso   1.000  O
  O22      1.0000 0.24878  0.60619  0.00201  Biso   1.000  O
  O23      1.0000 0.25305  0.85934  0.99774  Biso   1.000  O
  O24      1.0000 0.24350  0.89654  0.24350  Biso   1.000  O
  Zr12     1.0000 0.12540  0.50008  0.62540  Biso   1.000  Zr
  Zr13     1.0000 0.12615  0.75092  0.87682  Biso   1.000  Zr
  Zr14     1.0000 0.37552  0.75022  0.62509  Biso   1.000  Zr
  Zr15     1.0000 0.37572  0.50011  0.87507  Biso   1.000  Zr
  O25      1.0000 0.99807  0.64583  0.49773  Biso   1.000  O
  O26      1.0000 0.00149  0.60482  0.74880  Biso   1.000  O
  O27      1.0000 0.99598  0.85474  0.75694  Biso   1.000  O
  O28      1.0000 0.00239  0.89499  0.50362  Biso   1.000  O
  O29      1.0000 0.25272  0.64583  0.75306  Biso   1.000  O
  O30      1.0000 0.24930  0.60482  0.50200  Biso   1.000  O
  O31      1.0000 0.25481  0.85474  0.49385  Biso   1.000  O
  O32      1.0000 0.24840  0.89499  0.74717  Biso   1.000  O
  Zr16     1.0000 0.62540  0.00007  0.12540  Biso   1.000  Zr
  Zr17     1.0000 0.62570  0.24992  0.37552  Biso   1.000  Zr
  Zr18     1.0000 0.87682  0.24924  0.12464  Biso   1.000  Zr
  Zr19     1.0000 0.87665  0.00043  0.37415  Biso   1.000  Zr
  O33      1.0000 0.49385  0.14541  0.99599  Biso   1.000  O
  O34      1.0000 0.50362  0.10516  0.24840  Biso   1.000  O
  O35      1.0000 0.49773  0.35432  0.25272  Biso   1.000  O
  O36      1.0000 0.50200  0.39533  0.00149  Biso   1.000  O
  O37      1.0000 0.75694  0.14541  0.25480  Biso   1.000  O
  O38      1.0000 0.74717  0.10516  0.00239  Biso   1.000  O
  O39      1.0000 0.75306  0.35432  0.99807  Biso   1.000  O
  O40      1.0000 0.74879  0.39533  0.24930  Biso   1.000  O
  Zr20     1.0000 0.62540  0.00007  0.62540  Biso   1.000  Zr
  Zr21     1.0000 0.62509  0.24992  0.87527  Biso   1.000  Zr
  Zr22     1.0000 0.87527  0.24993  0.62509  Biso   1.000  Zr
  Zr23     1.0000 0.87665  0.99973  0.87665  Biso   1.000  Zr
  O41      1.0000 0.49645  0.14512  0.49646  Biso   1.000  O
  O42      1.0000 0.50246  0.10523  0.74833  Biso   1.000  O
  O43      1.0000 0.49835  0.35532  0.75244  Biso   1.000  O
  O44      1.0000 0.50180  0.39485  0.50180  Biso   1.000  O
  O45      1.0000 0.75434  0.14512  0.75434  Biso   1.000  O
  O46      1.0000 0.74833  0.10523  0.50246  Biso   1.000  O
  O47      1.0000 0.75244  0.35532  0.49835  Biso   1.000  O
  O48      1.0000 0.74899  0.39485  0.74900  Biso   1.000  O
  Zr24     1.0000 0.62540  0.50008  0.12540  Biso   1.000  Zr
  Zr25     1.0000 0.62509  0.75022  0.37552  Biso   1.000  Zr
  Zr26     1.0000 0.87682  0.75092  0.12615  Biso   1.000  Zr
  Zr27     1.0000 0.87507  0.50011  0.37572  Biso   1.000  Zr
  O49      1.0000 0.49773  0.64583  0.99807  Biso   1.000  O
  O50      1.0000 0.50200  0.60483  0.24930  Biso   1.000  O
  O51      1.0000 0.49385  0.85474  0.25481  Biso   1.000  O
  O52      1.0000 0.50362  0.89499  0.00239  Biso   1.000  O
  O53      1.0000 0.75306  0.64583  0.25272  Biso   1.000  O
  O54      1.0000 0.74879  0.60483  0.00149  Biso   1.000  O
  O55      1.0000 0.75694  0.85474  0.99599  Biso   1.000  O
  O56      1.0000 0.74717  0.89499  0.24840  Biso   1.000  O
  Zr28     1.0000 0.62540  0.50008  0.62540  Biso   1.000  Zr
  Zr29     1.0000 0.62570  0.75022  0.87527  Biso   1.000  Zr
  Zr30     1.0000 0.87527  0.75022  0.62570  Biso   1.000  Zr
  Zr31     1.0000 0.87507  0.50004  0.87507  Biso   1.000  Zr
  O57      1.0000 0.49835  0.64483  0.49835  Biso   1.000  O
  O58      1.0000 0.50180  0.60530  0.74899  Biso   1.000  O
  O59      1.0000 0.49645  0.85503  0.75434  Biso   1.000  O
  O60      1.0000 0.50246  0.89493  0.50246  Biso   1.000  O
  O61      1.0000 0.75244  0.64483  0.75244  Biso   1.000  O
  O62      1.0000 0.74900  0.60530  0.50180  Biso   1.000  O
  O63      1.0000 0.75434  0.85503  0.49645  Biso   1.000  O
  O64      1.0000 0.74833  0.89492  0.74833  Biso   1.000  O
