data_image0
_cell_length_a       10.1056
_cell_length_b       5.27664
_cell_length_c       10.1782
_cell_angle_alpha    88.7797
_cell_angle_beta     88.8842
_cell_angle_gamma    90.4185

_symmetry_space_group_name_H-M    "P 1"
_symmetry_int_tables_number       1

loop_
  _symmetry_equiv_pos_as_xyz
  'x, y, z'

loop_
  _atom_site_label
  _atom_site_occupancy
  _atom_site_fract_x
  _atom_site_fract_y
  _atom_site_fract_z
  _atom_site_thermal_displace_type
  _atom_site_B_iso_or_equiv
  _atom_site_type_symbol
  Zr1      1.0000 0.12640  0.11869  0.10516  Biso   1.000  Zr
  Zr2      1.0000 0.14029  0.45013  0.38322  Biso   1.000  Zr
  Zr3      1.0000 0.38653  0.52069  0.12086  Biso   1.000  Zr
  Zr4      1.0000 0.36921  0.95231  0.37080  Biso   1.000  Zr
  O1       1.0000 0.01352  0.38112  0.22285  Biso   1.000  O
  O2       1.0000 0.04276  0.11165  0.44513  Biso   1.000  O
  O3       1.0000 0.47764  0.84224  0.20556  Biso   1.000  O
  O4       1.0000 0.47093  0.62444  0.45323  Biso   1.000  O
  O5       1.0000 0.26906  0.20650  0.24367  Biso   1.000  O
  O6       1.0000 0.27608  0.24422  0.49947  Biso   1.000  O
  O7       1.0000 0.23587  0.74413  0.49910  Biso   1.000  O
  O8       1.0000 0.24882  0.68616  0.25157  Biso   1.000  O
  Zr5      1.0000 0.13619  0.00531  0.62119  Biso   1.000  Zr
  Zr6      1.0000 0.10867  0.48202  0.83745  Biso   1.000  Zr
  Zr7      1.0000 0.37173  0.50917  0.62370  Biso   1.000  Zr
  Zr8      1.0000 0.38651  0.98390  0.85536  Biso   1.000  Zr
  O9       1.0000 0.02068  0.31786  0.67894  Biso   1.000  O
  O10      1.0000 0.01496  0.16404  0.93539  Biso   1.000  O
  O11      1.0000 0.48541  0.80731  0.70002  Biso   1.000  O
  O12      1.0000 0.47734  0.66969  0.95048  Biso   1.000  O
  O13      1.0000 0.25270  0.21729  0.74842  Biso   1.000  O
  O14      1.0000 0.23982  0.39662  0.99194  Biso   1.000  O
  O15      1.0000 0.24791  0.88170  0.99931  Biso   1.000  O
  O16      1.0000 0.24542  0.72239  0.74506  Biso   1.000  O
  Zr9      1.0000 0.63271  0.03297  0.12910  Biso   1.000  Zr
  Zr10     1.0000 0.63743  0.45413  0.38088  Biso   1.000  Zr
  Zr11     1.0000 0.85403  0.52922  0.12146  Biso   1.000  Zr
  Zr12     1.0000 0.87541  0.95716  0.36971  Biso   1.000  Zr
  O17      1.0000 0.53358  0.34608  0.21554  Biso   1.000  O
  O18      1.0000 0.53282  0.12386  0.45522  Biso   1.000  O
  O19      1.0000 0.97833  0.87017  0.19146  Biso   1.000  O
  O20      1.0000 0.97505  0.63485  0.45227  Biso   1.000  O
  O21      1.0000 0.76795  0.21837  0.24489  Biso   1.000  O
  O22      1.0000 0.78347  0.24338  0.48961  Biso   1.000  O
  O23      1.0000 0.73545  0.75516  0.49750  Biso   1.000  O
  O24      1.0000 0.73621  0.72582  0.25031  Biso   1.000  O
  Zr13     1.0000 0.63856  0.02681  0.61808  Biso   1.000  Zr
  Zr14     1.0000 0.62628  0.47013  0.87151  Biso   1.000  Zr
  Zr15     1.0000 0.85911  0.51960  0.61701  Biso   1.000  Zr
  Zr16     1.0000 0.85915  0.96718  0.86930  Biso   1.000  Zr
  O25      1.0000 0.50548  0.28851  0.73189  Biso   1.000  O
  O26      1.0000 0.50675  0.18146  0.98006  Biso   1.000  O
  O27      1.0000 0.98477  0.80250  0.71605  Biso   1.000  O
  O28      1.0000 0.96783  0.65801  0.95655  Biso   1.000  O
  O29      1.0000 0.76354  0.22844  0.74495  Biso   1.000  O
  O30      1.0000 0.75696  0.27773  0.99280  Biso   1.000  O
  O31      1.0000 0.72756  0.77942  0.99750  Biso   1.000  O
  O32      1.0000 0.73594  0.72730  0.74715  Biso   1.000  O
  Tc1      1.0000 0.11512  0.64033  0.09907  Biso   1.000  Tc
