data_image0
_cell_length_a       5.13342
_cell_length_b       10.3274
_cell_length_c       10.6627
_cell_angle_alpha    89.6105
_cell_angle_beta     79.8944
_cell_angle_gamma    90.4839

_symmetry_space_group_name_H-M    "P 1"
_symmetry_int_tables_number       1

loop_
  _symmetry_equiv_pos_as_xyz
  'x, y, z'

loop_
  _atom_site_label
  _atom_site_occupancy
  _atom_site_fract_x
  _atom_site_fract_y
  _atom_site_fract_z
  _atom_site_thermal_displace_type
  _atom_site_B_iso_or_equiv
  _atom_site_type_symbol
  Zr1      1.0000 0.27673  0.02060  0.14453  Biso   1.000  Zr
  Zr2      1.0000 0.28327  0.23831  0.40301  Biso   1.000  Zr
  Zr3      1.0000 0.72054  0.26829  0.09458  Biso   1.000  Zr
  Zr4      1.0000 0.70826  0.48794  0.35779  Biso   1.000  Zr
  O1       1.0000 0.05835  0.15173  0.06445  Biso   1.000  O
  O2       1.0000 0.08086  0.07758  0.32895  Biso   1.000  O
  O3       1.0000 0.95339  0.38537  0.19541  Biso   1.000  O
  O4       1.0000 0.96483  0.36441  0.44144  Biso   1.000  O
  O5       1.0000 0.56414  0.12358  0.23331  Biso   1.000  O
  O6       1.0000 0.57810  0.12363  0.48153  Biso   1.000  O
  O7       1.0000 0.44618  0.37806  0.00801  Biso   1.000  O
  O8       1.0000 0.44794  0.37767  0.25576  Biso   1.000  O
  Zr5      1.0000 0.27338  0.02295  0.64464  Biso   1.000  Zr
  Zr6      1.0000 0.27363  0.22724  0.89256  Biso   1.000  Zr
  Zr7      1.0000 0.72449  0.27756  0.60706  Biso   1.000  Zr
  Zr8      1.0000 0.71647  0.47991  0.85689  Biso   1.000  Zr
  O9       1.0000 0.06923  0.16525  0.57663  Biso   1.000  O
  O10      1.0000 0.05743  0.09011  0.81978  Biso   1.000  O
  O11      1.0000 0.93699  0.41021  0.68548  Biso   1.000  O
  O12      1.0000 0.94495  0.34607  0.92894  Biso   1.000  O
  O13      1.0000 0.54647  0.12845  0.73715  Biso   1.000  O
  O14      1.0000 0.54601  0.12179  0.98432  Biso   1.000  O
  O15      1.0000 0.44773  0.38488  0.52029  Biso   1.000  O
  O16      1.0000 0.45020  0.37339  0.76187  Biso   1.000  O
  Zr9      1.0000 0.27324  0.51877  0.14729  Biso   1.000  Zr
  Zr10     1.0000 0.26526  0.72764  0.39648  Biso   1.000  Zr
  Zr11     1.0000 0.71955  0.77046  0.10437  Biso   1.000  Zr
  Zr12     1.0000 0.71934  0.96928  0.35417  Biso   1.000  Zr
  O17      1.0000 0.04673  0.65243  0.07122  Biso   1.000  O
  O18      1.0000 0.05274  0.59560  0.31739  Biso   1.000  O
  O19      1.0000 0.93911  0.90658  0.17788  Biso   1.000  O
  O20      1.0000 0.93108  0.83628  0.43011  Biso   1.000  O
  O21      1.0000 0.54225  0.62732  0.24038  Biso   1.000  O
  O22      1.0000 0.53503  0.62756  0.49318  Biso   1.000  O
  O23      1.0000 0.44793  0.87774  0.01191  Biso   1.000  O
  O24      1.0000 0.44682  0.86787  0.25971  Biso   1.000  O
  Zr13     1.0000 0.26955  0.52513  0.64911  Biso   1.000  Zr
  Zr14     1.0000 0.26972  0.72785  0.89792  Biso   1.000  Zr
  Zr15     1.0000 0.71628  0.77242  0.60719  Biso   1.000  Zr
  Zr16     1.0000 0.72017  0.97779  0.85394  Biso   1.000  Zr
  O25      1.0000 0.04821  0.65846  0.57340  Biso   1.000  O
  O26      1.0000 0.05307  0.59452  0.82317  Biso   1.000  O
  O27      1.0000 0.93602  0.91079  0.67747  Biso   1.000  O
  O28      1.0000 0.93487  0.84070  0.92854  Biso   1.000  O
  O29      1.0000 0.54343  0.62903  0.74267  Biso   1.000  O
  O30      1.0000 0.54021  0.62265  0.99187  Biso   1.000  O
  O31      1.0000 0.44452  0.87967  0.51171  Biso   1.000  O
  O32      1.0000 0.44632  0.87271  0.76171  Biso   1.000  O
  Tc1      1.0000 0.81161  0.23587  0.32781  Biso   1.000  Tc
