data_image0
_cell_length_a       10.1596
_cell_length_b       10.3159
_cell_length_c       5.23683
_cell_angle_alpha    89.867
_cell_angle_beta     80.1285
_cell_angle_gamma    89.9566

_symmetry_space_group_name_H-M    "P 1"
_symmetry_int_tables_number       1

loop_
  _symmetry_equiv_pos_as_xyz
  'x, y, z'

loop_
  _atom_site_label
  _atom_site_occupancy
  _atom_site_fract_x
  _atom_site_fract_y
  _atom_site_fract_z
  _atom_site_thermal_displace_type
  _atom_site_B_iso_or_equiv
  _atom_site_type_symbol
  Tc1      1.0000 0.13995  0.02243  0.30019  Biso   1.000  Tc
  Zr1      1.0000 0.13911  0.22685  0.79359  Biso   1.000  Zr
  Zr2      1.0000 0.35954  0.27079  0.21348  Biso   1.000  Zr
  Zr3      1.0000 0.36086  0.47916  0.71012  Biso   1.000  Zr
  O1       1.0000 0.03483  0.16019  0.15124  Biso   1.000  O
  O2       1.0000 0.03800  0.08392  0.63251  Biso   1.000  O
  O3       1.0000 0.46371  0.42049  0.33799  Biso   1.000  O
  O4       1.0000 0.46134  0.32758  0.83848  Biso   1.000  O
  O5       1.0000 0.27731  0.12619  0.48657  Biso   1.000  O
  O6       1.0000 0.27184  0.11657  0.00013  Biso   1.000  O
  O7       1.0000 0.22306  0.37790  0.02036  Biso   1.000  O
  O8       1.0000 0.22395  0.37090  0.52050  Biso   1.000  O
  Zr4      1.0000 0.13922  0.52154  0.29160  Biso   1.000  Zr
  Zr5      1.0000 0.13874  0.73026  0.78999  Biso   1.000  Zr
  Zr6      1.0000 0.35830  0.77507  0.20869  Biso   1.000  Zr
  Zr7      1.0000 0.35883  0.97834  0.71100  Biso   1.000  Zr
  O9       1.0000 0.03461  0.66701  0.15704  Biso   1.000  O
  O10      1.0000 0.03497  0.58160  0.65981  Biso   1.000  O
  O11      1.0000 0.46510  0.91853  0.34232  Biso   1.000  O
  O12      1.0000 0.46266  0.82976  0.83811  Biso   1.000  O
  O13      1.0000 0.27605  0.63108  0.48224  Biso   1.000  O
  O14      1.0000 0.27602  0.62201  0.98175  Biso   1.000  O
  O15      1.0000 0.21827  0.88173  0.01838  Biso   1.000  O
  O16      1.0000 0.22011  0.87491  0.51270  Biso   1.000  O
  Zr8      1.0000 0.63804  0.02153  0.29104  Biso   1.000  Zr
  Zr9      1.0000 0.63826  0.22897  0.79101  Biso   1.000  Zr
  Zr10     1.0000 0.86341  0.26931  0.20899  Biso   1.000  Zr
  Zr11     1.0000 0.86098  0.47850  0.70940  Biso   1.000  Zr
  O17      1.0000 0.53622  0.17106  0.16477  Biso   1.000  O
  O18      1.0000 0.53472  0.07970  0.66523  Biso   1.000  O
  O19      1.0000 0.96592  0.41694  0.34125  Biso   1.000  O
  O20      1.0000 0.96578  0.32961  0.84058  Biso   1.000  O
  O21      1.0000 0.77544  0.12850  0.48046  Biso   1.000  O
  O22      1.0000 0.77653  0.12075  0.97796  Biso   1.000  O
  O23      1.0000 0.72460  0.37882  0.01898  Biso   1.000  O
  O24      1.0000 0.72418  0.37091  0.51868  Biso   1.000  O
  Zr12     1.0000 0.63902  0.52216  0.29087  Biso   1.000  Zr
  Zr13     1.0000 0.63890  0.72877  0.79306  Biso   1.000  Zr
  Zr14     1.0000 0.86368  0.77336  0.20787  Biso   1.000  Zr
  Zr15     1.0000 0.86159  0.97985  0.70512  Biso   1.000  Zr
  O25      1.0000 0.53469  0.67061  0.16244  Biso   1.000  O
  O26      1.0000 0.53641  0.57917  0.66424  Biso   1.000  O
  O27      1.0000 0.97472  0.91994  0.33162  Biso   1.000  O
  O28      1.0000 0.96491  0.83314  0.83736  Biso   1.000  O
  O29      1.0000 0.77644  0.62972  0.48193  Biso   1.000  O
  O30      1.0000 0.77690  0.62213  0.98229  Biso   1.000  O
  O31      1.0000 0.72359  0.87932  0.01840  Biso   1.000  O
  O32      1.0000 0.72867  0.87245  0.51764  Biso   1.000  O
