data_image0
_cell_length_a       10.1846
_cell_length_b       10.41
_cell_length_c       5.10522
_cell_angle_alpha    91.3499
_cell_angle_beta     87.3011
_cell_angle_gamma    88.5185

_symmetry_space_group_name_H-M    "P 1"
_symmetry_int_tables_number       1

loop_
  _symmetry_equiv_pos_as_xyz
  'x, y, z'

loop_
  _atom_site_label
  _atom_site_occupancy
  _atom_site_fract_x
  _atom_site_fract_y
  _atom_site_fract_z
  _atom_site_thermal_displace_type
  _atom_site_B_iso_or_equiv
  _atom_site_type_symbol
  Zr1      1.0000 0.12628  0.95274  0.27074  Biso   1.000  Zr
  Zr2      1.0000 0.11820  0.28432  0.75609  Biso   1.000  Zr
  Zr3      1.0000 0.36719  0.23878  0.31196  Biso   1.000  Zr
  Zr4      1.0000 0.37298  0.99720  0.78462  Biso   1.000  Zr
  O1       1.0000 0.98270  0.15564  0.91430  Biso   1.000  O
  O2       1.0000 0.97648  0.07793  0.42316  Biso   1.000  O
  O3       1.0000 0.99547  0.33991  0.45556  Biso   1.000  O
  O4       1.0000 0.98708  0.41750  0.98347  Biso   1.000  O
  O5       1.0000 0.26090  0.14772  0.61832  Biso   1.000  O
  O6       1.0000 0.26251  0.07745  0.10488  Biso   1.000  O
  O7       1.0000 0.23082  0.33046  0.07326  Biso   1.000  O
  O8       1.0000 0.25459  0.40257  0.53597  Biso   1.000  O
  Zr5      1.0000 0.12747  0.50195  0.24898  Biso   1.000  Zr
  Zr6      1.0000 0.13162  0.73193  0.76672  Biso   1.000  Zr
  Zr7      1.0000 0.39462  0.76039  0.27757  Biso   1.000  Zr
  Zr8      1.0000 0.39154  0.51196  0.71085  Biso   1.000  Zr
  O9       1.0000 0.01946  0.65790  0.08211  Biso   1.000  O
  O10      1.0000 0.02811  0.58215  0.57759  Biso   1.000  O
  O11      1.0000 0.99993  0.83271  0.51092  Biso   1.000  O
  O12      1.0000 0.00515  0.89187  0.98426  Biso   1.000  O
  O13      1.0000 0.26433  0.64372  0.46986  Biso   1.000  O
  O14      1.0000 0.24422  0.57817  0.95802  Biso   1.000  O
  O15      1.0000 0.25981  0.82953  0.02089  Biso   1.000  O
  O16      1.0000 0.25273  0.88725  0.54334  Biso   1.000  O
  Zr9      1.0000 0.63329  0.01835  0.24209  Biso   1.000  Zr
  Zr10     1.0000 0.60610  0.24463  0.74946  Biso   1.000  Zr
  Zr11     1.0000 0.85841  0.26505  0.19525  Biso   1.000  Zr
  Zr12     1.0000 0.88703  0.99698  0.74066  Biso   1.000  Zr
  O17      1.0000 0.49646  0.14878  0.02212  Biso   1.000  O
  O18      1.0000 0.49727  0.10368  0.52400  Biso   1.000  O
  O19      1.0000 0.50682  0.36195  0.47735  Biso   1.000  O
  O20      1.0000 0.48992  0.39821  0.97288  Biso   1.000  O
  O21      1.0000 0.72849  0.17401  0.44312  Biso   1.000  O
  O22      1.0000 0.74132  0.11237  0.95421  Biso   1.000  O
  O23      1.0000 0.74016  0.36419  0.92994  Biso   1.000  O
  O24      1.0000 0.76049  0.42573  0.42019  Biso   1.000  O
  Zr13     1.0000 0.61585  0.49673  0.19800  Biso   1.000  Zr
  Zr14     1.0000 0.63103  0.76317  0.76171  Biso   1.000  Zr
  Zr15     1.0000 0.86729  0.76335  0.24172  Biso   1.000  Zr
  Zr16     1.0000 0.86104  0.50438  0.71857  Biso   1.000  Zr
  O25      1.0000 0.50062  0.64897  0.98070  Biso   1.000  O
  O26      1.0000 0.52014  0.61678  0.47816  Biso   1.000  O
  O27      1.0000 0.50067  0.85959  0.54019  Biso   1.000  O
  O28      1.0000 0.50541  0.90026  0.03667  Biso   1.000  O
  O29      1.0000 0.77557  0.66862  0.53662  Biso   1.000  O
  O30      1.0000 0.75357  0.61626  0.01360  Biso   1.000  O
  O31      1.0000 0.75455  0.86789  0.99259  Biso   1.000  O
  O32      1.0000 0.74967  0.91413  0.49082  Biso   1.000  O
  Tc1      1.0000 0.11100  0.19628  0.25251  Biso   1.000  Tc
