data_image0
_cell_length_a       10.0683
_cell_length_b       10.2762
_cell_length_c       5.0765
_cell_angle_alpha    90.5197
_cell_angle_beta     91.3143
_cell_angle_gamma    89.3985

_symmetry_space_group_name_H-M    "P 1"
_symmetry_int_tables_number       1

loop_
  _symmetry_equiv_pos_as_xyz
  'x, y, z'

loop_
  _atom_site_label
  _atom_site_occupancy
  _atom_site_fract_x
  _atom_site_fract_y
  _atom_site_fract_z
  _atom_site_thermal_displace_type
  _atom_site_B_iso_or_equiv
  _atom_site_type_symbol
  Hf1      1.0000 0.11383  0.98744  0.24579  Biso   1.000  Hf
  Hf2      1.0000 0.12569  0.24340  0.70461  Biso   1.000  Hf
  Hf3      1.0000 0.38327  0.26591  0.21105  Biso   1.000  Hf
  Hf4      1.0000 0.36623  0.48742  0.72985  Biso   1.000  Hf
  O1       1.0000 0.00235  0.14235  0.43676  Biso   1.000  O
  O2       1.0000 0.02182  0.09200  0.93977  Biso   1.000  O
  O3       1.0000 0.47389  0.43443  0.38585  Biso   1.000  O
  O4       1.0000 0.47505  0.32919  0.88033  Biso   1.000  O
  O5       1.0000 0.25108  0.11746  0.44767  Biso   1.000  O
  O6       1.0000 0.26639  0.14651  0.95210  Biso   1.000  O
  O7       1.0000 0.23220  0.38821  0.96780  Biso   1.000  O
  O8       1.0000 0.24386  0.36419  0.45958  Biso   1.000  O
  Hf5      1.0000 0.13782  0.51958  0.23322  Biso   1.000  Hf
  Hf6      1.0000 0.12498  0.74326  0.73840  Biso   1.000  Hf
  Hf7      1.0000 0.37020  0.76755  0.23267  Biso   1.000  Hf
  Hf8      1.0000 0.36009  0.99474  0.73240  Biso   1.000  Hf
  O9       1.0000 0.02363  0.66130  0.41527  Biso   1.000  O
  O10      1.0000 0.02688  0.58332  0.90331  Biso   1.000  O
  O11      1.0000 0.46573  0.93425  0.39569  Biso   1.000  O
  O12      1.0000 0.47322  0.82959  0.89505  Biso   1.000  O
  O13      1.0000 0.27217  0.61863  0.47707  Biso   1.000  O
  O14      1.0000 0.26668  0.63995  0.97648  Biso   1.000  O
  O15      1.0000 0.23796  0.89170  0.97994  Biso   1.000  O
  O16      1.0000 0.23827  0.85940  0.48625  Biso   1.000  O
  Hf9      1.0000 0.62794  0.01115  0.24603  Biso   1.000  Hf
  Hf10     1.0000 0.63373  0.23441  0.74415  Biso   1.000  Hf
  Hf11     1.0000 0.85721  0.25847  0.25422  Biso   1.000  Hf
  Hf12     1.0000 0.87119  0.48059  0.75455  Biso   1.000  Hf
  O17      1.0000 0.53285  0.17764  0.40627  Biso   1.000  O
  O18      1.0000 0.52396  0.07864  0.90802  Biso   1.000  O
  O19      1.0000 0.99616  0.39446  0.44198  Biso   1.000  O
  O20      1.0000 0.97527  0.33194  0.94500  Biso   1.000  O
  O21      1.0000 0.76058  0.10805  0.50339  Biso   1.000  O
  O22      1.0000 0.76076  0.13333  0.99960  Biso   1.000  O
  O23      1.0000 0.73328  0.38519  0.99384  Biso   1.000  O
  O24      1.0000 0.73648  0.36617  0.49834  Biso   1.000  O
  Hf13     1.0000 0.63342  0.51734  0.24050  Biso   1.000  Hf
  Hf14     1.0000 0.63200  0.73702  0.74728  Biso   1.000  Hf
  Hf15     1.0000 0.86353  0.76006  0.26531  Biso   1.000  Hf
  Hf16     1.0000 0.87010  0.99005  0.76719  Biso   1.000  Hf
  O25      1.0000 0.53760  0.68586  0.38836  Biso   1.000  O
  O26      1.0000 0.53108  0.57556  0.89025  Biso   1.000  O
  O27      1.0000 0.98487  0.89598  0.49545  Biso   1.000  O
  O28      1.0000 0.98985  0.84090  0.98898  Biso   1.000  O
  O29      1.0000 0.77027  0.61083  0.49528  Biso   1.000  O
  O30      1.0000 0.77033  0.63546  0.99318  Biso   1.000  O
  O31      1.0000 0.73917  0.88449  0.99820  Biso   1.000  O
  O32      1.0000 0.73377  0.86457  0.49850  Biso   1.000  O
  Ti1      1.0000 0.12260  0.25006  0.20256  Biso   1.000  Ti
