data_image0
_cell_length_a       10.0114
_cell_length_b       10.3755
_cell_length_c       10.0517
_cell_angle_alpha    89.8593
_cell_angle_beta     90.1759
_cell_angle_gamma    89.613

_symmetry_space_group_name_H-M    "P 1"
_symmetry_int_tables_number       1

loop_
  _symmetry_equiv_pos_as_xyz
  'x, y, z'

loop_
  _atom_site_label
  _atom_site_occupancy
  _atom_site_fract_x
  _atom_site_fract_y
  _atom_site_fract_z
  _atom_site_thermal_displace_type
  _atom_site_B_iso_or_equiv
  _atom_site_type_symbol
  Hf1      1.0000 0.12621  0.00904  0.12244  Biso   1.000  Hf
  Hf2      1.0000 0.12936  0.23240  0.38183  Biso   1.000  Hf
  Hf3      1.0000 0.38039  0.27167  0.11819  Biso   1.000  Hf
  Hf4      1.0000 0.36677  0.48483  0.37342  Biso   1.000  Hf
  O1       1.0000 0.00189  0.15620  0.22534  Biso   1.000  O
  O2       1.0000 0.03429  0.06454  0.45558  Biso   1.000  O
  O3       1.0000 0.47029  0.43652  0.19648  Biso   1.000  O
  O4       1.0000 0.46639  0.31889  0.44549  Biso   1.000  O
  O5       1.0000 0.25293  0.12531  0.24202  Biso   1.000  O
  O6       1.0000 0.27181  0.13244  0.49726  Biso   1.000  O
  O7       1.0000 0.23104  0.38464  0.49650  Biso   1.000  O
  O8       1.0000 0.23572  0.36960  0.24442  Biso   1.000  O
  Hf5      1.0000 0.13386  0.01261  0.62612  Biso   1.000  Hf
  Hf6      1.0000 0.13657  0.23743  0.85694  Biso   1.000  Hf
  Hf7      1.0000 0.37068  0.26694  0.62050  Biso   1.000  Hf
  Hf8      1.0000 0.36884  0.48679  0.87182  Biso   1.000  Hf
  O9       1.0000 0.03121  0.17738  0.69258  Biso   1.000  O
  O10      1.0000 0.03100  0.06948  0.94727  Biso   1.000  O
  O11      1.0000 0.46865  0.43404  0.69333  Biso   1.000  O
  O12      1.0000 0.47099  0.32142  0.94118  Biso   1.000  O
  O13      1.0000 0.27108  0.11657  0.74561  Biso   1.000  O
  O14      1.0000 0.26014  0.14396  0.99849  Biso   1.000  O
  O15      1.0000 0.23457  0.38844  0.99415  Biso   1.000  O
  O16      1.0000 0.23755  0.36947  0.74289  Biso   1.000  O
  Hf9      1.0000 0.13875  0.52425  0.12357  Biso   1.000  Hf
  Hf10     1.0000 0.13389  0.73451  0.37562  Biso   1.000  Hf
  Hf11     1.0000 0.36715  0.76790  0.12433  Biso   1.000  Hf
  Hf12     1.0000 0.36278  0.98784  0.37158  Biso   1.000  Hf
  O17      1.0000 0.03103  0.67857  0.20192  Biso   1.000  O
  O18      1.0000 0.03461  0.56774  0.44809  Biso   1.000  O
  O19      1.0000 0.45993  0.93635  0.19370  Biso   1.000  O
  O20      1.0000 0.46566  0.82115  0.44425  Biso   1.000  O
  O21      1.0000 0.27445  0.62182  0.24850  Biso   1.000  O
  O22      1.0000 0.27010  0.63396  0.49829  Biso   1.000  O
  O23      1.0000 0.23196  0.88413  0.49754  Biso   1.000  O
  O24      1.0000 0.22978  0.86711  0.24886  Biso   1.000  O
  Hf13     1.0000 0.13455  0.51660  0.62423  Biso   1.000  Hf
  Hf14     1.0000 0.13353  0.73511  0.87292  Biso   1.000  Hf
  Hf15     1.0000 0.36805  0.76747  0.62313  Biso   1.000  Hf
  Hf16     1.0000 0.36548  0.98530  0.87557  Biso   1.000  Hf
  O25      1.0000 0.03526  0.68149  0.69552  Biso   1.000  O
  O26      1.0000 0.03523  0.56935  0.94681  Biso   1.000  O
  O27      1.0000 0.46616  0.93377  0.69776  Biso   1.000  O
  O28      1.0000 0.46757  0.81985  0.94568  Biso   1.000  O
  O29      1.0000 0.27073  0.61784  0.74645  Biso   1.000  O
  O30      1.0000 0.27201  0.63762  0.99581  Biso   1.000  O
  O31      1.0000 0.23142  0.88415  0.99674  Biso   1.000  O
  O32      1.0000 0.23290  0.86594  0.74818  Biso   1.000  O
  Hf17     1.0000 0.63074  0.01204  0.12466  Biso   1.000  Hf
  Hf18     1.0000 0.63258  0.23176  0.37713  Biso   1.000  Hf
  Hf19     1.0000 0.85249  0.26116  0.12942  Biso   1.000  Hf
  Hf20     1.0000 0.86916  0.48137  0.37546  Biso   1.000  Hf
  O33      1.0000 0.53334  0.17898  0.20168  Biso   1.000  O
  O34      1.0000 0.53185  0.06754  0.44791  Biso   1.000  O
  O35      1.0000 0.97778  0.41538  0.20280  Biso   1.000  O
  O36      1.0000 0.96511  0.31996  0.45551  Biso   1.000  O
  O37      1.0000 0.75766  0.11094  0.25083  Biso   1.000  O
  O38      1.0000 0.76971  0.13409  0.49905  Biso   1.000  O
  O39      1.0000 0.73109  0.38427  0.50024  Biso   1.000  O
  O40      1.0000 0.72909  0.36801  0.25230  Biso   1.000  O
  Hf21     1.0000 0.63390  0.01423  0.62367  Biso   1.000  Hf
  Hf22     1.0000 0.63574  0.23231  0.87276  Biso   1.000  Hf
  Hf23     1.0000 0.86383  0.26552  0.62609  Biso   1.000  Hf
  Hf24     1.0000 0.86923  0.48166  0.87831  Biso   1.000  Hf
  O41      1.0000 0.53746  0.18349  0.69457  Biso   1.000  O
  O42      1.0000 0.52954  0.07180  0.94837  Biso   1.000  O
  O43      1.0000 0.97293  0.42686  0.70634  Biso   1.000  O
  O44      1.0000 0.97366  0.31518  0.96181  Biso   1.000  O
  O45      1.0000 0.76985  0.11448  0.74867  Biso   1.000  O
  O46      1.0000 0.76718  0.12960  0.99875  Biso   1.000  O
  O47      1.0000 0.73002  0.38171  0.99935  Biso   1.000  O
  O48      1.0000 0.73345  0.36679  0.75081  Biso   1.000  O
  Hf25     1.0000 0.63525  0.51838  0.12441  Biso   1.000  Hf
  Hf26     1.0000 0.63364  0.73476  0.37537  Biso   1.000  Hf
  Hf27     1.0000 0.86400  0.76272  0.12629  Biso   1.000  Hf
  Hf28     1.0000 0.87080  0.98628  0.37186  Biso   1.000  Hf
  O49      1.0000 0.53761  0.68600  0.19376  Biso   1.000  O
  O50      1.0000 0.53428  0.56901  0.44534  Biso   1.000  O
  O51      1.0000 0.96170  0.92244  0.19753  Biso   1.000  O
  O52      1.0000 0.96696  0.81803  0.44806  Biso   1.000  O
  O53      1.0000 0.77149  0.61407  0.24824  Biso   1.000  O
  O54      1.0000 0.77033  0.63361  0.49810  Biso   1.000  O
  O55      1.0000 0.73287  0.88513  0.49659  Biso   1.000  O
  O56      1.0000 0.72758  0.86426  0.24754  Biso   1.000  O
  Hf29     1.0000 0.63570  0.51740  0.62459  Biso   1.000  Hf
  Hf30     1.0000 0.63474  0.73399  0.87397  Biso   1.000  Hf
  Hf31     1.0000 0.86695  0.76589  0.62400  Biso   1.000  Hf
  Hf32     1.0000 0.86731  0.98175  0.87586  Biso   1.000  Hf
  O57      1.0000 0.53692  0.68449  0.69440  Biso   1.000  O
  O58      1.0000 0.53597  0.56913  0.94481  Biso   1.000  O
  O59      1.0000 0.96828  0.92859  0.70082  Biso   1.000  O
  O60      1.0000 0.96734  0.81677  0.94994  Biso   1.000  O
  O61      1.0000 0.77272  0.61479  0.74910  Biso   1.000  O
  O62      1.0000 0.77097  0.63127  0.99738  Biso   1.000  O
  O63      1.0000 0.72994  0.88134  0.99751  Biso   1.000  O
  O64      1.0000 0.73128  0.86546  0.74722  Biso   1.000  O
  Ti1      1.0000 0.11935  0.26710  0.11342  Biso   1.000  Ti
