data_image0
_cell_length_a       10.1858
_cell_length_b       10.2792
_cell_length_c       5.2978
_cell_angle_alpha    90.0822
_cell_angle_beta     79.2325
_cell_angle_gamma    89.7037

_symmetry_space_group_name_H-M    "P 1"
_symmetry_int_tables_number       1

loop_
  _symmetry_equiv_pos_as_xyz
  'x, y, z'

loop_
  _atom_site_label
  _atom_site_occupancy
  _atom_site_fract_x
  _atom_site_fract_y
  _atom_site_fract_z
  _atom_site_thermal_displace_type
  _atom_site_B_iso_or_equiv
  _atom_site_type_symbol
  Hf1      1.0000 0.13105  0.01791  0.29999  Biso   1.000  Hf
  Hf2      1.0000 0.13132  0.22731  0.77890  Biso   1.000  Hf
  Hf3      1.0000 0.34999  0.27723  0.16829  Biso   1.000  Hf
  Hf4      1.0000 0.35757  0.49103  0.70242  Biso   1.000  Hf
  O1       1.0000 0.03918  0.16404  0.14838  Biso   1.000  O
  O2       1.0000 0.02793  0.08233  0.65516  Biso   1.000  O
  O3       1.0000 0.47188  0.40678  0.36078  Biso   1.000  O
  O4       1.0000 0.47497  0.35208  0.84990  Biso   1.000  O
  O5       1.0000 0.27483  0.12130  0.44857  Biso   1.000  O
  O6       1.0000 0.29133  0.13707  0.91594  Biso   1.000  O
  O7       1.0000 0.21392  0.39040  0.00256  Biso   1.000  O
  O8       1.0000 0.23866  0.36172  0.51238  Biso   1.000  O
  Hf5      1.0000 0.13599  0.52477  0.29046  Biso   1.000  Hf
  Hf6      1.0000 0.13314  0.72976  0.79626  Biso   1.000  Hf
  Hf7      1.0000 0.36031  0.77175  0.20739  Biso   1.000  Hf
  Hf8      1.0000 0.36046  0.96821  0.70134  Biso   1.000  Hf
  O9       1.0000 0.02894  0.66394  0.15674  Biso   1.000  O
  O10      1.0000 0.03340  0.58579  0.65625  Biso   1.000  O
  O11      1.0000 0.46738  0.91226  0.35034  Biso   1.000  O
  O12      1.0000 0.46521  0.83112  0.85415  Biso   1.000  O
  O13      1.0000 0.27424  0.62713  0.47789  Biso   1.000  O
  O14      1.0000 0.27231  0.63010  0.98298  Biso   1.000  O
  O15      1.0000 0.22183  0.88492  0.02039  Biso   1.000  O
  O16      1.0000 0.21886  0.86565  0.51828  Biso   1.000  O
  Hf9      1.0000 0.63623  0.02549  0.30607  Biso   1.000  Hf
  Hf10     1.0000 0.64271  0.23088  0.80887  Biso   1.000  Hf
  Hf11     1.0000 0.86181  0.27134  0.22152  Biso   1.000  Hf
  Hf12     1.0000 0.86121  0.47902  0.71818  Biso   1.000  Hf
  O17      1.0000 0.52291  0.16950  0.18175  Biso   1.000  O
  O18      1.0000 0.53626  0.07484  0.68503  Biso   1.000  O
  O19      1.0000 0.97119  0.41101  0.35858  Biso   1.000  O
  O20      1.0000 0.96366  0.33656  0.85724  Biso   1.000  O
  O21      1.0000 0.77889  0.12820  0.49289  Biso   1.000  O
  O22      1.0000 0.77646  0.12073  0.00033  Biso   1.000  O
  O23      1.0000 0.72567  0.37764  0.03628  Biso   1.000  O
  O24      1.0000 0.73024  0.37374  0.53469  Biso   1.000  O
  Hf13     1.0000 0.63811  0.52042  0.30145  Biso   1.000  Hf
  Hf14     1.0000 0.63797  0.72721  0.80039  Biso   1.000  Hf
  Hf15     1.0000 0.85593  0.77228  0.21759  Biso   1.000  Hf
  Hf16     1.0000 0.85337  0.97780  0.72054  Biso   1.000  Hf
  O25      1.0000 0.53000  0.65983  0.15608  Biso   1.000  O
  O26      1.0000 0.53203  0.59067  0.65168  Biso   1.000  O
  O27      1.0000 0.96235  0.91093  0.36013  Biso   1.000  O
  O28      1.0000 0.96273  0.83691  0.85849  Biso   1.000  O
  O29      1.0000 0.77579  0.62835  0.48747  Biso   1.000  O
  O30      1.0000 0.77445  0.62162  0.98803  Biso   1.000  O
  O31      1.0000 0.71950  0.87878  0.03254  Biso   1.000  O
  O32      1.0000 0.72015  0.87164  0.53003  Biso   1.000  O
  Ti1      1.0000 0.41698  0.22996  0.58835  Biso   1.000  Ti
