data_image0
_cell_length_a       10.0542
_cell_length_b       5.0017
_cell_length_c       10.0542
_cell_angle_alpha    90
_cell_angle_beta     90
_cell_angle_gamma    90.0001

_symmetry_space_group_name_H-M    "P 1"
_symmetry_int_tables_number       1

loop_
  _symmetry_equiv_pos_as_xyz
  'x, y, z'

loop_
  _atom_site_label
  _atom_site_occupancy
  _atom_site_fract_x
  _atom_site_fract_y
  _atom_site_fract_z
  _atom_site_thermal_displace_type
  _atom_site_B_iso_or_equiv
  _atom_site_type_symbol
  Ti1      1.0000 0.12491  0.00011  0.12491  Biso   1.000  Ti
  Hf1      1.0000 0.12491  0.50011  0.37476  Biso   1.000  Hf
  Hf2      1.0000 0.37476  0.50011  0.12491  Biso   1.000  Hf
  Hf3      1.0000 0.37393  0.00643  0.37393  Biso   1.000  Hf
  O1       1.0000 0.97934  0.29254  0.97934  Biso   1.000  O
  O2       1.0000 0.01946  0.21674  0.23035  Biso   1.000  O
  O3       1.0000 0.97934  0.70768  0.27048  Biso   1.000  O
  O4       1.0000 0.01946  0.78347  0.01946  Biso   1.000  O
  O5       1.0000 0.27048  0.29253  0.27048  Biso   1.000  O
  O6       1.0000 0.23036  0.21674  0.01946  Biso   1.000  O
  O7       1.0000 0.27048  0.70768  0.97934  Biso   1.000  O
  O8       1.0000 0.23036  0.78347  0.23035  Biso   1.000  O
  Hf4      1.0000 0.12491  0.00011  0.62491  Biso   1.000  Hf
  Hf5      1.0000 0.12491  0.50011  0.87505  Biso   1.000  Hf
  Hf6      1.0000 0.37532  0.50011  0.62491  Biso   1.000  Hf
  Hf7      1.0000 0.37393  0.99378  0.87589  Biso   1.000  Hf
  O9       1.0000 0.98675  0.26517  0.48104  Biso   1.000  O
  O10      1.0000 0.01101  0.24406  0.73404  Biso   1.000  O
  O11      1.0000 0.98675  0.73505  0.76877  Biso   1.000  O
  O12      1.0000 0.01101  0.75616  0.51578  Biso   1.000  O
  O13      1.0000 0.26307  0.26517  0.76877  Biso   1.000  O
  O14      1.0000 0.23881  0.24406  0.51578  Biso   1.000  O
  O15      1.0000 0.26307  0.73505  0.48104  Biso   1.000  O
  O16      1.0000 0.23881  0.75616  0.73404  Biso   1.000  O
  Hf8      1.0000 0.62491  0.00011  0.12491  Biso   1.000  Hf
  Hf9      1.0000 0.62491  0.50011  0.37532  Biso   1.000  Hf
  Hf10     1.0000 0.87505  0.50011  0.12491  Biso   1.000  Hf
  Hf11     1.0000 0.87589  0.99378  0.37393  Biso   1.000  Hf
  O17      1.0000 0.48105  0.26517  0.98674  Biso   1.000  O
  O18      1.0000 0.51577  0.24406  0.23881  Biso   1.000  O
  O19      1.0000 0.48105  0.73504  0.26307  Biso   1.000  O
  O20      1.0000 0.51577  0.75616  0.01101  Biso   1.000  O
  O21      1.0000 0.76877  0.26517  0.26308  Biso   1.000  O
  O22      1.0000 0.73404  0.24406  0.01101  Biso   1.000  O
  O23      1.0000 0.76877  0.73504  0.98674  Biso   1.000  O
  O24      1.0000 0.73404  0.75616  0.23881  Biso   1.000  O
  Hf12     1.0000 0.62491  0.00011  0.62491  Biso   1.000  Hf
  Hf13     1.0000 0.62491  0.50011  0.87449  Biso   1.000  Hf
  Hf14     1.0000 0.87449  0.50011  0.62491  Biso   1.000  Hf
  Hf15     1.0000 0.87589  0.00643  0.87589  Biso   1.000  Hf
  O25      1.0000 0.48678  0.26238  0.48677  Biso   1.000  O
  O26      1.0000 0.51188  0.24585  0.73794  Biso   1.000  O
  O27      1.0000 0.48678  0.73784  0.76304  Biso   1.000  O
  O28      1.0000 0.51188  0.75437  0.51188  Biso   1.000  O
  O29      1.0000 0.76304  0.26238  0.76304  Biso   1.000  O
  O30      1.0000 0.73794  0.24585  0.51188  Biso   1.000  O
  O31      1.0000 0.76304  0.73784  0.48677  Biso   1.000  O
  O32      1.0000 0.73794  0.75437  0.73794  Biso   1.000  O
