data_image0
_cell_length_a       10.0834
_cell_length_b       10.2639
_cell_length_c       10.4238
_cell_angle_alpha    90.0379
_cell_angle_beta     80.3884
_cell_angle_gamma    89.9498

_symmetry_space_group_name_H-M    "P 1"
_symmetry_int_tables_number       1

loop_
  _symmetry_equiv_pos_as_xyz
  'x, y, z'

loop_
  _atom_site_label
  _atom_site_occupancy
  _atom_site_fract_x
  _atom_site_fract_y
  _atom_site_fract_z
  _atom_site_thermal_displace_type
  _atom_site_B_iso_or_equiv
  _atom_site_type_symbol
  Ti1      1.0000 0.13199  0.02484  0.14612  Biso   1.000  Ti
  Hf1      1.0000 0.13944  0.22753  0.39340  Biso   1.000  Hf
  Hf2      1.0000 0.35951  0.26928  0.10423  Biso   1.000  Hf
  Hf3      1.0000 0.36142  0.47861  0.35405  Biso   1.000  Hf
  O1       1.0000 0.03849  0.16275  0.08361  Biso   1.000  O
  O2       1.0000 0.03968  0.07822  0.32414  Biso   1.000  O
  O3       1.0000 0.46329  0.41985  0.16867  Biso   1.000  O
  O4       1.0000 0.46404  0.32984  0.41904  Biso   1.000  O
  O5       1.0000 0.27274  0.12564  0.23677  Biso   1.000  O
  O6       1.0000 0.27708  0.12121  0.48919  Biso   1.000  O
  O7       1.0000 0.22255  0.37924  0.00960  Biso   1.000  O
  O8       1.0000 0.22372  0.36991  0.25916  Biso   1.000  O
  Hf4      1.0000 0.13887  0.02134  0.64542  Biso   1.000  Hf
  Hf5      1.0000 0.14051  0.22730  0.89607  Biso   1.000  Hf
  Hf6      1.0000 0.36109  0.27165  0.60379  Biso   1.000  Hf
  Hf7      1.0000 0.36070  0.47885  0.85455  Biso   1.000  Hf
  O9       1.0000 0.03548  0.16757  0.57756  Biso   1.000  O
  O10      1.0000 0.03553  0.08122  0.82980  Biso   1.000  O
  O11      1.0000 0.46331  0.42085  0.66888  Biso   1.000  O
  O12      1.0000 0.46268  0.32889  0.91860  Biso   1.000  O
  O13      1.0000 0.27687  0.12917  0.74036  Biso   1.000  O
  O14      1.0000 0.27507  0.12083  0.99215  Biso   1.000  O
  O15      1.0000 0.22287  0.37904  0.50891  Biso   1.000  O
  O16      1.0000 0.22316  0.37021  0.75961  Biso   1.000  O
  Hf8      1.0000 0.13953  0.52144  0.14611  Biso   1.000  Hf
  Hf9      1.0000 0.13946  0.72918  0.39515  Biso   1.000  Hf
  Hf10     1.0000 0.35741  0.77449  0.10542  Biso   1.000  Hf
  Hf11     1.0000 0.35897  0.97848  0.35203  Biso   1.000  Hf
  O17      1.0000 0.03630  0.67009  0.08164  Biso   1.000  O
  O18      1.0000 0.03647  0.57937  0.33113  Biso   1.000  O
  O19      1.0000 0.46498  0.91952  0.16913  Biso   1.000  O
  O20      1.0000 0.46382  0.83035  0.41844  Biso   1.000  O
  O21      1.0000 0.27688  0.62932  0.24088  Biso   1.000  O
  O22      1.0000 0.27728  0.62093  0.49073  Biso   1.000  O
  O23      1.0000 0.21880  0.88535  0.01396  Biso   1.000  O
  O24      1.0000 0.22147  0.87153  0.25904  Biso   1.000  O
  Hf12     1.0000 0.13939  0.52169  0.64578  Biso   1.000  Hf
  Hf13     1.0000 0.13921  0.72988  0.89665  Biso   1.000  Hf
  Hf14     1.0000 0.36147  0.77191  0.60421  Biso   1.000  Hf
  Hf15     1.0000 0.35929  0.97954  0.85641  Biso   1.000  Hf
  O25      1.0000 0.03619  0.66981  0.58098  Biso   1.000  O
  O26      1.0000 0.03684  0.58033  0.83166  Biso   1.000  O
  O27      1.0000 0.46294  0.92077  0.66961  Biso   1.000  O
  O28      1.0000 0.46078  0.82961  0.91959  Biso   1.000  O
  O29      1.0000 0.27703  0.62962  0.74087  Biso   1.000  O
  O30      1.0000 0.27646  0.62189  0.99108  Biso   1.000  O
  O31      1.0000 0.22298  0.87925  0.50937  Biso   1.000  O
  O32      1.0000 0.22278  0.87125  0.76036  Biso   1.000  O
  Hf16     1.0000 0.63886  0.02180  0.14584  Biso   1.000  Hf
  Hf17     1.0000 0.63909  0.22803  0.39562  Biso   1.000  Hf
  Hf18     1.0000 0.86116  0.27098  0.10499  Biso   1.000  Hf
  Hf19     1.0000 0.86106  0.47852  0.35409  Biso   1.000  Hf
  O33      1.0000 0.53657  0.17057  0.08108  Biso   1.000  O
  O34      1.0000 0.53567  0.08034  0.33015  Biso   1.000  O
  O35      1.0000 0.96518  0.41818  0.16956  Biso   1.000  O
  O36      1.0000 0.96356  0.32861  0.41816  Biso   1.000  O
  O37      1.0000 0.77794  0.12870  0.24048  Biso   1.000  O
  O38      1.0000 0.77775  0.12011  0.48996  Biso   1.000  O
  O39      1.0000 0.72399  0.37923  0.00982  Biso   1.000  O
  O40      1.0000 0.72356  0.37027  0.25893  Biso   1.000  O
  Hf20     1.0000 0.63831  0.02088  0.64600  Biso   1.000  Hf
  Hf21     1.0000 0.63862  0.22880  0.89582  Biso   1.000  Hf
  Hf22     1.0000 0.86121  0.27106  0.60385  Biso   1.000  Hf
  Hf23     1.0000 0.86193  0.47836  0.85506  Biso   1.000  Hf
  O41      1.0000 0.53684  0.17056  0.58101  Biso   1.000  O
  O42      1.0000 0.53611  0.07933  0.83189  Biso   1.000  O
  O43      1.0000 0.96465  0.41865  0.67025  Biso   1.000  O
  O44      1.0000 0.96512  0.32920  0.92193  Biso   1.000  O
  O45      1.0000 0.77650  0.12924  0.74048  Biso   1.000  O
  O46      1.0000 0.77746  0.12114  0.99079  Biso   1.000  O
  O47      1.0000 0.72342  0.37909  0.50946  Biso   1.000  O
  O48      1.0000 0.72346  0.37099  0.75979  Biso   1.000  O
  Hf24     1.0000 0.63772  0.52233  0.14578  Biso   1.000  Hf
  Hf25     1.0000 0.63937  0.72942  0.39573  Biso   1.000  Hf
  Hf26     1.0000 0.86276  0.77231  0.10393  Biso   1.000  Hf
  Hf27     1.0000 0.86365  0.97896  0.35325  Biso   1.000  Hf
  O49      1.0000 0.53488  0.67114  0.08158  Biso   1.000  O
  O50      1.0000 0.53694  0.57955  0.33148  Biso   1.000  O
  O51      1.0000 0.97247  0.92243  0.16673  Biso   1.000  O
  O52      1.0000 0.96362  0.82955  0.41888  Biso   1.000  O
  O53      1.0000 0.77731  0.62954  0.24052  Biso   1.000  O
  O54      1.0000 0.77704  0.62061  0.49090  Biso   1.000  O
  O55      1.0000 0.72323  0.87961  0.00951  Biso   1.000  O
  O56      1.0000 0.72781  0.87167  0.25832  Biso   1.000  O
  Hf28     1.0000 0.63905  0.52143  0.64617  Biso   1.000  Hf
  Hf29     1.0000 0.63752  0.72892  0.89710  Biso   1.000  Hf
  Hf30     1.0000 0.86071  0.77092  0.60455  Biso   1.000  Hf
  Hf31     1.0000 0.86078  0.97882  0.85391  Biso   1.000  Hf
  O57      1.0000 0.53703  0.67094  0.58099  Biso   1.000  O
  O58      1.0000 0.53622  0.57954  0.83150  Biso   1.000  O
  O59      1.0000 0.96369  0.91969  0.66922  Biso   1.000  O
  O60      1.0000 0.96348  0.83011  0.91920  Biso   1.000  O
  O61      1.0000 0.77696  0.62895  0.74158  Biso   1.000  O
  O62      1.0000 0.77710  0.62167  0.99139  Biso   1.000  O
  O63      1.0000 0.72331  0.87921  0.50915  Biso   1.000  O
  O64      1.0000 0.72250  0.87061  0.75971  Biso   1.000  O
