data_image0
_cell_length_a       9.98107
_cell_length_b       5.10178
_cell_length_c       10.4107
_cell_angle_alpha    89.9769
_cell_angle_beta     90.0599
_cell_angle_gamma    89.9253

_symmetry_space_group_name_H-M    "P 1"
_symmetry_int_tables_number       1

loop_
  _symmetry_equiv_pos_as_xyz
  'x, y, z'

loop_
  _atom_site_label
  _atom_site_occupancy
  _atom_site_fract_x
  _atom_site_fract_y
  _atom_site_fract_z
  _atom_site_thermal_displace_type
  _atom_site_B_iso_or_equiv
  _atom_site_type_symbol
  Ti1      1.0000 0.13215  0.04790  0.17341  Biso   1.000  Ti
  Hf1      1.0000 0.13993  0.46030  0.41855  Biso   1.000  Hf
  Hf2      1.0000 0.35632  0.54481  0.17127  Biso   1.000  Hf
  Hf3      1.0000 0.35885  0.96046  0.41897  Biso   1.000  Hf
  Hf4      1.0000 0.63802  0.04377  0.07887  Biso   1.000  Hf
  Hf5      1.0000 0.63761  0.45805  0.32808  Biso   1.000  Hf
  Hf6      1.0000 0.86375  0.54192  0.07983  Biso   1.000  Hf
  Hf7      1.0000 0.86282  0.95894  0.32829  Biso   1.000  Hf
  O1       1.0000 0.03646  0.32087  0.08965  Biso   1.000  O
  O2       1.0000 0.03725  0.16293  0.32935  Biso   1.000  O
  O3       1.0000 0.46664  0.83249  0.08564  Biso   1.000  O
  O4       1.0000 0.46391  0.66464  0.33568  Biso   1.000  O
  O5       1.0000 0.27305  0.24715  0.29180  Biso   1.000  O
  O6       1.0000 0.27451  0.24944  0.04736  Biso   1.000  O
  O7       1.0000 0.22015  0.75554  0.29280  Biso   1.000  O
  O8       1.0000 0.21969  0.75794  0.04737  Biso   1.000  O
  O9       1.0000 0.53327  0.33714  0.16436  Biso   1.000  O
  O10      1.0000 0.53375  0.16484  0.41355  Biso   1.000  O
  O11      1.0000 0.97587  0.83697  0.16458  Biso   1.000  O
  O12      1.0000 0.96548  0.66350  0.41331  Biso   1.000  O
  O13      1.0000 0.77735  0.24597  0.45450  Biso   1.000  O
  O14      1.0000 0.77760  0.25213  0.20511  Biso   1.000  O
  O15      1.0000 0.72300  0.74700  0.45504  Biso   1.000  O
  O16      1.0000 0.72831  0.75256  0.20481  Biso   1.000  O
  Hf8      1.0000 0.13915  0.04284  0.67119  Biso   1.000  Hf
  Hf9      1.0000 0.14113  0.45610  0.92339  Biso   1.000  Hf
  Hf10     1.0000 0.36141  0.54374  0.67115  Biso   1.000  Hf
  Hf11     1.0000 0.35928  0.95758  0.92385  Biso   1.000  Hf
  Hf12     1.0000 0.63823  0.04126  0.57856  Biso   1.000  Hf
  Hf13     1.0000 0.63883  0.45839  0.82951  Biso   1.000  Hf
  Hf14     1.0000 0.86087  0.54051  0.57852  Biso   1.000  Hf
  Hf15     1.0000 0.86207  0.95673  0.82939  Biso   1.000  Hf
  O17      1.0000 0.03297  0.32828  0.58104  Biso   1.000  O
  O18      1.0000 0.03376  0.16833  0.83480  Biso   1.000  O
  O19      1.0000 0.46487  0.83672  0.58493  Biso   1.000  O
  O20      1.0000 0.46581  0.66606  0.83592  Biso   1.000  O
  O21      1.0000 0.27734  0.24709  0.79512  Biso   1.000  O
  O22      1.0000 0.27718  0.25483  0.54376  Biso   1.000  O
  O23      1.0000 0.22277  0.74627  0.79570  Biso   1.000  O
  O24      1.0000 0.22217  0.75344  0.54385  Biso   1.000  O
  O25      1.0000 0.53453  0.33631  0.66440  Biso   1.000  O
  O26      1.0000 0.53374  0.16550  0.91517  Biso   1.000  O
  O27      1.0000 0.96725  0.82972  0.66606  Biso   1.000  O
  O28      1.0000 0.96751  0.66333  0.91761  Biso   1.000  O
  O29      1.0000 0.77830  0.24869  0.95645  Biso   1.000  O
  O30      1.0000 0.77725  0.25128  0.70561  Biso   1.000  O
  O31      1.0000 0.72455  0.74747  0.95619  Biso   1.000  O
  O32      1.0000 0.72330  0.75231  0.70564  Biso   1.000  O
