data_image0
_cell_length_a       5.03209
_cell_length_b       10.2466
_cell_length_c       10.4119
_cell_angle_alpha    90.0892
_cell_angle_beta     80.3795
_cell_angle_gamma    89.9018

_symmetry_space_group_name_H-M    "P 1"
_symmetry_int_tables_number       1

loop_
  _symmetry_equiv_pos_as_xyz
  'x, y, z'

loop_
  _atom_site_label
  _atom_site_occupancy
  _atom_site_fract_x
  _atom_site_fract_y
  _atom_site_fract_z
  _atom_site_thermal_displace_type
  _atom_site_B_iso_or_equiv
  _atom_site_type_symbol
  Ti1      1.0000 0.26356  0.02517  0.14603  Biso   1.000  Ti
  Hf1      1.0000 0.27943  0.22690  0.39310  Biso   1.000  Hf
  Hf2      1.0000 0.71913  0.26887  0.10501  Biso   1.000  Hf
  Hf3      1.0000 0.72274  0.47846  0.35397  Biso   1.000  Hf
  O1       1.0000 0.07726  0.16301  0.08357  Biso   1.000  O
  O2       1.0000 0.07819  0.07858  0.32329  Biso   1.000  O
  O3       1.0000 0.92967  0.41775  0.16913  Biso   1.000  O
  O4       1.0000 0.92783  0.32851  0.41800  Biso   1.000  O
  O5       1.0000 0.54764  0.12508  0.23658  Biso   1.000  O
  O6       1.0000 0.55629  0.12054  0.48844  Biso   1.000  O
  O7       1.0000 0.44655  0.37930  0.01006  Biso   1.000  O
  O8       1.0000 0.44796  0.36942  0.25874  Biso   1.000  O
  Hf4      1.0000 0.27655  0.02086  0.64561  Biso   1.000  Hf
  Hf5      1.0000 0.28054  0.22757  0.89602  Biso   1.000  Hf
  Hf6      1.0000 0.72245  0.27132  0.60343  Biso   1.000  Hf
  Hf7      1.0000 0.72311  0.47865  0.85545  Biso   1.000  Hf
  O9       1.0000 0.07209  0.16793  0.57759  Biso   1.000  O
  O10      1.0000 0.07052  0.08086  0.83072  Biso   1.000  O
  O11      1.0000 0.92868  0.41929  0.67005  Biso   1.000  O
  O12      1.0000 0.92835  0.32847  0.92152  Biso   1.000  O
  O13      1.0000 0.55325  0.12922  0.74011  Biso   1.000  O
  O14      1.0000 0.55140  0.12130  0.99214  Biso   1.000  O
  O15      1.0000 0.44610  0.37887  0.50901  Biso   1.000  O
  O16      1.0000 0.44684  0.37048  0.76003  Biso   1.000  O
  Hf8      1.0000 0.27669  0.52235  0.14608  Biso   1.000  Hf
  Hf9      1.0000 0.27995  0.72991  0.39508  Biso   1.000  Hf
  Hf10     1.0000 0.71850  0.77529  0.10518  Biso   1.000  Hf
  Hf11     1.0000 0.72307  0.97880  0.35123  Biso   1.000  Hf
  O17      1.0000 0.06969  0.67115  0.08245  Biso   1.000  O
  O18      1.0000 0.07416  0.57905  0.33176  Biso   1.000  O
  O19      1.0000 0.94694  0.92204  0.16651  Biso   1.000  O
  O20      1.0000 0.92750  0.83005  0.41816  Biso   1.000  O
  O21      1.0000 0.55495  0.62948  0.24071  Biso   1.000  O
  O22      1.0000 0.55515  0.62072  0.49099  Biso   1.000  O
  O23      1.0000 0.43769  0.88579  0.01426  Biso   1.000  O
  O24      1.0000 0.45163  0.87213  0.25834  Biso   1.000  O
  Hf12     1.0000 0.27914  0.52175  0.64617  Biso   1.000  Hf
  Hf13     1.0000 0.27580  0.73030  0.89797  Biso   1.000  Hf
  Hf14     1.0000 0.72218  0.77143  0.60463  Biso   1.000  Hf
  Hf15     1.0000 0.71794  0.97978  0.85618  Biso   1.000  Hf
  O25      1.0000 0.07380  0.67058  0.58115  Biso   1.000  O
  O26      1.0000 0.07349  0.58016  0.83231  Biso   1.000  O
  O27      1.0000 0.92591  0.92028  0.66975  Biso   1.000  O
  O28      1.0000 0.92135  0.82998  0.91970  Biso   1.000  O
  O29      1.0000 0.55454  0.62938  0.74182  Biso   1.000  O
  O30      1.0000 0.55349  0.62287  0.99184  Biso   1.000  O
  O31      1.0000 0.44620  0.87924  0.50929  Biso   1.000  O
  O32      1.0000 0.44410  0.87111  0.76082  Biso   1.000  O
