data_image0
_cell_length_a       10.0524
_cell_length_b       10.0524
_cell_length_c       5.09438
_cell_angle_alpha    90.0005
_cell_angle_beta     89.9993
_cell_angle_gamma    89.9999

_symmetry_space_group_name_H-M    "P 1"
_symmetry_int_tables_number       1

loop_
  _symmetry_equiv_pos_as_xyz
  'x, y, z'

loop_
  _atom_site_label
  _atom_site_occupancy
  _atom_site_fract_x
  _atom_site_fract_y
  _atom_site_fract_z
  _atom_site_thermal_displace_type
  _atom_site_B_iso_or_equiv
  _atom_site_type_symbol
  Hf1      1.0000 0.12491  0.98758  0.24982  Biso   1.000  Hf
  Hf2      1.0000 0.12491  0.25006  0.74982  Biso   1.000  Hf
  Hf3      1.0000 0.38739  0.25005  0.24982  Biso   1.000  Hf
  Hf4      1.0000 0.37156  0.00340  0.74678  Biso   1.000  Hf
  O1       1.0000 0.00290  0.12804  0.98529  Biso   1.000  O
  O2       1.0000 0.99803  0.12318  0.47363  Biso   1.000  O
  O3       1.0000 0.00289  0.37207  0.51435  Biso   1.000  O
  O4       1.0000 0.99804  0.37693  0.02601  Biso   1.000  O
  O5       1.0000 0.24692  0.12804  0.51435  Biso   1.000  O
  O6       1.0000 0.25178  0.12318  0.02601  Biso   1.000  O
  O7       1.0000 0.24692  0.37207  0.98528  Biso   1.000  O
  O8       1.0000 0.25178  0.37693  0.47362  Biso   1.000  O
  Hf5      1.0000 0.12491  0.51253  0.24982  Biso   1.000  Hf
  Hf6      1.0000 0.12491  0.75006  0.74982  Biso   1.000  Hf
  Hf7      1.0000 0.37789  0.75005  0.24982  Biso   1.000  Hf
  Hf8      1.0000 0.37157  0.49672  0.75284  Biso   1.000  Hf
  O9       1.0000 0.00465  0.62604  0.96268  Biso   1.000  O
  O10      1.0000 0.99207  0.62465  0.46704  Biso   1.000  O
  O11      1.0000 0.00465  0.87407  0.53695  Biso   1.000  O
  O12      1.0000 0.99208  0.87546  0.03260  Biso   1.000  O
  O13      1.0000 0.24517  0.62604  0.53695  Biso   1.000  O
  O14      1.0000 0.25775  0.62465  0.03259  Biso   1.000  O
  O15      1.0000 0.24517  0.87407  0.96269  Biso   1.000  O
  O16      1.0000 0.25774  0.87546  0.46704  Biso   1.000  O
  Hf9      1.0000 0.62491  0.99706  0.24982  Biso   1.000  Hf
  Hf10     1.0000 0.62491  0.25006  0.74982  Biso   1.000  Hf
  Hf11     1.0000 0.86243  0.25005  0.24982  Biso   1.000  Hf
  Hf12     1.0000 0.87826  0.00340  0.75285  Biso   1.000  Hf
  O17      1.0000 0.50090  0.12979  0.96269  Biso   1.000  O
  O18      1.0000 0.49950  0.11722  0.46704  Biso   1.000  O
  O19      1.0000 0.50089  0.37031  0.53695  Biso   1.000  O
  O20      1.0000 0.49951  0.38288  0.03259  Biso   1.000  O
  O21      1.0000 0.74892  0.12979  0.53695  Biso   1.000  O
  O22      1.0000 0.75032  0.11722  0.03260  Biso   1.000  O
  O23      1.0000 0.74892  0.37031  0.96269  Biso   1.000  O
  O24      1.0000 0.75031  0.38288  0.46704  Biso   1.000  O
  Hf13     1.0000 0.62491  0.50305  0.24982  Biso   1.000  Hf
  Hf14     1.0000 0.62491  0.75006  0.74982  Biso   1.000  Hf
  Hf15     1.0000 0.87192  0.75006  0.24981  Biso   1.000  Hf
  Hf16     1.0000 0.87825  0.49672  0.74679  Biso   1.000  Hf
  O25      1.0000 0.50345  0.62857  0.95830  Biso   1.000  O
  O26      1.0000 0.49352  0.61867  0.45867  Biso   1.000  O
  O27      1.0000 0.50343  0.87153  0.54132  Biso   1.000  O
  O28      1.0000 0.49354  0.88142  0.04095  Biso   1.000  O
  O29      1.0000 0.74637  0.62857  0.54133  Biso   1.000  O
  O30      1.0000 0.75630  0.61867  0.04097  Biso   1.000  O
  O31      1.0000 0.74638  0.87153  0.95831  Biso   1.000  O
  O32      1.0000 0.75628  0.88143  0.45868  Biso   1.000  O
  Ti1      1.0000 0.12491  0.25005  0.24982  Biso   1.000  Ti
