data_image0
_cell_length_a       10.0642
_cell_length_b       10.247
_cell_length_c       5.20486
_cell_angle_alpha    90.0938
_cell_angle_beta     80.402
_cell_angle_gamma    89.8801

_symmetry_space_group_name_H-M    "P 1"
_symmetry_int_tables_number       1

loop_
  _symmetry_equiv_pos_as_xyz
  'x, y, z'

loop_
  _atom_site_label
  _atom_site_occupancy
  _atom_site_fract_x
  _atom_site_fract_y
  _atom_site_fract_z
  _atom_site_thermal_displace_type
  _atom_site_B_iso_or_equiv
  _atom_site_type_symbol
  Ti1      1.0000 0.13164  0.02437  0.29137  Biso   1.000  Ti
  Hf1      1.0000 0.14109  0.22624  0.78668  Biso   1.000  Hf
  Hf2      1.0000 0.35942  0.26941  0.20722  Biso   1.000  Hf
  Hf3      1.0000 0.36103  0.47886  0.70879  Biso   1.000  Hf
  O1       1.0000 0.03809  0.16040  0.16101  Biso   1.000  O
  O2       1.0000 0.03883  0.07934  0.64648  Biso   1.000  O
  O3       1.0000 0.46287  0.42052  0.33675  Biso   1.000  O
  O4       1.0000 0.46324  0.32906  0.83696  Biso   1.000  O
  O5       1.0000 0.27254  0.12531  0.47168  Biso   1.000  O
  O6       1.0000 0.27603  0.12179  0.97959  Biso   1.000  O
  O7       1.0000 0.22221  0.37923  0.01794  Biso   1.000  O
  O8       1.0000 0.22373  0.36923  0.51857  Biso   1.000  O
  Hf4      1.0000 0.14007  0.52173  0.29211  Biso   1.000  Hf
  Hf5      1.0000 0.13974  0.73044  0.79216  Biso   1.000  Hf
  Hf6      1.0000 0.35765  0.77509  0.21119  Biso   1.000  Hf
  Hf7      1.0000 0.35735  0.97949  0.70831  Biso   1.000  Hf
  O9       1.0000 0.03620  0.66981  0.16376  Biso   1.000  O
  O10      1.0000 0.03710  0.57976  0.66411  Biso   1.000  O
  O11      1.0000 0.46432  0.92016  0.33933  Biso   1.000  O
  O12      1.0000 0.46069  0.83016  0.83809  Biso   1.000  O
  O13      1.0000 0.27713  0.62972  0.48229  Biso   1.000  O
  O14      1.0000 0.27700  0.62220  0.98243  Biso   1.000  O
  O15      1.0000 0.21828  0.88583  0.02850  Biso   1.000  O
  O16      1.0000 0.22100  0.87190  0.52025  Biso   1.000  O
  Hf8      1.0000 0.63835  0.02135  0.29207  Biso   1.000  Hf
  Hf9      1.0000 0.63895  0.22831  0.79131  Biso   1.000  Hf
  Hf10     1.0000 0.86146  0.27060  0.20954  Biso   1.000  Hf
  Hf11     1.0000 0.86192  0.47829  0.71003  Biso   1.000  Hf
  O17      1.0000 0.53719  0.17103  0.16243  Biso   1.000  O
  O18      1.0000 0.53561  0.07987  0.66230  Biso   1.000  O
  O19      1.0000 0.96616  0.41682  0.34137  Biso   1.000  O
  O20      1.0000 0.96498  0.32778  0.84193  Biso   1.000  O
  O21      1.0000 0.77780  0.12872  0.48076  Biso   1.000  O
  O22      1.0000 0.77863  0.12045  0.98042  Biso   1.000  O
  O23      1.0000 0.72429  0.37910  0.01994  Biso   1.000  O
  O24      1.0000 0.72389  0.37048  0.51874  Biso   1.000  O
  Hf12     1.0000 0.63777  0.52231  0.29226  Biso   1.000  Hf
  Hf13     1.0000 0.63785  0.72975  0.79410  Biso   1.000  Hf
  Hf14     1.0000 0.86219  0.77170  0.20877  Biso   1.000  Hf
  Hf15     1.0000 0.86325  0.97905  0.70623  Biso   1.000  Hf
  O25      1.0000 0.53550  0.67197  0.16353  Biso   1.000  O
  O26      1.0000 0.53679  0.57928  0.66424  Biso   1.000  O
  O27      1.0000 0.97213  0.92180  0.33387  Biso   1.000  O
  O28      1.0000 0.96327  0.82961  0.83805  Biso   1.000  O
  O29      1.0000 0.77744  0.62922  0.48305  Biso   1.000  O
  O30      1.0000 0.77725  0.62148  0.98336  Biso   1.000  O
  O31      1.0000 0.72322  0.87959  0.01865  Biso   1.000  O
  O32      1.0000 0.72688  0.87143  0.51749  Biso   1.000  O
