data_image0
_cell_length_a       5.02687
_cell_length_b       10.159
_cell_length_c       10.0585
_cell_angle_alpha    89.9999
_cell_angle_beta     89.9999
_cell_angle_gamma    89.9997

_symmetry_space_group_name_H-M    "P 1"
_symmetry_int_tables_number       1

loop_
  _symmetry_equiv_pos_as_xyz
  'x, y, z'

loop_
  _atom_site_label
  _atom_site_occupancy
  _atom_site_fract_x
  _atom_site_fract_y
  _atom_site_fract_z
  _atom_site_thermal_displace_type
  _atom_site_B_iso_or_equiv
  _atom_site_type_symbol
  Ti1      1.0000 0.25080  0.00008  0.12540  Biso   1.000  Ti
  Zr1      1.0000 0.25753  0.24941  0.37463  Biso   1.000  Zr
  Zr2      1.0000 0.75079  0.25090  0.12540  Biso   1.000  Zr
  Zr3      1.0000 0.75079  0.00008  0.37389  Biso   1.000  Zr
  O1       1.0000 0.95798  0.14875  0.98297  Biso   1.000  O
  O2       1.0000 0.03599  0.10052  0.23531  Biso   1.000  O
  O3       1.0000 0.99391  0.35336  0.25600  Biso   1.000  O
  O4       1.0000 0.00438  0.39544  0.00451  Biso   1.000  O
  O5       1.0000 0.54361  0.14875  0.26783  Biso   1.000  O
  O6       1.0000 0.46559  0.10052  0.01548  Biso   1.000  O
  O7       1.0000 0.50767  0.35336  0.99479  Biso   1.000  O
  O8       1.0000 0.49721  0.39544  0.24629  Biso   1.000  O
  Zr4      1.0000 0.25080  0.00008  0.62540  Biso   1.000  Zr
  Zr5      1.0000 0.24405  0.24941  0.87616  Biso   1.000  Zr
  Zr6      1.0000 0.75079  0.24905  0.62540  Biso   1.000  Zr
  Zr7      1.0000 0.75079  0.00008  0.87690  Biso   1.000  Zr
  O9       1.0000 0.98481  0.14244  0.48558  Biso   1.000  O
  O10      1.0000 0.00730  0.10900  0.73983  Biso   1.000  O
  O11      1.0000 0.99233  0.35779  0.75594  Biso   1.000  O
  O12      1.0000 0.00471  0.39179  0.50517  Biso   1.000  O
  O13      1.0000 0.51678  0.14245  0.76521  Biso   1.000  O
  O14      1.0000 0.49429  0.10900  0.51096  Biso   1.000  O
  O15      1.0000 0.50926  0.35779  0.49485  Biso   1.000  O
  O16      1.0000 0.49688  0.39179  0.74563  Biso   1.000  O
  Zr8      1.0000 0.25079  0.50008  0.12540  Biso   1.000  Zr
  Zr9      1.0000 0.24405  0.75074  0.37463  Biso   1.000  Zr
  Zr10     1.0000 0.75079  0.74925  0.12539  Biso   1.000  Zr
  Zr11     1.0000 0.75079  0.50008  0.37692  Biso   1.000  Zr
  O17      1.0000 0.99391  0.64679  0.99480  Biso   1.000  O
  O18      1.0000 0.00438  0.60471  0.24629  Biso   1.000  O
  O19      1.0000 0.95798  0.85140  0.26782  Biso   1.000  O
  O20      1.0000 0.03599  0.89963  0.01548  Biso   1.000  O
  O21      1.0000 0.50768  0.64679  0.25600  Biso   1.000  O
  O22      1.0000 0.49720  0.60471  0.00450  Biso   1.000  O
  O23      1.0000 0.54360  0.85140  0.98297  Biso   1.000  O
  O24      1.0000 0.46559  0.89963  0.23531  Biso   1.000  O
  Zr12     1.0000 0.25080  0.50008  0.62540  Biso   1.000  Zr
  Zr13     1.0000 0.25753  0.75075  0.87616  Biso   1.000  Zr
  Zr14     1.0000 0.75079  0.75110  0.62540  Biso   1.000  Zr
  Zr15     1.0000 0.75079  0.50008  0.87388  Biso   1.000  Zr
  O25      1.0000 0.99233  0.64236  0.49485  Biso   1.000  O
  O26      1.0000 0.00471  0.60836  0.74562  Biso   1.000  O
  O27      1.0000 0.98480  0.85771  0.76521  Biso   1.000  O
  O28      1.0000 0.00730  0.89115  0.51096  Biso   1.000  O
  O29      1.0000 0.50926  0.64236  0.75594  Biso   1.000  O
  O30      1.0000 0.49688  0.60836  0.50517  Biso   1.000  O
  O31      1.0000 0.51678  0.85771  0.48558  Biso   1.000  O
  O32      1.0000 0.49429  0.89115  0.73983  Biso   1.000  O
