data_image0
_cell_length_a       10.1037
_cell_length_b       5.10828
_cell_length_c       10.1038
_cell_angle_alpha    90
_cell_angle_beta     90.0005
_cell_angle_gamma    90.0002

_symmetry_space_group_name_H-M    "P 1"
_symmetry_int_tables_number       1

loop_
  _symmetry_equiv_pos_as_xyz
  'x, y, z'

loop_
  _atom_site_label
  _atom_site_occupancy
  _atom_site_fract_x
  _atom_site_fract_y
  _atom_site_fract_z
  _atom_site_thermal_displace_type
  _atom_site_B_iso_or_equiv
  _atom_site_type_symbol
  Zr1      1.0000 0.12514  0.99985  0.10670  Biso   1.000  Zr
  Zr2      1.0000 0.12514  0.49985  0.36929  Biso   1.000  Zr
  Zr3      1.0000 0.38773  0.49987  0.10671  Biso   1.000  Zr
  Zr4      1.0000 0.37188  0.00278  0.35346  Biso   1.000  Zr
  O1       1.0000 0.00002  0.27221  0.23187  Biso   1.000  O
  O2       1.0000 0.00419  0.21628  0.48239  Biso   1.000  O
  O3       1.0000 0.50076  0.78343  0.22761  Biso   1.000  O
  O4       1.0000 0.49440  0.71223  0.47594  Biso   1.000  O
  O5       1.0000 0.24751  0.24135  0.22902  Biso   1.000  O
  O6       1.0000 0.25717  0.27840  0.48220  Biso   1.000  O
  O7       1.0000 0.24609  0.78342  0.48239  Biso   1.000  O
  O8       1.0000 0.25026  0.72749  0.23188  Biso   1.000  O
  Zr5      1.0000 0.12514  0.99986  0.60671  Biso   1.000  Zr
  Zr6      1.0000 0.12514  0.49986  0.84412  Biso   1.000  Zr
  Zr7      1.0000 0.37796  0.49986  0.60671  Biso   1.000  Zr
  Zr8      1.0000 0.37189  0.99694  0.85996  Biso   1.000  Zr
  O9       1.0000 0.99310  0.27841  0.73121  Biso   1.000  O
  O10      1.0000 0.00277  0.24136  0.98439  Biso   1.000  O
  O11      1.0000 0.50335  0.78797  0.72845  Biso   1.000  O
  O12      1.0000 0.50067  0.72132  0.97464  Biso   1.000  O
  O13      1.0000 0.24609  0.21631  0.73102  Biso   1.000  O
  O14      1.0000 0.25026  0.27221  0.98154  Biso   1.000  O
  O15      1.0000 0.24751  0.75834  0.98439  Biso   1.000  O
  O16      1.0000 0.25718  0.72132  0.73122  Biso   1.000  O
  Zr9      1.0000 0.62514  0.99986  0.10671  Biso   1.000  Zr
  Zr10     1.0000 0.62513  0.49986  0.35954  Biso   1.000  Zr
  Zr11     1.0000 0.86255  0.49985  0.10671  Biso   1.000  Zr
  Zr12     1.0000 0.87839  0.99692  0.35346  Biso   1.000  Zr
  O17      1.0000 0.50068  0.27840  0.23877  Biso   1.000  O
  O18      1.0000 0.50334  0.21173  0.48496  Biso   1.000  O
  O19      1.0000 0.00277  0.75834  0.22902  Biso   1.000  O
  O20      1.0000 0.99311  0.72129  0.48220  Biso   1.000  O
  O21      1.0000 0.74952  0.21625  0.22761  Biso   1.000  O
  O22      1.0000 0.75588  0.28749  0.47594  Biso   1.000  O
  O23      1.0000 0.74694  0.78800  0.48497  Biso   1.000  O
  O24      1.0000 0.74960  0.72129  0.23878  Biso   1.000  O
  Zr13     1.0000 0.62514  0.99986  0.60670  Biso   1.000  Zr
  Zr14     1.0000 0.62514  0.49985  0.85388  Biso   1.000  Zr
  Zr15     1.0000 0.87231  0.49985  0.60671  Biso   1.000  Zr
  Zr16     1.0000 0.87839  0.00277  0.85996  Biso   1.000  Zr
  O25      1.0000 0.49440  0.28746  0.73748  Biso   1.000  O
  O26      1.0000 0.50077  0.21630  0.98580  Biso   1.000  O
  O27      1.0000 0.00420  0.78342  0.73103  Biso   1.000  O
  O28      1.0000 0.00002  0.72749  0.98154  Biso   1.000  O
  O29      1.0000 0.74693  0.21173  0.72845  Biso   1.000  O
  O30      1.0000 0.74961  0.27841  0.97464  Biso   1.000  O
  O31      1.0000 0.74951  0.78343  0.98581  Biso   1.000  O
  O32      1.0000 0.75589  0.71223  0.73749  Biso   1.000  O
  Ti1      1.0000 0.12514  0.49985  0.10671  Biso   1.000  Ti
