data_image0
_cell_length_a       10.0507
_cell_length_b       10.2787
_cell_length_c       5.22914
_cell_angle_alpha    89.9753
_cell_angle_beta     90.0609
_cell_angle_gamma    89.8971

_symmetry_space_group_name_H-M    "P 1"
_symmetry_int_tables_number       1

loop_
  _symmetry_equiv_pos_as_xyz
  'x, y, z'

loop_
  _atom_site_label
  _atom_site_occupancy
  _atom_site_fract_x
  _atom_site_fract_y
  _atom_site_fract_z
  _atom_site_thermal_displace_type
  _atom_site_B_iso_or_equiv
  _atom_site_type_symbol
  Ti1      1.0000 0.13053  0.02370  0.34483  Biso   1.000  Ti
  Zr1      1.0000 0.14141  0.22663  0.84113  Biso   1.000  Zr
  Zr2      1.0000 0.35934  0.26887  0.34142  Biso   1.000  Zr
  Zr3      1.0000 0.36128  0.47938  0.84231  Biso   1.000  Zr
  Zr4      1.0000 0.63797  0.02075  0.15505  Biso   1.000  Zr
  Zr5      1.0000 0.63859  0.22896  0.65862  Biso   1.000  Zr
  Zr6      1.0000 0.86212  0.26971  0.16088  Biso   1.000  Zr
  Zr7      1.0000 0.86227  0.47854  0.66155  Biso   1.000  Zr
  O1       1.0000 0.03572  0.15681  0.17139  Biso   1.000  O
  O2       1.0000 0.03683  0.08214  0.65422  Biso   1.000  O
  O3       1.0000 0.46542  0.41797  0.17335  Biso   1.000  O
  O4       1.0000 0.46541  0.33140  0.67282  Biso   1.000  O
  O5       1.0000 0.27248  0.12238  0.58316  Biso   1.000  O
  O6       1.0000 0.27360  0.12397  0.09288  Biso   1.000  O
  O7       1.0000 0.22400  0.37397  0.59033  Biso   1.000  O
  O8       1.0000 0.22346  0.37516  0.08884  Biso   1.000  O
  O9       1.0000 0.53416  0.16789  0.32824  Biso   1.000  O
  O10      1.0000 0.53234  0.08318  0.82862  Biso   1.000  O
  O11      1.0000 0.96867  0.41375  0.33393  Biso   1.000  O
  O12      1.0000 0.96774  0.32974  0.83407  Biso   1.000  O
  O13      1.0000 0.77756  0.12342  0.90874  Biso   1.000  O
  O14      1.0000 0.77667  0.12528  0.40885  Biso   1.000  O
  O15      1.0000 0.72518  0.37363  0.91423  Biso   1.000  O
  O16      1.0000 0.72500  0.37554  0.41282  Biso   1.000  O
  Zr8      1.0000 0.13984  0.52143  0.34268  Biso   1.000  Zr
  Zr9      1.0000 0.13992  0.73179  0.84128  Biso   1.000  Zr
  Zr10     1.0000 0.35766  0.77545  0.34184  Biso   1.000  Zr
  Zr11     1.0000 0.35677  0.98008  0.84167  Biso   1.000  Zr
  Zr12     1.0000 0.63806  0.52171  0.16162  Biso   1.000  Zr
  Zr13     1.0000 0.63779  0.72959  0.65819  Biso   1.000  Zr
  Zr14     1.0000 0.86263  0.77107  0.15748  Biso   1.000  Zr
  Zr15     1.0000 0.86305  0.97947  0.65561  Biso   1.000  Zr
  O17      1.0000 0.03347  0.66676  0.17073  Biso   1.000  O
  O18      1.0000 0.03421  0.58289  0.67222  Biso   1.000  O
  O19      1.0000 0.46642  0.91703  0.16817  Biso   1.000  O
  O20      1.0000 0.46448  0.83371  0.67111  Biso   1.000  O
  O21      1.0000 0.27615  0.62548  0.58907  Biso   1.000  O
  O22      1.0000 0.27633  0.62771  0.08875  Biso   1.000  O
  O23      1.0000 0.21991  0.87805  0.58600  Biso   1.000  O
  O24      1.0000 0.21902  0.88062  0.09383  Biso   1.000  O
  O25      1.0000 0.53327  0.66953  0.32865  Biso   1.000  O
  O26      1.0000 0.53467  0.58189  0.82826  Biso   1.000  O
  O27      1.0000 0.97648  0.91927  0.32715  Biso   1.000  O
  O28      1.0000 0.96579  0.83285  0.82816  Biso   1.000  O
  O29      1.0000 0.77664  0.62479  0.91389  Biso   1.000  O
  O30      1.0000 0.77670  0.62537  0.41348  Biso   1.000  O
  O31      1.0000 0.72411  0.87457  0.90893  Biso   1.000  O
  O32      1.0000 0.72890  0.87611  0.40896  Biso   1.000  O
