data_image0
_cell_length_a       10.0507
_cell_length_b       5.13909
_cell_length_c       10.458
_cell_angle_alpha    89.9559
_cell_angle_beta     90.0537
_cell_angle_gamma    89.9158

_symmetry_space_group_name_H-M    "P 1"
_symmetry_int_tables_number       1

loop_
  _symmetry_equiv_pos_as_xyz
  'x, y, z'

loop_
  _atom_site_label
  _atom_site_occupancy
  _atom_site_fract_x
  _atom_site_fract_y
  _atom_site_fract_z
  _atom_site_thermal_displace_type
  _atom_site_B_iso_or_equiv
  _atom_site_type_symbol
  Ti1      1.0000 0.13178  0.04819  0.17374  Biso   1.000  Ti
  Zr1      1.0000 0.13993  0.46112  0.41801  Biso   1.000  Zr
  Zr2      1.0000 0.35597  0.54488  0.17086  Biso   1.000  Zr
  Zr3      1.0000 0.35878  0.96131  0.41837  Biso   1.000  Zr
  Zr4      1.0000 0.63807  0.04390  0.07927  Biso   1.000  Zr
  Zr5      1.0000 0.63757  0.45850  0.32839  Biso   1.000  Zr
  Zr6      1.0000 0.86438  0.54175  0.08035  Biso   1.000  Zr
  Zr7      1.0000 0.86308  0.95945  0.32861  Biso   1.000  Zr
  O1       1.0000 0.03624  0.31874  0.09008  Biso   1.000  O
  O2       1.0000 0.03769  0.16171  0.32862  Biso   1.000  O
  O3       1.0000 0.46699  0.83247  0.08575  Biso   1.000  O
  O4       1.0000 0.46355  0.66390  0.33603  Biso   1.000  O
  O5       1.0000 0.27186  0.24837  0.29146  Biso   1.000  O
  O6       1.0000 0.27293  0.24700  0.04808  Biso   1.000  O
  O7       1.0000 0.22030  0.75806  0.29212  Biso   1.000  O
  O8       1.0000 0.22008  0.75706  0.04732  Biso   1.000  O
  O9       1.0000 0.53304  0.33757  0.16428  Biso   1.000  O
  O10      1.0000 0.53356  0.16457  0.41327  Biso   1.000  O
  O11      1.0000 0.97754  0.83729  0.16418  Biso   1.000  O
  O12      1.0000 0.96559  0.66302  0.41288  Biso   1.000  O
  O13      1.0000 0.77654  0.24701  0.45454  Biso   1.000  O
  O14      1.0000 0.77689  0.25153  0.20529  Biso   1.000  O
  O15      1.0000 0.72377  0.74802  0.45521  Biso   1.000  O
  O16      1.0000 0.72975  0.75199  0.20504  Biso   1.000  O
  Zr8      1.0000 0.13918  0.04281  0.67080  Biso   1.000  Zr
  Zr9      1.0000 0.14125  0.45568  0.92337  Biso   1.000  Zr
  Zr10     1.0000 0.36149  0.54386  0.67074  Biso   1.000  Zr
  Zr11     1.0000 0.35908  0.95759  0.92366  Biso   1.000  Zr
  Zr12     1.0000 0.63819  0.04113  0.57902  Biso   1.000  Zr
  Zr13     1.0000 0.63885  0.45870  0.83011  Biso   1.000  Zr
  Zr14     1.0000 0.86076  0.54021  0.57890  Biso   1.000  Zr
  Zr15     1.0000 0.86214  0.95682  0.82979  Biso   1.000  Zr
  O17      1.0000 0.03244  0.32761  0.58043  Biso   1.000  O
  O18      1.0000 0.03332  0.16848  0.83448  Biso   1.000  O
  O19      1.0000 0.46499  0.83761  0.58516  Biso   1.000  O
  O20      1.0000 0.46605  0.66584  0.83614  Biso   1.000  O
  O21      1.0000 0.27664  0.24794  0.79521  Biso   1.000  O
  O22      1.0000 0.27640  0.25428  0.54358  Biso   1.000  O
  O23      1.0000 0.22353  0.74711  0.79552  Biso   1.000  O
  O24      1.0000 0.22289  0.75273  0.54344  Biso   1.000  O
  O25      1.0000 0.53437  0.33702  0.66422  Biso   1.000  O
  O26      1.0000 0.53332  0.16559  0.91524  Biso   1.000  O
  O27      1.0000 0.96768  0.82926  0.66601  Biso   1.000  O
  O28      1.0000 0.96790  0.66247  0.91776  Biso   1.000  O
  O29      1.0000 0.77757  0.24967  0.95662  Biso   1.000  O
  O30      1.0000 0.77646  0.25029  0.70577  Biso   1.000  O
  O31      1.0000 0.72552  0.74844  0.95643  Biso   1.000  O
  O32      1.0000 0.72411  0.75146  0.70585  Biso   1.000  O
