data_image0
_cell_length_a       5.0666
_cell_length_b       10.3197
_cell_length_c       10.4619
_cell_angle_alpha    90.093
_cell_angle_beta     80.4403
_cell_angle_gamma    89.8893

_symmetry_space_group_name_H-M    "P 1"
_symmetry_int_tables_number       1

loop_
  _symmetry_equiv_pos_as_xyz
  'x, y, z'

loop_
  _atom_site_label
  _atom_site_occupancy
  _atom_site_fract_x
  _atom_site_fract_y
  _atom_site_fract_z
  _atom_site_thermal_displace_type
  _atom_site_B_iso_or_equiv
  _atom_site_type_symbol
  Ti1      1.0000 0.26337  0.02535  0.14589  Biso   1.000  Ti
  Zr1      1.0000 0.27930  0.22692  0.39231  Biso   1.000  Zr
  Zr2      1.0000 0.71946  0.26857  0.10559  Biso   1.000  Zr
  Zr3      1.0000 0.72295  0.47865  0.35445  Biso   1.000  Zr
  O1       1.0000 0.07728  0.16163  0.08397  Biso   1.000  O
  O2       1.0000 0.07888  0.07804  0.32256  Biso   1.000  O
  O3       1.0000 0.93069  0.41749  0.16910  Biso   1.000  O
  O4       1.0000 0.92830  0.32839  0.41778  Biso   1.000  O
  O5       1.0000 0.54535  0.12441  0.23587  Biso   1.000  O
  O6       1.0000 0.55516  0.12085  0.48807  Biso   1.000  O
  O7       1.0000 0.44814  0.37910  0.01012  Biso   1.000  O
  O8       1.0000 0.44974  0.36951  0.25871  Biso   1.000  O
  Zr4      1.0000 0.27632  0.02078  0.64499  Biso   1.000  Zr
  Zr5      1.0000 0.28060  0.22746  0.89568  Biso   1.000  Zr
  Zr6      1.0000 0.72241  0.27127  0.60387  Biso   1.000  Zr
  Zr7      1.0000 0.72317  0.47874  0.85609  Biso   1.000  Zr
  O9       1.0000 0.07130  0.16771  0.57722  Biso   1.000  O
  O10      1.0000 0.06961  0.08109  0.83057  Biso   1.000  O
  O11      1.0000 0.92931  0.41920  0.67007  Biso   1.000  O
  O12      1.0000 0.92894  0.32821  0.92182  Biso   1.000  O
  O13      1.0000 0.55182  0.12895  0.74006  Biso   1.000  O
  O14      1.0000 0.54944  0.12143  0.99243  Biso   1.000  O
  O15      1.0000 0.44743  0.37867  0.50898  Biso   1.000  O
  O16      1.0000 0.44821  0.37068  0.76009  Biso   1.000  O
  Zr8      1.0000 0.27669  0.52241  0.14558  Biso   1.000  Zr
  Zr9      1.0000 0.28006  0.73020  0.39457  Biso   1.000  Zr
  Zr10     1.0000 0.71870  0.77578  0.10569  Biso   1.000  Zr
  Zr11     1.0000 0.72378  0.97892  0.35148  Biso   1.000  Zr
  O17      1.0000 0.06876  0.67109  0.08253  Biso   1.000  O
  O18      1.0000 0.07390  0.57897  0.33191  Biso   1.000  O
  O19      1.0000 0.94971  0.92199  0.16613  Biso   1.000  O
  O20      1.0000 0.92796  0.82992  0.41797  Biso   1.000  O
  O21      1.0000 0.55376  0.62959  0.24079  Biso   1.000  O
  O22      1.0000 0.55394  0.62097  0.49108  Biso   1.000  O
  O23      1.0000 0.43737  0.88665  0.01501  Biso   1.000  O
  O24      1.0000 0.45279  0.87287  0.25825  Biso   1.000  O
  Zr12     1.0000 0.27910  0.52171  0.64575  Biso   1.000  Zr
  Zr13     1.0000 0.27554  0.73055  0.89767  Biso   1.000  Zr
  Zr14     1.0000 0.72220  0.77136  0.60528  Biso   1.000  Zr
  Zr15     1.0000 0.71762  0.98011  0.85684  Biso   1.000  Zr
  O25      1.0000 0.07334  0.67067  0.58133  Biso   1.000  O
  O26      1.0000 0.07283  0.58016  0.83258  Biso   1.000  O
  O27      1.0000 0.92634  0.92032  0.66959  Biso   1.000  O
  O28      1.0000 0.92058  0.82974  0.91954  Biso   1.000  O
  O29      1.0000 0.55309  0.62919  0.74200  Biso   1.000  O
  O30      1.0000 0.55195  0.62332  0.99190  Biso   1.000  O
  O31      1.0000 0.44767  0.87904  0.50925  Biso   1.000  O
  O32      1.0000 0.44511  0.87140  0.76099  Biso   1.000  O
