data_image0
_cell_length_a       10.2849
_cell_length_b       10.287
_cell_length_c       10.6112
_cell_angle_alpha    89.7959
_cell_angle_beta     79.7607
_cell_angle_gamma    89.8

_symmetry_space_group_name_H-M    "P 1"
_symmetry_int_tables_number       1

loop_
  _symmetry_equiv_pos_as_xyz
  'x, y, z'

loop_
  _atom_site_label
  _atom_site_occupancy
  _atom_site_fract_x
  _atom_site_fract_y
  _atom_site_fract_z
  _atom_site_thermal_displace_type
  _atom_site_B_iso_or_equiv
  _atom_site_type_symbol
  Zr1      1.0000 0.13665  0.02051  0.14520  Biso   1.000  Zr
  Zr2      1.0000 0.12273  0.22387  0.39683  Biso   1.000  Zr
  Zr3      1.0000 0.35855  0.26969  0.09497  Biso   1.000  Zr
  Zr4      1.0000 0.36451  0.49544  0.35486  Biso   1.000  Zr
  O1       1.0000 0.02983  0.15857  0.07038  Biso   1.000  O
  O2       1.0000 0.02277  0.08753  0.31766  Biso   1.000  O
  O3       1.0000 0.47917  0.38817  0.19580  Biso   1.000  O
  O4       1.0000 0.48653  0.36184  0.44077  Biso   1.000  O
  O5       1.0000 0.27291  0.12439  0.23904  Biso   1.000  O
  O6       1.0000 0.27515  0.12257  0.48468  Biso   1.000  O
  O7       1.0000 0.22281  0.37911  0.00581  Biso   1.000  O
  O8       1.0000 0.23818  0.36657  0.26011  Biso   1.000  O
  Zr5      1.0000 0.13832  0.02240  0.64453  Biso   1.000  Zr
  Zr6      1.0000 0.13690  0.22780  0.89287  Biso   1.000  Zr
  Zr7      1.0000 0.36640  0.27292  0.60761  Biso   1.000  Zr
  Zr8      1.0000 0.36154  0.48010  0.85442  Biso   1.000  Zr
  O9       1.0000 0.02615  0.15848  0.57514  Biso   1.000  O
  O10      1.0000 0.02978  0.08884  0.82217  Biso   1.000  O
  O11      1.0000 0.47301  0.40792  0.68602  Biso   1.000  O
  O12      1.0000 0.47494  0.34966  0.93209  Biso   1.000  O
  O13      1.0000 0.27302  0.12658  0.73963  Biso   1.000  O
  O14      1.0000 0.27203  0.12171  0.98688  Biso   1.000  O
  O15      1.0000 0.23984  0.37008  0.49926  Biso   1.000  O
  O16      1.0000 0.22513  0.37352  0.75824  Biso   1.000  O
  Zr9      1.0000 0.14001  0.51962  0.14636  Biso   1.000  Zr
  Zr10     1.0000 0.13417  0.72869  0.39701  Biso   1.000  Zr
  Zr11     1.0000 0.36144  0.77181  0.10352  Biso   1.000  Zr
  Zr12     1.0000 0.35719  0.97200  0.35402  Biso   1.000  Zr
  O17      1.0000 0.03110  0.65716  0.07221  Biso   1.000  O
  O18      1.0000 0.03174  0.58977  0.32209  Biso   1.000  O
  O19      1.0000 0.46980  0.90712  0.17981  Biso   1.000  O
  O20      1.0000 0.47030  0.84280  0.43119  Biso   1.000  O
  O21      1.0000 0.27375  0.62960  0.24013  Biso   1.000  O
  O22      1.0000 0.26912  0.62581  0.49464  Biso   1.000  O
  O23      1.0000 0.22517  0.87726  0.00982  Biso   1.000  O
  O24      1.0000 0.22201  0.86989  0.25930  Biso   1.000  O
  Zr13     1.0000 0.13931  0.51891  0.64472  Biso   1.000  Zr
  Zr14     1.0000 0.13810  0.72697  0.89536  Biso   1.000  Zr
  Zr15     1.0000 0.36118  0.77249  0.60619  Biso   1.000  Zr
  Zr16     1.0000 0.36124  0.97832  0.85406  Biso   1.000  Zr
  O25      1.0000 0.02751  0.65809  0.57352  Biso   1.000  O
  O26      1.0000 0.03206  0.58861  0.82083  Biso   1.000  O
  O27      1.0000 0.47022  0.90844  0.67961  Biso   1.000  O
  O28      1.0000 0.47081  0.84295  0.93000  Biso   1.000  O
  O29      1.0000 0.27410  0.62719  0.73994  Biso   1.000  O
  O30      1.0000 0.27492  0.62308  0.99061  Biso   1.000  O
  O31      1.0000 0.22388  0.87696  0.51109  Biso   1.000  O
  O32      1.0000 0.22533  0.87199  0.76067  Biso   1.000  O
  Zr17     1.0000 0.63742  0.02199  0.14457  Biso   1.000  Zr
  Zr18     1.0000 0.64381  0.23397  0.39843  Biso   1.000  Zr
  Zr19     1.0000 0.86314  0.27155  0.10540  Biso   1.000  Zr
  Zr20     1.0000 0.86179  0.48137  0.35531  Biso   1.000  Zr
  O33      1.0000 0.52754  0.15333  0.06799  Biso   1.000  O
  O34      1.0000 0.52212  0.10059  0.32415  Biso   1.000  O
  O35      1.0000 0.97357  0.40701  0.17884  Biso   1.000  O
  O36      1.0000 0.96632  0.34633  0.43206  Biso   1.000  O
  O37      1.0000 0.77065  0.12767  0.23904  Biso   1.000  O
  O38      1.0000 0.77653  0.12240  0.49070  Biso   1.000  O
  O39      1.0000 0.72673  0.37621  0.01206  Biso   1.000  O
  O40      1.0000 0.73147  0.37405  0.26150  Biso   1.000  O
  Zr21     1.0000 0.63808  0.02214  0.64633  Biso   1.000  Zr
  Zr22     1.0000 0.63833  0.22814  0.89650  Biso   1.000  Zr
  Zr23     1.0000 0.85917  0.27312  0.60846  Biso   1.000  Zr
  Zr24     1.0000 0.86208  0.47863  0.85524  Biso   1.000  Zr
  O41      1.0000 0.53159  0.15767  0.57016  Biso   1.000  O
  O42      1.0000 0.52774  0.09439  0.82066  Biso   1.000  O
  O43      1.0000 0.97106  0.40868  0.67786  Biso   1.000  O
  O44      1.0000 0.96857  0.33942  0.92706  Biso   1.000  O
  O45      1.0000 0.77259  0.12770  0.74125  Biso   1.000  O
  O46      1.0000 0.77379  0.12158  0.98990  Biso   1.000  O
  O47      1.0000 0.72687  0.37908  0.51403  Biso   1.000  O
  O48      1.0000 0.72680  0.37322  0.76280  Biso   1.000  O
  Zr25     1.0000 0.63737  0.51838  0.14670  Biso   1.000  Zr
  Zr26     1.0000 0.63898  0.73045  0.39623  Biso   1.000  Zr
  Zr27     1.0000 0.86157  0.77003  0.10439  Biso   1.000  Zr
  Zr28     1.0000 0.85769  0.97722  0.35400  Biso   1.000  Zr
  O49      1.0000 0.52687  0.65240  0.06991  Biso   1.000  O
  O50      1.0000 0.53338  0.60050  0.31546  Biso   1.000  O
  O51      1.0000 0.96724  0.90810  0.17556  Biso   1.000  O
  O52      1.0000 0.96686  0.83977  0.42737  Biso   1.000  O
  O53      1.0000 0.77550  0.62729  0.23816  Biso   1.000  O
  O54      1.0000 0.77349  0.62384  0.48974  Biso   1.000  O
  O55      1.0000 0.72480  0.87774  0.01201  Biso   1.000  O
  O56      1.0000 0.72300  0.87307  0.26101  Biso   1.000  O
  Zr29     1.0000 0.63704  0.52316  0.64648  Biso   1.000  Zr
  Zr30     1.0000 0.63764  0.72746  0.89621  Biso   1.000  Zr
  Zr31     1.0000 0.86117  0.77213  0.60622  Biso   1.000  Zr
  Zr32     1.0000 0.86153  0.97753  0.85500  Biso   1.000  Zr
  O57      1.0000 0.52791  0.65712  0.57012  Biso   1.000  O
  O58      1.0000 0.52827  0.59617  0.82013  Biso   1.000  O
  O59      1.0000 0.96939  0.91021  0.67701  Biso   1.000  O
  O60      1.0000 0.96810  0.83690  0.92588  Biso   1.000  O
  O61      1.0000 0.77355  0.62767  0.73996  Biso   1.000  O
  O62      1.0000 0.77334  0.62120  0.98955  Biso   1.000  O
  O63      1.0000 0.72441  0.87814  0.51201  Biso   1.000  O
  O64      1.0000 0.72568  0.87242  0.76193  Biso   1.000  O
  Ti1      1.0000 0.37749  0.24715  0.34198  Biso   1.000  Ti
