data_image0
_cell_length_a       10.1576
_cell_length_b       10.2566
_cell_length_c       10.5973
_cell_angle_alpha    90.0693
_cell_angle_beta     90.3507
_cell_angle_gamma    89.8201

_symmetry_space_group_name_H-M    "P 1"
_symmetry_int_tables_number       1

loop_
  _symmetry_equiv_pos_as_xyz
  'x, y, z'

loop_
  _atom_site_label
  _atom_site_occupancy
  _atom_site_fract_x
  _atom_site_fract_y
  _atom_site_fract_z
  _atom_site_thermal_displace_type
  _atom_site_B_iso_or_equiv
  _atom_site_type_symbol
  Zr1      1.0000 0.13829  0.01958  0.17275  Biso   1.000  Zr
  Zr2      1.0000 0.13693  0.22827  0.42350  Biso   1.000  Zr
  Zr3      1.0000 0.35637  0.26673  0.17683  Biso   1.000  Zr
  Zr4      1.0000 0.36155  0.47820  0.42387  Biso   1.000  Zr
  Zr5      1.0000 0.63586  0.00302  0.08078  Biso   1.000  Zr
  Zr6      1.0000 0.63424  0.22742  0.33203  Biso   1.000  Zr
  Zr7      1.0000 0.87713  0.27611  0.07502  Biso   1.000  Zr
  Zr8      1.0000 0.86107  0.47848  0.32668  Biso   1.000  Zr
  O1       1.0000 0.03334  0.15337  0.07355  Biso   1.000  O
  O2       1.0000 0.02503  0.09496  0.32491  Biso   1.000  O
  O3       1.0000 0.47916  0.39671  0.07591  Biso   1.000  O
  O4       1.0000 0.46976  0.34448  0.32469  Biso   1.000  O
  O5       1.0000 0.26947  0.12373  0.29918  Biso   1.000  O
  O6       1.0000 0.27381  0.12344  0.04777  Biso   1.000  O
  O7       1.0000 0.22406  0.37430  0.29853  Biso   1.000  O
  O8       1.0000 0.22867  0.37558  0.04667  Biso   1.000  O
  O9       1.0000 0.51361  0.13844  0.18820  Biso   1.000  O
  O10      1.0000 0.52509  0.09412  0.43175  Biso   1.000  O
  O11      1.0000 0.97565  0.41216  0.17642  Biso   1.000  O
  O12      1.0000 0.97073  0.34231  0.42280  Biso   1.000  O
  O13      1.0000 0.77420  0.12309  0.45302  Biso   1.000  O
  O14      1.0000 0.75850  0.13421  0.19540  Biso   1.000  O
  O15      1.0000 0.72634  0.37570  0.45367  Biso   1.000  O
  O16      1.0000 0.72330  0.37672  0.19930  Biso   1.000  O
  Zr9      1.0000 0.13764  0.02116  0.67303  Biso   1.000  Zr
  Zr10     1.0000 0.14298  0.22784  0.92111  Biso   1.000  Zr
  Zr11     1.0000 0.36171  0.27115  0.67196  Biso   1.000  Zr
  Zr12     1.0000 0.36295  0.47824  0.92190  Biso   1.000  Zr
  Zr13     1.0000 0.63808  0.01945  0.57807  Biso   1.000  Zr
  Zr14     1.0000 0.64054  0.23071  0.81789  Biso   1.000  Zr
  Zr15     1.0000 0.86245  0.27230  0.57605  Biso   1.000  Zr
  Zr16     1.0000 0.86337  0.47909  0.82750  Biso   1.000  Zr
  O17      1.0000 0.02906  0.15835  0.57730  Biso   1.000  O
  O18      1.0000 0.02915  0.09271  0.82764  Biso   1.000  O
  O19      1.0000 0.47361  0.40391  0.57448  Biso   1.000  O
  O20      1.0000 0.47342  0.34795  0.82181  Biso   1.000  O
  O21      1.0000 0.27418  0.12495  0.79627  Biso   1.000  O
  O22      1.0000 0.27305  0.12499  0.54731  Biso   1.000  O
  O23      1.0000 0.22780  0.37465  0.79615  Biso   1.000  O
  O24      1.0000 0.22616  0.37595  0.54713  Biso   1.000  O
  O25      1.0000 0.52356  0.14861  0.67798  Biso   1.000  O
  O26      1.0000 0.52154  0.11112  0.94228  Biso   1.000  O
  O27      1.0000 0.97165  0.40994  0.67123  Biso   1.000  O
  O28      1.0000 0.97873  0.34410  0.91930  Biso   1.000  O
  O29      1.0000 0.76279  0.12973  0.95671  Biso   1.000  O
  O30      1.0000 0.77654  0.12468  0.70047  Biso   1.000  O
  O31      1.0000 0.72845  0.37655  0.95325  Biso   1.000  O
  O32      1.0000 0.72843  0.37707  0.70110  Biso   1.000  O
  Zr17     1.0000 0.14089  0.52236  0.17452  Biso   1.000  Zr
  Zr18     1.0000 0.13716  0.72927  0.42356  Biso   1.000  Zr
  Zr19     1.0000 0.36026  0.76911  0.17399  Biso   1.000  Zr
  Zr20     1.0000 0.36185  0.97777  0.42404  Biso   1.000  Zr
  Zr21     1.0000 0.64276  0.52773  0.07689  Biso   1.000  Zr
  Zr22     1.0000 0.63829  0.72794  0.32943  Biso   1.000  Zr
  Zr23     1.0000 0.86589  0.77065  0.07817  Biso   1.000  Zr
  Zr24     1.0000 0.86083  0.98036  0.32776  Biso   1.000  Zr
  O33      1.0000 0.03263  0.65981  0.07849  Biso   1.000  O
  O34      1.0000 0.02906  0.59269  0.32971  Biso   1.000  O
  O35      1.0000 0.46878  0.89559  0.07030  Biso   1.000  O
  O36      1.0000 0.47290  0.84532  0.32391  Biso   1.000  O
  O37      1.0000 0.27415  0.62428  0.29839  Biso   1.000  O
  O38      1.0000 0.27635  0.62412  0.04728  Biso   1.000  O
  O39      1.0000 0.22541  0.87297  0.29782  Biso   1.000  O
  O40      1.0000 0.22514  0.87582  0.04687  Biso   1.000  O
  O41      1.0000 0.52779  0.65447  0.17735  Biso   1.000  O
  O42      1.0000 0.52759  0.59391  0.42578  Biso   1.000  O
  O43      1.0000 0.97003  0.91042  0.17228  Biso   1.000  O
  O44      1.0000 0.96941  0.84448  0.42311  Biso   1.000  O
  O45      1.0000 0.77452  0.62442  0.45405  Biso   1.000  O
  O46      1.0000 0.77648  0.62694  0.20402  Biso   1.000  O
  O47      1.0000 0.72499  0.87433  0.45526  Biso   1.000  O
  O48      1.0000 0.73065  0.87088  0.20790  Biso   1.000  O
  Zr25     1.0000 0.13848  0.52210  0.67271  Biso   1.000  Zr
  Zr26     1.0000 0.13999  0.72967  0.92232  Biso   1.000  Zr
  Zr27     1.0000 0.36226  0.77196  0.67342  Biso   1.000  Zr
  Zr28     1.0000 0.36401  0.98083  0.92398  Biso   1.000  Zr
  Zr29     1.0000 0.63889  0.52181  0.57712  Biso   1.000  Zr
  Zr30     1.0000 0.63916  0.72857  0.82686  Biso   1.000  Zr
  Zr31     1.0000 0.86154  0.77272  0.57918  Biso   1.000  Zr
  Zr32     1.0000 0.86137  0.98193  0.82988  Biso   1.000  Zr
  O49      1.0000 0.02978  0.66134  0.57920  Biso   1.000  O
  O50      1.0000 0.03061  0.59215  0.82786  Biso   1.000  O
  O51      1.0000 0.47253  0.90198  0.57398  Biso   1.000  O
  O52      1.0000 0.47534  0.84895  0.82320  Biso   1.000  O
  O53      1.0000 0.27591  0.62415  0.79775  Biso   1.000  O
  O54      1.0000 0.27379  0.62569  0.54747  Biso   1.000  O
  O55      1.0000 0.22725  0.87454  0.79741  Biso   1.000  O
  O56      1.0000 0.22558  0.87621  0.54778  Biso   1.000  O
  O57      1.0000 0.52807  0.65534  0.67590  Biso   1.000  O
  O58      1.0000 0.52831  0.59447  0.92530  Biso   1.000  O
  O59      1.0000 0.96967  0.91013  0.67420  Biso   1.000  O
  O60      1.0000 0.97199  0.84220  0.92220  Biso   1.000  O
  O61      1.0000 0.77707  0.62602  0.95233  Biso   1.000  O
  O62      1.0000 0.77476  0.62652  0.70336  Biso   1.000  O
  O63      1.0000 0.72829  0.87228  0.95415  Biso   1.000  O
  O64      1.0000 0.72648  0.87567  0.70593  Biso   1.000  O
  Ti1      1.0000 0.62379  0.25103  0.06975  Biso   1.000  Ti
