data_image0
_cell_length_a       10.3309
_cell_length_b       10.2654
_cell_length_c       5.33496
_cell_angle_alpha    89.6445
_cell_angle_beta     79.4965
_cell_angle_gamma    89.6455

_symmetry_space_group_name_H-M    "P 1"
_symmetry_int_tables_number       1

loop_
  _symmetry_equiv_pos_as_xyz
  'x, y, z'

loop_
  _atom_site_label
  _atom_site_occupancy
  _atom_site_fract_x
  _atom_site_fract_y
  _atom_site_fract_z
  _atom_site_thermal_displace_type
  _atom_site_B_iso_or_equiv
  _atom_site_type_symbol
  Zr1      1.0000 0.13659  0.02169  0.28879  Biso   1.000  Zr
  Zr2      1.0000 0.12231  0.22398  0.79008  Biso   1.000  Zr
  Zr3      1.0000 0.36387  0.27259  0.19586  Biso   1.000  Zr
  Zr4      1.0000 0.36409  0.49767  0.70929  Biso   1.000  Zr
  O1       1.0000 0.02380  0.15340  0.14038  Biso   1.000  O
  O2       1.0000 0.02176  0.08921  0.63021  Biso   1.000  O
  O3       1.0000 0.48115  0.38869  0.39953  Biso   1.000  O
  O4       1.0000 0.48608  0.36431  0.88187  Biso   1.000  O
  O5       1.0000 0.27225  0.12464  0.47826  Biso   1.000  O
  O6       1.0000 0.27422  0.12402  0.96552  Biso   1.000  O
  O7       1.0000 0.23474  0.37382  0.99334  Biso   1.000  O
  O8       1.0000 0.23858  0.36901  0.51781  Biso   1.000  O
  Zr5      1.0000 0.14054  0.51692  0.29132  Biso   1.000  Zr
  Zr6      1.0000 0.13351  0.72771  0.79339  Biso   1.000  Zr
  Zr7      1.0000 0.36096  0.77298  0.20988  Biso   1.000  Zr
  Zr8      1.0000 0.35712  0.97239  0.70740  Biso   1.000  Zr
  O9       1.0000 0.02630  0.65149  0.13915  Biso   1.000  O
  O10      1.0000 0.03087  0.59218  0.63422  Biso   1.000  O
  O11      1.0000 0.47069  0.90593  0.36413  Biso   1.000  O
  O12      1.0000 0.47160  0.84526  0.86775  Biso   1.000  O
  O13      1.0000 0.27235  0.62911  0.48021  Biso   1.000  O
  O14      1.0000 0.26893  0.62734  0.98977  Biso   1.000  O
  O15      1.0000 0.22415  0.87689  0.02102  Biso   1.000  O
  O16      1.0000 0.22219  0.87074  0.51916  Biso   1.000  O
  Zr9      1.0000 0.63755  0.02193  0.29099  Biso   1.000  Zr
  Zr10     1.0000 0.64296  0.23298  0.79942  Biso   1.000  Zr
  Zr11     1.0000 0.86087  0.27240  0.21830  Biso   1.000  Zr
  Zr12     1.0000 0.86277  0.48086  0.71187  Biso   1.000  Zr
  O17      1.0000 0.52981  0.15391  0.13675  Biso   1.000  O
  O18      1.0000 0.52113  0.10207  0.64725  Biso   1.000  O
  O19      1.0000 0.97703  0.40103  0.36661  Biso   1.000  O
  O20      1.0000 0.96778  0.34932  0.87181  Biso   1.000  O
  O21      1.0000 0.76897  0.12709  0.48184  Biso   1.000  O
  O22      1.0000 0.77583  0.12149  0.98222  Biso   1.000  O
  O23      1.0000 0.72757  0.37663  0.03039  Biso   1.000  O
  O24      1.0000 0.73216  0.37487  0.52727  Biso   1.000  O
  Zr13     1.0000 0.63639  0.51997  0.29465  Biso   1.000  Zr
  Zr14     1.0000 0.63815  0.72942  0.79461  Biso   1.000  Zr
  Zr15     1.0000 0.86160  0.77013  0.21246  Biso   1.000  Zr
  Zr16     1.0000 0.85842  0.97646  0.70888  Biso   1.000  Zr
  O25      1.0000 0.52418  0.64962  0.13413  Biso   1.000  O
  O26      1.0000 0.53121  0.60530  0.62529  Biso   1.000  O
  O27      1.0000 0.96939  0.90466  0.35690  Biso   1.000  O
  O28      1.0000 0.96741  0.84024  0.85864  Biso   1.000  O
  O29      1.0000 0.77417  0.62657  0.47750  Biso   1.000  O
  O30      1.0000 0.77184  0.62250  0.97959  Biso   1.000  O
  O31      1.0000 0.72427  0.87713  0.02719  Biso   1.000  O
  O32      1.0000 0.72395  0.87305  0.52513  Biso   1.000  O
  Ti1      1.0000 0.37723  0.24854  0.68197  Biso   1.000  Ti
