data_image0
_cell_length_a       10.1927
_cell_length_b       10.2407
_cell_length_c       5.32687
_cell_angle_alpha    90.0969
_cell_angle_beta     90.5701
_cell_angle_gamma    89.7017

_symmetry_space_group_name_H-M    "P 1"
_symmetry_int_tables_number       1

loop_
  _symmetry_equiv_pos_as_xyz
  'x, y, z'

loop_
  _atom_site_label
  _atom_site_occupancy
  _atom_site_fract_x
  _atom_site_fract_y
  _atom_site_fract_z
  _atom_site_thermal_displace_type
  _atom_site_B_iso_or_equiv
  _atom_site_type_symbol
  Zr1      1.0000 0.13720  0.01993  0.34736  Biso   1.000  Zr
  Zr2      1.0000 0.14097  0.22792  0.84525  Biso   1.000  Zr
  Zr3      1.0000 0.35688  0.26737  0.35316  Biso   1.000  Zr
  Zr4      1.0000 0.36238  0.47827  0.84780  Biso   1.000  Zr
  Zr5      1.0000 0.63578  0.00096  0.16217  Biso   1.000  Zr
  Zr6      1.0000 0.63570  0.22823  0.64566  Biso   1.000  Zr
  Zr7      1.0000 0.87713  0.27671  0.14923  Biso   1.000  Zr
  Zr8      1.0000 0.86283  0.47852  0.65443  Biso   1.000  Zr
  O1       1.0000 0.03178  0.15085  0.14273  Biso   1.000  O
  O2       1.0000 0.02425  0.09849  0.64625  Biso   1.000  O
  O3       1.0000 0.47999  0.39526  0.15015  Biso   1.000  O
  O4       1.0000 0.47082  0.34797  0.64489  Biso   1.000  O
  O5       1.0000 0.26987  0.12432  0.59769  Biso   1.000  O
  O6       1.0000 0.27296  0.12360  0.09710  Biso   1.000  O
  O7       1.0000 0.22604  0.37531  0.59793  Biso   1.000  O
  O8       1.0000 0.22897  0.37584  0.09630  Biso   1.000  O
  O9       1.0000 0.51343  0.13628  0.37576  Biso   1.000  O
  O10      1.0000 0.51972  0.11069  0.89201  Biso   1.000  O
  O11      1.0000 0.97630  0.41192  0.35458  Biso   1.000  O
  O12      1.0000 0.97956  0.34744  0.84492  Biso   1.000  O
  O13      1.0000 0.76268  0.12799  0.91297  Biso   1.000  O
  O14      1.0000 0.76245  0.13076  0.38634  Biso   1.000  O
  O15      1.0000 0.72789  0.37592  0.90524  Biso   1.000  O
  O16      1.0000 0.72513  0.37655  0.39365  Biso   1.000  O
  Zr9      1.0000 0.14037  0.52329  0.35096  Biso   1.000  Zr
  Zr10     1.0000 0.13844  0.73050  0.84812  Biso   1.000  Zr
  Zr11     1.0000 0.36106  0.77002  0.35113  Biso   1.000  Zr
  Zr12     1.0000 0.36367  0.97994  0.85116  Biso   1.000  Zr
  Zr13     1.0000 0.64300  0.52759  0.15282  Biso   1.000  Zr
  Zr14     1.0000 0.63909  0.72756  0.65639  Biso   1.000  Zr
  Zr15     1.0000 0.86606  0.77180  0.15861  Biso   1.000  Zr
  Zr16     1.0000 0.86050  0.98372  0.65918  Biso   1.000  Zr
  O17      1.0000 0.03180  0.65991  0.15570  Biso   1.000  O
  O18      1.0000 0.02921  0.59588  0.65596  Biso   1.000  O
  O19      1.0000 0.46969  0.89154  0.13500  Biso   1.000  O
  O20      1.0000 0.47698  0.85184  0.64041  Biso   1.000  O
  O21      1.0000 0.27531  0.62442  0.60019  Biso   1.000  O
  O22      1.0000 0.27529  0.62474  0.09783  Biso   1.000  O
  O23      1.0000 0.22760  0.87380  0.59905  Biso   1.000  O
  O24      1.0000 0.22545  0.87636  0.09808  Biso   1.000  O
  O25      1.0000 0.52738  0.65290  0.35884  Biso   1.000  O
  O26      1.0000 0.52714  0.59564  0.85483  Biso   1.000  O
  O27      1.0000 0.97042  0.90905  0.35363  Biso   1.000  O
  O28      1.0000 0.97194  0.84770  0.85122  Biso   1.000  O
  O29      1.0000 0.77682  0.62573  0.90475  Biso   1.000  O
  O30      1.0000 0.77626  0.62662  0.40699  Biso   1.000  O
  O31      1.0000 0.72821  0.87181  0.90992  Biso   1.000  O
  O32      1.0000 0.73197  0.87109  0.41842  Biso   1.000  O
  Ti1      1.0000 0.62434  0.24963  0.13779  Biso   1.000  Ti
