data_image0
_cell_length_a       10.1038
_cell_length_b       10.1038
_cell_length_c       5.10831
_cell_angle_alpha    90.0002
_cell_angle_beta     90.0001
_cell_angle_gamma    90.0002

_symmetry_space_group_name_H-M    "P 1"
_symmetry_int_tables_number       1

loop_
  _symmetry_equiv_pos_as_xyz
  'x, y, z'

loop_
  _atom_site_label
  _atom_site_occupancy
  _atom_site_fract_x
  _atom_site_fract_y
  _atom_site_fract_z
  _atom_site_thermal_displace_type
  _atom_site_B_iso_or_equiv
  _atom_site_type_symbol
  Zr1      1.0000 0.12514  0.98744  0.21336  Biso   1.000  Zr
  Zr2      1.0000 0.12513  0.25003  0.71336  Biso   1.000  Zr
  Zr3      1.0000 0.38773  0.25002  0.21336  Biso   1.000  Zr
  Zr4      1.0000 0.37189  0.49677  0.71043  Biso   1.000  Zr
  O1       1.0000 0.00278  0.12768  0.47187  Biso   1.000  O
  O2       1.0000 1.00000  0.12489  0.98573  Biso   1.000  O
  O3       1.0000 0.50066  0.38207  0.43479  Biso   1.000  O
  O4       1.0000 0.50078  0.37096  0.92977  Biso   1.000  O
  O5       1.0000 0.25027  0.12489  0.44100  Biso   1.000  O
  O6       1.0000 0.24748  0.12768  0.95486  Biso   1.000  O
  O7       1.0000 0.25028  0.37516  0.98572  Biso   1.000  O
  O8       1.0000 0.24748  0.37237  0.47185  Biso   1.000  O
  Zr5      1.0000 0.12514  0.51262  0.21336  Biso   1.000  Zr
  Zr6      1.0000 0.12514  0.75003  0.71336  Biso   1.000  Zr
  Zr7      1.0000 0.37796  0.75003  0.21336  Biso   1.000  Zr
  Zr8      1.0000 0.37189  0.00328  0.71628  Biso   1.000  Zr
  O9       1.0000 0.00420  0.62568  0.49693  Biso   1.000  O
  O10      1.0000 0.99309  0.62555  0.99191  Biso   1.000  O
  O11      1.0000 0.49438  0.88077  0.42574  Biso   1.000  O
  O12      1.0000 0.50336  0.87180  0.92523  Biso   1.000  O
  O13      1.0000 0.25718  0.62555  0.43481  Biso   1.000  O
  O14      1.0000 0.24606  0.62567  0.92978  Biso   1.000  O
  O15      1.0000 0.25718  0.87450  0.99191  Biso   1.000  O
  O16      1.0000 0.24606  0.87438  0.49694  Biso   1.000  O
  Zr9      1.0000 0.62514  0.99719  0.21335  Biso   1.000  Zr
  Zr10     1.0000 0.62514  0.25003  0.71335  Biso   1.000  Zr
  Zr11     1.0000 0.86255  0.25002  0.21336  Biso   1.000  Zr
  Zr12     1.0000 0.87840  0.49677  0.71628  Biso   1.000  Zr
  O17      1.0000 0.50078  0.12909  0.49694  Biso   1.000  O
  O18      1.0000 0.50066  0.11798  0.99191  Biso   1.000  O
  O19      1.0000 1.00000  0.37517  0.44100  Biso   1.000  O
  O20      1.0000 0.00279  0.37238  0.95486  Biso   1.000  O
  O21      1.0000 0.74961  0.11799  0.43479  Biso   1.000  O
  O22      1.0000 0.74949  0.12909  0.92977  Biso   1.000  O
  O23      1.0000 0.74961  0.38206  0.99191  Biso   1.000  O
  O24      1.0000 0.74948  0.37096  0.49694  Biso   1.000  O
  Zr13     1.0000 0.62514  0.50286  0.21335  Biso   1.000  Zr
  Zr14     1.0000 0.62514  0.75002  0.71336  Biso   1.000  Zr
  Zr15     1.0000 0.87231  0.75002  0.21336  Biso   1.000  Zr
  Zr16     1.0000 0.87839  0.00328  0.71043  Biso   1.000  Zr
  O25      1.0000 0.50337  0.62825  0.50149  Biso   1.000  O
  O26      1.0000 0.49438  0.61927  0.00098  Biso   1.000  O
  O27      1.0000 0.99309  0.87451  0.43480  Biso   1.000  O
  O28      1.0000 0.00420  0.87438  0.92977  Biso   1.000  O
  O29      1.0000 0.75588  0.61929  0.42572  Biso   1.000  O
  O30      1.0000 0.74690  0.62824  0.92521  Biso   1.000  O
  O31      1.0000 0.75588  0.88077  0.00099  Biso   1.000  O
  O32      1.0000 0.74690  0.87181  0.50150  Biso   1.000  O
  Ti1      1.0000 0.12514  0.25003  0.21336  Biso   1.000  Ti
