data_image0
_cell_length_a       5.10828
_cell_length_b       10.1038
_cell_length_c       10.1038
_cell_angle_alpha    90
_cell_angle_beta     89.9999
_cell_angle_gamma    90

_symmetry_space_group_name_H-M    "P 1"
_symmetry_int_tables_number       1

loop_
  _symmetry_equiv_pos_as_xyz
  'x, y, z'

loop_
  _atom_site_label
  _atom_site_occupancy
  _atom_site_fract_x
  _atom_site_fract_y
  _atom_site_fract_z
  _atom_site_thermal_displace_type
  _atom_site_B_iso_or_equiv
  _atom_site_type_symbol
  Zr1      1.0000 0.25079  0.98749  0.12540  Biso   1.000  Zr
  Zr2      1.0000 0.25079  0.25008  0.38798  Biso   1.000  Zr
  Zr3      1.0000 0.75079  0.25007  0.12540  Biso   1.000  Zr
  Zr4      1.0000 0.74786  0.00333  0.37215  Biso   1.000  Zr
  O1       1.0000 0.99232  0.12773  0.00304  Biso   1.000  O
  O2       1.0000 0.02314  0.12494  0.25053  Biso   1.000  O
  O3       1.0000 0.99232  0.37242  0.24775  Biso   1.000  O
  O4       1.0000 0.02313  0.37521  0.00026  Biso   1.000  O
  O5       1.0000 0.50926  0.12773  0.24775  Biso   1.000  O
  O6       1.0000 0.47845  0.12494  0.00026  Biso   1.000  O
  O7       1.0000 0.50926  0.37242  0.00305  Biso   1.000  O
  O8       1.0000 0.47845  0.37521  0.25053  Biso   1.000  O
  Zr5      1.0000 0.25079  0.99725  0.62540  Biso   1.000  Zr
  Zr6      1.0000 0.25079  0.25008  0.86281  Biso   1.000  Zr
  Zr7      1.0000 0.75079  0.25008  0.62540  Biso   1.000  Zr
  Zr8      1.0000 0.75372  0.00333  0.87865  Biso   1.000  Zr
  O9       1.0000 0.96722  0.12915  0.50104  Biso   1.000  O
  O10      1.0000 0.02934  0.11803  0.74987  Biso   1.000  O
  O11      1.0000 0.96722  0.37100  0.74975  Biso   1.000  O
  O12      1.0000 0.02934  0.38212  0.50092  Biso   1.000  O
  O13      1.0000 0.53437  0.12915  0.74975  Biso   1.000  O
  O14      1.0000 0.47224  0.11803  0.50092  Biso   1.000  O
  O15      1.0000 0.53436  0.37100  0.50104  Biso   1.000  O
  O16      1.0000 0.47224  0.38212  0.74987  Biso   1.000  O
  Zr9      1.0000 0.25079  0.51266  0.12540  Biso   1.000  Zr
  Zr10     1.0000 0.25079  0.75007  0.37823  Biso   1.000  Zr
  Zr11     1.0000 0.75079  0.75007  0.12540  Biso   1.000  Zr
  Zr12     1.0000 0.75373  0.49682  0.37215  Biso   1.000  Zr
  O17      1.0000 0.96720  0.62572  0.00447  Biso   1.000  O
  O18      1.0000 0.02936  0.62560  0.25745  Biso   1.000  O
  O19      1.0000 0.96720  0.87443  0.24632  Biso   1.000  O
  O20      1.0000 0.02936  0.87455  0.99335  Biso   1.000  O
  O21      1.0000 0.53439  0.62572  0.24632  Biso   1.000  O
  O22      1.0000 0.47223  0.62560  0.99335  Biso   1.000  O
  O23      1.0000 0.53438  0.87443  0.00447  Biso   1.000  O
  O24      1.0000 0.47223  0.87455  0.25745  Biso   1.000  O
  Zr13     1.0000 0.25079  0.50290  0.62540  Biso   1.000  Zr
  Zr14     1.0000 0.25079  0.75008  0.87256  Biso   1.000  Zr
  Zr15     1.0000 0.75079  0.75007  0.62539  Biso   1.000  Zr
  Zr16     1.0000 0.74786  0.49682  0.87864  Biso   1.000  Zr
  O25      1.0000 0.96267  0.62830  0.50363  Biso   1.000  O
  O26      1.0000 0.03840  0.61932  0.75615  Biso   1.000  O
  O27      1.0000 0.96267  0.87185  0.74716  Biso   1.000  O
  O28      1.0000 0.03840  0.88083  0.49464  Biso   1.000  O
  O29      1.0000 0.53891  0.62830  0.74716  Biso   1.000  O
  O30      1.0000 0.46318  0.61932  0.49464  Biso   1.000  O
  O31      1.0000 0.53891  0.87185  0.50363  Biso   1.000  O
  O32      1.0000 0.46318  0.88083  0.75615  Biso   1.000  O
  Ti1      1.0000 0.25079  0.25008  0.12540  Biso   1.000  Ti
