data_image0
_cell_length_a       10.0728
_cell_length_b       10.2942
_cell_length_c       10.4818
_cell_angle_alpha    89.9817
_cell_angle_beta     90.0216
_cell_angle_gamma    89.9554

_symmetry_space_group_name_H-M    "P 1"
_symmetry_int_tables_number       1

loop_
  _symmetry_equiv_pos_as_xyz
  'x, y, z'

loop_
  _atom_site_label
  _atom_site_occupancy
  _atom_site_fract_x
  _atom_site_fract_y
  _atom_site_fract_z
  _atom_site_thermal_displace_type
  _atom_site_B_iso_or_equiv
  _atom_site_type_symbol
  Ti1      1.0000 0.13061  0.02439  0.17330  Biso   1.000  Ti
  Zr1      1.0000 0.13973  0.22914  0.41922  Biso   1.000  Zr
  Zr2      1.0000 0.35953  0.26863  0.17100  Biso   1.000  Zr
  Zr3      1.0000 0.36141  0.47952  0.42087  Biso   1.000  Zr
  Zr4      1.0000 0.63888  0.02126  0.07831  Biso   1.000  Zr
  Zr5      1.0000 0.63847  0.22887  0.32901  Biso   1.000  Zr
  Zr6      1.0000 0.86181  0.27034  0.08035  Biso   1.000  Zr
  Zr7      1.0000 0.86119  0.47923  0.32924  Biso   1.000  Zr
  O1       1.0000 0.03590  0.15893  0.08886  Biso   1.000  O
  O2       1.0000 0.03720  0.08173  0.32791  Biso   1.000  O
  O3       1.0000 0.46612  0.41631  0.08539  Biso   1.000  O
  O4       1.0000 0.46562  0.33198  0.33557  Biso   1.000  O
  O5       1.0000 0.27195  0.12288  0.29174  Biso   1.000  O
  O6       1.0000 0.27275  0.12273  0.04800  Biso   1.000  O
  O7       1.0000 0.22439  0.37488  0.29470  Biso   1.000  O
  O8       1.0000 0.22403  0.37485  0.04504  Biso   1.000  O
  O9       1.0000 0.53357  0.16661  0.16523  Biso   1.000  O
  O10      1.0000 0.53271  0.08324  0.41441  Biso   1.000  O
  O11      1.0000 0.96805  0.41479  0.16617  Biso   1.000  O
  O12      1.0000 0.96657  0.33230  0.41449  Biso   1.000  O
  O13      1.0000 0.77663  0.12355  0.45419  Biso   1.000  O
  O14      1.0000 0.77666  0.12554  0.20485  Biso   1.000  O
  O15      1.0000 0.72423  0.37395  0.45588  Biso   1.000  O
  O16      1.0000 0.72463  0.37552  0.20552  Biso   1.000  O
  Zr8      1.0000 0.13883  0.02108  0.67065  Biso   1.000  Zr
  Zr9      1.0000 0.14040  0.22639  0.92278  Biso   1.000  Zr
  Zr10     1.0000 0.36117  0.27137  0.67097  Biso   1.000  Zr
  Zr11     1.0000 0.36112  0.47881  0.92138  Biso   1.000  Zr
  Zr12     1.0000 0.63781  0.02052  0.57806  Biso   1.000  Zr
  Zr13     1.0000 0.63881  0.22899  0.82919  Biso   1.000  Zr
  Zr14     1.0000 0.86133  0.27050  0.57887  Biso   1.000  Zr
  Zr15     1.0000 0.86231  0.47828  0.83039  Biso   1.000  Zr
  O17      1.0000 0.03228  0.16344  0.58043  Biso   1.000  O
  O18      1.0000 0.03249  0.08476  0.83316  Biso   1.000  O
  O19      1.0000 0.46646  0.41743  0.58514  Biso   1.000  O
  O20      1.0000 0.46694  0.33368  0.83468  Biso   1.000  O
  O21      1.0000 0.27615  0.12401  0.79524  Biso   1.000  O
  O22      1.0000 0.27601  0.12648  0.54392  Biso   1.000  O
  O23      1.0000 0.22398  0.37343  0.79533  Biso   1.000  O
  O24      1.0000 0.22381  0.37579  0.54429  Biso   1.000  O
  O25      1.0000 0.53333  0.16691  0.66515  Biso   1.000  O
  O26      1.0000 0.53233  0.08433  0.91624  Biso   1.000  O
  O27      1.0000 0.96774  0.41457  0.66689  Biso   1.000  O
  O28      1.0000 0.96830  0.33183  0.91867  Biso   1.000  O
  O29      1.0000 0.77647  0.12417  0.95522  Biso   1.000  O
  O30      1.0000 0.77561  0.12553  0.70466  Biso   1.000  O
  O31      1.0000 0.72520  0.37396  0.95639  Biso   1.000  O
  O32      1.0000 0.72461  0.37579  0.70603  Biso   1.000  O
  Zr16     1.0000 0.13944  0.52108  0.17116  Biso   1.000  Zr
  Zr17     1.0000 0.13907  0.73026  0.41993  Biso   1.000  Zr
  Zr18     1.0000 0.35740  0.77483  0.17105  Biso   1.000  Zr
  Zr19     1.0000 0.35867  0.97997  0.41865  Biso   1.000  Zr
  Zr20     1.0000 0.63769  0.52180  0.07990  Biso   1.000  Zr
  Zr21     1.0000 0.63787  0.72930  0.32828  Biso   1.000  Zr
  Zr22     1.0000 0.86332  0.77164  0.07866  Biso   1.000  Zr
  Zr23     1.0000 0.86322  0.97939  0.32829  Biso   1.000  Zr
  O33      1.0000 0.03329  0.66642  0.08514  Biso   1.000  O
  O34      1.0000 0.03332  0.58348  0.33443  Biso   1.000  O
  O35      1.0000 0.46781  0.91578  0.08419  Biso   1.000  O
  O36      1.0000 0.46544  0.83450  0.33413  Biso   1.000  O
  O37      1.0000 0.27571  0.62554  0.29458  Biso   1.000  O
  O38      1.0000 0.27587  0.62679  0.04468  Biso   1.000  O
  O39      1.0000 0.22046  0.87802  0.29261  Biso   1.000  O
  O40      1.0000 0.22036  0.87943  0.04711  Biso   1.000  O
  O41      1.0000 0.53239  0.66807  0.16516  Biso   1.000  O
  O42      1.0000 0.53375  0.58340  0.41508  Biso   1.000  O
  O43      1.0000 0.97679  0.91955  0.16416  Biso   1.000  O
  O44      1.0000 0.96634  0.83361  0.41476  Biso   1.000  O
  O45      1.0000 0.77574  0.62416  0.45555  Biso   1.000  O
  O46      1.0000 0.77591  0.62586  0.20562  Biso   1.000  O
  O47      1.0000 0.72397  0.87428  0.45448  Biso   1.000  O
  O48      1.0000 0.72957  0.87627  0.20464  Biso   1.000  O
  Zr24     1.0000 0.13907  0.52134  0.67127  Biso   1.000  Zr
  Zr25     1.0000 0.13967  0.73045  0.92169  Biso   1.000  Zr
  Zr26     1.0000 0.36158  0.77157  0.67086  Biso   1.000  Zr
  Zr27     1.0000 0.35923  0.97893  0.92333  Biso   1.000  Zr
  Zr28     1.0000 0.63918  0.52104  0.57981  Biso   1.000  Zr
  Zr29     1.0000 0.63871  0.72927  0.82972  Biso   1.000  Zr
  Zr30     1.0000 0.86076  0.77063  0.57894  Biso   1.000  Zr
  Zr31     1.0000 0.86107  0.97905  0.82827  Biso   1.000  Zr
  O49      1.0000 0.03305  0.66610  0.58401  Biso   1.000  O
  O50      1.0000 0.03373  0.58356  0.83544  Biso   1.000  O
  O51      1.0000 0.46577  0.91702  0.58385  Biso   1.000  O
  O52      1.0000 0.46624  0.83346  0.83526  Biso   1.000  O
  O53      1.0000 0.27611  0.62422  0.79473  Biso   1.000  O
  O54      1.0000 0.27609  0.62633  0.54450  Biso   1.000  O
  O55      1.0000 0.22391  0.87440  0.79501  Biso   1.000  O
  O56      1.0000 0.22345  0.87626  0.54411  Biso   1.000  O
  O57      1.0000 0.53389  0.66727  0.66522  Biso   1.000  O
  O58      1.0000 0.53382  0.58270  0.91512  Biso   1.000  O
  O59      1.0000 0.96708  0.91582  0.66535  Biso   1.000  O
  O60      1.0000 0.96661  0.83349  0.91527  Biso   1.000  O
  O61      1.0000 0.77663  0.62496  0.95659  Biso   1.000  O
  O62      1.0000 0.77653  0.62528  0.70629  Biso   1.000  O
  O63      1.0000 0.72449  0.87460  0.95514  Biso   1.000  O
  O64      1.0000 0.72384  0.87559  0.70497  Biso   1.000  O
