data_image0
_cell_length_a       10.0883
_cell_length_b       10.1976
_cell_length_c       10.0883
_cell_angle_alpha    90
_cell_angle_beta     90
_cell_angle_gamma    90

_symmetry_space_group_name_H-M    "P 1"
_symmetry_int_tables_number       1

loop_
  _symmetry_equiv_pos_as_xyz
  'x, y, z'

loop_
  _atom_site_label
  _atom_site_occupancy
  _atom_site_fract_x
  _atom_site_fract_y
  _atom_site_fract_z
  _atom_site_thermal_displace_type
  _atom_site_B_iso_or_equiv
  _atom_site_type_symbol
  Zr1      1.0000 0.12540  0.98847  0.12540  Biso   1.000  Zr
  Zr2      1.0000 0.12540  0.25007  0.38741  Biso   1.000  Zr
  Zr3      1.0000 0.38741  0.25008  0.12540  Biso   1.000  Zr
  Zr4      1.0000 0.37379  0.00155  0.37379  Biso   1.000  Zr
  O1       1.0000 0.99964  0.14118  0.99964  Biso   1.000  O
  O2       1.0000 0.00449  0.11445  0.24630  Biso   1.000  O
  O3       1.0000 0.99964  0.35897  0.25115  Biso   1.000  O
  O4       1.0000 0.00449  0.38570  0.00449  Biso   1.000  O
  O5       1.0000 0.25115  0.14118  0.25115  Biso   1.000  O
  O6       1.0000 0.24630  0.11445  0.00449  Biso   1.000  O
  O7       1.0000 0.25115  0.35897  0.99964  Biso   1.000  O
  O8       1.0000 0.24630  0.38570  0.24630  Biso   1.000  O
  Zr5      1.0000 0.12540  0.99692  0.62540  Biso   1.000  Zr
  Zr6      1.0000 0.12540  0.25008  0.86338  Biso   1.000  Zr
  Zr7      1.0000 0.37784  0.25008  0.62540  Biso   1.000  Zr
  Zr8      1.0000 0.37278  0.00363  0.87801  Biso   1.000  Zr
  O9       1.0000 0.99551  0.14154  0.50160  Biso   1.000  O
  O10      1.0000 0.00210  0.10566  0.74930  Biso   1.000  O
  O11      1.0000 0.99551  0.35861  0.74919  Biso   1.000  O
  O12      1.0000 0.00211  0.39449  0.50149  Biso   1.000  O
  O13      1.0000 0.25528  0.14154  0.74919  Biso   1.000  O
  O14      1.0000 0.24869  0.10566  0.50149  Biso   1.000  O
  O15      1.0000 0.25528  0.35861  0.50160  Biso   1.000  O
  O16      1.0000 0.24869  0.39449  0.74930  Biso   1.000  O
  Zr9      1.0000 0.12540  0.51168  0.12540  Biso   1.000  Zr
  Zr10     1.0000 0.12540  0.75008  0.37714  Biso   1.000  Zr
  Zr11     1.0000 0.37714  0.75007  0.12540  Biso   1.000  Zr
  Zr12     1.0000 0.37278  0.49652  0.37278  Biso   1.000  Zr
  O17      1.0000 0.00031  0.64125  0.00031  Biso   1.000  O
  O18      1.0000 0.99807  0.61233  0.25273  Biso   1.000  O
  O19      1.0000 0.00031  0.85890  0.25048  Biso   1.000  O
  O20      1.0000 0.99806  0.88783  0.99807  Biso   1.000  O
  O21      1.0000 0.25048  0.64125  0.25048  Biso   1.000  O
  O22      1.0000 0.25273  0.61233  0.99806  Biso   1.000  O
  O23      1.0000 0.25048  0.85890  0.00031  Biso   1.000  O
  O24      1.0000 0.25273  0.88783  0.25273  Biso   1.000  O
  Zr13     1.0000 0.12540  0.50324  0.62540  Biso   1.000  Zr
  Zr14     1.0000 0.12540  0.75008  0.87366  Biso   1.000  Zr
  Zr15     1.0000 0.37634  0.75008  0.62540  Biso   1.000  Zr
  Zr16     1.0000 0.37379  0.49860  0.87700  Biso   1.000  Zr
  O25      1.0000 0.00021  0.64438  0.50222  Biso   1.000  O
  O26      1.0000 0.00171  0.60600  0.75251  Biso   1.000  O
  O27      1.0000 0.00021  0.85577  0.74857  Biso   1.000  O
  O28      1.0000 0.00171  0.89416  0.49828  Biso   1.000  O
  O29      1.0000 0.25058  0.64438  0.74857  Biso   1.000  O
  O30      1.0000 0.24908  0.60599  0.49828  Biso   1.000  O
  O31      1.0000 0.25058  0.85577  0.50222  Biso   1.000  O
  O32      1.0000 0.24908  0.89416  0.75251  Biso   1.000  O
  Zr17     1.0000 0.62540  0.99692  0.12540  Biso   1.000  Zr
  Zr18     1.0000 0.62540  0.25007  0.37784  Biso   1.000  Zr
  Zr19     1.0000 0.86338  0.25008  0.12540  Biso   1.000  Zr
  Zr20     1.0000 0.87801  0.00363  0.37278  Biso   1.000  Zr
  O33      1.0000 0.50160  0.14154  0.99551  Biso   1.000  O
  O34      1.0000 0.50149  0.10566  0.24869  Biso   1.000  O
  O35      1.0000 0.50161  0.35861  0.25528  Biso   1.000  O
  O36      1.0000 0.50149  0.39449  0.00211  Biso   1.000  O
  O37      1.0000 0.74919  0.14154  0.25528  Biso   1.000  O
  O38      1.0000 0.74930  0.10566  0.00211  Biso   1.000  O
  O39      1.0000 0.74919  0.35861  0.99551  Biso   1.000  O
  O40      1.0000 0.74930  0.39449  0.24869  Biso   1.000  O
  Zr21     1.0000 0.62540  0.99864  0.62540  Biso   1.000  Zr
  Zr22     1.0000 0.62540  0.25008  0.87295  Biso   1.000  Zr
  Zr23     1.0000 0.87295  0.25008  0.62540  Biso   1.000  Zr
  Zr24     1.0000 0.87700  0.00155  0.87700  Biso   1.000  Zr
  O41      1.0000 0.49827  0.14550  0.49827  Biso   1.000  O
  O42      1.0000 0.50197  0.10433  0.74882  Biso   1.000  O
  O43      1.0000 0.49827  0.35465  0.75252  Biso   1.000  O
  O44      1.0000 0.50197  0.39582  0.50197  Biso   1.000  O
  O45      1.0000 0.75252  0.14550  0.75252  Biso   1.000  O
  O46      1.0000 0.74882  0.10433  0.50197  Biso   1.000  O
  O47      1.0000 0.75252  0.35465  0.49827  Biso   1.000  O
  O48      1.0000 0.74882  0.39582  0.74882  Biso   1.000  O
  Zr25     1.0000 0.62540  0.50324  0.12540  Biso   1.000  Zr
  Zr26     1.0000 0.62540  0.75008  0.37634  Biso   1.000  Zr
  Zr27     1.0000 0.87366  0.75007  0.12540  Biso   1.000  Zr
  Zr28     1.0000 0.87700  0.49860  0.37379  Biso   1.000  Zr
  O49      1.0000 0.50222  0.64438  0.00021  Biso   1.000  O
  O50      1.0000 0.49828  0.60599  0.24908  Biso   1.000  O
  O51      1.0000 0.50222  0.85577  0.25058  Biso   1.000  O
  O52      1.0000 0.49828  0.89416  0.00171  Biso   1.000  O
  O53      1.0000 0.74857  0.64438  0.25058  Biso   1.000  O
  O54      1.0000 0.75251  0.60600  0.00171  Biso   1.000  O
  O55      1.0000 0.74857  0.85577  0.00021  Biso   1.000  O
  O56      1.0000 0.75251  0.89416  0.24908  Biso   1.000  O
  Zr29     1.0000 0.62540  0.50151  0.62540  Biso   1.000  Zr
  Zr30     1.0000 0.62540  0.75008  0.87446  Biso   1.000  Zr
  Zr31     1.0000 0.87446  0.75007  0.62540  Biso   1.000  Zr
  Zr32     1.0000 0.87801  0.49652  0.87801  Biso   1.000  Zr
  O57      1.0000 0.49946  0.64540  0.49945  Biso   1.000  O
  O58      1.0000 0.50019  0.60413  0.75061  Biso   1.000  O
  O59      1.0000 0.49946  0.85475  0.75134  Biso   1.000  O
  O60      1.0000 0.50019  0.89602  0.50019  Biso   1.000  O
  O61      1.0000 0.75134  0.64540  0.75134  Biso   1.000  O
  O62      1.0000 0.75061  0.60413  0.50019  Biso   1.000  O
  O63      1.0000 0.75134  0.85475  0.49946  Biso   1.000  O
  O64      1.0000 0.75061  0.89602  0.75060  Biso   1.000  O
  Ti1      1.0000 0.12540  0.25007  0.12540  Biso   1.000  Ti
