data_image0
_cell_length_a       10.1333
_cell_length_b       10.3202
_cell_length_c       5.22967
_cell_angle_alpha    90.1031
_cell_angle_beta     80.4719
_cell_angle_gamma    89.8603

_symmetry_space_group_name_H-M    "P 1"
_symmetry_int_tables_number       1

loop_
  _symmetry_equiv_pos_as_xyz
  'x, y, z'

loop_
  _atom_site_label
  _atom_site_occupancy
  _atom_site_fract_x
  _atom_site_fract_y
  _atom_site_fract_z
  _atom_site_thermal_displace_type
  _atom_site_B_iso_or_equiv
  _atom_site_type_symbol
  Ti1      1.0000 0.13115  0.02440  0.29112  Biso   1.000  Ti
  Zr1      1.0000 0.14110  0.22606  0.78521  Biso   1.000  Zr
  Zr2      1.0000 0.35936  0.26923  0.20796  Biso   1.000  Zr
  Zr3      1.0000 0.36113  0.47904  0.70985  Biso   1.000  Zr
  O1       1.0000 0.03805  0.15869  0.16073  Biso   1.000  O
  O2       1.0000 0.03898  0.07894  0.64443  Biso   1.000  O
  O3       1.0000 0.46306  0.42080  0.33631  Biso   1.000  O
  O4       1.0000 0.46347  0.32895  0.83654  Biso   1.000  O
  O5       1.0000 0.27124  0.12448  0.46980  Biso   1.000  O
  O6       1.0000 0.27534  0.12227  0.97883  Biso   1.000  O
  O7       1.0000 0.22288  0.37914  0.01775  Biso   1.000  O
  O8       1.0000 0.22455  0.36923  0.51850  Biso   1.000  O
  Zr4      1.0000 0.14013  0.52167  0.29121  Biso   1.000  Zr
  Zr5      1.0000 0.13971  0.73077  0.79129  Biso   1.000  Zr
  Zr6      1.0000 0.35736  0.77541  0.21233  Biso   1.000  Zr
  Zr7      1.0000 0.35715  0.97985  0.70938  Biso   1.000  Zr
  O9       1.0000 0.03579  0.66954  0.16388  Biso   1.000  O
  O10      1.0000 0.03684  0.57970  0.66444  Biso   1.000  O
  O11      1.0000 0.46451  0.92030  0.33914  Biso   1.000  O
  O12      1.0000 0.46031  0.82997  0.83771  Biso   1.000  O
  O13      1.0000 0.27642  0.62969  0.48253  Biso   1.000  O
  O14      1.0000 0.27633  0.62272  0.98263  Biso   1.000  O
  O15      1.0000 0.21811  0.88681  0.02996  Biso   1.000  O
  O16      1.0000 0.22111  0.87244  0.52049  Biso   1.000  O
  Zr8      1.0000 0.63831  0.02130  0.29112  Biso   1.000  Zr
  Zr9      1.0000 0.63901  0.22847  0.79028  Biso   1.000  Zr
  Zr10     1.0000 0.86170  0.27034  0.21068  Biso   1.000  Zr
  Zr11     1.0000 0.86201  0.47839  0.71118  Biso   1.000  Zr
  O17      1.0000 0.53705  0.17128  0.16292  Biso   1.000  O
  O18      1.0000 0.53536  0.07989  0.66277  Biso   1.000  O
  O19      1.0000 0.96677  0.41625  0.34175  Biso   1.000  O
  O20      1.0000 0.96537  0.32746  0.84245  Biso   1.000  O
  O21      1.0000 0.77722  0.12853  0.48077  Biso   1.000  O
  O22      1.0000 0.77805  0.12064  0.98041  Biso   1.000  O
  O23      1.0000 0.72516  0.37886  0.02001  Biso   1.000  O
  O24      1.0000 0.72470  0.37074  0.51873  Biso   1.000  O
  Zr12     1.0000 0.63767  0.52235  0.29124  Biso   1.000  Zr
  Zr13     1.0000 0.63775  0.72997  0.79340  Biso   1.000  Zr
  Zr14     1.0000 0.86243  0.77173  0.21000  Biso   1.000  Zr
  Zr15     1.0000 0.86358  0.97916  0.70713  Biso   1.000  Zr
  O25      1.0000 0.53522  0.67231  0.16400  Biso   1.000  O
  O26      1.0000 0.53660  0.57923  0.66484  Biso   1.000  O
  O27      1.0000 0.97353  0.92156  0.33321  Biso   1.000  O
  O28      1.0000 0.96338  0.82941  0.83792  Biso   1.000  O
  O29      1.0000 0.77676  0.62913  0.48334  Biso   1.000  O
  O30      1.0000 0.77652  0.62168  0.98346  Biso   1.000  O
  O31      1.0000 0.72388  0.87938  0.01883  Biso   1.000  O
  O32      1.0000 0.72790  0.87185  0.51755  Biso   1.000  O
