data_image0
_cell_length_a       10.1801
_cell_length_b       5.15164
_cell_length_c       10.6102
_cell_angle_alpha    90.184
_cell_angle_beta     90.6499
_cell_angle_gamma    89.6613

_symmetry_space_group_name_H-M    "P 1"
_symmetry_int_tables_number       1

loop_
  _symmetry_equiv_pos_as_xyz
  'x, y, z'

loop_
  _atom_site_label
  _atom_site_occupancy
  _atom_site_fract_x
  _atom_site_fract_y
  _atom_site_fract_z
  _atom_site_thermal_displace_type
  _atom_site_B_iso_or_equiv
  _atom_site_type_symbol
  Zr1      1.0000 0.14015  0.04200  0.17477  Biso   1.000  Zr
  Zr2      1.0000 0.13575  0.45728  0.42458  Biso   1.000  Zr
  Zr3      1.0000 0.35480  0.53171  0.17845  Biso   1.000  Zr
  Zr4      1.0000 0.36168  0.95413  0.42551  Biso   1.000  Zr
  Zr5      1.0000 0.63942  0.01872  0.07910  Biso   1.000  Zr
  Zr6      1.0000 0.63447  0.45306  0.33311  Biso   1.000  Zr
  Zr7      1.0000 0.87931  0.55016  0.07565  Biso   1.000  Zr
  Zr8      1.0000 0.86016  0.95987  0.32669  Biso   1.000  Zr
  O1       1.0000 0.03574  0.30728  0.07353  Biso   1.000  O
  O2       1.0000 0.02439  0.19389  0.32613  Biso   1.000  O
  O3       1.0000 0.47679  0.77187  0.06939  Biso   1.000  O
  O4       1.0000 0.47124  0.69290  0.32163  Biso   1.000  O
  O5       1.0000 0.26993  0.24787  0.30033  Biso   1.000  O
  O6       1.0000 0.27563  0.24530  0.04825  Biso   1.000  O
  O7       1.0000 0.22379  0.74650  0.30020  Biso   1.000  O
  O8       1.0000 0.22881  0.75190  0.04776  Biso   1.000  O
  O9       1.0000 0.51444  0.27691  0.18813  Biso   1.000  O
  O10      1.0000 0.52406  0.18903  0.43232  Biso   1.000  O
  O11      1.0000 0.97472  0.82570  0.17727  Biso   1.000  O
  O12      1.0000 0.97015  0.69182  0.42461  Biso   1.000  O
  O13      1.0000 0.77429  0.24697  0.45337  Biso   1.000  O
  O14      1.0000 0.76077  0.26518  0.19686  Biso   1.000  O
  O15      1.0000 0.72602  0.75121  0.45494  Biso   1.000  O
  O16      1.0000 0.72815  0.74156  0.20396  Biso   1.000  O
  Zr9      1.0000 0.13782  0.04366  0.67329  Biso   1.000  Zr
  Zr10     1.0000 0.14387  0.45784  0.92142  Biso   1.000  Zr
  Zr11     1.0000 0.36238  0.54365  0.67321  Biso   1.000  Zr
  Zr12     1.0000 0.36486  0.96137  0.92350  Biso   1.000  Zr
  Zr13     1.0000 0.63862  0.04035  0.57716  Biso   1.000  Zr
  Zr14     1.0000 0.64116  0.46198  0.81755  Biso   1.000  Zr
  Zr15     1.0000 0.86251  0.54708  0.57733  Biso   1.000  Zr
  Zr16     1.0000 0.86340  0.96424  0.82921  Biso   1.000  Zr
  O17      1.0000 0.02910  0.31977  0.57802  Biso   1.000  O
  O18      1.0000 0.02993  0.18855  0.82705  Biso   1.000  O
  O19      1.0000 0.47476  0.79829  0.57203  Biso   1.000  O
  O20      1.0000 0.47677  0.70722  0.81929  Biso   1.000  O
  O21      1.0000 0.27537  0.24933  0.79767  Biso   1.000  O
  O22      1.0000 0.27236  0.24966  0.54817  Biso   1.000  O
  O23      1.0000 0.22932  0.75018  0.79769  Biso   1.000  O
  O24      1.0000 0.22634  0.75178  0.54885  Biso   1.000  O
  O25      1.0000 0.52341  0.29610  0.67934  Biso   1.000  O
  O26      1.0000 0.52165  0.22246  0.94216  Biso   1.000  O
  O27      1.0000 0.97138  0.82052  0.67407  Biso   1.000  O
  O28      1.0000 0.97929  0.69058  0.92035  Biso   1.000  O
  O29      1.0000 0.76452  0.26148  0.95637  Biso   1.000  O
  O30      1.0000 0.77679  0.25069  0.70058  Biso   1.000  O
  O31      1.0000 0.73092  0.74903  0.95345  Biso   1.000  O
  O32      1.0000 0.72952  0.75428  0.70316  Biso   1.000  O
  Ti1      1.0000 0.62543  0.49796  0.07039  Biso   1.000  Ti
