data_image0
_cell_length_a       10.0907
_cell_length_b       10.429
_cell_length_c       10.1243
_cell_angle_alpha    89.8373
_cell_angle_beta     90.218
_cell_angle_gamma    89.5923

_symmetry_space_group_name_H-M    "P 1"
_symmetry_int_tables_number       1

loop_
  _symmetry_equiv_pos_as_xyz
  'x, y, z'

loop_
  _atom_site_label
  _atom_site_occupancy
  _atom_site_fract_x
  _atom_site_fract_y
  _atom_site_fract_z
  _atom_site_thermal_displace_type
  _atom_site_B_iso_or_equiv
  _atom_site_type_symbol
  Zr1      1.0000 0.12536  0.00745  0.12077  Biso   1.000  Zr
  Zr2      1.0000 0.12857  0.23469  0.37914  Biso   1.000  Zr
  Zr3      1.0000 0.38100  0.26901  0.11618  Biso   1.000  Zr
  Zr4      1.0000 0.36734  0.48553  0.37188  Biso   1.000  Zr
  O1       1.0000 0.00314  0.15571  0.22266  Biso   1.000  O
  O2       1.0000 0.03174  0.06688  0.45608  Biso   1.000  O
  O3       1.0000 0.47172  0.43465  0.19681  Biso   1.000  O
  O4       1.0000 0.46844  0.32041  0.44649  Biso   1.000  O
  O5       1.0000 0.25137  0.12493  0.23877  Biso   1.000  O
  O6       1.0000 0.27000  0.13403  0.49426  Biso   1.000  O
  O7       1.0000 0.23286  0.38626  0.49436  Biso   1.000  O
  O8       1.0000 0.23692  0.36782  0.24163  Biso   1.000  O
  Zr5      1.0000 0.13293  0.01142  0.62419  Biso   1.000  Zr
  Zr6      1.0000 0.13435  0.23991  0.85422  Biso   1.000  Zr
  Zr7      1.0000 0.37109  0.26561  0.61870  Biso   1.000  Zr
  Zr8      1.0000 0.36850  0.48722  0.87110  Biso   1.000  Zr
  O9       1.0000 0.02769  0.17368  0.69457  Biso   1.000  O
  O10      1.0000 0.02754  0.07188  0.94950  Biso   1.000  O
  O11      1.0000 0.47057  0.43297  0.69429  Biso   1.000  O
  O12      1.0000 0.47239  0.32358  0.94161  Biso   1.000  O
  O13      1.0000 0.26844  0.11585  0.74320  Biso   1.000  O
  O14      1.0000 0.25663  0.14538  0.99614  Biso   1.000  O
  O15      1.0000 0.23371  0.38786  0.99299  Biso   1.000  O
  O16      1.0000 0.24026  0.36846  0.74081  Biso   1.000  O
  Zr9      1.0000 0.13869  0.52371  0.12311  Biso   1.000  Zr
  Zr10     1.0000 0.13362  0.73593  0.37455  Biso   1.000  Zr
  Zr11     1.0000 0.36769  0.76716  0.12295  Biso   1.000  Zr
  Zr12     1.0000 0.36315  0.98954  0.36989  Biso   1.000  Zr
  O17      1.0000 0.02846  0.67536  0.20477  Biso   1.000  O
  O18      1.0000 0.03275  0.56923  0.45035  Biso   1.000  O
  O19      1.0000 0.46147  0.93500  0.19447  Biso   1.000  O
  O20      1.0000 0.46747  0.82290  0.44526  Biso   1.000  O
  O21      1.0000 0.27340  0.62107  0.24705  Biso   1.000  O
  O22      1.0000 0.26846  0.63545  0.49668  Biso   1.000  O
  O23      1.0000 0.23379  0.88588  0.49525  Biso   1.000  O
  O24      1.0000 0.23152  0.86609  0.24694  Biso   1.000  O
  Zr13     1.0000 0.13465  0.51543  0.62333  Biso   1.000  Zr
  Zr14     1.0000 0.13290  0.73629  0.87168  Biso   1.000  Zr
  Zr15     1.0000 0.36847  0.76672  0.62174  Biso   1.000  Zr
  Zr16     1.0000 0.36509  0.98688  0.87418  Biso   1.000  Zr
  O25      1.0000 0.03306  0.67853  0.69770  Biso   1.000  O
  O26      1.0000 0.03276  0.57154  0.94911  Biso   1.000  O
  O27      1.0000 0.46752  0.93298  0.69918  Biso   1.000  O
  O28      1.0000 0.46943  0.82199  0.94672  Biso   1.000  O
  O29      1.0000 0.26949  0.61673  0.74477  Biso   1.000  O
  O30      1.0000 0.27046  0.63836  0.99411  Biso   1.000  O
  O31      1.0000 0.23310  0.88509  0.99438  Biso   1.000  O
  O32      1.0000 0.23413  0.86481  0.74590  Biso   1.000  O
  Zr17     1.0000 0.63050  0.01135  0.12385  Biso   1.000  Zr
  Zr18     1.0000 0.63255  0.23270  0.37624  Biso   1.000  Zr
  Zr19     1.0000 0.85287  0.26025  0.12838  Biso   1.000  Zr
  Zr20     1.0000 0.87014  0.48221  0.37434  Biso   1.000  Zr
  O33      1.0000 0.53162  0.17685  0.20464  Biso   1.000  O
  O34      1.0000 0.53004  0.06911  0.44966  Biso   1.000  O
  O35      1.0000 0.98218  0.41054  0.20620  Biso   1.000  O
  O36      1.0000 0.96722  0.32205  0.45869  Biso   1.000  O
  O37      1.0000 0.75768  0.11026  0.24940  Biso   1.000  O
  O38      1.0000 0.76800  0.13489  0.49787  Biso   1.000  O
  O39      1.0000 0.73294  0.38550  0.49867  Biso   1.000  O
  O40      1.0000 0.73087  0.36728  0.25074  Biso   1.000  O
  Zr21     1.0000 0.63333  0.01286  0.62273  Biso   1.000  Zr
  Zr22     1.0000 0.63504  0.23350  0.87148  Biso   1.000  Zr
  Zr23     1.0000 0.86370  0.26429  0.62527  Biso   1.000  Zr
  Zr24     1.0000 0.86971  0.48264  0.87777  Biso   1.000  Zr
  O41      1.0000 0.53550  0.18212  0.69599  Biso   1.000  O
  O42      1.0000 0.52565  0.07493  0.95141  Biso   1.000  O
  O43      1.0000 0.97775  0.42242  0.71153  Biso   1.000  O
  O44      1.0000 0.97569  0.31663  0.96543  Biso   1.000  O
  O45      1.0000 0.76765  0.11317  0.74736  Biso   1.000  O
  O46      1.0000 0.76447  0.13076  0.99721  Biso   1.000  O
  O47      1.0000 0.73153  0.38284  0.99770  Biso   1.000  O
  O48      1.0000 0.73530  0.36576  0.74916  Biso   1.000  O
  Zr25     1.0000 0.63458  0.51750  0.12330  Biso   1.000  Zr
  Zr26     1.0000 0.63325  0.73551  0.37456  Biso   1.000  Zr
  Zr27     1.0000 0.86430  0.76186  0.12587  Biso   1.000  Zr
  Zr28     1.0000 0.87085  0.98661  0.37156  Biso   1.000  Zr
  O49      1.0000 0.53627  0.68493  0.19456  Biso   1.000  O
  O50      1.0000 0.53255  0.57036  0.44598  Biso   1.000  O
  O51      1.0000 0.96432  0.91936  0.20151  Biso   1.000  O
  O52      1.0000 0.96965  0.81970  0.45133  Biso   1.000  O
  O53      1.0000 0.77009  0.61294  0.24675  Biso   1.000  O
  O54      1.0000 0.76906  0.63458  0.49650  Biso   1.000  O
  O55      1.0000 0.73430  0.88577  0.49544  Biso   1.000  O
  O56      1.0000 0.72875  0.86340  0.24626  Biso   1.000  O
  Zr29     1.0000 0.63521  0.51637  0.62362  Biso   1.000  Zr
  Zr30     1.0000 0.63412  0.73500  0.87313  Biso   1.000  Zr
  Zr31     1.0000 0.86713  0.76441  0.62353  Biso   1.000  Zr
  Zr32     1.0000 0.86762  0.98283  0.87500  Biso   1.000  Zr
  O57      1.0000 0.53580  0.68377  0.69480  Biso   1.000  O
  O58      1.0000 0.53397  0.57078  0.94542  Biso   1.000  O
  O59      1.0000 0.97058  0.92578  0.70333  Biso   1.000  O
  O60      1.0000 0.97023  0.81919  0.95336  Biso   1.000  O
  O61      1.0000 0.77152  0.61320  0.74768  Biso   1.000  O
  O62      1.0000 0.76930  0.63269  0.99605  Biso   1.000  O
  O63      1.0000 0.73156  0.88259  0.99623  Biso   1.000  O
  O64      1.0000 0.73272  0.86404  0.74588  Biso   1.000  O
  Ti1      1.0000 0.12050  0.26624  0.11233  Biso   1.000  Ti
