data_image0
_cell_length_a       10.1484
_cell_length_b       10.2825
_cell_length_c       10.4644
_cell_angle_alpha    90.0081
_cell_angle_beta     80.3407
_cell_angle_gamma    90.0315

_symmetry_space_group_name_H-M    "P 1"
_symmetry_int_tables_number       1

loop_
  _symmetry_equiv_pos_as_xyz
  'x, y, z'

loop_
  _atom_site_label
  _atom_site_occupancy
  _atom_site_fract_x
  _atom_site_fract_y
  _atom_site_fract_z
  _atom_site_thermal_displace_type
  _atom_site_B_iso_or_equiv
  _atom_site_type_symbol
  Tl1      1.0000 0.13556  0.01599  0.14452  Biso   1.000  Tl
  Hf1      1.0000 0.13922  0.22841  0.39599  Biso   1.000  Hf
  Hf2      1.0000 0.35921  0.26878  0.10406  Biso   1.000  Hf
  Hf3      1.0000 0.35976  0.47784  0.35311  Biso   1.000  Hf
  O1       1.0000 0.03645  0.18104  0.07749  Biso   1.000  O
  O2       1.0000 0.02883  0.08222  0.34398  Biso   1.000  O
  O3       1.0000 0.46471  0.41613  0.17088  Biso   1.000  O
  O4       1.0000 0.46456  0.33191  0.42070  Biso   1.000  O
  O5       1.0000 0.28280  0.13254  0.24628  Biso   1.000  O
  O6       1.0000 0.27585  0.12084  0.49175  Biso   1.000  O
  O7       1.0000 0.22477  0.38033  0.00844  Biso   1.000  O
  O8       1.0000 0.22170  0.37105  0.25869  Biso   1.000  O
  Hf4      1.0000 0.13929  0.02128  0.64547  Biso   1.000  Hf
  Hf5      1.0000 0.13958  0.22929  0.89498  Biso   1.000  Hf
  Hf6      1.0000 0.36057  0.27105  0.60390  Biso   1.000  Hf
  Hf7      1.0000 0.36162  0.47849  0.85436  Biso   1.000  Hf
  O9       1.0000 0.03606  0.17157  0.58325  Biso   1.000  O
  O10      1.0000 0.03600  0.08055  0.83044  Biso   1.000  O
  O11      1.0000 0.46546  0.41746  0.67062  Biso   1.000  O
  O12      1.0000 0.46720  0.33387  0.92083  Biso   1.000  O
  O13      1.0000 0.27625  0.12863  0.73842  Biso   1.000  O
  O14      1.0000 0.28451  0.12713  0.98136  Biso   1.000  O
  O15      1.0000 0.22368  0.37922  0.50929  Biso   1.000  O
  O16      1.0000 0.22446  0.37178  0.75881  Biso   1.000  O
  Hf8      1.0000 0.13905  0.52105  0.14466  Biso   1.000  Hf
  Hf9      1.0000 0.13933  0.72754  0.39588  Biso   1.000  Hf
  Hf10     1.0000 0.36308  0.77038  0.10400  Biso   1.000  Hf
  Hf11     1.0000 0.36055  0.97918  0.35390  Biso   1.000  Hf
  O17      1.0000 0.03585  0.66985  0.07957  Biso   1.000  O
  O18      1.0000 0.03497  0.58164  0.32945  Biso   1.000  O
  O19      1.0000 0.46644  0.91802  0.17025  Biso   1.000  O
  O20      1.0000 0.46465  0.83181  0.42160  Biso   1.000  O
  O21      1.0000 0.27674  0.62538  0.23918  Biso   1.000  O
  O22      1.0000 0.27610  0.62072  0.49028  Biso   1.000  O
  O23      1.0000 0.23180  0.87292  0.00257  Biso   1.000  O
  O24      1.0000 0.23101  0.86266  0.26255  Biso   1.000  O
  Hf12     1.0000 0.13946  0.52130  0.64599  Biso   1.000  Hf
  Hf13     1.0000 0.14008  0.72929  0.89538  Biso   1.000  Hf
  Hf14     1.0000 0.36066  0.77178  0.60394  Biso   1.000  Hf
  Hf15     1.0000 0.36224  0.97951  0.85321  Biso   1.000  Hf
  O25      1.0000 0.03533  0.66862  0.58090  Biso   1.000  O
  O26      1.0000 0.03548  0.58111  0.82964  Biso   1.000  O
  O27      1.0000 0.46603  0.91766  0.67018  Biso   1.000  O
  O28      1.0000 0.46885  0.83339  0.92013  Biso   1.000  O
  O29      1.0000 0.27644  0.62923  0.74024  Biso   1.000  O
  O30      1.0000 0.27682  0.62034  0.98982  Biso   1.000  O
  O31      1.0000 0.22340  0.87892  0.51013  Biso   1.000  O
  O32      1.0000 0.22403  0.87146  0.75800  Biso   1.000  O
  Hf16     1.0000 0.63980  0.02072  0.14637  Biso   1.000  Hf
  Hf17     1.0000 0.63839  0.22912  0.39611  Biso   1.000  Hf
  Hf18     1.0000 0.86087  0.27144  0.10386  Biso   1.000  Hf
  Hf19     1.0000 0.86074  0.47900  0.35398  Biso   1.000  Hf
  O33      1.0000 0.53596  0.16797  0.07941  Biso   1.000  O
  O34      1.0000 0.53586  0.08131  0.33031  Biso   1.000  O
  O35      1.0000 0.96218  0.42207  0.16926  Biso   1.000  O
  O36      1.0000 0.96448  0.33292  0.42076  Biso   1.000  O
  O37      1.0000 0.77560  0.13002  0.24173  Biso   1.000  O
  O38      1.0000 0.77422  0.12205  0.49240  Biso   1.000  O
  O39      1.0000 0.72345  0.37896  0.00918  Biso   1.000  O
  O40      1.0000 0.72288  0.37143  0.26023  Biso   1.000  O
  Hf20     1.0000 0.63945  0.02187  0.64639  Biso   1.000  Hf
  Hf21     1.0000 0.63938  0.22902  0.89652  Biso   1.000  Hf
  Hf22     1.0000 0.86092  0.27173  0.60426  Biso   1.000  Hf
  Hf23     1.0000 0.86098  0.47885  0.85358  Biso   1.000  Hf
  O41      1.0000 0.53422  0.16787  0.57979  Biso   1.000  O
  O42      1.0000 0.53689  0.08229  0.82865  Biso   1.000  O
  O43      1.0000 0.96461  0.41973  0.66925  Biso   1.000  O
  O44      1.0000 0.96371  0.33204  0.91769  Biso   1.000  O
  O45      1.0000 0.77737  0.12930  0.74092  Biso   1.000  O
  O46      1.0000 0.77667  0.12076  0.99080  Biso   1.000  O
  O47      1.0000 0.72329  0.37927  0.50959  Biso   1.000  O
  O48      1.0000 0.72404  0.37119  0.75904  Biso   1.000  O
  Hf24     1.0000 0.63821  0.51954  0.14584  Biso   1.000  Hf
  Hf25     1.0000 0.63751  0.72795  0.39590  Biso   1.000  Hf
  Hf26     1.0000 0.85874  0.76893  0.10372  Biso   1.000  Hf
  Hf27     1.0000 0.85766  0.97845  0.35699  Biso   1.000  Hf
  O49      1.0000 0.53608  0.66668  0.07848  Biso   1.000  O
  O50      1.0000 0.53354  0.58169  0.32892  Biso   1.000  O
  O51      1.0000 0.94829  0.91797  0.17329  Biso   1.000  O
  O52      1.0000 0.96449  0.83039  0.42019  Biso   1.000  O
  O53      1.0000 0.77462  0.62821  0.24056  Biso   1.000  O
  O54      1.0000 0.77582  0.62122  0.49029  Biso   1.000  O
  O55      1.0000 0.72380  0.87840  0.00903  Biso   1.000  O
  O56      1.0000 0.71771  0.86972  0.26143  Biso   1.000  O
  Hf28     1.0000 0.63898  0.52125  0.64555  Biso   1.000  Hf
  Hf29     1.0000 0.63990  0.72883  0.89501  Biso   1.000  Hf
  Hf30     1.0000 0.86141  0.77128  0.60395  Biso   1.000  Hf
  Hf31     1.0000 0.86153  0.97879  0.85471  Biso   1.000  Hf
  O57      1.0000 0.53423  0.66721  0.57959  Biso   1.000  O
  O58      1.0000 0.53526  0.58258  0.82867  Biso   1.000  O
  O59      1.0000 0.96455  0.91902  0.66993  Biso   1.000  O
  O60      1.0000 0.96501  0.83105  0.91990  Biso   1.000  O
  O61      1.0000 0.77634  0.62912  0.73960  Biso   1.000  O
  O62      1.0000 0.77573  0.61973  0.98957  Biso   1.000  O
  O63      1.0000 0.72328  0.87865  0.51047  Biso   1.000  O
  O64      1.0000 0.72483  0.87125  0.75926  Biso   1.000  O
