data_image0
_cell_length_a       10.1748
_cell_length_b       10.3198
_cell_length_c       10.5286
_cell_angle_alpha    89.9838
_cell_angle_beta     79.6379
_cell_angle_gamma    89.9575

_symmetry_space_group_name_H-M    "P 1"
_symmetry_int_tables_number       1

loop_
  _symmetry_equiv_pos_as_xyz
  'x, y, z'

loop_
  _atom_site_label
  _atom_site_occupancy
  _atom_site_fract_x
  _atom_site_fract_y
  _atom_site_fract_z
  _atom_site_thermal_displace_type
  _atom_site_B_iso_or_equiv
  _atom_site_type_symbol
  Hf1      1.0000 0.13090  0.02015  0.14280  Biso   1.000  Hf
  Hf2      1.0000 0.13862  0.22690  0.39100  Biso   1.000  Hf
  Hf3      1.0000 0.34695  0.27307  0.09230  Biso   1.000  Hf
  Hf4      1.0000 0.35858  0.48455  0.35229  Biso   1.000  Hf
  O1       1.0000 0.03122  0.16792  0.07591  Biso   1.000  O
  O2       1.0000 0.02908  0.08123  0.32914  Biso   1.000  O
  O3       1.0000 0.45487  0.43608  0.15582  Biso   1.000  O
  O4       1.0000 0.48611  0.37785  0.45686  Biso   1.000  O
  O5       1.0000 0.26122  0.12143  0.23120  Biso   1.000  O
  O6       1.0000 0.28130  0.11791  0.48472  Biso   1.000  O
  O7       1.0000 0.21586  0.38269  0.00398  Biso   1.000  O
  O8       1.0000 0.21126  0.37483  0.25435  Biso   1.000  O
  Hf5      1.0000 0.14008  0.02106  0.64422  Biso   1.000  Hf
  Hf6      1.0000 0.13360  0.22885  0.89137  Biso   1.000  Hf
  Hf7      1.0000 0.36451  0.27950  0.60762  Biso   1.000  Hf
  Hf8      1.0000 0.35974  0.48028  0.85713  Biso   1.000  Hf
  O9       1.0000 0.04070  0.16828  0.57773  Biso   1.000  O
  O10      1.0000 0.03246  0.08317  0.82599  Biso   1.000  O
  O11      1.0000 0.46984  0.41111  0.68917  Biso   1.000  O
  O12      1.0000 0.46305  0.33264  0.92287  Biso   1.000  O
  O13      1.0000 0.27462  0.12957  0.73667  Biso   1.000  O
  O14      1.0000 0.27024  0.12372  0.98340  Biso   1.000  O
  O15      1.0000 0.22682  0.37632  0.50755  Biso   1.000  O
  O16      1.0000 0.22407  0.37293  0.75814  Biso   1.000  O
  Hf9      1.0000 0.13766  0.52342  0.14549  Biso   1.000  Hf
  Hf10     1.0000 0.13631  0.72834  0.39679  Biso   1.000  Hf
  Hf11     1.0000 0.35870  0.77311  0.10328  Biso   1.000  Hf
  Hf12     1.0000 0.36043  0.96466  0.35696  Biso   1.000  Hf
  O17      1.0000 0.03243  0.66852  0.07776  Biso   1.000  O
  O18      1.0000 0.03364  0.58516  0.32755  Biso   1.000  O
  O19      1.0000 0.46251  0.91781  0.17155  Biso   1.000  O
  O20      1.0000 0.45806  0.81809  0.42194  Biso   1.000  O
  O21      1.0000 0.27382  0.63098  0.24153  Biso   1.000  O
  O22      1.0000 0.27234  0.62011  0.49112  Biso   1.000  O
  O23      1.0000 0.22242  0.88043  0.00885  Biso   1.000  O
  O24      1.0000 0.22062  0.86849  0.25990  Biso   1.000  O
  Hf13     1.0000 0.13836  0.52190  0.64586  Biso   1.000  Hf
  Hf14     1.0000 0.13635  0.72901  0.89642  Biso   1.000  Hf
  Hf15     1.0000 0.36080  0.76863  0.60645  Biso   1.000  Hf
  Hf16     1.0000 0.35937  0.97962  0.85196  Biso   1.000  Hf
  O25      1.0000 0.03151  0.66555  0.57906  Biso   1.000  O
  O26      1.0000 0.03344  0.58395  0.82822  Biso   1.000  O
  O27      1.0000 0.46420  0.91685  0.66929  Biso   1.000  O
  O28      1.0000 0.46380  0.83589  0.92037  Biso   1.000  O
  O29      1.0000 0.27533  0.62734  0.74102  Biso   1.000  O
  O30      1.0000 0.27467  0.62453  0.99161  Biso   1.000  O
  O31      1.0000 0.22189  0.87551  0.51175  Biso   1.000  O
  O32      1.0000 0.22295  0.87096  0.76010  Biso   1.000  O
  Hf17     1.0000 0.63930  0.01618  0.14877  Biso   1.000  Hf
  Hf18     1.0000 0.66517  0.23580  0.41279  Biso   1.000  Hf
  Hf19     1.0000 0.85828  0.27327  0.10736  Biso   1.000  Hf
  Hf20     1.0000 0.86417  0.48090  0.35454  Biso   1.000  Hf
  O33      1.0000 0.52714  0.15805  0.07279  Biso   1.000  O
  O34      1.0000 0.54880  0.04452  0.34539  Biso   1.000  O
  O35      1.0000 0.96381  0.41980  0.17007  Biso   1.000  O
  O36      1.0000 0.96469  0.33058  0.42175  Biso   1.000  O
  O37      1.0000 0.77644  0.13026  0.24554  Biso   1.000  O
  O38      1.0000 0.78597  0.11576  0.49921  Biso   1.000  O
  O39      1.0000 0.72008  0.37789  0.01458  Biso   1.000  O
  O40      1.0000 0.72620  0.37434  0.26557  Biso   1.000  O
  Hf21     1.0000 0.63755  0.02120  0.64679  Biso   1.000  Hf
  Hf22     1.0000 0.63715  0.22712  0.89839  Biso   1.000  Hf
  Hf23     1.0000 0.86817  0.27076  0.61092  Biso   1.000  Hf
  Hf24     1.0000 0.85936  0.47923  0.85671  Biso   1.000  Hf
  O41      1.0000 0.53782  0.16930  0.57663  Biso   1.000  O
  O42      1.0000 0.53191  0.08503  0.82508  Biso   1.000  O
  O43      1.0000 0.96779  0.41688  0.67450  Biso   1.000  O
  O44      1.0000 0.96099  0.33293  0.92189  Biso   1.000  O
  O45      1.0000 0.77505  0.12916  0.74418  Biso   1.000  O
  O46      1.0000 0.77396  0.12117  0.99386  Biso   1.000  O
  O47      1.0000 0.73450  0.38039  0.51935  Biso   1.000  O
  O48      1.0000 0.72563  0.37155  0.76512  Biso   1.000  O
  Hf25     1.0000 0.63398  0.52483  0.14433  Biso   1.000  Hf
  Hf26     1.0000 0.63858  0.72502  0.39608  Biso   1.000  Hf
  Hf27     1.0000 0.85867  0.76932  0.10417  Biso   1.000  Hf
  Hf28     1.0000 0.85845  0.97547  0.35498  Biso   1.000  Hf
  O49      1.0000 0.53573  0.67554  0.07826  Biso   1.000  O
  O50      1.0000 0.53181  0.58774  0.32256  Biso   1.000  O
  O51      1.0000 0.96042  0.91480  0.17286  Biso   1.000  O
  O52      1.0000 0.96335  0.83185  0.42276  Biso   1.000  O
  O53      1.0000 0.77572  0.62750  0.24065  Biso   1.000  O
  O54      1.0000 0.77432  0.62068  0.49064  Biso   1.000  O
  O55      1.0000 0.72299  0.87931  0.01051  Biso   1.000  O
  O56      1.0000 0.72349  0.86595  0.25885  Biso   1.000  O
  Hf29     1.0000 0.63761  0.52186  0.65007  Biso   1.000  Hf
  Hf30     1.0000 0.63649  0.73093  0.89617  Biso   1.000  Hf
  Hf31     1.0000 0.86000  0.77234  0.60477  Biso   1.000  Hf
  Hf32     1.0000 0.85994  0.97889  0.85470  Biso   1.000  Hf
  O57      1.0000 0.53271  0.66320  0.58033  Biso   1.000  O
  O58      1.0000 0.53273  0.58589  0.83167  Biso   1.000  O
  O59      1.0000 0.96479  0.91734  0.67158  Biso   1.000  O
  O60      1.0000 0.96416  0.83394  0.92167  Biso   1.000  O
  O61      1.0000 0.77436  0.62940  0.74058  Biso   1.000  O
  O62      1.0000 0.77364  0.62151  0.99001  Biso   1.000  O
  O63      1.0000 0.72059  0.87660  0.51057  Biso   1.000  O
  O64      1.0000 0.72296  0.87295  0.76044  Biso   1.000  O
  Tl1      1.0000 0.45662  0.23416  0.29691  Biso   1.000  Tl
