data_image0
_cell_length_a       10.2325
_cell_length_b       10.4259
_cell_length_c       5.281
_cell_angle_alpha    89.6682
_cell_angle_beta     78.9996
_cell_angle_gamma    89.6627

_symmetry_space_group_name_H-M    "P 1"
_symmetry_int_tables_number       1

loop_
  _symmetry_equiv_pos_as_xyz
  'x, y, z'

loop_
  _atom_site_label
  _atom_site_occupancy
  _atom_site_fract_x
  _atom_site_fract_y
  _atom_site_fract_z
  _atom_site_thermal_displace_type
  _atom_site_B_iso_or_equiv
  _atom_site_type_symbol
  Hf1      1.0000 0.13240  0.01933  0.28511  Biso   1.000  Hf
  Hf2      1.0000 0.13369  0.22688  0.77446  Biso   1.000  Hf
  Hf3      1.0000 0.34754  0.27848  0.18441  Biso   1.000  Hf
  Hf4      1.0000 0.35814  0.48688  0.70877  Biso   1.000  Hf
  O1       1.0000 0.03731  0.16991  0.15406  Biso   1.000  O
  O2       1.0000 0.02722  0.08130  0.65715  Biso   1.000  O
  O3       1.0000 0.45923  0.43684  0.34766  Biso   1.000  O
  O4       1.0000 0.47905  0.37335  0.90521  Biso   1.000  O
  O5       1.0000 0.25977  0.12239  0.45896  Biso   1.000  O
  O6       1.0000 0.27531  0.12112  0.95948  Biso   1.000  O
  O7       1.0000 0.21576  0.38225  0.00120  Biso   1.000  O
  O8       1.0000 0.21268  0.37349  0.50145  Biso   1.000  O
  Hf5      1.0000 0.13725  0.52344  0.29142  Biso   1.000  Hf
  Hf6      1.0000 0.13393  0.72872  0.79417  Biso   1.000  Hf
  Hf7      1.0000 0.35740  0.76934  0.20884  Biso   1.000  Hf
  Hf8      1.0000 0.35781  0.96490  0.70728  Biso   1.000  Hf
  O9       1.0000 0.02991  0.66763  0.15862  Biso   1.000  O
  O10      1.0000 0.03290  0.58521  0.65746  Biso   1.000  O
  O11      1.0000 0.45896  0.91862  0.32969  Biso   1.000  O
  O12      1.0000 0.45407  0.81695  0.83699  Biso   1.000  O
  O13      1.0000 0.27174  0.62969  0.48396  Biso   1.000  O
  O14      1.0000 0.27078  0.62350  0.98478  Biso   1.000  O
  O15      1.0000 0.21951  0.87773  0.01985  Biso   1.000  O
  O16      1.0000 0.21941  0.86759  0.51851  Biso   1.000  O
  Hf9      1.0000 0.63619  0.01327  0.29887  Biso   1.000  Hf
  Hf10     1.0000 0.66600  0.23788  0.83489  Biso   1.000  Hf
  Hf11     1.0000 0.86550  0.27307  0.23057  Biso   1.000  Hf
  Hf12     1.0000 0.86277  0.48299  0.71614  Biso   1.000  Hf
  O17      1.0000 0.53051  0.16179  0.13294  Biso   1.000  O
  O18      1.0000 0.54548  0.03463  0.68120  Biso   1.000  O
  O19      1.0000 0.96553  0.42055  0.34632  Biso   1.000  O
  O20      1.0000 0.95905  0.32960  0.84405  Biso   1.000  O
  O21      1.0000 0.77532  0.13209  0.50375  Biso   1.000  O
  O22      1.0000 0.78335  0.11619  0.00909  Biso   1.000  O
  O23      1.0000 0.72928  0.38157  0.05048  Biso   1.000  O
  O24      1.0000 0.72852  0.37656  0.54287  Biso   1.000  O
  Hf13     1.0000 0.63495  0.52802  0.30297  Biso   1.000  Hf
  Hf14     1.0000 0.63655  0.72849  0.79521  Biso   1.000  Hf
  Hf15     1.0000 0.85883  0.77113  0.21025  Biso   1.000  Hf
  Hf16     1.0000 0.85705  0.97717  0.71102  Biso   1.000  Hf
  O25      1.0000 0.53462  0.67388  0.16410  Biso   1.000  O
  O26      1.0000 0.53236  0.58939  0.66007  Biso   1.000  O
  O27      1.0000 0.96033  0.91645  0.34581  Biso   1.000  O
  O28      1.0000 0.96238  0.83307  0.84531  Biso   1.000  O
  O29      1.0000 0.77515  0.62974  0.48640  Biso   1.000  O
  O30      1.0000 0.77283  0.62218  0.98481  Biso   1.000  O
  O31      1.0000 0.72018  0.87757  0.02181  Biso   1.000  O
  O32      1.0000 0.72454  0.86737  0.51727  Biso   1.000  O
  Tl1      1.0000 0.46229  0.22982  0.58429  Biso   1.000  Tl
