data_image0
_cell_length_a       5.08799
_cell_length_b       10.2967
_cell_length_c       10.4824
_cell_angle_alpha    90.0473
_cell_angle_beta     80.4105
_cell_angle_gamma    90.0479

_symmetry_space_group_name_H-M    "P 1"
_symmetry_int_tables_number       1

loop_
  _symmetry_equiv_pos_as_xyz
  'x, y, z'

loop_
  _atom_site_label
  _atom_site_occupancy
  _atom_site_fract_x
  _atom_site_fract_y
  _atom_site_fract_z
  _atom_site_thermal_displace_type
  _atom_site_B_iso_or_equiv
  _atom_site_type_symbol
  Tl1      1.0000 0.27259  0.01602  0.14489  Biso   1.000  Tl
  Hf1      1.0000 0.27812  0.22948  0.39648  Biso   1.000  Hf
  Hf2      1.0000 0.71736  0.26912  0.10370  Biso   1.000  Hf
  Hf3      1.0000 0.71927  0.47814  0.35298  Biso   1.000  Hf
  O1       1.0000 0.07360  0.18092  0.07693  Biso   1.000  O
  O2       1.0000 0.05863  0.08187  0.34559  Biso   1.000  O
  O3       1.0000 0.92483  0.41934  0.16987  Biso   1.000  O
  O4       1.0000 0.92879  0.33320  0.42120  Biso   1.000  O
  O5       1.0000 0.56322  0.13348  0.24734  Biso   1.000  O
  O6       1.0000 0.54739  0.12178  0.49339  Biso   1.000  O
  O7       1.0000 0.44950  0.38036  0.00807  Biso   1.000  O
  O8       1.0000 0.44227  0.37154  0.25936  Biso   1.000  O
  Hf4      1.0000 0.27948  0.02144  0.64596  Biso   1.000  Hf
  Hf5      1.0000 0.28041  0.22989  0.89506  Biso   1.000  Hf
  Hf6      1.0000 0.72067  0.27140  0.60400  Biso   1.000  Hf
  Hf7      1.0000 0.72343  0.47886  0.85373  Biso   1.000  Hf
  O9       1.0000 0.06953  0.17049  0.58300  Biso   1.000  O
  O10      1.0000 0.07436  0.08197  0.82891  Biso   1.000  O
  O11      1.0000 0.93143  0.41810  0.66988  Biso   1.000  O
  O12      1.0000 0.93280  0.33458  0.91849  Biso   1.000  O
  O13      1.0000 0.55402  0.12895  0.73864  Biso   1.000  O
  O14      1.0000 0.56824  0.12685  0.98163  Biso   1.000  O
  O15      1.0000 0.44681  0.37935  0.50937  Biso   1.000  O
  O16      1.0000 0.45017  0.37206  0.75830  Biso   1.000  O
  Hf8      1.0000 0.27665  0.51951  0.14454  Biso   1.000  Hf
  Hf9      1.0000 0.27514  0.72640  0.39612  Biso   1.000  Hf
  Hf10     1.0000 0.72170  0.76806  0.10372  Biso   1.000  Hf
  Hf11     1.0000 0.71343  0.97847  0.35684  Biso   1.000  Hf
  O17      1.0000 0.07286  0.66773  0.07809  Biso   1.000  O
  O18      1.0000 0.06642  0.58171  0.32845  Biso   1.000  O
  O19      1.0000 0.90196  0.91694  0.17419  Biso   1.000  O
  O20      1.0000 0.92870  0.83069  0.42165  Biso   1.000  O
  O21      1.0000 0.55013  0.62475  0.23927  Biso   1.000  O
  O22      1.0000 0.55076  0.62072  0.49012  Biso   1.000  O
  O23      1.0000 0.46454  0.87238  0.00194  Biso   1.000  O
  O24      1.0000 0.45063  0.86151  0.26399  Biso   1.000  O
  Hf12     1.0000 0.27884  0.52137  0.64578  Biso   1.000  Hf
  Hf13     1.0000 0.28217  0.72947  0.89464  Biso   1.000  Hf
  Hf14     1.0000 0.72194  0.77156  0.60379  Biso   1.000  Hf
  Hf15     1.0000 0.72529  0.97954  0.85360  Biso   1.000  Hf
  O25      1.0000 0.06818  0.66705  0.58056  Biso   1.000  O
  O26      1.0000 0.07048  0.58260  0.82832  Biso   1.000  O
  O27      1.0000 0.93199  0.91777  0.67017  Biso   1.000  O
  O28      1.0000 0.93924  0.83384  0.92043  Biso   1.000  O
  O29      1.0000 0.55274  0.62933  0.73943  Biso   1.000  O
  O30      1.0000 0.55244  0.61925  0.98901  Biso   1.000  O
  O31      1.0000 0.44632  0.87846  0.51089  Biso   1.000  O
  O32      1.0000 0.45055  0.87170  0.75768  Biso   1.000  O
