data_image0
_cell_length_a       10.0574
_cell_length_b       10.2866
_cell_length_c       10.5227
_cell_angle_alpha    89.9381
_cell_angle_beta     90.8702
_cell_angle_gamma    89.987

_symmetry_space_group_name_H-M    "P 1"
_symmetry_int_tables_number       1

loop_
  _symmetry_equiv_pos_as_xyz
  'x, y, z'

loop_
  _atom_site_label
  _atom_site_occupancy
  _atom_site_fract_x
  _atom_site_fract_y
  _atom_site_fract_z
  _atom_site_thermal_displace_type
  _atom_site_B_iso_or_equiv
  _atom_site_type_symbol
  Hf1      1.0000 0.13540  0.01861  0.17233  Biso   1.000  Hf
  Hf2      1.0000 0.13483  0.22703  0.42813  Biso   1.000  Hf
  Hf3      1.0000 0.33924  0.26558  0.19061  Biso   1.000  Hf
  Hf4      1.0000 0.36218  0.47923  0.42248  Biso   1.000  Hf
  Hf5      1.0000 0.64169  0.01446  0.07490  Biso   1.000  Hf
  Hf6      1.0000 0.63550  0.22236  0.33208  Biso   1.000  Hf
  Hf7      1.0000 0.86117  0.27142  0.07483  Biso   1.000  Hf
  Hf8      1.0000 0.86010  0.47802  0.32744  Biso   1.000  Hf
  O1       1.0000 0.03404  0.16692  0.08537  Biso   1.000  O
  O2       1.0000 0.02911  0.08569  0.33401  Biso   1.000  O
  O3       1.0000 0.45591  0.45303  0.10460  Biso   1.000  O
  O4       1.0000 0.46383  0.33273  0.33331  Biso   1.000  O
  O5       1.0000 0.26594  0.12272  0.30352  Biso   1.000  O
  O6       1.0000 0.27341  0.11996  0.04970  Biso   1.000  O
  O7       1.0000 0.21515  0.37654  0.30373  Biso   1.000  O
  O8       1.0000 0.22145  0.37612  0.05175  Biso   1.000  O
  O9       1.0000 0.51333  0.12745  0.20255  Biso   1.000  O
  O10      1.0000 0.52883  0.08933  0.43288  Biso   1.000  O
  O11      1.0000 0.96426  0.41543  0.16772  Biso   1.000  O
  O12      1.0000 0.96666  0.33580  0.41831  Biso   1.000  O
  O13      1.0000 0.77522  0.12299  0.45347  Biso   1.000  O
  O14      1.0000 0.77249  0.12792  0.20312  Biso   1.000  O
  O15      1.0000 0.72411  0.37393  0.45375  Biso   1.000  O
  O16      1.0000 0.71827  0.37754  0.20436  Biso   1.000  O
  Hf9      1.0000 0.14153  0.02053  0.67405  Biso   1.000  Hf
  Hf10     1.0000 0.14199  0.22834  0.92415  Biso   1.000  Hf
  Hf11     1.0000 0.36395  0.27256  0.67387  Biso   1.000  Hf
  Hf12     1.0000 0.36134  0.48421  0.92559  Biso   1.000  Hf
  Hf13     1.0000 0.64067  0.01833  0.58030  Biso   1.000  Hf
  Hf14     1.0000 0.65227  0.22609  0.81306  Biso   1.000  Hf
  Hf15     1.0000 0.86339  0.27250  0.57618  Biso   1.000  Hf
  Hf16     1.0000 0.86804  0.48190  0.82698  Biso   1.000  Hf
  O17      1.0000 0.03240  0.16350  0.58492  Biso   1.000  O
  O18      1.0000 0.03896  0.08273  0.83399  Biso   1.000  O
  O19      1.0000 0.47059  0.41311  0.57882  Biso   1.000  O
  O20      1.0000 0.47712  0.34535  0.82340  Biso   1.000  O
  O21      1.0000 0.28100  0.12526  0.79740  Biso   1.000  O
  O22      1.0000 0.27584  0.12459  0.54925  Biso   1.000  O
  O23      1.0000 0.22820  0.37373  0.79933  Biso   1.000  O
  O24      1.0000 0.22600  0.37505  0.54925  Biso   1.000  O
  O25      1.0000 0.53577  0.16480  0.66656  Biso   1.000  O
  O26      1.0000 0.54215  0.06269  0.89742  Biso   1.000  O
  O27      1.0000 0.97133  0.41432  0.66670  Biso   1.000  O
  O28      1.0000 0.97238  0.33374  0.91529  Biso   1.000  O
  O29      1.0000 0.78858  0.12073  0.94694  Biso   1.000  O
  O30      1.0000 0.78373  0.12267  0.69866  Biso   1.000  O
  O31      1.0000 0.73994  0.38958  0.95066  Biso   1.000  O
  O32      1.0000 0.73012  0.37472  0.70082  Biso   1.000  O
  Hf17     1.0000 0.13682  0.52227  0.17210  Biso   1.000  Hf
  Hf18     1.0000 0.13851  0.72833  0.42133  Biso   1.000  Hf
  Hf19     1.0000 0.36112  0.77353  0.17299  Biso   1.000  Hf
  Hf20     1.0000 0.36206  0.97784  0.42658  Biso   1.000  Hf
  Hf21     1.0000 0.64189  0.53386  0.08078  Biso   1.000  Hf
  Hf22     1.0000 0.63936  0.73216  0.32997  Biso   1.000  Hf
  Hf23     1.0000 0.86347  0.77130  0.07878  Biso   1.000  Hf
  Hf24     1.0000 0.86097  0.97974  0.32885  Biso   1.000  Hf
  O33      1.0000 0.03340  0.66503  0.08275  Biso   1.000  O
  O34      1.0000 0.03164  0.58541  0.33300  Biso   1.000  O
  O35      1.0000 0.46893  0.91154  0.07895  Biso   1.000  O
  O36      1.0000 0.46810  0.83809  0.33507  Biso   1.000  O
  O37      1.0000 0.27569  0.62488  0.29437  Biso   1.000  O
  O38      1.0000 0.27454  0.62863  0.04443  Biso   1.000  O
  O39      1.0000 0.22403  0.87424  0.29685  Biso   1.000  O
  O40      1.0000 0.22340  0.87511  0.04751  Biso   1.000  O
  O41      1.0000 0.53912  0.67913  0.16551  Biso   1.000  O
  O42      1.0000 0.53283  0.58610  0.41452  Biso   1.000  O
  O43      1.0000 0.96540  0.91648  0.16719  Biso   1.000  O
  O44      1.0000 0.96686  0.83435  0.41669  Biso   1.000  O
  O45      1.0000 0.77687  0.62391  0.45430  Biso   1.000  O
  O46      1.0000 0.77869  0.62891  0.20595  Biso   1.000  O
  O47      1.0000 0.72511  0.87491  0.45644  Biso   1.000  O
  O48      1.0000 0.72545  0.87656  0.20560  Biso   1.000  O
  Hf25     1.0000 0.14169  0.51996  0.67224  Biso   1.000  Hf
  Hf26     1.0000 0.14098  0.73062  0.92215  Biso   1.000  Hf
  Hf27     1.0000 0.36301  0.76823  0.67218  Biso   1.000  Hf
  Hf28     1.0000 0.36442  0.97602  0.92007  Biso   1.000  Hf
  Hf29     1.0000 0.64038  0.52105  0.57564  Biso   1.000  Hf
  Hf30     1.0000 0.64077  0.72821  0.82662  Biso   1.000  Hf
  Hf31     1.0000 0.86452  0.77016  0.57877  Biso   1.000  Hf
  Hf32     1.0000 0.86649  0.97693  0.82873  Biso   1.000  Hf
  O49      1.0000 0.03548  0.66420  0.58306  Biso   1.000  O
  O50      1.0000 0.03791  0.58588  0.83331  Biso   1.000  O
  O51      1.0000 0.46964  0.91134  0.58606  Biso   1.000  O
  O52      1.0000 0.46592  0.82634  0.83405  Biso   1.000  O
  O53      1.0000 0.27851  0.62328  0.79576  Biso   1.000  O
  O54      1.0000 0.27691  0.62406  0.54473  Biso   1.000  O
  O55      1.0000 0.22600  0.87313  0.79569  Biso   1.000  O
  O56      1.0000 0.22559  0.87478  0.54622  Biso   1.000  O
  O57      1.0000 0.53441  0.66250  0.66549  Biso   1.000  O
  O58      1.0000 0.53554  0.58493  0.91683  Biso   1.000  O
  O59      1.0000 0.97112  0.91326  0.66678  Biso   1.000  O
  O60      1.0000 0.97023  0.83545  0.91905  Biso   1.000  O
  O61      1.0000 0.77897  0.63039  0.95326  Biso   1.000  O
  O62      1.0000 0.77834  0.62466  0.70316  Biso   1.000  O
  O63      1.0000 0.72750  0.87338  0.95606  Biso   1.000  O
  O64      1.0000 0.72801  0.87325  0.70638  Biso   1.000  O
  Tl1      1.0000 0.54282  0.26412  0.03398  Biso   1.000  Tl
