data_image0
_cell_length_a       10.092
_cell_length_b       10.2588
_cell_length_c       5.23694
_cell_angle_alpha    89.8971
_cell_angle_beta     90.0705
_cell_angle_gamma    90.03

_symmetry_space_group_name_H-M    "P 1"
_symmetry_int_tables_number       1

loop_
  _symmetry_equiv_pos_as_xyz
  'x, y, z'

loop_
  _atom_site_label
  _atom_site_occupancy
  _atom_site_fract_x
  _atom_site_fract_y
  _atom_site_fract_z
  _atom_site_thermal_displace_type
  _atom_site_B_iso_or_equiv
  _atom_site_type_symbol
  Tl1      1.0000 0.13622  0.01539  0.33778  Biso   1.000  Tl
  Hf1      1.0000 0.14118  0.23005  0.84277  Biso   1.000  Hf
  Hf2      1.0000 0.35962  0.26900  0.34252  Biso   1.000  Hf
  Hf3      1.0000 0.36090  0.47814  0.84307  Biso   1.000  Hf
  Hf4      1.0000 0.63905  0.02085  0.16037  Biso   1.000  Hf
  Hf5      1.0000 0.63811  0.22946  0.65693  Biso   1.000  Hf
  Hf6      1.0000 0.85936  0.27185  0.15502  Biso   1.000  Hf
  Hf7      1.0000 0.86063  0.47962  0.65444  Biso   1.000  Hf
  O1       1.0000 0.03373  0.17926  0.17053  Biso   1.000  O
  O2       1.0000 0.02592  0.08590  0.70016  Biso   1.000  O
  O3       1.0000 0.46791  0.41294  0.16496  Biso   1.000  O
  O4       1.0000 0.46810  0.33609  0.66512  Biso   1.000  O
  O5       1.0000 0.28158  0.12711  0.59999  Biso   1.000  O
  O6       1.0000 0.28432  0.13204  0.07858  Biso   1.000  O
  O7       1.0000 0.22378  0.37425  0.58903  Biso   1.000  O
  O8       1.0000 0.22376  0.37781  0.09043  Biso   1.000  O
  O9       1.0000 0.53344  0.16535  0.33322  Biso   1.000  O
  O10      1.0000 0.53550  0.08371  0.83201  Biso   1.000  O
  O11      1.0000 0.96546  0.41894  0.32781  Biso   1.000  O
  O12      1.0000 0.96653  0.33694  0.82895  Biso   1.000  O
  O13      1.0000 0.77439  0.12543  0.91454  Biso   1.000  O
  O14      1.0000 0.77563  0.12710  0.41404  Biso   1.000  O
  O15      1.0000 0.72334  0.37483  0.90671  Biso   1.000  O
  O16      1.0000 0.72389  0.37639  0.40796  Biso   1.000  O
  Hf8      1.0000 0.13976  0.52085  0.34257  Biso   1.000  Hf
  Hf9      1.0000 0.14095  0.72860  0.84180  Biso   1.000  Hf
  Hf10     1.0000 0.36293  0.76999  0.34131  Biso   1.000  Hf
  Hf11     1.0000 0.36262  0.97943  0.84083  Biso   1.000  Hf
  Hf12     1.0000 0.63792  0.51978  0.15468  Biso   1.000  Hf
  Hf13     1.0000 0.63878  0.72878  0.65516  Biso   1.000  Hf
  Hf14     1.0000 0.85971  0.76898  0.15535  Biso   1.000  Hf
  Hf15     1.0000 0.85763  0.97964  0.66326  Biso   1.000  Hf
  O17      1.0000 0.03340  0.66658  0.16913  Biso   1.000  O
  O18      1.0000 0.03248  0.58426  0.66702  Biso   1.000  O
  O19      1.0000 0.46972  0.91461  0.16730  Biso   1.000  O
  O20      1.0000 0.47003  0.83531  0.66466  Biso   1.000  O
  O21      1.0000 0.27654  0.62186  0.58989  Biso   1.000  O
  O22      1.0000 0.27589  0.62313  0.09105  Biso   1.000  O
  O23      1.0000 0.22962  0.86737  0.59187  Biso   1.000  O
  O24      1.0000 0.23379  0.86746  0.07769  Biso   1.000  O
  O25      1.0000 0.53268  0.66204  0.33474  Biso   1.000  O
  O26      1.0000 0.53119  0.58570  0.83487  Biso   1.000  O
  O27      1.0000 0.95100  0.91600  0.33201  Biso   1.000  O
  O28      1.0000 0.96779  0.83348  0.83096  Biso   1.000  O
  O29      1.0000 0.77470  0.62299  0.90634  Biso   1.000  O
  O30      1.0000 0.77535  0.62598  0.40677  Biso   1.000  O
  O31      1.0000 0.72423  0.87347  0.91150  Biso   1.000  O
  O32      1.0000 0.71895  0.87526  0.41235  Biso   1.000  O
