data_image0
_cell_length_a       5.12576
_cell_length_b       10.3817
_cell_length_c       10.5819
_cell_angle_alpha    89.5764
_cell_angle_beta     78.903
_cell_angle_gamma    89.6257

_symmetry_space_group_name_H-M    "P 1"
_symmetry_int_tables_number       1

loop_
  _symmetry_equiv_pos_as_xyz
  'x, y, z'

loop_
  _atom_site_label
  _atom_site_occupancy
  _atom_site_fract_x
  _atom_site_fract_y
  _atom_site_fract_z
  _atom_site_thermal_displace_type
  _atom_site_B_iso_or_equiv
  _atom_site_type_symbol
  Hf1      1.0000 0.26146  0.01316  0.14584  Biso   1.000  Hf
  Hf2      1.0000 0.34311  0.24059  0.40692  Biso   1.000  Hf
  Hf3      1.0000 0.68997  0.27372  0.09763  Biso   1.000  Hf
  Hf4      1.0000 0.72575  0.48765  0.35360  Biso   1.000  Hf
  O1       1.0000 0.04632  0.15975  0.07368  Biso   1.000  O
  O2       1.0000 0.07287  0.03777  0.33896  Biso   1.000  O
  O3       1.0000 0.91368  0.43387  0.15928  Biso   1.000  O
  O4       1.0000 0.98306  0.38167  0.46023  Biso   1.000  O
  O5       1.0000 0.51557  0.12364  0.23722  Biso   1.000  O
  O6       1.0000 0.57587  0.11036  0.49312  Biso   1.000  O
  O7       1.0000 0.42830  0.38098  0.00930  Biso   1.000  O
  O8       1.0000 0.43047  0.38015  0.25844  Biso   1.000  O
  Hf5      1.0000 0.27786  0.02149  0.64450  Biso   1.000  Hf
  Hf6      1.0000 0.26497  0.22739  0.89433  Biso   1.000  Hf
  Hf7      1.0000 0.74982  0.28064  0.61400  Biso   1.000  Hf
  Hf8      1.0000 0.71610  0.48039  0.86011  Biso   1.000  Hf
  O9       1.0000 0.08744  0.16918  0.57274  Biso   1.000  O
  O10      1.0000 0.05776  0.08743  0.82263  Biso   1.000  O
  O11      1.0000 0.95005  0.40836  0.69510  Biso   1.000  O
  O12      1.0000 0.92011  0.33427  0.92693  Biso   1.000  O
  O13      1.0000 0.54521  0.13028  0.73999  Biso   1.000  O
  O14      1.0000 0.53592  0.12412  0.98779  Biso   1.000  O
  O15      1.0000 0.47819  0.37896  0.51825  Biso   1.000  O
  O16      1.0000 0.45639  0.37363  0.76426  Biso   1.000  O
  Hf9      1.0000 0.26710  0.52592  0.14444  Biso   1.000  Hf
  Hf10     1.0000 0.26907  0.72450  0.39729  Biso   1.000  Hf
  Hf11     1.0000 0.71196  0.77020  0.10186  Biso   1.000  Hf
  Hf12     1.0000 0.70722  0.96098  0.35571  Biso   1.000  Hf
  O17      1.0000 0.06432  0.67402  0.07588  Biso   1.000  O
  O18      1.0000 0.05971  0.59206  0.32053  Biso   1.000  O
  O19      1.0000 0.91148  0.91427  0.16886  Biso   1.000  O
  O20      1.0000 0.90898  0.81728  0.42327  Biso   1.000  O
  O21      1.0000 0.54637  0.62909  0.24204  Biso   1.000  O
  O22      1.0000 0.53884  0.61974  0.49153  Biso   1.000  O
  O23      1.0000 0.44237  0.88004  0.00822  Biso   1.000  O
  O24      1.0000 0.43664  0.86285  0.25775  Biso   1.000  O
  Hf13     1.0000 0.27479  0.52278  0.65037  Biso   1.000  Hf
  Hf14     1.0000 0.26726  0.73106  0.89578  Biso   1.000  Hf
  Hf15     1.0000 0.71889  0.77071  0.60715  Biso   1.000  Hf
  Hf16     1.0000 0.71617  0.98059  0.85156  Biso   1.000  Hf
  O25      1.0000 0.05641  0.66076  0.58073  Biso   1.000  O
  O26      1.0000 0.06116  0.58786  0.83032  Biso   1.000  O
  O27      1.0000 0.92803  0.91699  0.66968  Biso   1.000  O
  O28      1.0000 0.92519  0.83673  0.91916  Biso   1.000  O
  O29      1.0000 0.54523  0.62791  0.74106  Biso   1.000  O
  O30      1.0000 0.54330  0.62401  0.99117  Biso   1.000  O
  O31      1.0000 0.43352  0.87245  0.51223  Biso   1.000  O
  O32      1.0000 0.44511  0.87335  0.76022  Biso   1.000  O
  Tl1      1.0000 0.91727  0.23436  0.30331  Biso   1.000  Tl
