data_image0
_cell_length_a       10.1655
_cell_length_b       10.3666
_cell_length_c       10.1095
_cell_angle_alpha    87.2232
_cell_angle_beta     89.5983
_cell_angle_gamma    92.8368

_symmetry_space_group_name_H-M    "P 1"
_symmetry_int_tables_number       1

loop_
  _symmetry_equiv_pos_as_xyz
  'x, y, z'

loop_
  _atom_site_label
  _atom_site_occupancy
  _atom_site_fract_x
  _atom_site_fract_y
  _atom_site_fract_z
  _atom_site_thermal_displace_type
  _atom_site_B_iso_or_equiv
  _atom_site_type_symbol
  Hf1      1.0000 0.14013  0.88423  0.09275  Biso   1.000  Hf
  Hf2      1.0000 0.12503  0.27518  0.37377  Biso   1.000  Hf
  Hf3      1.0000 0.37954  0.26783  0.13626  Biso   1.000  Hf
  Hf4      1.0000 0.39104  0.99966  0.37599  Biso   1.000  Hf
  O1       1.0000 0.95273  0.18747  0.98609  Biso   1.000  O
  O2       1.0000 0.95586  0.15716  0.29332  Biso   1.000  O
  O3       1.0000 0.00640  0.39114  0.25435  Biso   1.000  O
  O4       1.0000 0.98035  0.44423  0.01067  Biso   1.000  O
  O5       1.0000 0.30196  0.18723  0.33331  Biso   1.000  O
  O6       1.0000 0.19199  0.03292  0.94585  Biso   1.000  O
  O7       1.0000 0.24894  0.31826  0.98601  Biso   1.000  O
  O8       1.0000 0.25514  0.42252  0.23505  Biso   1.000  O
  Hf5      1.0000 0.13206  0.00367  0.65387  Biso   1.000  Hf
  Hf6      1.0000 0.11442  0.24177  0.85739  Biso   1.000  Hf
  Hf7      1.0000 0.38858  0.22246  0.59970  Biso   1.000  Hf
  Hf8      1.0000 0.37667  0.00061  0.88391  Biso   1.000  Hf
  O9       1.0000 0.04934  0.13980  0.51808  Biso   1.000  O
  O10      1.0000 0.99158  0.09861  0.75631  Biso   1.000  O
  O11      1.0000 0.96968  0.35030  0.74925  Biso   1.000  O
  O12      1.0000 0.00165  0.38320  0.49889  Biso   1.000  O
  O13      1.0000 0.24595  0.15507  0.74043  Biso   1.000  O
  O14      1.0000 0.29851  0.05102  0.54063  Biso   1.000  O
  O15      1.0000 0.25320  0.34975  0.51777  Biso   1.000  O
  O16      1.0000 0.20901  0.39742  0.76196  Biso   1.000  O
  Hf9      1.0000 0.10840  0.53686  0.13378  Biso   1.000  Hf
  Hf10     1.0000 0.12471  0.74070  0.39029  Biso   1.000  Hf
  Hf11     1.0000 0.40523  0.77066  0.14108  Biso   1.000  Hf
  Hf12     1.0000 0.37496  0.48679  0.38587  Biso   1.000  Hf
  O17      1.0000 0.03626  0.71437  0.02305  Biso   1.000  O
  O18      1.0000 0.96961  0.62156  0.25427  Biso   1.000  O
  O19      1.0000 0.01542  0.85679  0.26282  Biso   1.000  O
  O20      1.0000 0.95753  0.93619  0.03145  Biso   1.000  O
  O21      1.0000 0.21696  0.70010  0.20814  Biso   1.000  O
  O22      1.0000 0.23044  0.57507  0.96863  Biso   1.000  O
  O23      1.0000 0.28464  0.81608  0.97434  Biso   1.000  O
  O24      1.0000 0.28843  0.93102  0.22039  Biso   1.000  O
  Hf13     1.0000 0.11458  0.49436  0.62225  Biso   1.000  Hf
  Hf14     1.0000 0.15428  0.72410  0.84558  Biso   1.000  Hf
  Hf15     1.0000 0.39837  0.76714  0.63241  Biso   1.000  Hf
  Hf16     1.0000 0.35538  0.47337  0.86926  Biso   1.000  Hf
  O25      1.0000 0.98370  0.63332  0.51405  Biso   1.000  O
  O26      1.0000 0.00326  0.60207  0.76320  Biso   1.000  O
  O27      1.0000 0.02310  0.85071  0.76421  Biso   1.000  O
  O28      1.0000 0.03607  0.88463  0.51317  Biso   1.000  O
  O29      1.0000 0.25268  0.63258  0.70235  Biso   1.000  O
  O30      1.0000 0.20978  0.57201  0.44805  Biso   1.000  O
  O31      1.0000 0.29149  0.81899  0.46501  Biso   1.000  O
  O32      1.0000 0.26877  0.87756  0.73629  Biso   1.000  O
  Hf17     1.0000 0.63468  0.00774  0.14332  Biso   1.000  Hf
  Hf18     1.0000 0.62622  0.26093  0.35366  Biso   1.000  Hf
  Hf19     1.0000 0.87556  0.29215  0.13327  Biso   1.000  Hf
  Hf20     1.0000 0.90632  0.98231  0.38568  Biso   1.000  Hf
  O33      1.0000 0.44655  0.16860  0.97742  Biso   1.000  O
  O34      1.0000 0.49872  0.11863  0.23341  Biso   1.000  O
  O35      1.0000 0.50572  0.37739  0.24929  Biso   1.000  O
  O36      1.0000 0.48974  0.41321  0.00491  Biso   1.000  O
  O37      1.0000 0.72920  0.17336  0.21811  Biso   1.000  O
  O38      1.0000 0.69710  0.10187  0.97401  Biso   1.000  O
  O39      1.0000 0.73737  0.35523  0.99268  Biso   1.000  O
  O40      1.0000 0.75361  0.42214  0.24066  Biso   1.000  O
  Hf21     1.0000 0.63422  0.00743  0.64041  Biso   1.000  Hf
  Hf22     1.0000 0.60913  0.25113  0.86963  Biso   1.000  Hf
  Hf23     1.0000 0.89010  0.22511  0.60742  Biso   1.000  Hf
  Hf24     1.0000 0.85117  0.02024  0.89317  Biso   1.000  Hf
  O41      1.0000 0.53720  0.13187  0.49107  Biso   1.000  O
  O42      1.0000 0.49923  0.10795  0.74198  Biso   1.000  O
  O43      1.0000 0.46621  0.35461  0.74326  Biso   1.000  O
  O44      1.0000 0.50671  0.37878  0.49612  Biso   1.000  O
  O45      1.0000 0.74417  0.15457  0.74228  Biso   1.000  O
  O46      1.0000 0.79284  0.06502  0.51897  Biso   1.000  O
  O47      1.0000 0.76890  0.31910  0.47798  Biso   1.000  O
  O48      1.0000 0.71420  0.39597  0.74829  Biso   1.000  O
  Hf25     1.0000 0.61479  0.52633  0.12755  Biso   1.000  Hf
  Hf26     1.0000 0.62880  0.73862  0.39574  Biso   1.000  Hf
  Hf27     1.0000 0.86463  0.76926  0.12815  Biso   1.000  Hf
  Hf28     1.0000 0.87199  0.49395  0.38880  Biso   1.000  Hf
  O49      1.0000 0.52010  0.67188  0.01661  Biso   1.000  O
  O50      1.0000 0.47619  0.61501  0.25730  Biso   1.000  O
  O51      1.0000 0.52473  0.86572  0.27212  Biso   1.000  O
  O52      1.0000 0.48754  0.92897  0.03093  Biso   1.000  O
  O53      1.0000 0.71521  0.67348  0.23315  Biso   1.000  O
  O54      1.0000 0.76590  0.61333  0.99230  Biso   1.000  O
  O55      1.0000 0.72925  0.86108  0.00265  Biso   1.000  O
  O56      1.0000 0.77957  0.91923  0.24636  Biso   1.000  O
  Hf29     1.0000 0.59544  0.50017  0.63543  Biso   1.000  Hf
  Hf30     1.0000 0.64332  0.74351  0.86855  Biso   1.000  Hf
  Hf31     1.0000 0.89666  0.75673  0.64423  Biso   1.000  Hf
  Hf32     1.0000 0.85216  0.48597  0.86233  Biso   1.000  Hf
  O57      1.0000 0.47890  0.63089  0.51027  Biso   1.000  O
  O58      1.0000 0.49748  0.61103  0.76593  Biso   1.000  O
  O59      1.0000 0.51645  0.86520  0.76989  Biso   1.000  O
  O60      1.0000 0.53490  0.88286  0.51589  Biso   1.000  O
  O61      1.0000 0.75040  0.63904  0.73622  Biso   1.000  O
  O62      1.0000 0.71552  0.56844  0.47984  Biso   1.000  O
  O63      1.0000 0.78841  0.81637  0.48598  Biso   1.000  O
  O64      1.0000 0.76943  0.89210  0.74778  Biso   1.000  O
  Tl1      1.0000 0.12782  0.13375  0.14737  Biso   1.000  Tl
