data_image0
_cell_length_a       10.5809
_cell_length_b       5.40398
_cell_length_c       10.4984
_cell_angle_alpha    101.211
_cell_angle_beta     81.5308
_cell_angle_gamma    102.79

_symmetry_space_group_name_H-M    "P 1"
_symmetry_int_tables_number       1

loop_
  _symmetry_equiv_pos_as_xyz
  'x, y, z'

loop_
  _atom_site_label
  _atom_site_occupancy
  _atom_site_fract_x
  _atom_site_fract_y
  _atom_site_fract_z
  _atom_site_thermal_displace_type
  _atom_site_B_iso_or_equiv
  _atom_site_type_symbol
  Zr1      1.0000 0.17155  0.95194  0.16642  Biso   1.000  Zr
  Zr2      1.0000 0.11525  0.51261  0.36569  Biso   1.000  Zr
  Zr3      1.0000 0.36422  0.51773  0.11206  Biso   1.000  Zr
  Zr4      1.0000 0.40437  0.98252  0.40494  Biso   1.000  Zr
  O1       1.0000 0.90750  0.47270  0.90861  Biso   1.000  O
  O2       1.0000 0.02157  0.15232  0.26482  Biso   1.000  O
  O3       1.0000 0.00805  0.67175  0.25958  Biso   1.000  O
  O4       1.0000 0.03896  0.80964  0.03013  Biso   1.000  O
  O5       1.0000 0.25792  0.32172  0.25895  Biso   1.000  O
  O6       1.0000 0.26697  0.15546  0.02075  Biso   1.000  O
  O7       1.0000 0.26007  0.67510  0.00780  Biso   1.000  O
  O8       1.0000 0.26974  0.79509  0.26869  Biso   1.000  O
  Zr5      1.0000 0.14908  0.97052  0.65601  Biso   1.000  Zr
  Zr6      1.0000 0.10386  0.54592  0.85430  Biso   1.000  Zr
  Zr7      1.0000 0.35514  0.51442  0.60964  Biso   1.000  Zr
  Zr8      1.0000 0.40156  0.97010  0.90135  Biso   1.000  Zr
  O9       1.0000 0.99838  0.30988  0.49911  Biso   1.000  O
  O10      1.0000 0.01324  0.13741  0.78293  Biso   1.000  O
  O11      1.0000 0.02259  0.64335  0.71252  Biso   1.000  O
  O12      1.0000 0.00775  0.80686  0.50908  Biso   1.000  O
  O13      1.0000 0.24390  0.33430  0.75024  Biso   1.000  O
  O14      1.0000 0.26092  0.16283  0.51020  Biso   1.000  O
  O15      1.0000 0.25243  0.68258  0.50616  Biso   1.000  O
  O16      1.0000 0.26019  0.82330  0.76408  Biso   1.000  O
  Zr9      1.0000 0.65124  0.00599  0.15025  Biso   1.000  Zr
  Zr10     1.0000 0.61043  0.52777  0.35218  Biso   1.000  Zr
  Zr11     1.0000 0.85149  0.58748  0.09916  Biso   1.000  Zr
  Zr12     1.0000 0.90201  0.96092  0.40232  Biso   1.000  Zr
  O17      1.0000 0.49482  0.33476  0.99264  Biso   1.000  O
  O18      1.0000 0.50652  0.18154  0.25948  Biso   1.000  O
  O19      1.0000 0.50927  0.69977  0.24734  Biso   1.000  O
  O20      1.0000 0.50955  0.81751  0.00469  Biso   1.000  O
  O21      1.0000 0.75218  0.35473  0.24540  Biso   1.000  O
  O22      1.0000 0.70981  0.25741  0.01603  Biso   1.000  O
  O23      1.0000 0.74612  0.77417  0.99104  Biso   1.000  O
  O24      1.0000 0.76268  0.83941  0.25380  Biso   1.000  O
  Zr13     1.0000 0.64196  0.96393  0.63665  Biso   1.000  Zr
  Zr14     1.0000 0.60501  0.52332  0.85613  Biso   1.000  Zr
  Zr15     1.0000 0.86266  0.51601  0.60089  Biso   1.000  Zr
  Zr16     1.0000 0.82687  0.09424  0.87101  Biso   1.000  Zr
  O25      1.0000 0.50101  0.33506  0.49981  Biso   1.000  O
  O26      1.0000 0.51243  0.16473  0.75595  Biso   1.000  O
  O27      1.0000 0.49654  0.67596  0.74984  Biso   1.000  O
  O28      1.0000 0.50764  0.81216  0.50412  Biso   1.000  O
  O29      1.0000 0.75090  0.29952  0.74648  Biso   1.000  O
  O30      1.0000 0.76067  0.16699  0.50424  Biso   1.000  O
  O31      1.0000 0.75217  0.67924  0.49101  Biso   1.000  O
  O32      1.0000 0.74705  0.78745  0.73619  Biso   1.000  O
  Tl1      1.0000 0.01779  0.22429  0.05834  Biso   1.000  Tl
