data_image0
_cell_length_a       10.2268
_cell_length_b       5.28937
_cell_length_c       10.3189
_cell_angle_alpha    84.8183
_cell_angle_beta     91.6131
_cell_angle_gamma    92.9375

_symmetry_space_group_name_H-M    "P 1"
_symmetry_int_tables_number       1

loop_
  _symmetry_equiv_pos_as_xyz
  'x, y, z'

loop_
  _atom_site_label
  _atom_site_occupancy
  _atom_site_fract_x
  _atom_site_fract_y
  _atom_site_fract_z
  _atom_site_thermal_displace_type
  _atom_site_B_iso_or_equiv
  _atom_site_type_symbol
  Zr1      1.0000 0.14742  0.96907  0.10771  Biso   1.000  Zr
  Zr2      1.0000 0.11912  0.50343  0.39951  Biso   1.000  Zr
  Zr3      1.0000 0.35668  0.49435  0.12816  Biso   1.000  Zr
  Zr4      1.0000 0.38824  0.99357  0.35542  Biso   1.000  Zr
  O1       1.0000 0.95292  0.41293  0.28059  Biso   1.000  O
  O2       1.0000 0.05111  0.14238  0.44557  Biso   1.000  O
  O3       1.0000 0.45241  0.85313  0.18399  Biso   1.000  O
  O4       1.0000 0.47555  0.65551  0.44625  Biso   1.000  O
  O5       1.0000 0.24793  0.18272  0.23822  Biso   1.000  O
  O6       1.0000 0.27890  0.29199  0.48939  Biso   1.000  O
  O7       1.0000 0.25048  0.79342  0.48754  Biso   1.000  O
  O8       1.0000 0.21837  0.67175  0.23808  Biso   1.000  O
  Zr5      1.0000 0.15050  0.01815  0.60948  Biso   1.000  Zr
  Zr6      1.0000 0.15387  0.42260  0.84140  Biso   1.000  Zr
  Zr7      1.0000 0.37565  0.52687  0.61130  Biso   1.000  Zr
  Zr8      1.0000 0.37628  0.93487  0.87289  Biso   1.000  Zr
  O9       1.0000 0.07162  0.37760  0.65420  Biso   1.000  O
  O10      1.0000 0.05507  0.06758  0.92310  Biso   1.000  O
  O11      1.0000 0.49892  0.80237  0.72480  Biso   1.000  O
  O12      1.0000 0.47157  0.61367  0.96358  Biso   1.000  O
  O13      1.0000 0.28469  0.20740  0.73958  Biso   1.000  O
  O14      1.0000 0.28617  0.22066  0.98946  Biso   1.000  O
  O15      1.0000 0.23583  0.72253  0.98383  Biso   1.000  O
  O16      1.0000 0.25376  0.71748  0.73510  Biso   1.000  O
  Zr9      1.0000 0.62357  0.06960  0.12468  Biso   1.000  Zr
  Zr10     1.0000 0.63451  0.47185  0.40438  Biso   1.000  Zr
  Zr11     1.0000 0.81293  0.59921  0.16082  Biso   1.000  Zr
  Zr12     1.0000 0.87742  0.03268  0.37547  Biso   1.000  Zr
  O17      1.0000 0.49828  0.32071  0.23411  Biso   1.000  O
  O18      1.0000 0.53738  0.13236  0.46791  Biso   1.000  O
  O19      1.0000 0.96568  0.92176  0.20427  Biso   1.000  O
  O20      1.0000 0.97689  0.69364  0.46760  Biso   1.000  O
  O21      1.0000 0.73093  0.26192  0.26691  Biso   1.000  O
  O22      1.0000 0.78363  0.28393  0.51328  Biso   1.000  O
  O23      1.0000 0.74138  0.77553  0.51143  Biso   1.000  O
  O24      1.0000 0.70014  0.78142  0.26852  Biso   1.000  O
  Zr13     1.0000 0.65462  0.01609  0.63459  Biso   1.000  Zr
  Zr14     1.0000 0.60760  0.47576  0.85432  Biso   1.000  Zr
  Zr15     1.0000 0.88849  0.54529  0.64145  Biso   1.000  Zr
  Zr16     1.0000 0.88487  0.92592  0.86014  Biso   1.000  Zr
  O25      1.0000 0.53998  0.33556  0.68300  Biso   1.000  O
  O26      1.0000 0.53579  0.12467  0.93964  Biso   1.000  O
  O27      1.0000 0.96939  0.91241  0.67460  Biso   1.000  O
  O28      1.0000 0.97055  0.56526  0.84453  Biso   1.000  O
  O29      1.0000 0.77655  0.21241  0.76443  Biso   1.000  O
  O30      1.0000 0.72060  0.39823  0.02464  Biso   1.000  O
  O31      1.0000 0.76533  0.89297  0.02049  Biso   1.000  O
  O32      1.0000 0.74403  0.71425  0.75709  Biso   1.000  O
  Tl1      1.0000 0.03991  0.43941  0.08034  Biso   1.000  Tl
