data_image0
_cell_length_a       10.091
_cell_length_b       10.2339
_cell_length_c       10.091
_cell_angle_alpha    90.1005
_cell_angle_beta     90.0812
_cell_angle_gamma    90.0998

_symmetry_space_group_name_H-M    "P 1"
_symmetry_int_tables_number       1

loop_
  _symmetry_equiv_pos_as_xyz
  'x, y, z'

loop_
  _atom_site_label
  _atom_site_occupancy
  _atom_site_fract_x
  _atom_site_fract_y
  _atom_site_fract_z
  _atom_site_thermal_displace_type
  _atom_site_B_iso_or_equiv
  _atom_site_type_symbol
  Tl1      1.0000 0.12721  0.00459  0.12722  Biso   1.000  Tl
  Zr1      1.0000 0.12585  0.00017  0.62529  Biso   1.000  Zr
  Zr2      1.0000 0.12767  0.49856  0.12767  Biso   1.000  Zr
  Zr3      1.0000 0.12531  0.49975  0.62494  Biso   1.000  Zr
  Zr4      1.0000 0.62529  0.00017  0.12585  Biso   1.000  Zr
  Zr5      1.0000 0.62522  0.99906  0.62522  Biso   1.000  Zr
  Zr6      1.0000 0.62494  0.49975  0.12531  Biso   1.000  Zr
  Zr7      1.0000 0.62526  0.50029  0.62526  Biso   1.000  Zr
  Zr8      1.0000 0.12390  0.25029  0.37692  Biso   1.000  Zr
  Zr9      1.0000 0.12731  0.25195  0.87225  Biso   1.000  Zr
  Zr10     1.0000 0.12563  0.74830  0.37501  Biso   1.000  Zr
  Zr11     1.0000 0.12769  0.75015  0.87420  Biso   1.000  Zr
  Zr12     1.0000 0.62460  0.24912  0.37612  Biso   1.000  Zr
  Zr13     1.0000 0.62485  0.24934  0.87468  Biso   1.000  Zr
  Zr14     1.0000 0.62461  0.74998  0.37531  Biso   1.000  Zr
  Zr15     1.0000 0.62556  0.75043  0.87599  Biso   1.000  Zr
  Zr16     1.0000 0.37691  0.25029  0.12390  Biso   1.000  Zr
  Zr17     1.0000 0.37612  0.24912  0.62460  Biso   1.000  Zr
  Zr18     1.0000 0.37501  0.74830  0.12563  Biso   1.000  Zr
  Zr19     1.0000 0.37531  0.74998  0.62461  Biso   1.000  Zr
  Zr20     1.0000 0.87224  0.25195  0.12732  Biso   1.000  Zr
  Zr21     1.0000 0.87467  0.24934  0.62485  Biso   1.000  Zr
  Zr22     1.0000 0.87420  0.75015  0.12770  Biso   1.000  Zr
  Zr23     1.0000 0.87599  0.75043  0.62556  Biso   1.000  Zr
  Zr24     1.0000 0.37483  0.99851  0.37483  Biso   1.000  Zr
  Zr25     1.0000 0.37702  0.99794  0.87513  Biso   1.000  Zr
  Zr26     1.0000 0.37616  0.49915  0.37616  Biso   1.000  Zr
  Zr27     1.0000 0.37596  0.50054  0.87516  Biso   1.000  Zr
  Zr28     1.0000 0.87513  0.99794  0.37702  Biso   1.000  Zr
  Zr29     1.0000 0.87461  0.00224  0.87461  Biso   1.000  Zr
  Zr30     1.0000 0.87516  0.50054  0.37596  Biso   1.000  Zr
  Zr31     1.0000 0.87334  0.50159  0.87334  Biso   1.000  Zr
  O1       1.0000 0.99180  0.15864  0.99180  Biso   1.000  O
  O2       1.0000 0.00057  0.14658  0.50163  Biso   1.000  O
  O3       1.0000 0.99866  0.65172  0.99866  Biso   1.000  O
  O4       1.0000 0.99947  0.64567  0.50047  Biso   1.000  O
  O5       1.0000 0.50163  0.14658  0.00057  Biso   1.000  O
  O6       1.0000 0.50038  0.14589  0.50038  Biso   1.000  O
  O7       1.0000 0.50047  0.64567  0.99947  Biso   1.000  O
  O8       1.0000 0.49974  0.64582  0.49974  Biso   1.000  O
  O9       1.0000 0.99315  0.10990  0.25429  Biso   1.000  O
  O10      1.0000 0.00031  0.10251  0.74885  Biso   1.000  O
  O11      1.0000 0.00007  0.60141  0.24923  Biso   1.000  O
  O12      1.0000 0.00101  0.60284  0.74960  Biso   1.000  O
  O13      1.0000 0.49984  0.10224  0.25034  Biso   1.000  O
  O14      1.0000 0.50092  0.10297  0.74974  Biso   1.000  O
  O15      1.0000 0.49980  0.60234  0.25005  Biso   1.000  O
  O16      1.0000 0.50100  0.60298  0.74997  Biso   1.000  O
  O17      1.0000 0.00160  0.35412  0.24941  Biso   1.000  O
  O18      1.0000 0.99898  0.35381  0.74890  Biso   1.000  O
  O19      1.0000 0.99039  0.84766  0.26201  Biso   1.000  O
  O20      1.0000 0.00043  0.85253  0.75218  Biso   1.000  O
  O21      1.0000 0.50158  0.35304  0.25091  Biso   1.000  O
  O22      1.0000 0.49897  0.35320  0.75131  Biso   1.000  O
  O23      1.0000 0.50069  0.85217  0.24932  Biso   1.000  O
  O24      1.0000 0.50136  0.85230  0.74916  Biso   1.000  O
  O25      1.0000 0.99972  0.40415  0.99972  Biso   1.000  O
  O26      1.0000 0.00122  0.39615  0.49892  Biso   1.000  O
  O27      1.0000 0.99923  0.89571  0.99923  Biso   1.000  O
  O28      1.0000 0.99838  0.89677  0.50493  Biso   1.000  O
  O29      1.0000 0.49892  0.39615  0.00122  Biso   1.000  O
  O30      1.0000 0.50093  0.39568  0.50093  Biso   1.000  O
  O31      1.0000 0.50493  0.89677  0.99838  Biso   1.000  O
  O32      1.0000 0.49989  0.89584  0.49989  Biso   1.000  O
  O33      1.0000 0.25513  0.14939  0.25513  Biso   1.000  O
  O34      1.0000 0.24975  0.14729  0.74728  Biso   1.000  O
  O35      1.0000 0.25008  0.64320  0.25008  Biso   1.000  O
  O36      1.0000 0.25148  0.64595  0.74936  Biso   1.000  O
  O37      1.0000 0.74728  0.14729  0.24976  Biso   1.000  O
  O38      1.0000 0.75057  0.14685  0.75057  Biso   1.000  O
  O39      1.0000 0.74936  0.64595  0.25149  Biso   1.000  O
  O40      1.0000 0.75129  0.64682  0.75129  Biso   1.000  O
  O41      1.0000 0.25428  0.10990  0.99316  Biso   1.000  O
  O42      1.0000 0.25034  0.10224  0.49984  Biso   1.000  O
  O43      1.0000 0.24923  0.60141  0.00008  Biso   1.000  O
  O44      1.0000 0.25004  0.60234  0.49980  Biso   1.000  O
  O45      1.0000 0.74884  0.10251  0.00031  Biso   1.000  O
  O46      1.0000 0.74974  0.10297  0.50092  Biso   1.000  O
  O47      1.0000 0.74960  0.60283  0.00101  Biso   1.000  O
  O48      1.0000 0.74997  0.60298  0.50100  Biso   1.000  O
  O49      1.0000 0.24941  0.35412  0.00160  Biso   1.000  O
  O50      1.0000 0.25091  0.35304  0.50158  Biso   1.000  O
  O51      1.0000 0.26201  0.84766  0.99039  Biso   1.000  O
  O52      1.0000 0.24932  0.85217  0.50069  Biso   1.000  O
  O53      1.0000 0.74890  0.35381  0.99898  Biso   1.000  O
  O54      1.0000 0.75131  0.35320  0.49898  Biso   1.000  O
  O55      1.0000 0.75218  0.85253  0.00043  Biso   1.000  O
  O56      1.0000 0.74916  0.85230  0.50136  Biso   1.000  O
  O57      1.0000 0.25141  0.39555  0.25140  Biso   1.000  O
  O58      1.0000 0.24903  0.39695  0.75155  Biso   1.000  O
  O59      1.0000 0.25317  0.88792  0.25317  Biso   1.000  O
  O60      1.0000 0.25159  0.89703  0.74760  Biso   1.000  O
  O61      1.0000 0.75155  0.39695  0.24903  Biso   1.000  O
  O62      1.0000 0.74920  0.39643  0.74920  Biso   1.000  O
  O63      1.0000 0.74760  0.89703  0.25159  Biso   1.000  O
  O64      1.0000 0.75037  0.89713  0.75037  Biso   1.000  O
