data_image0
_cell_length_a       10.1325
_cell_length_b       10.313
_cell_length_c       10.523
_cell_angle_alpha    89.9312
_cell_angle_beta     90.0833
_cell_angle_gamma    90.0076

_symmetry_space_group_name_H-M    "P 1"
_symmetry_int_tables_number       1

loop_
  _symmetry_equiv_pos_as_xyz
  'x, y, z'

loop_
  _atom_site_label
  _atom_site_occupancy
  _atom_site_fract_x
  _atom_site_fract_y
  _atom_site_fract_z
  _atom_site_thermal_displace_type
  _atom_site_B_iso_or_equiv
  _atom_site_type_symbol
  Tl1      1.0000 0.13643  0.01608  0.16920  Biso   1.000  Tl
  Zr1      1.0000 0.13922  0.02093  0.67125  Biso   1.000  Zr
  Zr2      1.0000 0.13905  0.52082  0.17108  Biso   1.000  Zr
  Zr3      1.0000 0.13902  0.52094  0.67133  Biso   1.000  Zr
  Zr4      1.0000 0.13903  0.22833  0.42176  Biso   1.000  Zr
  Zr5      1.0000 0.13968  0.22947  0.92058  Biso   1.000  Zr
  Zr6      1.0000 0.13927  0.72899  0.42102  Biso   1.000  Zr
  Zr7      1.0000 0.13989  0.72887  0.92107  Biso   1.000  Zr
  Zr8      1.0000 0.35870  0.26886  0.17134  Biso   1.000  Zr
  Zr9      1.0000 0.36091  0.27076  0.67141  Biso   1.000  Zr
  Zr10     1.0000 0.36262  0.77016  0.17080  Biso   1.000  Zr
  Zr11     1.0000 0.36070  0.77096  0.67091  Biso   1.000  Zr
  Zr12     1.0000 0.36056  0.47850  0.42084  Biso   1.000  Zr
  Zr13     1.0000 0.36077  0.47852  0.92202  Biso   1.000  Zr
  Zr14     1.0000 0.36105  0.97956  0.42115  Biso   1.000  Zr
  Zr15     1.0000 0.36210  0.97953  0.92035  Biso   1.000  Zr
  Zr16     1.0000 0.63971  0.02076  0.07934  Biso   1.000  Zr
  Zr17     1.0000 0.63883  0.02115  0.57952  Biso   1.000  Zr
  Zr18     1.0000 0.63847  0.51959  0.07829  Biso   1.000  Zr
  Zr19     1.0000 0.63880  0.52086  0.57785  Biso   1.000  Zr
  Zr20     1.0000 0.63820  0.22974  0.32842  Biso   1.000  Zr
  Zr21     1.0000 0.63942  0.22906  0.82874  Biso   1.000  Zr
  Zr22     1.0000 0.63915  0.72921  0.32847  Biso   1.000  Zr
  Zr23     1.0000 0.63883  0.72883  0.82797  Biso   1.000  Zr
  Zr24     1.0000 0.86143  0.27102  0.07819  Biso   1.000  Zr
  Zr25     1.0000 0.86107  0.27142  0.57849  Biso   1.000  Zr
  Zr26     1.0000 0.85951  0.76955  0.07811  Biso   1.000  Zr
  Zr27     1.0000 0.86151  0.77098  0.57876  Biso   1.000  Zr
  Zr28     1.0000 0.86109  0.47942  0.32827  Biso   1.000  Zr
  Zr29     1.0000 0.86092  0.47914  0.82802  Biso   1.000  Zr
  Zr30     1.0000 0.85836  0.97982  0.33086  Biso   1.000  Zr
  Zr31     1.0000 0.86156  0.97903  0.82939  Biso   1.000  Zr
  O1       1.0000 0.03290  0.17493  0.08121  Biso   1.000  O
  O2       1.0000 0.03342  0.16886  0.58827  Biso   1.000  O
  O3       1.0000 0.03277  0.66542  0.08288  Biso   1.000  O
  O4       1.0000 0.03257  0.66545  0.58431  Biso   1.000  O
  O5       1.0000 0.02560  0.08654  0.34724  Biso   1.000  O
  O6       1.0000 0.03316  0.08372  0.83440  Biso   1.000  O
  O7       1.0000 0.03217  0.58567  0.33341  Biso   1.000  O
  O8       1.0000 0.03229  0.58424  0.83297  Biso   1.000  O
  O9       1.0000 0.46826  0.41221  0.08214  Biso   1.000  O
  O10      1.0000 0.46868  0.41328  0.58210  Biso   1.000  O
  O11      1.0000 0.47025  0.91375  0.08213  Biso   1.000  O
  O12      1.0000 0.46852  0.91381  0.58319  Biso   1.000  O
  O13      1.0000 0.46859  0.33738  0.33204  Biso   1.000  O
  O14      1.0000 0.46868  0.33615  0.83207  Biso   1.000  O
  O15      1.0000 0.46987  0.83654  0.33253  Biso   1.000  O
  O16      1.0000 0.46895  0.83597  0.83139  Biso   1.000  O
  O17      1.0000 0.28167  0.12792  0.30219  Biso   1.000  O
  O18      1.0000 0.27529  0.12418  0.79354  Biso   1.000  O
  O19      1.0000 0.27577  0.62245  0.29493  Biso   1.000  O
  O20      1.0000 0.27528  0.62444  0.79512  Biso   1.000  O
  O21      1.0000 0.28327  0.13139  0.03800  Biso   1.000  O
  O22      1.0000 0.27516  0.12514  0.54673  Biso   1.000  O
  O23      1.0000 0.27541  0.62322  0.04552  Biso   1.000  O
  O24      1.0000 0.27510  0.62550  0.54508  Biso   1.000  O
  O25      1.0000 0.22361  0.37402  0.29512  Biso   1.000  O
  O26      1.0000 0.22549  0.37473  0.79491  Biso   1.000  O
  O27      1.0000 0.22934  0.86831  0.29766  Biso   1.000  O
  O28      1.0000 0.22518  0.87422  0.79318  Biso   1.000  O
  O29      1.0000 0.22402  0.37712  0.04507  Biso   1.000  O
  O30      1.0000 0.22528  0.37607  0.54560  Biso   1.000  O
  O31      1.0000 0.23340  0.86806  0.03873  Biso   1.000  O
  O32      1.0000 0.22486  0.87572  0.54517  Biso   1.000  O
  O33      1.0000 0.53228  0.16410  0.16728  Biso   1.000  O
  O34      1.0000 0.53193  0.16411  0.66736  Biso   1.000  O
  O35      1.0000 0.53179  0.66179  0.16810  Biso   1.000  O
  O36      1.0000 0.53145  0.66312  0.66741  Biso   1.000  O
  O37      1.0000 0.53266  0.08581  0.41786  Biso   1.000  O
  O38      1.0000 0.53400  0.08517  0.91620  Biso   1.000  O
  O39      1.0000 0.53112  0.58643  0.41785  Biso   1.000  O
  O40      1.0000 0.53077  0.58658  0.91792  Biso   1.000  O
  O41      1.0000 0.96594  0.41779  0.16576  Biso   1.000  O
  O42      1.0000 0.96725  0.41645  0.66550  Biso   1.000  O
  O43      1.0000 0.95342  0.91362  0.16666  Biso   1.000  O
  O44      1.0000 0.96719  0.91581  0.66603  Biso   1.000  O
  O45      1.0000 0.96762  0.33702  0.41742  Biso   1.000  O
  O46      1.0000 0.96684  0.33562  0.91426  Biso   1.000  O
  O47      1.0000 0.96724  0.83408  0.41656  Biso   1.000  O
  O48      1.0000 0.96809  0.83427  0.91580  Biso   1.000  O
  O49      1.0000 0.77593  0.12418  0.95516  Biso   1.000  O
  O50      1.0000 0.77342  0.12569  0.45665  Biso   1.000  O
  O51      1.0000 0.77391  0.62284  0.95349  Biso   1.000  O
  O52      1.0000 0.77511  0.62465  0.45455  Biso   1.000  O
  O53      1.0000 0.77472  0.12655  0.20596  Biso   1.000  O
  O54      1.0000 0.77536  0.12577  0.70560  Biso   1.000  O
  O55      1.0000 0.77463  0.62560  0.20429  Biso   1.000  O
  O56      1.0000 0.77480  0.62585  0.70398  Biso   1.000  O
  O57      1.0000 0.72409  0.37420  0.95409  Biso   1.000  O
  O58      1.0000 0.72447  0.37528  0.45428  Biso   1.000  O
  O59      1.0000 0.72481  0.87387  0.95442  Biso   1.000  O
  O60      1.0000 0.72458  0.87452  0.45612  Biso   1.000  O
  O61      1.0000 0.72442  0.37596  0.20481  Biso   1.000  O
  O62      1.0000 0.72500  0.37552  0.70410  Biso   1.000  O
  O63      1.0000 0.71930  0.87506  0.20571  Biso   1.000  O
  O64      1.0000 0.72526  0.87545  0.70518  Biso   1.000  O
