data_image0
_cell_length_a       5.08851
_cell_length_b       10.486
_cell_length_c       10.2204
_cell_angle_alpha    89.2478
_cell_angle_beta     92.4362
_cell_angle_gamma    91.8691

_symmetry_space_group_name_H-M    "P 1"
_symmetry_int_tables_number       1

loop_
  _symmetry_equiv_pos_as_xyz
  'x, y, z'

loop_
  _atom_site_label
  _atom_site_occupancy
  _atom_site_fract_x
  _atom_site_fract_y
  _atom_site_fract_z
  _atom_site_thermal_displace_type
  _atom_site_B_iso_or_equiv
  _atom_site_type_symbol
  Zr1      1.0000 0.27807  0.98315  0.10069  Biso   1.000  Zr
  Zr2      1.0000 0.24029  0.22899  0.41171  Biso   1.000  Zr
  Zr3      1.0000 0.59665  0.25688  0.15665  Biso   1.000  Zr
  Zr4      1.0000 0.73586  0.48745  0.37982  Biso   1.000  Zr
  O1       1.0000 0.88018  0.18478  0.28674  Biso   1.000  O
  O2       1.0000 0.07916  0.05464  0.46186  Biso   1.000  O
  O3       1.0000 0.88693  0.43998  0.20036  Biso   1.000  O
  O4       1.0000 0.96968  0.34350  0.47632  Biso   1.000  O
  O5       1.0000 0.40960  0.10370  0.25811  Biso   1.000  O
  O6       1.0000 0.56455  0.13837  0.50537  Biso   1.000  O
  O7       1.0000 0.49012  0.38459  0.50510  Biso   1.000  O
  O8       1.0000 0.38552  0.37472  0.26652  Biso   1.000  O
  Zr5      1.0000 0.30257  0.00728  0.62492  Biso   1.000  Zr
  Zr6      1.0000 0.31068  0.22775  0.85134  Biso   1.000  Zr
  Zr7      1.0000 0.77348  0.27720  0.64052  Biso   1.000  Zr
  Zr8      1.0000 0.73587  0.48316  0.87060  Biso   1.000  Zr
  O9       1.0000 0.12890  0.18405  0.66576  Biso   1.000  O
  O10      1.0000 0.11419  0.05597  0.92001  Biso   1.000  O
  O11      1.0000 0.92263  0.46123  0.68525  Biso   1.000  O
  O12      1.0000 0.93026  0.30307  0.85405  Biso   1.000  O
  O13      1.0000 0.57401  0.11380  0.75236  Biso   1.000  O
  O14      1.0000 0.57844  0.11786  0.00840  Biso   1.000  O
  O15      1.0000 0.48119  0.37893  0.99779  Biso   1.000  O
  O16      1.0000 0.46366  0.37303  0.74360  Biso   1.000  O
  Zr9      1.0000 0.25366  0.52566  0.13384  Biso   1.000  Zr
  Zr10     1.0000 0.27765  0.74401  0.37770  Biso   1.000  Zr
  Zr11     1.0000 0.74217  0.76186  0.12837  Biso   1.000  Zr
  Zr12     1.0000 0.74286  0.00313  0.36296  Biso   1.000  Zr
  O17      1.0000 0.08094  0.68669  0.19652  Biso   1.000  O
  O18      1.0000 0.07305  0.57962  0.44078  Biso   1.000  O
  O19      1.0000 0.93586  0.94391  0.18813  Biso   1.000  O
  O20      1.0000 0.94139  0.82148  0.43961  Biso   1.000  O
  O21      1.0000 0.54049  0.62148  0.25293  Biso   1.000  O
  O22      1.0000 0.54144  0.63768  0.49898  Biso   1.000  O
  O23      1.0000 0.48533  0.88914  0.49355  Biso   1.000  O
  O24      1.0000 0.48180  0.86348  0.24094  Biso   1.000  O
  Zr13     1.0000 0.27112  0.51492  0.61524  Biso   1.000  Zr
  Zr14     1.0000 0.28466  0.72807  0.86969  Biso   1.000  Zr
  Zr15     1.0000 0.75916  0.76831  0.61757  Biso   1.000  Zr
  Zr16     1.0000 0.76189  0.97613  0.87129  Biso   1.000  Zr
  O25      1.0000 0.09075  0.68850  0.69209  Biso   1.000  O
  O26      1.0000 0.07174  0.56309  0.95065  Biso   1.000  O
  O27      1.0000 0.96250  0.92976  0.70073  Biso   1.000  O
  O28      1.0000 0.98444  0.81942  0.96249  Biso   1.000  O
  O29      1.0000 0.54554  0.61577  0.75084  Biso   1.000  O
  O30      1.0000 0.54230  0.62959  0.00287  Biso   1.000  O
  O31      1.0000 0.50178  0.86982  0.98988  Biso   1.000  O
  O32      1.0000 0.49758  0.86090  0.74550  Biso   1.000  O
  Tl1      1.0000 0.06529  0.24259  0.08074  Biso   1.000  Tl
