data_image0
_cell_length_a       10.315
_cell_length_b       5.21769
_cell_length_c       10.6937
_cell_angle_alpha    90.0029
_cell_angle_beta     78.7147
_cell_angle_gamma    89.9591

_symmetry_space_group_name_H-M    "P 1"
_symmetry_int_tables_number       1

loop_
  _symmetry_equiv_pos_as_xyz
  'x, y, z'

loop_
  _atom_site_label
  _atom_site_occupancy
  _atom_site_fract_x
  _atom_site_fract_y
  _atom_site_fract_z
  _atom_site_thermal_displace_type
  _atom_site_B_iso_or_equiv
  _atom_site_type_symbol
  Zr1      1.0000 0.13023  0.04495  0.14228  Biso   1.000  Zr
  Zr2      1.0000 0.13642  0.45475  0.39195  Biso   1.000  Zr
  Zr3      1.0000 0.34539  0.55296  0.08977  Biso   1.000  Zr
  Zr4      1.0000 0.35148  0.94477  0.35086  Biso   1.000  Zr
  O1       1.0000 0.02695  0.33382  0.07415  Biso   1.000  O
  O2       1.0000 0.02639  0.17399  0.32642  Biso   1.000  O
  O3       1.0000 0.45199  0.87650  0.15234  Biso   1.000  O
  O4       1.0000 0.48374  0.71357  0.46076  Biso   1.000  O
  O5       1.0000 0.25959  0.24224  0.23406  Biso   1.000  O
  O6       1.0000 0.27717  0.23742  0.48558  Biso   1.000  O
  O7       1.0000 0.21539  0.76834  0.00178  Biso   1.000  O
  O8       1.0000 0.20751  0.74446  0.25204  Biso   1.000  O
  Zr5      1.0000 0.14074  0.04348  0.64331  Biso   1.000  Zr
  Zr6      1.0000 0.13109  0.45825  0.89198  Biso   1.000  Zr
  Zr7      1.0000 0.36436  0.55095  0.61093  Biso   1.000  Zr
  Zr8      1.0000 0.35812  0.96266  0.85414  Biso   1.000  Zr
  O9       1.0000 0.03629  0.32871  0.57643  Biso   1.000  O
  O10      1.0000 0.02982  0.17390  0.82395  Biso   1.000  O
  O11      1.0000 0.47128  0.81897  0.68879  Biso   1.000  O
  O12      1.0000 0.46235  0.67251  0.92148  Biso   1.000  O
  O13      1.0000 0.27273  0.25282  0.73832  Biso   1.000  O
  O14      1.0000 0.26727  0.25567  0.98511  Biso   1.000  O
  O15      1.0000 0.22607  0.74763  0.50823  Biso   1.000  O
  O16      1.0000 0.22417  0.74506  0.75764  Biso   1.000  O
  Zr9      1.0000 0.63458  0.03558  0.14522  Biso   1.000  Zr
  Zr10     1.0000 0.65983  0.46472  0.41589  Biso   1.000  Zr
  Zr11     1.0000 0.85554  0.54166  0.10996  Biso   1.000  Zr
  Zr12     1.0000 0.86127  0.95690  0.35625  Biso   1.000  Zr
  O17      1.0000 0.52807  0.33504  0.07176  Biso   1.000  O
  O18      1.0000 0.53828  0.10474  0.33400  Biso   1.000  O
  O19      1.0000 0.96098  0.83099  0.17362  Biso   1.000  O
  O20      1.0000 0.96549  0.66684  0.42573  Biso   1.000  O
  O21      1.0000 0.77355  0.25829  0.24768  Biso   1.000  O
  O22      1.0000 0.78307  0.23460  0.50085  Biso   1.000  O
  O23      1.0000 0.72025  0.75245  0.01611  Biso   1.000  O
  O24      1.0000 0.72648  0.74235  0.26683  Biso   1.000  O
  Zr13     1.0000 0.63870  0.04292  0.65362  Biso   1.000  Zr
  Zr14     1.0000 0.63595  0.45864  0.89843  Biso   1.000  Zr
  Zr15     1.0000 0.86783  0.54446  0.61172  Biso   1.000  Zr
  Zr16     1.0000 0.85969  0.95837  0.85844  Biso   1.000  Zr
  O25      1.0000 0.53418  0.31673  0.57931  Biso   1.000  O
  O26      1.0000 0.52949  0.17840  0.82864  Biso   1.000  O
  O27      1.0000 0.96988  0.82951  0.67655  Biso   1.000  O
  O28      1.0000 0.96147  0.67243  0.92496  Biso   1.000  O
  O29      1.0000 0.77364  0.25958  0.74573  Biso   1.000  O
  O30      1.0000 0.77077  0.24105  0.99436  Biso   1.000  O
  O31      1.0000 0.73140  0.75387  0.52046  Biso   1.000  O
  O32      1.0000 0.72715  0.74762  0.76680  Biso   1.000  O
  Tl1      1.0000 0.45726  0.47408  0.28977  Biso   1.000  Tl
