data_image0
_cell_length_a       5.03451
_cell_length_b       10.2686
_cell_length_c       10.113
_cell_angle_alpha    89.9974
_cell_angle_beta     90.0004
_cell_angle_gamma    89.9984

_symmetry_space_group_name_H-M    "P 1"
_symmetry_int_tables_number       1

loop_
  _symmetry_equiv_pos_as_xyz
  'x, y, z'

loop_
  _atom_site_label
  _atom_site_occupancy
  _atom_site_fract_x
  _atom_site_fract_y
  _atom_site_fract_z
  _atom_site_thermal_displace_type
  _atom_site_B_iso_or_equiv
  _atom_site_type_symbol
  Tl1      1.0000 0.25140  0.99985  0.12526  Biso   1.000  Tl
  Zr1      1.0000 0.25140  0.99987  0.62526  Biso   1.000  Zr
  Zr2      1.0000 0.25141  0.49988  0.12526  Biso   1.000  Zr
  Zr3      1.0000 0.25141  0.49987  0.62527  Biso   1.000  Zr
  Zr4      1.0000 0.24994  0.25161  0.37655  Biso   1.000  Zr
  Zr5      1.0000 0.25292  0.25161  0.87400  Biso   1.000  Zr
  Zr6      1.0000 0.25291  0.74813  0.37655  Biso   1.000  Zr
  Zr7      1.0000 0.24989  0.74814  0.87397  Biso   1.000  Zr
  Zr8      1.0000 0.75143  0.25321  0.12528  Biso   1.000  Zr
  Zr9      1.0000 0.75143  0.24931  0.62527  Biso   1.000  Zr
  Zr10     1.0000 0.75140  0.74653  0.12527  Biso   1.000  Zr
  Zr11     1.0000 0.75141  0.75042  0.62526  Biso   1.000  Zr
  Zr12     1.0000 0.75141  0.99987  0.37739  Biso   1.000  Zr
  Zr13     1.0000 0.75139  0.99988  0.87313  Biso   1.000  Zr
  Zr14     1.0000 0.75141  0.49986  0.37542  Biso   1.000  Zr
  Zr15     1.0000 0.75141  0.49987  0.87512  Biso   1.000  Zr
  O1       1.0000 0.98612  0.14965  0.99203  Biso   1.000  O
  O2       1.0000 0.00152  0.14727  0.50051  Biso   1.000  O
  O3       1.0000 0.00443  0.64400  0.00004  Biso   1.000  O
  O4       1.0000 0.99831  0.64600  0.50055  Biso   1.000  O
  O5       1.0000 0.99752  0.11115  0.25398  Biso   1.000  O
  O6       1.0000 0.00088  0.10276  0.74775  Biso   1.000  O
  O7       1.0000 0.99903  0.60295  0.24947  Biso   1.000  O
  O8       1.0000 0.00417  0.60298  0.75079  Biso   1.000  O
  O9       1.0000 0.00443  0.35573  0.25050  Biso   1.000  O
  O10      1.0000 0.99831  0.35374  0.74999  Biso   1.000  O
  O11      1.0000 0.98615  0.85008  0.25850  Biso   1.000  O
  O12      1.0000 0.00149  0.85247  0.75003  Biso   1.000  O
  O13      1.0000 0.99909  0.39679  0.00106  Biso   1.000  O
  O14      1.0000 0.00419  0.39676  0.49974  Biso   1.000  O
  O15      1.0000 0.99741  0.88858  0.99656  Biso   1.000  O
  O16      1.0000 0.00086  0.89698  0.50278  Biso   1.000  O
  O17      1.0000 0.51673  0.14966  0.25852  Biso   1.000  O
  O18      1.0000 0.50133  0.14728  0.75004  Biso   1.000  O
  O19      1.0000 0.49835  0.64401  0.25048  Biso   1.000  O
  O20      1.0000 0.50448  0.64600  0.74997  Biso   1.000  O
  O21      1.0000 0.50534  0.11116  0.99657  Biso   1.000  O
  O22      1.0000 0.50197  0.10275  0.50279  Biso   1.000  O
  O23      1.0000 0.50377  0.60295  0.00106  Biso   1.000  O
  O24      1.0000 0.49862  0.60298  0.49974  Biso   1.000  O
  O25      1.0000 0.49839  0.35574  0.00005  Biso   1.000  O
  O26      1.0000 0.50451  0.35374  0.50057  Biso   1.000  O
  O27      1.0000 0.51662  0.85009  0.99203  Biso   1.000  O
  O28      1.0000 0.50131  0.85246  0.50050  Biso   1.000  O
  O29      1.0000 0.50374  0.39679  0.24949  Biso   1.000  O
  O30      1.0000 0.49862  0.39676  0.75081  Biso   1.000  O
  O31      1.0000 0.50539  0.88859  0.25397  Biso   1.000  O
  O32      1.0000 0.50194  0.89698  0.74775  Biso   1.000  O
