data_image0
_cell_length_a       10.166
_cell_length_b       5.16228
_cell_length_c       10.5297
_cell_angle_alpha    89.8921
_cell_angle_beta     90.0822
_cell_angle_gamma    90.0432

_symmetry_space_group_name_H-M    "P 1"
_symmetry_int_tables_number       1

loop_
  _symmetry_equiv_pos_as_xyz
  'x, y, z'

loop_
  _atom_site_label
  _atom_site_occupancy
  _atom_site_fract_x
  _atom_site_fract_y
  _atom_site_fract_z
  _atom_site_thermal_displace_type
  _atom_site_B_iso_or_equiv
  _atom_site_type_symbol
  Tl1      1.0000 0.13564  0.03123  0.16864  Biso   1.000  Tl
  Zr1      1.0000 0.14014  0.04105  0.67138  Biso   1.000  Zr
  Zr2      1.0000 0.14092  0.45755  0.42155  Biso   1.000  Zr
  Zr3      1.0000 0.14148  0.45921  0.92039  Biso   1.000  Zr
  Zr4      1.0000 0.36057  0.53602  0.17047  Biso   1.000  Zr
  Zr5      1.0000 0.36142  0.54119  0.67102  Biso   1.000  Zr
  Zr6      1.0000 0.36107  0.95776  0.42057  Biso   1.000  Zr
  Zr7      1.0000 0.36280  0.95815  0.92059  Biso   1.000  Zr
  Zr8      1.0000 0.63898  0.03917  0.07903  Biso   1.000  Zr
  Zr9      1.0000 0.63820  0.04179  0.57915  Biso   1.000  Zr
  Zr10     1.0000 0.63757  0.45918  0.32853  Biso   1.000  Zr
  Zr11     1.0000 0.63927  0.45773  0.82835  Biso   1.000  Zr
  Zr12     1.0000 0.85943  0.53889  0.07783  Biso   1.000  Zr
  Zr13     1.0000 0.86083  0.54197  0.57864  Biso   1.000  Zr
  Zr14     1.0000 0.85655  0.96053  0.33063  Biso   1.000  Zr
  Zr15     1.0000 0.86104  0.95860  0.82879  Biso   1.000  Zr
  O1       1.0000 0.03359  0.35534  0.08187  Biso   1.000  O
  O2       1.0000 0.03324  0.33724  0.58864  Biso   1.000  O
  O3       1.0000 0.02470  0.17406  0.34838  Biso   1.000  O
  O4       1.0000 0.03321  0.16573  0.83411  Biso   1.000  O
  O5       1.0000 0.47053  0.82406  0.08182  Biso   1.000  O
  O6       1.0000 0.46868  0.82710  0.58306  Biso   1.000  O
  O7       1.0000 0.46947  0.67364  0.33247  Biso   1.000  O
  O8       1.0000 0.46948  0.67078  0.83124  Biso   1.000  O
  O9       1.0000 0.28105  0.25171  0.30203  Biso   1.000  O
  O10      1.0000 0.27536  0.24839  0.79369  Biso   1.000  O
  O11      1.0000 0.28283  0.25650  0.03876  Biso   1.000  O
  O12      1.0000 0.27492  0.24980  0.54684  Biso   1.000  O
  O13      1.0000 0.22835  0.73689  0.29720  Biso   1.000  O
  O14      1.0000 0.22632  0.74922  0.79281  Biso   1.000  O
  O15      1.0000 0.23314  0.73959  0.03865  Biso   1.000  O
  O16      1.0000 0.22551  0.75132  0.54535  Biso   1.000  O
  O17      1.0000 0.53232  0.32435  0.16785  Biso   1.000  O
  O18      1.0000 0.53216  0.32733  0.66723  Biso   1.000  O
  O19      1.0000 0.53227  0.17061  0.41807  Biso   1.000  O
  O20      1.0000 0.53367  0.17062  0.91658  Biso   1.000  O
  O21      1.0000 0.94966  0.83932  0.16393  Biso   1.000  O
  O22      1.0000 0.96733  0.83384  0.66417  Biso   1.000  O
  O23      1.0000 0.96744  0.67128  0.41585  Biso   1.000  O
  O24      1.0000 0.96750  0.66859  0.91230  Biso   1.000  O
  O25      1.0000 0.77493  0.24602  0.95408  Biso   1.000  O
  O26      1.0000 0.77296  0.25169  0.45650  Biso   1.000  O
  O27      1.0000 0.77390  0.25392  0.20584  Biso   1.000  O
  O28      1.0000 0.77514  0.25156  0.70487  Biso   1.000  O
  O29      1.0000 0.72481  0.74751  0.95384  Biso   1.000  O
  O30      1.0000 0.72454  0.74997  0.45578  Biso   1.000  O
  O31      1.0000 0.71905  0.75134  0.20611  Biso   1.000  O
  O32      1.0000 0.72604  0.75066  0.70449  Biso   1.000  O
