data_image0
_cell_length_a       10.0761
_cell_length_b       5.21908
_cell_length_c       10.1183
_cell_angle_alpha    90.056
_cell_angle_beta     89.929
_cell_angle_gamma    89.977

_symmetry_space_group_name_H-M    "P 1"
_symmetry_int_tables_number       1

loop_
  _symmetry_equiv_pos_as_xyz
  'x, y, z'

loop_
  _atom_site_label
  _atom_site_occupancy
  _atom_site_fract_x
  _atom_site_fract_y
  _atom_site_fract_z
  _atom_site_thermal_displace_type
  _atom_site_B_iso_or_equiv
  _atom_site_type_symbol
  Tl1      1.0000 0.12734  0.03057  0.12087  Biso   1.000  Tl
  Zr1      1.0000 0.13377  0.03397  0.62757  Biso   1.000  Zr
  Zr2      1.0000 0.63420  0.02888  0.12585  Biso   1.000  Zr
  Zr3      1.0000 0.63292  0.03132  0.62471  Biso   1.000  Zr
  Zr4      1.0000 0.13696  0.46855  0.37703  Biso   1.000  Zr
  Zr5      1.0000 0.13455  0.47293  0.87423  Biso   1.000  Zr
  Zr6      1.0000 0.63249  0.46832  0.37565  Biso   1.000  Zr
  Zr7      1.0000 0.63454  0.46571  0.87499  Biso   1.000  Zr
  Zr8      1.0000 0.36628  0.52894  0.12765  Biso   1.000  Zr
  Zr9      1.0000 0.36646  0.53241  0.62603  Biso   1.000  Zr
  Zr10     1.0000 0.86207  0.52953  0.12523  Biso   1.000  Zr
  Zr11     1.0000 0.86572  0.53123  0.62369  Biso   1.000  Zr
  Zr12     1.0000 0.36397  0.96878  0.37542  Biso   1.000  Zr
  Zr13     1.0000 0.36716  0.96959  0.87542  Biso   1.000  Zr
  Zr14     1.0000 0.86546  0.97044  0.37706  Biso   1.000  Zr
  Zr15     1.0000 0.86394  0.96449  0.87323  Biso   1.000  Zr
  O1       1.0000 0.03082  0.38348  0.20108  Biso   1.000  O
  O2       1.0000 0.03768  0.37615  0.68924  Biso   1.000  O
  O3       1.0000 0.53729  0.36606  0.19420  Biso   1.000  O
  O4       1.0000 0.53512  0.36618  0.69527  Biso   1.000  O
  O5       1.0000 0.03425  0.13197  0.44686  Biso   1.000  O
  O6       1.0000 0.03461  0.13717  0.92133  Biso   1.000  O
  O7       1.0000 0.53453  0.13297  0.44531  Biso   1.000  O
  O8       1.0000 0.53703  0.13079  0.94442  Biso   1.000  O
  O9       1.0000 0.46736  0.86486  0.19594  Biso   1.000  O
  O10      1.0000 0.46556  0.86667  0.69541  Biso   1.000  O
  O11      1.0000 0.95220  0.86587  0.19678  Biso   1.000  O
  O12      1.0000 0.96307  0.86728  0.69175  Biso   1.000  O
  O13      1.0000 0.46560  0.63387  0.44736  Biso   1.000  O
  O14      1.0000 0.46650  0.63226  0.94394  Biso   1.000  O
  O15      1.0000 0.96530  0.63439  0.44487  Biso   1.000  O
  O16      1.0000 0.96522  0.63546  0.94620  Biso   1.000  O
  O17      1.0000 0.27604  0.24080  0.25279  Biso   1.000  O
  O18      1.0000 0.27122  0.23617  0.74804  Biso   1.000  O
  O19      1.0000 0.76735  0.23298  0.24964  Biso   1.000  O
  O20      1.0000 0.76948  0.23283  0.74720  Biso   1.000  O
  O21      1.0000 0.26961  0.26526  0.50089  Biso   1.000  O
  O22      1.0000 0.27472  0.27180  0.99378  Biso   1.000  O
  O23      1.0000 0.76793  0.26844  0.49844  Biso   1.000  O
  O24      1.0000 0.77088  0.26101  0.99790  Biso   1.000  O
  O25      1.0000 0.23029  0.76798  0.50142  Biso   1.000  O
  O26      1.0000 0.23551  0.75836  0.99773  Biso   1.000  O
  O27      1.0000 0.73052  0.76710  0.49896  Biso   1.000  O
  O28      1.0000 0.72867  0.76108  0.99867  Biso   1.000  O
  O29      1.0000 0.23829  0.72208  0.25538  Biso   1.000  O
  O30      1.0000 0.23123  0.73676  0.74885  Biso   1.000  O
  O31      1.0000 0.72813  0.73275  0.24975  Biso   1.000  O
  O32      1.0000 0.73024  0.73215  0.74819  Biso   1.000  O
