data_image0
_cell_length_a       10.113
_cell_length_b       10.2686
_cell_length_c       5.03451
_cell_angle_alpha    89.9984
_cell_angle_beta     90.0005
_cell_angle_gamma    89.9975

_symmetry_space_group_name_H-M    "P 1"
_symmetry_int_tables_number       1

loop_
  _symmetry_equiv_pos_as_xyz
  'x, y, z'

loop_
  _atom_site_label
  _atom_site_occupancy
  _atom_site_fract_x
  _atom_site_fract_y
  _atom_site_fract_z
  _atom_site_thermal_displace_type
  _atom_site_B_iso_or_equiv
  _atom_site_type_symbol
  Tl1      1.0000 0.12526  0.99985  0.25140  Biso   1.000  Tl
  Zr1      1.0000 0.12526  0.49987  0.25141  Biso   1.000  Zr
  Zr2      1.0000 0.62525  0.99987  0.25139  Biso   1.000  Zr
  Zr3      1.0000 0.62527  0.49987  0.25141  Biso   1.000  Zr
  Zr4      1.0000 0.12528  0.25321  0.75142  Biso   1.000  Zr
  Zr5      1.0000 0.12526  0.74653  0.75140  Biso   1.000  Zr
  Zr6      1.0000 0.62527  0.24931  0.75142  Biso   1.000  Zr
  Zr7      1.0000 0.62526  0.75042  0.75140  Biso   1.000  Zr
  Zr8      1.0000 0.37655  0.25160  0.24993  Biso   1.000  Zr
  Zr9      1.0000 0.37655  0.74813  0.25291  Biso   1.000  Zr
  Zr10     1.0000 0.87400  0.25161  0.25292  Biso   1.000  Zr
  Zr11     1.0000 0.87397  0.74813  0.24989  Biso   1.000  Zr
  Zr12     1.0000 0.37739  0.99987  0.75141  Biso   1.000  Zr
  Zr13     1.0000 0.37542  0.49986  0.75141  Biso   1.000  Zr
  Zr14     1.0000 0.87312  0.99987  0.75139  Biso   1.000  Zr
  Zr15     1.0000 0.87512  0.49987  0.75141  Biso   1.000  Zr
  O1       1.0000 0.99203  0.14965  0.98612  Biso   1.000  O
  O2       1.0000 0.00003  0.64400  0.00443  Biso   1.000  O
  O3       1.0000 0.50051  0.14727  0.00152  Biso   1.000  O
  O4       1.0000 0.50055  0.64600  0.99831  Biso   1.000  O
  O5       1.0000 0.99657  0.11116  0.50534  Biso   1.000  O
  O6       1.0000 0.00105  0.60295  0.50376  Biso   1.000  O
  O7       1.0000 0.50279  0.10275  0.50197  Biso   1.000  O
  O8       1.0000 0.49973  0.60298  0.49862  Biso   1.000  O
  O9       1.0000 0.00005  0.35573  0.49839  Biso   1.000  O
  O10      1.0000 0.99203  0.85009  0.51663  Biso   1.000  O
  O11      1.0000 0.50056  0.35374  0.50450  Biso   1.000  O
  O12      1.0000 0.50050  0.85246  0.50131  Biso   1.000  O
  O13      1.0000 0.00106  0.39679  0.99908  Biso   1.000  O
  O14      1.0000 0.99656  0.88858  0.99741  Biso   1.000  O
  O15      1.0000 0.49974  0.39676  0.00419  Biso   1.000  O
  O16      1.0000 0.50278  0.89698  0.00086  Biso   1.000  O
  O17      1.0000 0.25852  0.14966  0.51673  Biso   1.000  O
  O18      1.0000 0.25048  0.64401  0.49835  Biso   1.000  O
  O19      1.0000 0.75004  0.14727  0.50133  Biso   1.000  O
  O20      1.0000 0.74997  0.64600  0.50448  Biso   1.000  O
  O21      1.0000 0.25398  0.11115  0.99752  Biso   1.000  O
  O22      1.0000 0.24947  0.60295  0.99903  Biso   1.000  O
  O23      1.0000 0.74775  0.10275  0.00088  Biso   1.000  O
  O24      1.0000 0.75079  0.60298  0.00417  Biso   1.000  O
  O25      1.0000 0.25050  0.35573  0.00443  Biso   1.000  O
  O26      1.0000 0.25850  0.85008  0.98615  Biso   1.000  O
  O27      1.0000 0.74998  0.35374  0.99831  Biso   1.000  O
  O28      1.0000 0.75003  0.85247  0.00149  Biso   1.000  O
  O29      1.0000 0.24949  0.39679  0.50374  Biso   1.000  O
  O30      1.0000 0.25397  0.88858  0.50539  Biso   1.000  O
  O31      1.0000 0.75080  0.39676  0.49862  Biso   1.000  O
  O32      1.0000 0.74775  0.89698  0.50193  Biso   1.000  O
