data_image0
_cell_length_a       10.2996
_cell_length_b       10.5036
_cell_length_c       5.31169
_cell_angle_alpha    89.6748
_cell_angle_beta     78.9875
_cell_angle_gamma    89.7351

_symmetry_space_group_name_H-M    "P 1"
_symmetry_int_tables_number       1

loop_
  _symmetry_equiv_pos_as_xyz
  'x, y, z'

loop_
  _atom_site_label
  _atom_site_occupancy
  _atom_site_fract_x
  _atom_site_fract_y
  _atom_site_fract_z
  _atom_site_thermal_displace_type
  _atom_site_B_iso_or_equiv
  _atom_site_type_symbol
  Zr1      1.0000 0.13290  0.01959  0.28382  Biso   1.000  Zr
  Zr2      1.0000 0.13292  0.22696  0.77302  Biso   1.000  Zr
  Zr3      1.0000 0.34695  0.27871  0.18292  Biso   1.000  Zr
  Zr4      1.0000 0.35780  0.48734  0.70820  Biso   1.000  Zr
  O1       1.0000 0.03734  0.17027  0.15418  Biso   1.000  O
  O2       1.0000 0.02689  0.08133  0.65679  Biso   1.000  O
  O3       1.0000 0.45997  0.43688  0.34890  Biso   1.000  O
  O4       1.0000 0.47842  0.37237  0.90480  Biso   1.000  O
  O5       1.0000 0.25970  0.12240  0.45908  Biso   1.000  O
  O6       1.0000 0.27535  0.12179  0.95798  Biso   1.000  O
  O7       1.0000 0.21592  0.38279  0.99931  Biso   1.000  O
  O8       1.0000 0.21299  0.37345  0.50021  Biso   1.000  O
  Zr5      1.0000 0.13720  0.52339  0.29013  Biso   1.000  Zr
  Zr6      1.0000 0.13377  0.72862  0.79302  Biso   1.000  Zr
  Zr7      1.0000 0.35774  0.76952  0.20920  Biso   1.000  Zr
  Zr8      1.0000 0.35796  0.96480  0.70779  Biso   1.000  Zr
  O9       1.0000 0.02956  0.66747  0.15821  Biso   1.000  O
  O10      1.0000 0.03222  0.58495  0.65745  Biso   1.000  O
  O11      1.0000 0.46000  0.91823  0.33101  Biso   1.000  O
  O12      1.0000 0.45545  0.81832  0.83781  Biso   1.000  O
  O13      1.0000 0.27099  0.62954  0.48307  Biso   1.000  O
  O14      1.0000 0.27031  0.62416  0.98385  Biso   1.000  O
  O15      1.0000 0.22030  0.87778  0.01960  Biso   1.000  O
  O16      1.0000 0.22028  0.86767  0.51847  Biso   1.000  O
  Zr9      1.0000 0.63734  0.01316  0.29839  Biso   1.000  Zr
  Zr10     1.0000 0.66541  0.23687  0.83541  Biso   1.000  Zr
  Zr11     1.0000 0.86522  0.27291  0.23170  Biso   1.000  Zr
  Zr12     1.0000 0.86224  0.48262  0.71734  Biso   1.000  Zr
  O17      1.0000 0.53109  0.16213  0.13692  Biso   1.000  O
  O18      1.0000 0.54523  0.03776  0.67979  Biso   1.000  O
  O19      1.0000 0.96547  0.42036  0.34615  Biso   1.000  O
  O20      1.0000 0.95879  0.32900  0.84288  Biso   1.000  O
  O21      1.0000 0.77498  0.13173  0.50294  Biso   1.000  O
  O22      1.0000 0.78319  0.11559  0.00900  Biso   1.000  O
  O23      1.0000 0.72943  0.38131  0.05000  Biso   1.000  O
  O24      1.0000 0.72812  0.37590  0.54309  Biso   1.000  O
  Zr13     1.0000 0.63517  0.52759  0.30300  Biso   1.000  Zr
  Zr14     1.0000 0.63694  0.72808  0.79555  Biso   1.000  Zr
  Zr15     1.0000 0.85902  0.77098  0.21169  Biso   1.000  Zr
  Zr16     1.0000 0.85722  0.97691  0.71189  Biso   1.000  Zr
  O25      1.0000 0.53421  0.67355  0.16419  Biso   1.000  O
  O26      1.0000 0.53187  0.58984  0.66062  Biso   1.000  O
  O27      1.0000 0.96127  0.91622  0.34598  Biso   1.000  O
  O28      1.0000 0.96289  0.83309  0.84573  Biso   1.000  O
  O29      1.0000 0.77464  0.62956  0.48733  Biso   1.000  O
  O30      1.0000 0.77252  0.62201  0.98564  Biso   1.000  O
  O31      1.0000 0.72114  0.87697  0.02272  Biso   1.000  O
  O32      1.0000 0.72504  0.86775  0.51867  Biso   1.000  O
  Tl1      1.0000 0.45999  0.22984  0.58454  Biso   1.000  Tl
