data_image0
_cell_length_a       5.16492
_cell_length_b       10.4435
_cell_length_c       10.6457
_cell_angle_alpha    89.6894
_cell_angle_beta     78.8011
_cell_angle_gamma    89.7489

_symmetry_space_group_name_H-M    "P 1"
_symmetry_int_tables_number       1

loop_
  _symmetry_equiv_pos_as_xyz
  'x, y, z'

loop_
  _atom_site_label
  _atom_site_occupancy
  _atom_site_fract_x
  _atom_site_fract_y
  _atom_site_fract_z
  _atom_site_thermal_displace_type
  _atom_site_B_iso_or_equiv
  _atom_site_type_symbol
  Zr1      1.0000 0.26341  0.01372  0.14539  Biso   1.000  Zr
  Zr2      1.0000 0.33841  0.23902  0.40745  Biso   1.000  Zr
  Zr3      1.0000 0.68756  0.27380  0.09703  Biso   1.000  Zr
  Zr4      1.0000 0.72445  0.48744  0.35310  Biso   1.000  Zr
  O1       1.0000 0.04563  0.16039  0.07437  Biso   1.000  O
  O2       1.0000 0.07312  0.04194  0.33903  Biso   1.000  O
  O3       1.0000 0.91348  0.43468  0.15926  Biso   1.000  O
  O4       1.0000 0.98400  0.37869  0.45991  Biso   1.000  O
  O5       1.0000 0.51769  0.12312  0.23706  Biso   1.000  O
  O6       1.0000 0.57750  0.11231  0.49377  Biso   1.000  O
  O7       1.0000 0.42787  0.38104  0.00819  Biso   1.000  O
  O8       1.0000 0.42926  0.37912  0.25770  Biso   1.000  O
  Zr5      1.0000 0.27888  0.02149  0.64488  Biso   1.000  Zr
  Zr6      1.0000 0.26415  0.22761  0.89405  Biso   1.000  Zr
  Zr7      1.0000 0.74842  0.27976  0.61384  Biso   1.000  Zr
  Zr8      1.0000 0.71563  0.48037  0.85963  Biso   1.000  Zr
  O9       1.0000 0.08657  0.16802  0.57384  Biso   1.000  O
  O10      1.0000 0.05628  0.08772  0.82292  Biso   1.000  O
  O11      1.0000 0.95121  0.40723  0.69518  Biso   1.000  O
  O12      1.0000 0.91958  0.33464  0.92705  Biso   1.000  O
  O13      1.0000 0.54395  0.12967  0.74087  Biso   1.000  O
  O14      1.0000 0.53322  0.12424  0.98776  Biso   1.000  O
  O15      1.0000 0.48013  0.37856  0.51659  Biso   1.000  O
  O16      1.0000 0.45712  0.37355  0.76311  Biso   1.000  O
  Zr9      1.0000 0.26660  0.52573  0.14419  Biso   1.000  Zr
  Zr10     1.0000 0.26970  0.72449  0.39716  Biso   1.000  Zr
  Zr11     1.0000 0.71257  0.77046  0.10247  Biso   1.000  Zr
  Zr12     1.0000 0.70885  0.96169  0.35638  Biso   1.000  Zr
  O17      1.0000 0.06315  0.67374  0.07563  Biso   1.000  O
  O18      1.0000 0.05815  0.59193  0.32107  Biso   1.000  O
  O19      1.0000 0.91472  0.91368  0.17027  Biso   1.000  O
  O20      1.0000 0.91256  0.81900  0.42403  Biso   1.000  O
  O21      1.0000 0.54426  0.62888  0.24218  Biso   1.000  O
  O22      1.0000 0.53831  0.62023  0.49136  Biso   1.000  O
  O23      1.0000 0.44443  0.87972  0.00864  Biso   1.000  O
  O24      1.0000 0.43837  0.86382  0.25843  Biso   1.000  O
  Zr13     1.0000 0.27467  0.52236  0.64937  Biso   1.000  Zr
  Zr14     1.0000 0.26726  0.73070  0.89556  Biso   1.000  Zr
  Zr15     1.0000 0.71948  0.77057  0.60748  Biso   1.000  Zr
  Zr16     1.0000 0.71631  0.98015  0.85225  Biso   1.000  Zr
  O25      1.0000 0.05545  0.65984  0.58009  Biso   1.000  O
  O26      1.0000 0.05925  0.58866  0.82929  Biso   1.000  O
  O27      1.0000 0.93031  0.91591  0.67073  Biso   1.000  O
  O28      1.0000 0.92712  0.83758  0.92017  Biso   1.000  O
  O29      1.0000 0.54362  0.62743  0.74083  Biso   1.000  O
  O30      1.0000 0.54194  0.62421  0.99110  Biso   1.000  O
  O31      1.0000 0.43661  0.87282  0.51243  Biso   1.000  O
  O32      1.0000 0.44689  0.87315  0.76048  Biso   1.000  O
  Tl1      1.0000 0.91452  0.23519  0.30140  Biso   1.000  Tl
