data_image0
_cell_length_a       10.2521
_cell_length_b       5.18313
_cell_length_c       10.5255
_cell_angle_alpha    90.0503
_cell_angle_beta     80.4919
_cell_angle_gamma    90.0607

_symmetry_space_group_name_H-M    "P 1"
_symmetry_int_tables_number       1

loop_
  _symmetry_equiv_pos_as_xyz
  'x, y, z'

loop_
  _atom_site_label
  _atom_site_occupancy
  _atom_site_fract_x
  _atom_site_fract_y
  _atom_site_fract_z
  _atom_site_thermal_displace_type
  _atom_site_B_iso_or_equiv
  _atom_site_type_symbol
  Tl1      1.0000 0.13452  0.03054  0.14338  Biso   1.000  Tl
  Zr1      1.0000 0.14007  0.04205  0.64516  Biso   1.000  Zr
  Zr2      1.0000 0.63884  0.03818  0.14562  Biso   1.000  Zr
  Zr3      1.0000 0.63928  0.04335  0.64593  Biso   1.000  Zr
  Zr4      1.0000 0.14008  0.45489  0.39523  Biso   1.000  Zr
  Zr5      1.0000 0.14128  0.46021  0.89431  Biso   1.000  Zr
  Zr6      1.0000 0.63657  0.45689  0.39585  Biso   1.000  Zr
  Zr7      1.0000 0.64025  0.45896  0.89532  Biso   1.000  Zr
  Zr8      1.0000 0.36132  0.53540  0.10416  Biso   1.000  Zr
  Zr9      1.0000 0.36059  0.54273  0.60428  Biso   1.000  Zr
  Zr10     1.0000 0.85923  0.53751  0.10420  Biso   1.000  Zr
  Zr11     1.0000 0.86102  0.54272  0.60476  Biso   1.000  Zr
  Zr12     1.0000 0.35971  0.95625  0.35338  Biso   1.000  Zr
  Zr13     1.0000 0.36341  0.95951  0.85373  Biso   1.000  Zr
  Zr14     1.0000 0.85610  0.95800  0.35760  Biso   1.000  Zr
  Zr15     1.0000 0.86170  0.95825  0.85491  Biso   1.000  Zr
  O1       1.0000 0.03733  0.36671  0.07854  Biso   1.000  O
  O2       1.0000 0.03538  0.34117  0.58349  Biso   1.000  O
  O3       1.0000 0.53662  0.33302  0.07852  Biso   1.000  O
  O4       1.0000 0.53319  0.33361  0.57981  Biso   1.000  O
  O5       1.0000 0.02777  0.16471  0.34344  Biso   1.000  O
  O6       1.0000 0.03599  0.16114  0.83026  Biso   1.000  O
  O7       1.0000 0.53380  0.16279  0.32952  Biso   1.000  O
  O8       1.0000 0.53717  0.16569  0.82804  Biso   1.000  O
  O9       1.0000 0.46683  0.83119  0.17071  Biso   1.000  O
  O10      1.0000 0.46696  0.83415  0.67014  Biso   1.000  O
  O11      1.0000 0.94554  0.84753  0.17084  Biso   1.000  O
  O12      1.0000 0.96535  0.83888  0.66890  Biso   1.000  O
  O13      1.0000 0.46456  0.66356  0.42172  Biso   1.000  O
  O14      1.0000 0.47049  0.66886  0.92010  Biso   1.000  O
  O15      1.0000 0.96463  0.66391  0.42006  Biso   1.000  O
  O16      1.0000 0.96461  0.66264  0.91685  Biso   1.000  O
  O17      1.0000 0.28073  0.25485  0.24393  Biso   1.000  O
  O18      1.0000 0.27560  0.25750  0.73819  Biso   1.000  O
  O19      1.0000 0.77280  0.25846  0.24211  Biso   1.000  O
  O20      1.0000 0.77678  0.25853  0.74025  Biso   1.000  O
  O21      1.0000 0.27499  0.24152  0.49117  Biso   1.000  O
  O22      1.0000 0.28418  0.25312  0.98098  Biso   1.000  O
  O23      1.0000 0.77289  0.24454  0.49229  Biso   1.000  O
  O24      1.0000 0.77550  0.23996  0.99020  Biso   1.000  O
  O25      1.0000 0.23324  0.75091  0.00249  Biso   1.000  O
  O26      1.0000 0.22422  0.75735  0.50980  Biso   1.000  O
  O27      1.0000 0.72476  0.75628  0.00890  Biso   1.000  O
  O28      1.0000 0.72379  0.75712  0.51069  Biso   1.000  O
  O29      1.0000 0.22968  0.72591  0.26153  Biso   1.000  O
  O30      1.0000 0.22585  0.74448  0.75752  Biso   1.000  O
  O31      1.0000 0.71853  0.74106  0.26228  Biso   1.000  O
  O32      1.0000 0.72629  0.74340  0.75890  Biso   1.000  O
