data_image0
_cell_length_a       10.1131
_cell_length_b       5.14509
_cell_length_c       10.4859
_cell_angle_alpha    89.5024
_cell_angle_beta     90.7261
_cell_angle_gamma    89.8034

_symmetry_space_group_name_H-M    "P 1"
_symmetry_int_tables_number       1

loop_
  _symmetry_equiv_pos_as_xyz
  'x, y, z'

loop_
  _atom_site_label
  _atom_site_occupancy
  _atom_site_fract_x
  _atom_site_fract_y
  _atom_site_fract_z
  _atom_site_thermal_displace_type
  _atom_site_B_iso_or_equiv
  _atom_site_type_symbol
  Hf1      1.0000 0.13981  0.03994  0.17208  Biso   1.000  Hf
  Hf2      1.0000 0.13481  0.45934  0.42363  Biso   1.000  Hf
  Hf3      1.0000 0.34923  0.53803  0.17778  Biso   1.000  Hf
  Hf4      1.0000 0.36123  0.95821  0.42576  Biso   1.000  Hf
  Hf5      1.0000 0.64162  0.06341  0.06766  Biso   1.000  Hf
  Hf6      1.0000 0.63480  0.46482  0.34154  Biso   1.000  Hf
  Hf7      1.0000 0.87638  0.54837  0.07414  Biso   1.000  Hf
  Hf8      1.0000 0.86182  0.96351  0.32990  Biso   1.000  Hf
  O1       1.0000 0.03945  0.32347  0.07873  Biso   1.000  O
  O2       1.0000 0.02754  0.18494  0.32748  Biso   1.000  O
  O3       1.0000 0.46918  0.81424  0.08313  Biso   1.000  O
  O4       1.0000 0.46167  0.66875  0.33586  Biso   1.000  O
  O5       1.0000 0.26958  0.24817  0.29866  Biso   1.000  O
  O6       1.0000 0.27855  0.24285  0.04391  Biso   1.000  O
  O7       1.0000 0.21958  0.74962  0.29893  Biso   1.000  O
  O8       1.0000 0.22377  0.74729  0.04561  Biso   1.000  O
  O9       1.0000 0.51027  0.29686  0.17230  Biso   1.000  O
  O10      1.0000 0.53127  0.16771  0.42238  Biso   1.000  O
  O11      1.0000 0.97085  0.83204  0.17006  Biso   1.000  O
  O12      1.0000 0.96480  0.67935  0.41894  Biso   1.000  O
  O13      1.0000 0.77868  0.24304  0.45589  Biso   1.000  O
  O14      1.0000 0.75775  0.30461  0.19687  Biso   1.000  O
  O15      1.0000 0.72363  0.74735  0.46100  Biso   1.000  O
  O16      1.0000 0.72612  0.79020  0.20852  Biso   1.000  O
  Hf9      1.0000 0.13940  0.03737  0.67022  Biso   1.000  Hf
  Hf10     1.0000 0.14418  0.44951  0.91825  Biso   1.000  Hf
  Hf11     1.0000 0.36511  0.53528  0.67233  Biso   1.000  Hf
  Hf12     1.0000 0.36162  0.94874  0.91844  Biso   1.000  Hf
  Hf13     1.0000 0.63977  0.04116  0.58239  Biso   1.000  Hf
  Hf14     1.0000 0.64225  0.45096  0.83308  Biso   1.000  Hf
  Hf15     1.0000 0.86103  0.54069  0.58166  Biso   1.000  Hf
  Hf16     1.0000 0.86596  0.95543  0.82780  Biso   1.000  Hf
  O17      1.0000 0.03224  0.32699  0.58155  Biso   1.000  O
  O18      1.0000 0.03767  0.16724  0.82972  Biso   1.000  O
  O19      1.0000 0.46755  0.83049  0.58779  Biso   1.000  O
  O20      1.0000 0.46558  0.65001  0.83838  Biso   1.000  O
  O21      1.0000 0.27885  0.23945  0.79369  Biso   1.000  O
  O22      1.0000 0.27435  0.25017  0.54585  Biso   1.000  O
  O23      1.0000 0.22679  0.74201  0.79432  Biso   1.000  O
  O24      1.0000 0.22528  0.74910  0.54610  Biso   1.000  O
  O25      1.0000 0.53600  0.33231  0.66581  Biso   1.000  O
  O26      1.0000 0.53614  0.13671  0.90191  Biso   1.000  O
  O27      1.0000 0.96926  0.82687  0.66513  Biso   1.000  O
  O28      1.0000 0.97590  0.67008  0.91334  Biso   1.000  O
  O29      1.0000 0.79307  0.23878  0.94807  Biso   1.000  O
  O30      1.0000 0.77862  0.24802  0.70351  Biso   1.000  O
  O31      1.0000 0.72892  0.74422  0.96185  Biso   1.000  O
  O32      1.0000 0.72663  0.74863  0.71018  Biso   1.000  O
  V1       1.0000 0.61431  0.56428  0.10318  Biso   1.000  V
