data_image0
_cell_length_a       10.0356
_cell_length_b       10.2216
_cell_length_c       10.0356
_cell_angle_alpha    89.8945
_cell_angle_beta     89.682
_cell_angle_gamma    89.8941

_symmetry_space_group_name_H-M    "P 1"
_symmetry_int_tables_number       1

loop_
  _symmetry_equiv_pos_as_xyz
  'x, y, z'

loop_
  _atom_site_label
  _atom_site_occupancy
  _atom_site_fract_x
  _atom_site_fract_y
  _atom_site_fract_z
  _atom_site_thermal_displace_type
  _atom_site_B_iso_or_equiv
  _atom_site_type_symbol
  Hf1      1.0000 0.12061  0.97641  0.12061  Biso   1.000  Hf
  Hf2      1.0000 0.12780  0.25292  0.38811  Biso   1.000  Hf
  Hf3      1.0000 0.38811  0.25292  0.12780  Biso   1.000  Hf
  Hf4      1.0000 0.37341  0.00527  0.37341  Biso   1.000  Hf
  O1       1.0000 0.99934  0.14417  0.99935  Biso   1.000  O
  O2       1.0000 0.01332  0.10208  0.24840  Biso   1.000  O
  O3       1.0000 0.00646  0.34581  0.24477  Biso   1.000  O
  O4       1.0000 0.99660  0.39704  0.99660  Biso   1.000  O
  O5       1.0000 0.26324  0.15447  0.26324  Biso   1.000  O
  O6       1.0000 0.24840  0.10207  0.01332  Biso   1.000  O
  O7       1.0000 0.24477  0.34581  0.00646  Biso   1.000  O
  O8       1.0000 0.25238  0.40081  0.25238  Biso   1.000  O
  Hf5      1.0000 0.12316  0.99638  0.62473  Biso   1.000  Hf
  Hf6      1.0000 0.12067  0.25380  0.86613  Biso   1.000  Hf
  Hf7      1.0000 0.37629  0.24805  0.62784  Biso   1.000  Hf
  Hf8      1.0000 0.36982  0.00424  0.87908  Biso   1.000  Hf
  O9       1.0000 0.99716  0.14503  0.50088  Biso   1.000  O
  O10      1.0000 0.00045  0.10412  0.74887  Biso   1.000  O
  O11      1.0000 0.99454  0.35660  0.74488  Biso   1.000  O
  O12      1.0000 0.00342  0.39853  0.49671  Biso   1.000  O
  O13      1.0000 0.25401  0.14684  0.75680  Biso   1.000  O
  O14      1.0000 0.25108  0.10426  0.50790  Biso   1.000  O
  O15      1.0000 0.25473  0.35789  0.50696  Biso   1.000  O
  O16      1.0000 0.24485  0.39894  0.75473  Biso   1.000  O
  Hf9      1.0000 0.12441  0.50111  0.12441  Biso   1.000  Hf
  Hf10     1.0000 0.12560  0.74921  0.37590  Biso   1.000  Hf
  Hf11     1.0000 0.37590  0.74920  0.12560  Biso   1.000  Hf
  Hf12     1.0000 0.37670  0.49883  0.37670  Biso   1.000  Hf
  O17      1.0000 0.00069  0.64446  0.00069  Biso   1.000  O
  O18      1.0000 0.99492  0.60060  0.24975  Biso   1.000  O
  O19      1.0000 0.99749  0.84836  0.24836  Biso   1.000  O
  O20      1.0000 0.99301  0.88820  0.99301  Biso   1.000  O
  O21      1.0000 0.24359  0.64909  0.24359  Biso   1.000  O
  O22      1.0000 0.24975  0.60060  0.99493  Biso   1.000  O
  O23      1.0000 0.24836  0.84836  0.99749  Biso   1.000  O
  O24      1.0000 0.25198  0.89601  0.25198  Biso   1.000  O
  Hf13     1.0000 0.12589  0.50324  0.62392  Biso   1.000  Hf
  Hf14     1.0000 0.12292  0.74587  0.87179  Biso   1.000  Hf
  Hf15     1.0000 0.37511  0.75384  0.62425  Biso   1.000  Hf
  Hf16     1.0000 0.37537  0.49905  0.87425  Biso   1.000  Hf
  O25      1.0000 0.99992  0.64743  0.50117  Biso   1.000  O
  O26      1.0000 0.99953  0.60399  0.75089  Biso   1.000  O
  O27      1.0000 0.00206  0.85291  0.74512  Biso   1.000  O
  O28      1.0000 0.99994  0.89750  0.49679  Biso   1.000  O
  O29      1.0000 0.24852  0.64769  0.74382  Biso   1.000  O
  O30      1.0000 0.24861  0.60545  0.49474  Biso   1.000  O
  O31      1.0000 0.24848  0.85430  0.50029  Biso   1.000  O
  O32      1.0000 0.25101  0.89840  0.75028  Biso   1.000  O
  Hf17     1.0000 0.62473  0.99638  0.12315  Biso   1.000  Hf
  Hf18     1.0000 0.62784  0.24805  0.37629  Biso   1.000  Hf
  Hf19     1.0000 0.86613  0.25380  0.12067  Biso   1.000  Hf
  Hf20     1.0000 0.87908  0.00424  0.36982  Biso   1.000  Hf
  O33      1.0000 0.50088  0.14503  0.99716  Biso   1.000  O
  O34      1.0000 0.50790  0.10426  0.25108  Biso   1.000  O
  O35      1.0000 0.50696  0.35789  0.25473  Biso   1.000  O
  O36      1.0000 0.49671  0.39853  0.00342  Biso   1.000  O
  O37      1.0000 0.75680  0.14684  0.25401  Biso   1.000  O
  O38      1.0000 0.74887  0.10413  0.00045  Biso   1.000  O
  O39      1.0000 0.74488  0.35661  0.99454  Biso   1.000  O
  O40      1.0000 0.75473  0.39894  0.24485  Biso   1.000  O
  Hf21     1.0000 0.62428  0.99865  0.62428  Biso   1.000  Hf
  Hf22     1.0000 0.62334  0.24953  0.87269  Biso   1.000  Hf
  Hf23     1.0000 0.87269  0.24952  0.62334  Biso   1.000  Hf
  Hf24     1.0000 0.87425  0.00313  0.87425  Biso   1.000  Hf
  O41      1.0000 0.50052  0.14923  0.50052  Biso   1.000  O
  O42      1.0000 0.50007  0.10128  0.75006  Biso   1.000  O
  O43      1.0000 0.49608  0.35258  0.75342  Biso   1.000  O
  O44      1.0000 0.50243  0.39821  0.50243  Biso   1.000  O
  O45      1.0000 0.75000  0.14860  0.75000  Biso   1.000  O
  O46      1.0000 0.75006  0.10128  0.50008  Biso   1.000  O
  O47      1.0000 0.75342  0.35258  0.49608  Biso   1.000  O
  O48      1.0000 0.74653  0.39837  0.74653  Biso   1.000  O
  Hf25     1.0000 0.62391  0.50324  0.12588  Biso   1.000  Hf
  Hf26     1.0000 0.62425  0.75384  0.37511  Biso   1.000  Hf
  Hf27     1.0000 0.87178  0.74587  0.12292  Biso   1.000  Hf
  Hf28     1.0000 0.87425  0.49905  0.37537  Biso   1.000  Hf
  O49      1.0000 0.50117  0.64743  0.99992  Biso   1.000  O
  O50      1.0000 0.49473  0.60545  0.24860  Biso   1.000  O
  O51      1.0000 0.50029  0.85430  0.24848  Biso   1.000  O
  O52      1.0000 0.49679  0.89749  0.99994  Biso   1.000  O
  O53      1.0000 0.74382  0.64769  0.24852  Biso   1.000  O
  O54      1.0000 0.75089  0.60399  0.99953  Biso   1.000  O
  O55      1.0000 0.74512  0.85291  0.00205  Biso   1.000  O
  O56      1.0000 0.75028  0.89840  0.25100  Biso   1.000  O
  Hf29     1.0000 0.62408  0.50325  0.62408  Biso   1.000  Hf
  Hf30     1.0000 0.62386  0.75162  0.87452  Biso   1.000  Hf
  Hf31     1.0000 0.87452  0.75162  0.62386  Biso   1.000  Hf
  Hf32     1.0000 0.87247  0.49905  0.87247  Biso   1.000  Hf
  O57      1.0000 0.50056  0.64949  0.50056  Biso   1.000  O
  O58      1.0000 0.49846  0.60250  0.75056  Biso   1.000  O
  O59      1.0000 0.50155  0.85227  0.74802  Biso   1.000  O
  O60      1.0000 0.49864  0.90025  0.49864  Biso   1.000  O
  O61      1.0000 0.74852  0.64937  0.74852  Biso   1.000  O
  O62      1.0000 0.75056  0.60250  0.49846  Biso   1.000  O
  O63      1.0000 0.74802  0.85227  0.50155  Biso   1.000  O
  O64      1.0000 0.75119  0.89961  0.75118  Biso   1.000  O
  V1       1.0000 0.12930  0.22320  0.12930  Biso   1.000  V
