data_image0
_cell_length_a       10.0798
_cell_length_b       10.2592
_cell_length_c       10.4206
_cell_angle_alpha    90.0181
_cell_angle_beta     80.3575
_cell_angle_gamma    89.9434

_symmetry_space_group_name_H-M    "P 1"
_symmetry_int_tables_number       1

loop_
  _symmetry_equiv_pos_as_xyz
  'x, y, z'

loop_
  _atom_site_label
  _atom_site_occupancy
  _atom_site_fract_x
  _atom_site_fract_y
  _atom_site_fract_z
  _atom_site_thermal_displace_type
  _atom_site_B_iso_or_equiv
  _atom_site_type_symbol
  V1       1.0000 0.13210  0.02583  0.14803  Biso   1.000  V
  Hf1      1.0000 0.13964  0.22787  0.39322  Biso   1.000  Hf
  Hf2      1.0000 0.35930  0.26910  0.10442  Biso   1.000  Hf
  Hf3      1.0000 0.36165  0.47887  0.35404  Biso   1.000  Hf
  O1       1.0000 0.03940  0.16157  0.08388  Biso   1.000  O
  O2       1.0000 0.04064  0.07891  0.32065  Biso   1.000  O
  O3       1.0000 0.46327  0.41997  0.16855  Biso   1.000  O
  O4       1.0000 0.46399  0.32994  0.41913  Biso   1.000  O
  O5       1.0000 0.27200  0.12492  0.23660  Biso   1.000  O
  O6       1.0000 0.27722  0.12139  0.48925  Biso   1.000  O
  O7       1.0000 0.22253  0.37908  0.00977  Biso   1.000  O
  O8       1.0000 0.22401  0.36994  0.25925  Biso   1.000  O
  Hf4      1.0000 0.13889  0.02127  0.64542  Biso   1.000  Hf
  Hf5      1.0000 0.14034  0.22666  0.89670  Biso   1.000  Hf
  Hf6      1.0000 0.36103  0.27172  0.60403  Biso   1.000  Hf
  Hf7      1.0000 0.36046  0.47881  0.85465  Biso   1.000  Hf
  O9       1.0000 0.03487  0.16633  0.57613  Biso   1.000  O
  O10      1.0000 0.03507  0.08168  0.82915  Biso   1.000  O
  O11      1.0000 0.46328  0.42096  0.66887  Biso   1.000  O
  O12      1.0000 0.46202  0.32814  0.91849  Biso   1.000  O
  O13      1.0000 0.27696  0.12907  0.74098  Biso   1.000  O
  O14      1.0000 0.27361  0.11950  0.99449  Biso   1.000  O
  O15      1.0000 0.22274  0.37894  0.50891  Biso   1.000  O
  O16      1.0000 0.22305  0.37008  0.75976  Biso   1.000  O
  Hf8      1.0000 0.13976  0.52146  0.14613  Biso   1.000  Hf
  Hf9      1.0000 0.13940  0.72943  0.39499  Biso   1.000  Hf
  Hf10     1.0000 0.35644  0.77555  0.10537  Biso   1.000  Hf
  Hf11     1.0000 0.35869  0.97847  0.35177  Biso   1.000  Hf
  O17      1.0000 0.03620  0.66930  0.08136  Biso   1.000  O
  O18      1.0000 0.03640  0.57956  0.33106  Biso   1.000  O
  O19      1.0000 0.46516  0.91938  0.16931  Biso   1.000  O
  O20      1.0000 0.46397  0.83039  0.41821  Biso   1.000  O
  O21      1.0000 0.27681  0.62998  0.24099  Biso   1.000  O
  O22      1.0000 0.27731  0.62100  0.49073  Biso   1.000  O
  O23      1.0000 0.21733  0.88540  0.01381  Biso   1.000  O
  O24      1.0000 0.22039  0.87268  0.25853  Biso   1.000  O
  Hf12     1.0000 0.13932  0.52170  0.64590  Biso   1.000  Hf
  Hf13     1.0000 0.13936  0.73015  0.89674  Biso   1.000  Hf
  Hf14     1.0000 0.36155  0.77191  0.60411  Biso   1.000  Hf
  Hf15     1.0000 0.35852  0.97936  0.85702  Biso   1.000  Hf
  O25      1.0000 0.03600  0.66963  0.58070  Biso   1.000  O
  O26      1.0000 0.03673  0.58036  0.83157  Biso   1.000  O
  O27      1.0000 0.46274  0.92072  0.66977  Biso   1.000  O
  O28      1.0000 0.46036  0.82959  0.91961  Biso   1.000  O
  O29      1.0000 0.27711  0.62962  0.74089  Biso   1.000  O
  O30      1.0000 0.27653  0.62195  0.99114  Biso   1.000  O
  O31      1.0000 0.22301  0.87924  0.50912  Biso   1.000  O
  O32      1.0000 0.22266  0.87126  0.76007  Biso   1.000  O
  Hf16     1.0000 0.63881  0.02190  0.14575  Biso   1.000  Hf
  Hf17     1.0000 0.63904  0.22805  0.39556  Biso   1.000  Hf
  Hf18     1.0000 0.86182  0.27051  0.10521  Biso   1.000  Hf
  Hf19     1.0000 0.86099  0.47863  0.35394  Biso   1.000  Hf
  O33      1.0000 0.53652  0.17072  0.08131  Biso   1.000  O
  O34      1.0000 0.53547  0.08050  0.33012  Biso   1.000  O
  O35      1.0000 0.96559  0.41784  0.16970  Biso   1.000  O
  O36      1.0000 0.96354  0.32858  0.41800  Biso   1.000  O
  O37      1.0000 0.77788  0.12858  0.24045  Biso   1.000  O
  O38      1.0000 0.77801  0.11998  0.48960  Biso   1.000  O
  O39      1.0000 0.72410  0.37917  0.00988  Biso   1.000  O
  O40      1.0000 0.72373  0.37020  0.25884  Biso   1.000  O
  Hf20     1.0000 0.63800  0.02072  0.64615  Biso   1.000  Hf
  Hf21     1.0000 0.63853  0.22876  0.89586  Biso   1.000  Hf
  Hf22     1.0000 0.86102  0.27099  0.60373  Biso   1.000  Hf
  Hf23     1.0000 0.86197  0.47825  0.85527  Biso   1.000  Hf
  O41      1.0000 0.53694  0.17070  0.58116  Biso   1.000  O
  O42      1.0000 0.53572  0.07914  0.83234  Biso   1.000  O
  O43      1.0000 0.96486  0.41800  0.67045  Biso   1.000  O
  O44      1.0000 0.96537  0.32893  0.92238  Biso   1.000  O
  O45      1.0000 0.77624  0.12916  0.74042  Biso   1.000  O
  O46      1.0000 0.77741  0.12116  0.99076  Biso   1.000  O
  O47      1.0000 0.72341  0.37909  0.50948  Biso   1.000  O
  O48      1.0000 0.72338  0.37097  0.75985  Biso   1.000  O
  Hf24     1.0000 0.63781  0.52262  0.14562  Biso   1.000  Hf
  Hf25     1.0000 0.63964  0.72958  0.39566  Biso   1.000  Hf
  Hf26     1.0000 0.86387  0.77292  0.10379  Biso   1.000  Hf
  Hf27     1.0000 0.86398  0.97924  0.35262  Biso   1.000  Hf
  O49      1.0000 0.53445  0.67130  0.08170  Biso   1.000  O
  O50      1.0000 0.53722  0.57952  0.33160  Biso   1.000  O
  O51      1.0000 0.97570  0.92252  0.16611  Biso   1.000  O
  O52      1.0000 0.96387  0.83034  0.41891  Biso   1.000  O
  O53      1.0000 0.77751  0.62984  0.24043  Biso   1.000  O
  O54      1.0000 0.77719  0.62069  0.49090  Biso   1.000  O
  O55      1.0000 0.72318  0.87963  0.00962  Biso   1.000  O
  O56      1.0000 0.72923  0.87213  0.25810  Biso   1.000  O
  Hf28     1.0000 0.63909  0.52146  0.64630  Biso   1.000  Hf
  Hf29     1.0000 0.63731  0.72883  0.89751  Biso   1.000  Hf
  Hf30     1.0000 0.86056  0.77098  0.60460  Biso   1.000  Hf
  Hf31     1.0000 0.86059  0.97882  0.85387  Biso   1.000  Hf
  O57      1.0000 0.53721  0.67103  0.58095  Biso   1.000  O
  O58      1.0000 0.53620  0.57930  0.83172  Biso   1.000  O
  O59      1.0000 0.96382  0.91938  0.66931  Biso   1.000  O
  O60      1.0000 0.96346  0.83019  0.91911  Biso   1.000  O
  O61      1.0000 0.77700  0.62886  0.74174  Biso   1.000  O
  O62      1.0000 0.77729  0.62186  0.99154  Biso   1.000  O
  O63      1.0000 0.72328  0.87926  0.50904  Biso   1.000  O
  O64      1.0000 0.72234  0.87055  0.75977  Biso   1.000  O
