data_image0
_cell_length_a       10.0887
_cell_length_b       10.1926
_cell_length_c       5.28676
_cell_angle_alpha    90.1071
_cell_angle_beta     90.9483
_cell_angle_gamma    90.1199

_symmetry_space_group_name_H-M    "P 1"
_symmetry_int_tables_number       1

loop_
  _symmetry_equiv_pos_as_xyz
  'x, y, z'

loop_
  _atom_site_label
  _atom_site_occupancy
  _atom_site_fract_x
  _atom_site_fract_y
  _atom_site_fract_z
  _atom_site_thermal_displace_type
  _atom_site_B_iso_or_equiv
  _atom_site_type_symbol
  Hf1      1.0000 0.13990  0.02131  0.34541  Biso   1.000  Hf
  Hf2      1.0000 0.14109  0.22814  0.84420  Biso   1.000  Hf
  Hf3      1.0000 0.36214  0.26653  0.35405  Biso   1.000  Hf
  Hf4      1.0000 0.35994  0.47928  0.84454  Biso   1.000  Hf
  Hf5      1.0000 0.63999  0.00607  0.15706  Biso   1.000  Hf
  Hf6      1.0000 0.63583  0.22843  0.66251  Biso   1.000  Hf
  Hf7      1.0000 0.87216  0.27236  0.14697  Biso   1.000  Hf
  Hf8      1.0000 0.86256  0.47836  0.65391  Biso   1.000  Hf
  O1       1.0000 0.03367  0.15658  0.14868  Biso   1.000  O
  O2       1.0000 0.02924  0.09298  0.64776  Biso   1.000  O
  O3       1.0000 0.47564  0.40242  0.14827  Biso   1.000  O
  O4       1.0000 0.46989  0.34655  0.65416  Biso   1.000  O
  O5       1.0000 0.27299  0.12501  0.60051  Biso   1.000  O
  O6       1.0000 0.27476  0.12374  0.09737  Biso   1.000  O
  O7       1.0000 0.22358  0.37469  0.59434  Biso   1.000  O
  O8       1.0000 0.22566  0.37649  0.09279  Biso   1.000  O
  O9       1.0000 0.51520  0.12873  0.39531  Biso   1.000  O
  O10      1.0000 0.52089  0.11631  0.90791  Biso   1.000  O
  O11      1.0000 0.96977  0.41397  0.34110  Biso   1.000  O
  O12      1.0000 0.97222  0.33996  0.83308  Biso   1.000  O
  O13      1.0000 0.77980  0.11799  0.88894  Biso   1.000  O
  O14      1.0000 0.76104  0.13679  0.37883  Biso   1.000  O
  O15      1.0000 0.72434  0.37382  0.92394  Biso   1.000  O
  O16      1.0000 0.71992  0.37967  0.41208  Biso   1.000  O
  Hf9      1.0000 0.14047  0.52080  0.34519  Biso   1.000  Hf
  Hf10     1.0000 0.13950  0.72936  0.84450  Biso   1.000  Hf
  Hf11     1.0000 0.36152  0.77168  0.34880  Biso   1.000  Hf
  Hf12     1.0000 0.36409  0.98058  0.85196  Biso   1.000  Hf
  Hf13     1.0000 0.64090  0.52863  0.15310  Biso   1.000  Hf
  Hf14     1.0000 0.63913  0.72841  0.65513  Biso   1.000  Hf
  Hf15     1.0000 0.86591  0.77045  0.15587  Biso   1.000  Hf
  Hf16     1.0000 0.86405  0.97877  0.65402  Biso   1.000  Hf
  O17      1.0000 0.03382  0.66177  0.15773  Biso   1.000  O
  O18      1.0000 0.03121  0.58996  0.65774  Biso   1.000  O
  O19      1.0000 0.47199  0.89537  0.13988  Biso   1.000  O
  O20      1.0000 0.47640  0.85143  0.64536  Biso   1.000  O
  O21      1.0000 0.27551  0.62517  0.59443  Biso   1.000  O
  O22      1.0000 0.27641  0.62539  0.09401  Biso   1.000  O
  O23      1.0000 0.22660  0.87390  0.59534  Biso   1.000  O
  O24      1.0000 0.22582  0.87705  0.09330  Biso   1.000  O
  O25      1.0000 0.52749  0.65553  0.35474  Biso   1.000  O
  O26      1.0000 0.52768  0.59654  0.85117  Biso   1.000  O
  O27      1.0000 0.97035  0.91257  0.33600  Biso   1.000  O
  O28      1.0000 0.97046  0.84069  0.83889  Biso   1.000  O
  O29      1.0000 0.77785  0.62315  0.90291  Biso   1.000  O
  O30      1.0000 0.77763  0.62840  0.40553  Biso   1.000  O
  O31      1.0000 0.72706  0.87044  0.91024  Biso   1.000  O
  O32      1.0000 0.73046  0.87216  0.41425  Biso   1.000  O
  V1       1.0000 0.61432  0.25594  0.17676  Biso   1.000  V
