data_image0
_cell_length_a       10.0557
_cell_length_b       5.11872
_cell_length_c       10.3973
_cell_angle_alpha    90.061
_cell_angle_beta     80.3395
_cell_angle_gamma    89.879

_symmetry_space_group_name_H-M    "P 1"
_symmetry_int_tables_number       1

loop_
  _symmetry_equiv_pos_as_xyz
  'x, y, z'

loop_
  _atom_site_label
  _atom_site_occupancy
  _atom_site_fract_x
  _atom_site_fract_y
  _atom_site_fract_z
  _atom_site_thermal_displace_type
  _atom_site_B_iso_or_equiv
  _atom_site_type_symbol
  V1       1.0000 0.13260  0.04991  0.14792  Biso   1.000  V
  Hf1      1.0000 0.14018  0.45725  0.39220  Biso   1.000  Hf
  Hf2      1.0000 0.35501  0.54628  0.10580  Biso   1.000  Hf
  Hf3      1.0000 0.35921  0.95785  0.35147  Biso   1.000  Hf
  O1       1.0000 0.03922  0.32190  0.08487  Biso   1.000  O
  O2       1.0000 0.04152  0.15410  0.32125  Biso   1.000  O
  O3       1.0000 0.46489  0.83886  0.16842  Biso   1.000  O
  O4       1.0000 0.46404  0.66061  0.41801  Biso   1.000  O
  O5       1.0000 0.27214  0.25191  0.23691  Biso   1.000  O
  O6       1.0000 0.27778  0.24324  0.48943  Biso   1.000  O
  O7       1.0000 0.21626  0.77231  0.01500  Biso   1.000  O
  O8       1.0000 0.22143  0.74394  0.25841  Biso   1.000  O
  Hf4      1.0000 0.13938  0.04328  0.64546  Biso   1.000  Hf
  Hf5      1.0000 0.14080  0.45682  0.89756  Biso   1.000  Hf
  Hf6      1.0000 0.36146  0.54470  0.60398  Biso   1.000  Hf
  Hf7      1.0000 0.35791  0.95972  0.85771  Biso   1.000  Hf
  O9       1.0000 0.03476  0.33230  0.57613  Biso   1.000  O
  O10      1.0000 0.03574  0.16400  0.83017  Biso   1.000  O
  O11      1.0000 0.46204  0.84414  0.66931  Biso   1.000  O
  O12      1.0000 0.45797  0.65453  0.91866  Biso   1.000  O
  O13      1.0000 0.27736  0.25933  0.74134  Biso   1.000  O
  O14      1.0000 0.27308  0.24154  0.99524  Biso   1.000  O
  O15      1.0000 0.22233  0.75793  0.50860  Biso   1.000  O
  O16      1.0000 0.22240  0.74147  0.76070  Biso   1.000  O
  Hf8      1.0000 0.63807  0.04597  0.14554  Biso   1.000  Hf
  Hf9      1.0000 0.63974  0.45820  0.39535  Biso   1.000  Hf
  Hf10     1.0000 0.86532  0.54358  0.10476  Biso   1.000  Hf
  Hf11     1.0000 0.86368  0.95846  0.35250  Biso   1.000  Hf
  O17      1.0000 0.53482  0.34413  0.08247  Biso   1.000  O
  O18      1.0000 0.53661  0.15985  0.33109  Biso   1.000  O
  O19      1.0000 0.97715  0.84138  0.16579  Biso   1.000  O
  O20      1.0000 0.96331  0.65600  0.41682  Biso   1.000  O
  O21      1.0000 0.77888  0.25825  0.24040  Biso   1.000  O
  O22      1.0000 0.77838  0.23959  0.48996  Biso   1.000  O
  O23      1.0000 0.72408  0.75909  0.01000  Biso   1.000  O
  O24      1.0000 0.72953  0.74277  0.25772  Biso   1.000  O
  Hf12     1.0000 0.63814  0.04169  0.64666  Biso   1.000  Hf
  Hf13     1.0000 0.63699  0.45834  0.89761  Biso   1.000  Hf
  Hf14     1.0000 0.86050  0.54108  0.60411  Biso   1.000  Hf
  Hf15     1.0000 0.86139  0.95711  0.85499  Biso   1.000  Hf
  O25      1.0000 0.53801  0.34414  0.58163  Biso   1.000  O
  O26      1.0000 0.53584  0.15638  0.83366  Biso   1.000  O
  O27      1.0000 0.96479  0.83545  0.67012  Biso   1.000  O
  O28      1.0000 0.96500  0.65804  0.92171  Biso   1.000  O
  O29      1.0000 0.77645  0.25800  0.74158  Biso   1.000  O
  O30      1.0000 0.77787  0.24447  0.99160  Biso   1.000  O
  O31      1.0000 0.72354  0.75847  0.50916  Biso   1.000  O
  O32      1.0000 0.72240  0.74163  0.76022  Biso   1.000  O
