data_image0
_cell_length_a       10.1605
_cell_length_b       10.2426
_cell_length_c       10.547
_cell_angle_alpha    89.718
_cell_angle_beta     80.0107
_cell_angle_gamma    89.9228

_symmetry_space_group_name_H-M    "P 1"
_symmetry_int_tables_number       1

loop_
  _symmetry_equiv_pos_as_xyz
  'x, y, z'

loop_
  _atom_site_label
  _atom_site_occupancy
  _atom_site_fract_x
  _atom_site_fract_y
  _atom_site_fract_z
  _atom_site_thermal_displace_type
  _atom_site_B_iso_or_equiv
  _atom_site_type_symbol
  Hf1      1.0000 0.13657  0.02049  0.14492  Biso   1.000  Hf
  Hf2      1.0000 0.13077  0.22667  0.39759  Biso   1.000  Hf
  Hf3      1.0000 0.35838  0.26762  0.09158  Biso   1.000  Hf
  Hf4      1.0000 0.36000  0.48889  0.35733  Biso   1.000  Hf
  O1       1.0000 0.03257  0.16374  0.07440  Biso   1.000  O
  O2       1.0000 0.03018  0.08444  0.32392  Biso   1.000  O
  O3       1.0000 0.47639  0.39140  0.19013  Biso   1.000  O
  O4       1.0000 0.47858  0.35630  0.43712  Biso   1.000  O
  O5       1.0000 0.27634  0.12167  0.23391  Biso   1.000  O
  O6       1.0000 0.28450  0.12750  0.47864  Biso   1.000  O
  O7       1.0000 0.22039  0.38048  0.00708  Biso   1.000  O
  O8       1.0000 0.23819  0.36272  0.26141  Biso   1.000  O
  Hf5      1.0000 0.13781  0.02151  0.64550  Biso   1.000  Hf
  Hf6      1.0000 0.13593  0.22822  0.89295  Biso   1.000  Hf
  Hf7      1.0000 0.36126  0.27621  0.60602  Biso   1.000  Hf
  Hf8      1.0000 0.36060  0.48039  0.85432  Biso   1.000  Hf
  O9       1.0000 0.03382  0.16496  0.57844  Biso   1.000  O
  O10      1.0000 0.03254  0.08387  0.82569  Biso   1.000  O
  O11      1.0000 0.46787  0.41394  0.67948  Biso   1.000  O
  O12      1.0000 0.47219  0.34348  0.92522  Biso   1.000  O
  O13      1.0000 0.27430  0.12840  0.73601  Biso   1.000  O
  O14      1.0000 0.27263  0.12070  0.98365  Biso   1.000  O
  O15      1.0000 0.22326  0.38236  0.51376  Biso   1.000  O
  O16      1.0000 0.22404  0.37250  0.76078  Biso   1.000  O
  Hf9      1.0000 0.13969  0.52048  0.14637  Biso   1.000  Hf
  Hf10     1.0000 0.13486  0.72886  0.39698  Biso   1.000  Hf
  Hf11     1.0000 0.36093  0.77088  0.10337  Biso   1.000  Hf
  Hf12     1.0000 0.35848  0.97154  0.35211  Biso   1.000  Hf
  O17      1.0000 0.03380  0.66290  0.07751  Biso   1.000  O
  O18      1.0000 0.03506  0.58446  0.32641  Biso   1.000  O
  O19      1.0000 0.46843  0.90946  0.17637  Biso   1.000  O
  O20      1.0000 0.46734  0.83657  0.42699  Biso   1.000  O
  O21      1.0000 0.27614  0.62740  0.23999  Biso   1.000  O
  O22      1.0000 0.27201  0.62713  0.49344  Biso   1.000  O
  O23      1.0000 0.22381  0.87813  0.00971  Biso   1.000  O
  O24      1.0000 0.22101  0.86735  0.25853  Biso   1.000  O
  Hf13     1.0000 0.13735  0.52319  0.64733  Biso   1.000  Hf
  Hf14     1.0000 0.13814  0.72822  0.89667  Biso   1.000  Hf
  Hf15     1.0000 0.36115  0.77257  0.60504  Biso   1.000  Hf
  Hf16     1.0000 0.36144  0.97822  0.85257  Biso   1.000  Hf
  O25      1.0000 0.03003  0.66497  0.57719  Biso   1.000  O
  O26      1.0000 0.03270  0.58545  0.82832  Biso   1.000  O
  O27      1.0000 0.46728  0.91387  0.67486  Biso   1.000  O
  O28      1.0000 0.46772  0.83822  0.92605  Biso   1.000  O
  O29      1.0000 0.27532  0.62927  0.74104  Biso   1.000  O
  O30      1.0000 0.27589  0.62242  0.99070  Biso   1.000  O
  O31      1.0000 0.22257  0.88091  0.50996  Biso   1.000  O
  O32      1.0000 0.22345  0.87170  0.76018  Biso   1.000  O
  Hf17     1.0000 0.63912  0.02115  0.14488  Biso   1.000  Hf
  Hf18     1.0000 0.64134  0.23289  0.39952  Biso   1.000  Hf
  Hf19     1.0000 0.86204  0.27187  0.10564  Biso   1.000  Hf
  Hf20     1.0000 0.86131  0.48025  0.35571  Biso   1.000  Hf
  O33      1.0000 0.53016  0.15548  0.06964  Biso   1.000  O
  O34      1.0000 0.52877  0.09014  0.32758  Biso   1.000  O
  O35      1.0000 0.97026  0.41173  0.17636  Biso   1.000  O
  O36      1.0000 0.96533  0.33985  0.42798  Biso   1.000  O
  O37      1.0000 0.77384  0.12858  0.23930  Biso   1.000  O
  O38      1.0000 0.77849  0.12202  0.49147  Biso   1.000  O
  O39      1.0000 0.72401  0.37693  0.01215  Biso   1.000  O
  O40      1.0000 0.72886  0.37338  0.26218  Biso   1.000  O
  Hf21     1.0000 0.63803  0.02355  0.64574  Biso   1.000  Hf
  Hf22     1.0000 0.63947  0.22772  0.89618  Biso   1.000  Hf
  Hf23     1.0000 0.86064  0.27352  0.60720  Biso   1.000  Hf
  Hf24     1.0000 0.86036  0.47898  0.85585  Biso   1.000  Hf
  O41      1.0000 0.53282  0.16552  0.57555  Biso   1.000  O
  O42      1.0000 0.53096  0.08947  0.82322  Biso   1.000  O
  O43      1.0000 0.96638  0.41495  0.67633  Biso   1.000  O
  O44      1.0000 0.96487  0.33505  0.92427  Biso   1.000  O
  O45      1.0000 0.77540  0.12872  0.74105  Biso   1.000  O
  O46      1.0000 0.77617  0.12060  0.99023  Biso   1.000  O
  O47      1.0000 0.72575  0.38010  0.51376  Biso   1.000  O
  O48      1.0000 0.72430  0.37240  0.76204  Biso   1.000  O
  Hf25     1.0000 0.63685  0.51837  0.14848  Biso   1.000  Hf
  Hf26     1.0000 0.63852  0.72923  0.39648  Biso   1.000  Hf
  Hf27     1.0000 0.86087  0.77035  0.10496  Biso   1.000  Hf
  Hf28     1.0000 0.85838  0.97911  0.35434  Biso   1.000  Hf
  O49      1.0000 0.52885  0.65603  0.07332  Biso   1.000  O
  O50      1.0000 0.53295  0.59264  0.32148  Biso   1.000  O
  O51      1.0000 0.96455  0.91361  0.17367  Biso   1.000  O
  O52      1.0000 0.96433  0.83614  0.42440  Biso   1.000  O
  O53      1.0000 0.77612  0.62780  0.23957  Biso   1.000  O
  O54      1.0000 0.77529  0.62293  0.49039  Biso   1.000  O
  O55      1.0000 0.72314  0.87776  0.01172  Biso   1.000  O
  O56      1.0000 0.72238  0.87195  0.26110  Biso   1.000  O
  Hf29     1.0000 0.63801  0.52276  0.64728  Biso   1.000  Hf
  Hf30     1.0000 0.63785  0.72746  0.89686  Biso   1.000  Hf
  Hf31     1.0000 0.85943  0.77294  0.60541  Biso   1.000  Hf
  Hf32     1.0000 0.86048  0.97750  0.85489  Biso   1.000  Hf
  O57      1.0000 0.53136  0.66265  0.57495  Biso   1.000  O
  O58      1.0000 0.53141  0.59035  0.82399  Biso   1.000  O
  O59      1.0000 0.96641  0.91456  0.67462  Biso   1.000  O
  O60      1.0000 0.96557  0.83408  0.92443  Biso   1.000  O
  O61      1.0000 0.77512  0.62911  0.74082  Biso   1.000  O
  O62      1.0000 0.77455  0.62091  0.99104  Biso   1.000  O
  O63      1.0000 0.72244  0.87946  0.51121  Biso   1.000  O
  O64      1.0000 0.72335  0.87218  0.76145  Biso   1.000  O
  V1       1.0000 0.39121  0.23933  0.32267  Biso   1.000  V
