data_image0
_cell_length_a       9.99333
_cell_length_b       10.1618
_cell_length_c       4.99694
_cell_angle_alpha    90
_cell_angle_beta     89.9997
_cell_angle_gamma    90

_symmetry_space_group_name_H-M    "P 1"
_symmetry_int_tables_number       1

loop_
  _symmetry_equiv_pos_as_xyz
  'x, y, z'

loop_
  _atom_site_label
  _atom_site_occupancy
  _atom_site_fract_x
  _atom_site_fract_y
  _atom_site_fract_z
  _atom_site_thermal_displace_type
  _atom_site_B_iso_or_equiv
  _atom_site_type_symbol
  V1       1.0000 0.12491  0.00005  0.24982  Biso   1.000  V
  Hf1      1.0000 0.12491  0.25219  0.74982  Biso   1.000  Hf
  Hf2      1.0000 0.37395  0.24915  0.25880  Biso   1.000  Hf
  Hf3      1.0000 0.37237  0.00005  0.74982  Biso   1.000  Hf
  O1       1.0000 0.98179  0.15203  0.95313  Biso   1.000  O
  O2       1.0000 0.01499  0.09562  0.46358  Biso   1.000  O
  O3       1.0000 0.99818  0.35002  0.49708  Biso   1.000  O
  O4       1.0000 0.00217  0.39905  0.99757  Biso   1.000  O
  O5       1.0000 0.26803  0.15202  0.54650  Biso   1.000  O
  O6       1.0000 0.23483  0.09562  0.03606  Biso   1.000  O
  O7       1.0000 0.25164  0.35002  0.00256  Biso   1.000  O
  O8       1.0000 0.24764  0.39905  0.50206  Biso   1.000  O
  Hf4      1.0000 0.12491  0.50005  0.24982  Biso   1.000  Hf
  Hf5      1.0000 0.12491  0.74792  0.74982  Biso   1.000  Hf
  Hf6      1.0000 0.37395  0.75095  0.24084  Biso   1.000  Hf
  Hf7      1.0000 0.37789  0.50005  0.74982  Biso   1.000  Hf
  O9       1.0000 0.99818  0.65008  0.00255  Biso   1.000  O
  O10      1.0000 0.00217  0.60106  0.50206  Biso   1.000  O
  O11      1.0000 0.98179  0.84808  0.54650  Biso   1.000  O
  O12      1.0000 0.01499  0.90448  0.03606  Biso   1.000  O
  O13      1.0000 0.25164  0.65008  0.49708  Biso   1.000  O
  O14      1.0000 0.24765  0.60106  0.99757  Biso   1.000  O
  O15      1.0000 0.26803  0.84808  0.95314  Biso   1.000  O
  O16      1.0000 0.23483  0.90448  0.46358  Biso   1.000  O
  Hf8      1.0000 0.62491  0.00005  0.24982  Biso   1.000  Hf
  Hf9      1.0000 0.62491  0.24772  0.74982  Biso   1.000  Hf
  Hf10     1.0000 0.87587  0.24915  0.24084  Biso   1.000  Hf
  Hf11     1.0000 0.87744  0.00005  0.74982  Biso   1.000  Hf
  O17      1.0000 0.48467  0.14518  0.98484  Biso   1.000  O
  O18      1.0000 0.51015  0.10576  0.49571  Biso   1.000  O
  O19      1.0000 0.49744  0.35498  0.50427  Biso   1.000  O
  O20      1.0000 0.50254  0.39461  0.00165  Biso   1.000  O
  O21      1.0000 0.76515  0.14518  0.51479  Biso   1.000  O
  O22      1.0000 0.73967  0.10576  0.00392  Biso   1.000  O
  O23      1.0000 0.75238  0.35498  0.99536  Biso   1.000  O
  O24      1.0000 0.74728  0.39461  0.49799  Biso   1.000  O
  Hf12     1.0000 0.62491  0.50005  0.24982  Biso   1.000  Hf
  Hf13     1.0000 0.62491  0.75239  0.74982  Biso   1.000  Hf
  Hf14     1.0000 0.87587  0.75095  0.25879  Biso   1.000  Hf
  Hf15     1.0000 0.87192  0.50005  0.74982  Biso   1.000  Hf
  O25      1.0000 0.49744  0.64512  0.99536  Biso   1.000  O
  O26      1.0000 0.50254  0.60550  0.49799  Biso   1.000  O
  O27      1.0000 0.48467  0.85492  0.51479  Biso   1.000  O
  O28      1.0000 0.51015  0.89435  0.00392  Biso   1.000  O
  O29      1.0000 0.75238  0.64513  0.50427  Biso   1.000  O
  O30      1.0000 0.74728  0.60550  0.00165  Biso   1.000  O
  O31      1.0000 0.76515  0.85493  0.98484  Biso   1.000  O
  O32      1.0000 0.73967  0.89434  0.49571  Biso   1.000  O
