data_image0
_cell_length_a       5.09621
_cell_length_b       10.2231
_cell_length_c       10.6107
_cell_angle_alpha    89.4759
_cell_angle_beta     79.9884
_cell_angle_gamma    89.9679

_symmetry_space_group_name_H-M    "P 1"
_symmetry_int_tables_number       1

loop_
  _symmetry_equiv_pos_as_xyz
  'x, y, z'

loop_
  _atom_site_label
  _atom_site_occupancy
  _atom_site_fract_x
  _atom_site_fract_y
  _atom_site_fract_z
  _atom_site_thermal_displace_type
  _atom_site_B_iso_or_equiv
  _atom_site_type_symbol
  Hf1      1.0000 0.27599  0.02022  0.14438  Biso   1.000  Hf
  Hf2      1.0000 0.26369  0.23350  0.40264  Biso   1.000  Hf
  Hf3      1.0000 0.72147  0.26677  0.09359  Biso   1.000  Hf
  Hf4      1.0000 0.71929  0.49133  0.35828  Biso   1.000  Hf
  O1       1.0000 0.05928  0.15269  0.06592  Biso   1.000  O
  O2       1.0000 0.05283  0.09122  0.32310  Biso   1.000  O
  O3       1.0000 0.96045  0.38798  0.19372  Biso   1.000  O
  O4       1.0000 0.94878  0.35989  0.44052  Biso   1.000  O
  O5       1.0000 0.55189  0.12179  0.23380  Biso   1.000  O
  O6       1.0000 0.56941  0.12652  0.48116  Biso   1.000  O
  O7       1.0000 0.44352  0.37825  0.00903  Biso   1.000  O
  O8       1.0000 0.48424  0.36493  0.26342  Biso   1.000  O
  Hf5      1.0000 0.27430  0.02327  0.64523  Biso   1.000  Hf
  Hf6      1.0000 0.27404  0.22747  0.89326  Biso   1.000  Hf
  Hf7      1.0000 0.72000  0.27738  0.60883  Biso   1.000  Hf
  Hf8      1.0000 0.71988  0.48041  0.85617  Biso   1.000  Hf
  O9       1.0000 0.06155  0.16375  0.57737  Biso   1.000  O
  O10      1.0000 0.05919  0.08955  0.82098  Biso   1.000  O
  O11      1.0000 0.93620  0.41197  0.68316  Biso   1.000  O
  O12      1.0000 0.94434  0.34481  0.92704  Biso   1.000  O
  O13      1.0000 0.54692  0.12822  0.73727  Biso   1.000  O
  O14      1.0000 0.54697  0.12038  0.98408  Biso   1.000  O
  O15      1.0000 0.44738  0.38337  0.51728  Biso   1.000  O
  O16      1.0000 0.44900  0.37357  0.76248  Biso   1.000  O
  Hf9      1.0000 0.27540  0.51646  0.14859  Biso   1.000  Hf
  Hf10     1.0000 0.26840  0.72991  0.39771  Biso   1.000  Hf
  Hf11     1.0000 0.72246  0.76948  0.10433  Biso   1.000  Hf
  Hf12     1.0000 0.71301  0.97241  0.35267  Biso   1.000  Hf
  O17      1.0000 0.05740  0.65209  0.07285  Biso   1.000  O
  O18      1.0000 0.06531  0.59386  0.31958  Biso   1.000  O
  O19      1.0000 0.93677  0.90637  0.17868  Biso   1.000  O
  O20      1.0000 0.93354  0.84005  0.43004  Biso   1.000  O
  O21      1.0000 0.54997  0.62606  0.23926  Biso   1.000  O
  O22      1.0000 0.54117  0.62827  0.49348  Biso   1.000  O
  O23      1.0000 0.44820  0.87714  0.01183  Biso   1.000  O
  O24      1.0000 0.44193  0.86794  0.25976  Biso   1.000  O
  Hf13     1.0000 0.27202  0.52424  0.64875  Biso   1.000  Hf
  Hf14     1.0000 0.27480  0.72721  0.89778  Biso   1.000  Hf
  Hf15     1.0000 0.71887  0.77365  0.60659  Biso   1.000  Hf
  Hf16     1.0000 0.72246  0.97725  0.85370  Biso   1.000  Hf
  O25      1.0000 0.05316  0.66022  0.57367  Biso   1.000  O
  O26      1.0000 0.05876  0.59282  0.82382  Biso   1.000  O
  O27      1.0000 0.93702  0.91101  0.67799  Biso   1.000  O
  O28      1.0000 0.93648  0.83904  0.92903  Biso   1.000  O
  O29      1.0000 0.54764  0.62938  0.74170  Biso   1.000  O
  O30      1.0000 0.54861  0.62204  0.99137  Biso   1.000  O
  O31      1.0000 0.44368  0.88076  0.51149  Biso   1.000  O
  O32      1.0000 0.44706  0.87254  0.76186  Biso   1.000  O
  V1       1.0000 0.77788  0.24054  0.32572  Biso   1.000  V
