data_image0
_cell_length_a       5.02747
_cell_length_b       10.2386
_cell_length_c       10.4015
_cell_angle_alpha    90.0615
_cell_angle_beta     80.3449
_cell_angle_gamma    89.8874

_symmetry_space_group_name_H-M    "P 1"
_symmetry_int_tables_number       1

loop_
  _symmetry_equiv_pos_as_xyz
  'x, y, z'

loop_
  _atom_site_label
  _atom_site_occupancy
  _atom_site_fract_x
  _atom_site_fract_y
  _atom_site_fract_z
  _atom_site_thermal_displace_type
  _atom_site_B_iso_or_equiv
  _atom_site_type_symbol
  V1       1.0000 0.26450  0.02607  0.14780  Biso   1.000  V
  Hf1      1.0000 0.27967  0.22722  0.39269  Biso   1.000  Hf
  Hf2      1.0000 0.72042  0.26817  0.10548  Biso   1.000  Hf
  Hf3      1.0000 0.72301  0.47883  0.35388  Biso   1.000  Hf
  O1       1.0000 0.07958  0.16212  0.08458  Biso   1.000  O
  O2       1.0000 0.07993  0.07884  0.31993  Biso   1.000  O
  O3       1.0000 0.93012  0.41788  0.16891  Biso   1.000  O
  O4       1.0000 0.92739  0.32824  0.41764  Biso   1.000  O
  O5       1.0000 0.54609  0.12438  0.23625  Biso   1.000  O
  O6       1.0000 0.55699  0.12055  0.48799  Biso   1.000  O
  O7       1.0000 0.44674  0.37904  0.01031  Biso   1.000  O
  O8       1.0000 0.44881  0.36940  0.25871  Biso   1.000  O
  Hf4      1.0000 0.27592  0.02065  0.64572  Biso   1.000  Hf
  Hf5      1.0000 0.28014  0.22691  0.89674  Biso   1.000  Hf
  Hf6      1.0000 0.72190  0.27126  0.60352  Biso   1.000  Hf
  Hf7      1.0000 0.72274  0.47850  0.85583  Biso   1.000  Hf
  O9       1.0000 0.07130  0.16707  0.57642  Biso   1.000  O
  O10      1.0000 0.06900  0.08095  0.83068  Biso   1.000  O
  O11      1.0000 0.92876  0.41893  0.67009  Biso   1.000  O
  O12      1.0000 0.92755  0.32734  0.92182  Biso   1.000  O
  O13      1.0000 0.55289  0.12907  0.74057  Biso   1.000  O
  O14      1.0000 0.54862  0.12010  0.99423  Biso   1.000  O
  O15      1.0000 0.44569  0.37874  0.50900  Biso   1.000  O
  O16      1.0000 0.44648  0.37029  0.76025  Biso   1.000  O
  Hf8      1.0000 0.27741  0.52263  0.14598  Biso   1.000  Hf
  Hf9      1.0000 0.28030  0.73029  0.39489  Biso   1.000  Hf
  Hf10     1.0000 0.71907  0.77691  0.10508  Biso   1.000  Hf
  Hf11     1.0000 0.72333  0.97905  0.35034  Biso   1.000  Hf
  O17      1.0000 0.06905  0.67097  0.08267  Biso   1.000  O
  O18      1.0000 0.07491  0.57886  0.33208  Biso   1.000  O
  O19      1.0000 0.95258  0.92289  0.16511  Biso   1.000  O
  O20      1.0000 0.92771  0.83041  0.41754  Biso   1.000  O
  O21      1.0000 0.55535  0.63048  0.24087  Biso   1.000  O
  O22      1.0000 0.55545  0.62078  0.49113  Biso   1.000  O
  O23      1.0000 0.43494  0.88599  0.01444  Biso   1.000  O
  O24      1.0000 0.45131  0.87373  0.25768  Biso   1.000  O
  Hf12     1.0000 0.27903  0.52176  0.64648  Biso   1.000  Hf
  Hf13     1.0000 0.27575  0.73056  0.89856  Biso   1.000  Hf
  Hf14     1.0000 0.72188  0.77143  0.60465  Biso   1.000  Hf
  Hf15     1.0000 0.71616  0.97963  0.85674  Biso   1.000  Hf
  O25      1.0000 0.07394  0.67074  0.58108  Biso   1.000  O
  O26      1.0000 0.07355  0.57972  0.83272  Biso   1.000  O
  O27      1.0000 0.92543  0.92020  0.66971  Biso   1.000  O
  O28      1.0000 0.92023  0.82968  0.91928  Biso   1.000  O
  O29      1.0000 0.55483  0.62935  0.74211  Biso   1.000  O
  O30      1.0000 0.55407  0.62307  0.99219  Biso   1.000  O
  O31      1.0000 0.44606  0.87930  0.50895  Biso   1.000  O
  O32      1.0000 0.44343  0.87105  0.76066  Biso   1.000  O
