data_image0
_cell_length_a       9.9991
_cell_length_b       10.1897
_cell_length_c       9.9991
_cell_angle_alpha    90
_cell_angle_beta     90
_cell_angle_gamma    90

_symmetry_space_group_name_H-M    "P 1"
_symmetry_int_tables_number       1

loop_
  _symmetry_equiv_pos_as_xyz
  'x, y, z'

loop_
  _atom_site_label
  _atom_site_occupancy
  _atom_site_fract_x
  _atom_site_fract_y
  _atom_site_fract_z
  _atom_site_thermal_displace_type
  _atom_site_B_iso_or_equiv
  _atom_site_type_symbol
  V1       1.0000 0.12491  0.00005  0.12491  Biso   1.000  V
  Hf1      1.0000 0.12806  0.25177  0.37493  Biso   1.000  Hf
  Hf2      1.0000 0.37492  0.25177  0.12805  Biso   1.000  Hf
  Hf3      1.0000 0.37257  0.00213  0.37257  Biso   1.000  Hf
  O1       1.0000 0.98380  0.15329  0.98380  Biso   1.000  O
  O2       1.0000 0.01424  0.09334  0.23558  Biso   1.000  O
  O3       1.0000 0.00088  0.34819  0.24894  Biso   1.000  O
  O4       1.0000 0.99967  0.40094  0.99967  Biso   1.000  O
  O5       1.0000 0.26601  0.15328  0.26601  Biso   1.000  O
  O6       1.0000 0.23558  0.09333  0.01424  Biso   1.000  O
  O7       1.0000 0.24894  0.34819  0.00088  Biso   1.000  O
  O8       1.0000 0.25015  0.40094  0.25015  Biso   1.000  O
  Hf4      1.0000 0.12491  0.00005  0.62491  Biso   1.000  Hf
  Hf5      1.0000 0.12176  0.25177  0.87489  Biso   1.000  Hf
  Hf6      1.0000 0.37454  0.24797  0.62696  Biso   1.000  Hf
  Hf7      1.0000 0.37257  0.99798  0.87725  Biso   1.000  Hf
  O9       1.0000 0.99355  0.14633  0.48611  Biso   1.000  O
  O10      1.0000 0.00129  0.10432  0.74080  Biso   1.000  O
  O11      1.0000 0.99787  0.35373  0.74937  Biso   1.000  O
  O12      1.0000 0.00165  0.39648  0.49962  Biso   1.000  O
  O13      1.0000 0.25627  0.14632  0.76371  Biso   1.000  O
  O14      1.0000 0.24852  0.10432  0.50902  Biso   1.000  O
  O15      1.0000 0.25194  0.35373  0.50044  Biso   1.000  O
  O16      1.0000 0.24816  0.39648  0.75019  Biso   1.000  O
  Hf8      1.0000 0.12491  0.50005  0.12491  Biso   1.000  Hf
  Hf9      1.0000 0.12176  0.74834  0.37493  Biso   1.000  Hf
  Hf10     1.0000 0.37492  0.74834  0.12176  Biso   1.000  Hf
  Hf11     1.0000 0.37683  0.50100  0.37683  Biso   1.000  Hf
  O17      1.0000 0.00088  0.65192  0.00088  Biso   1.000  O
  O18      1.0000 0.99967  0.59917  0.25015  Biso   1.000  O
  O19      1.0000 0.98380  0.84682  0.26602  Biso   1.000  O
  O20      1.0000 0.01424  0.90677  0.01424  Biso   1.000  O
  O21      1.0000 0.24894  0.65191  0.24894  Biso   1.000  O
  O22      1.0000 0.25015  0.59917  0.99967  Biso   1.000  O
  O23      1.0000 0.26601  0.84682  0.98380  Biso   1.000  O
  O24      1.0000 0.23558  0.90677  0.23558  Biso   1.000  O
  Hf12     1.0000 0.12491  0.50005  0.62491  Biso   1.000  Hf
  Hf13     1.0000 0.12806  0.74834  0.87489  Biso   1.000  Hf
  Hf14     1.0000 0.37454  0.75213  0.62286  Biso   1.000  Hf
  Hf15     1.0000 0.37683  0.49911  0.87299  Biso   1.000  Hf
  O25      1.0000 0.99787  0.64638  0.50044  Biso   1.000  O
  O26      1.0000 0.00165  0.60363  0.75019  Biso   1.000  O
  O27      1.0000 0.99355  0.85378  0.76371  Biso   1.000  O
  O28      1.0000 0.00129  0.89579  0.50902  Biso   1.000  O
  O29      1.0000 0.25194  0.64638  0.74937  Biso   1.000  O
  O30      1.0000 0.24816  0.60363  0.49963  Biso   1.000  O
  O31      1.0000 0.25627  0.85378  0.48611  Biso   1.000  O
  O32      1.0000 0.24852  0.89579  0.74080  Biso   1.000  O
  Hf16     1.0000 0.62491  0.00005  0.12491  Biso   1.000  Hf
  Hf17     1.0000 0.62696  0.24797  0.37454  Biso   1.000  Hf
  Hf18     1.0000 0.87489  0.25177  0.12176  Biso   1.000  Hf
  Hf19     1.0000 0.87725  0.99798  0.37257  Biso   1.000  Hf
  O33      1.0000 0.48611  0.14633  0.99355  Biso   1.000  O
  O34      1.0000 0.50902  0.10432  0.24852  Biso   1.000  O
  O35      1.0000 0.50044  0.35373  0.25194  Biso   1.000  O
  O36      1.0000 0.49962  0.39648  0.00166  Biso   1.000  O
  O37      1.0000 0.76371  0.14633  0.25627  Biso   1.000  O
  O38      1.0000 0.74080  0.10432  0.00129  Biso   1.000  O
  O39      1.0000 0.74937  0.35373  0.99787  Biso   1.000  O
  O40      1.0000 0.75019  0.39647  0.24816  Biso   1.000  O
  Hf20     1.0000 0.62491  0.00005  0.62491  Biso   1.000  Hf
  Hf21     1.0000 0.62286  0.24797  0.87527  Biso   1.000  Hf
  Hf22     1.0000 0.87528  0.24797  0.62286  Biso   1.000  Hf
  Hf23     1.0000 0.87725  0.00213  0.87725  Biso   1.000  Hf
  O41      1.0000 0.49496  0.14745  0.49496  Biso   1.000  O
  O42      1.0000 0.50233  0.10262  0.74748  Biso   1.000  O
  O43      1.0000 0.49779  0.35310  0.75202  Biso   1.000  O
  O44      1.0000 0.50136  0.39645  0.50137  Biso   1.000  O
  O45      1.0000 0.75486  0.14745  0.75486  Biso   1.000  O
  O46      1.0000 0.74748  0.10262  0.50233  Biso   1.000  O
  O47      1.0000 0.75203  0.35310  0.49779  Biso   1.000  O
  O48      1.0000 0.74845  0.39645  0.74845  Biso   1.000  O
  Hf24     1.0000 0.62491  0.50005  0.12491  Biso   1.000  Hf
  Hf25     1.0000 0.62286  0.75213  0.37454  Biso   1.000  Hf
  Hf26     1.0000 0.87489  0.74834  0.12805  Biso   1.000  Hf
  Hf27     1.0000 0.87299  0.49911  0.37683  Biso   1.000  Hf
  O49      1.0000 0.50045  0.64638  0.99788  Biso   1.000  O
  O50      1.0000 0.49962  0.60363  0.24816  Biso   1.000  O
  O51      1.0000 0.48611  0.85378  0.25627  Biso   1.000  O
  O52      1.0000 0.50902  0.89579  0.00129  Biso   1.000  O
  O53      1.0000 0.74937  0.64638  0.25194  Biso   1.000  O
  O54      1.0000 0.75019  0.60363  0.00166  Biso   1.000  O
  O55      1.0000 0.76371  0.85378  0.99355  Biso   1.000  O
  O56      1.0000 0.74080  0.89578  0.24852  Biso   1.000  O
  Hf28     1.0000 0.62491  0.50005  0.62491  Biso   1.000  Hf
  Hf29     1.0000 0.62696  0.75213  0.87528  Biso   1.000  Hf
  Hf30     1.0000 0.87528  0.75213  0.62696  Biso   1.000  Hf
  Hf31     1.0000 0.87299  0.50100  0.87299  Biso   1.000  Hf
  O57      1.0000 0.49779  0.64700  0.49780  Biso   1.000  O
  O58      1.0000 0.50136  0.60366  0.74845  Biso   1.000  O
  O59      1.0000 0.49496  0.85266  0.75486  Biso   1.000  O
  O60      1.0000 0.50233  0.89749  0.50233  Biso   1.000  O
  O61      1.0000 0.75202  0.64701  0.75202  Biso   1.000  O
  O62      1.0000 0.74845  0.60366  0.50137  Biso   1.000  O
  O63      1.0000 0.75486  0.85266  0.49496  Biso   1.000  O
  O64      1.0000 0.74748  0.89748  0.74748  Biso   1.000  O
