data_image0
_cell_length_a       4.99631
_cell_length_b       10.4331
_cell_length_c       10.0355
_cell_angle_alpha    90.6172
_cell_angle_beta     89.3636
_cell_angle_gamma    90.3269

_symmetry_space_group_name_H-M    "P 1"
_symmetry_int_tables_number       1

loop_
  _symmetry_equiv_pos_as_xyz
  'x, y, z'

loop_
  _atom_site_label
  _atom_site_occupancy
  _atom_site_fract_x
  _atom_site_fract_y
  _atom_site_fract_z
  _atom_site_thermal_displace_type
  _atom_site_B_iso_or_equiv
  _atom_site_type_symbol
  V1       1.0000 0.24166  0.03163  0.11379  Biso   1.000  V
  Zr1      1.0000 0.26191  0.01497  0.62427  Biso   1.000  Zr
  Zr2      1.0000 0.26658  0.51411  0.12715  Biso   1.000  Zr
  Zr3      1.0000 0.26894  0.51753  0.62474  Biso   1.000  Zr
  Zr4      1.0000 0.26648  0.22960  0.37269  Biso   1.000  Zr
  Zr5      1.0000 0.26237  0.23792  0.87262  Biso   1.000  Zr
  Zr6      1.0000 0.27890  0.73472  0.37678  Biso   1.000  Zr
  Zr7      1.0000 0.26290  0.73835  0.87981  Biso   1.000  Zr
  Zr8      1.0000 0.72768  0.26247  0.12142  Biso   1.000  Zr
  Zr9      1.0000 0.73079  0.26552  0.62337  Biso   1.000  Zr
  Zr10     1.0000 0.74336  0.76116  0.12250  Biso   1.000  Zr
  Zr11     1.0000 0.73695  0.76873  0.62800  Biso   1.000  Zr
  Zr12     1.0000 0.73578  0.48243  0.37561  Biso   1.000  Zr
  Zr13     1.0000 0.72937  0.48754  0.87411  Biso   1.000  Zr
  Zr14     1.0000 0.73466  0.98385  0.37183  Biso   1.000  Zr
  Zr15     1.0000 0.71401  0.98641  0.88065  Biso   1.000  Zr
  O1       1.0000 0.06190  0.17983  0.19331  Biso   1.000  O
  O2       1.0000 0.06626  0.18432  0.69586  Biso   1.000  O
  O3       1.0000 0.07608  0.68465  0.19827  Biso   1.000  O
  O4       1.0000 0.07001  0.68449  0.69779  Biso   1.000  O
  O5       1.0000 0.06979  0.06638  0.44723  Biso   1.000  O
  O6       1.0000 0.05777  0.07044  0.95653  Biso   1.000  O
  O7       1.0000 0.07503  0.56573  0.44482  Biso   1.000  O
  O8       1.0000 0.06134  0.57065  0.94990  Biso   1.000  O
  O9       1.0000 0.93101  0.42944  0.19483  Biso   1.000  O
  O10      1.0000 0.92829  0.43433  0.69384  Biso   1.000  O
  O11      1.0000 0.98734  0.93707  0.18865  Biso   1.000  O
  O12      1.0000 0.92792  0.93621  0.70119  Biso   1.000  O
  O13      1.0000 0.93226  0.31491  0.44374  Biso   1.000  O
  O14      1.0000 0.92281  0.31837  0.94261  Biso   1.000  O
  O15      1.0000 0.94491  0.82083  0.45042  Biso   1.000  O
  O16      1.0000 0.91260  0.81880  0.94026  Biso   1.000  O
  O17      1.0000 0.51692  0.10131  0.23620  Biso   1.000  O
  O18      1.0000 0.53402  0.11737  0.74654  Biso   1.000  O
  O19      1.0000 0.54126  0.60740  0.24829  Biso   1.000  O
  O20      1.0000 0.53616  0.61951  0.75075  Biso   1.000  O
  O21      1.0000 0.54349  0.13274  0.49245  Biso   1.000  O
  O22      1.0000 0.52135  0.13676  0.99534  Biso   1.000  O
  O23      1.0000 0.54560  0.63419  0.50004  Biso   1.000  O
  O24      1.0000 0.53204  0.63599  0.99981  Biso   1.000  O
  O25      1.0000 0.46117  0.38204  0.49808  Biso   1.000  O
  O26      1.0000 0.45732  0.38568  0.99729  Biso   1.000  O
  O27      1.0000 0.47012  0.88497  0.50254  Biso   1.000  O
  O28      1.0000 0.44299  0.89223  0.01234  Biso   1.000  O
  O29      1.0000 0.46244  0.35965  0.24725  Biso   1.000  O
  O30      1.0000 0.45840  0.36858  0.74758  Biso   1.000  O
  O31      1.0000 0.51809  0.85031  0.25956  Biso   1.000  O
  O32      1.0000 0.45621  0.86895  0.75399  Biso   1.000  O
