data_image0
_cell_length_a       5.06154
_cell_length_b       10.3128
_cell_length_c       10.4495
_cell_angle_alpha    90.0679
_cell_angle_beta     80.4132
_cell_angle_gamma    89.8771

_symmetry_space_group_name_H-M    "P 1"
_symmetry_int_tables_number       1

loop_
  _symmetry_equiv_pos_as_xyz
  'x, y, z'

loop_
  _atom_site_label
  _atom_site_occupancy
  _atom_site_fract_x
  _atom_site_fract_y
  _atom_site_fract_z
  _atom_site_thermal_displace_type
  _atom_site_B_iso_or_equiv
  _atom_site_type_symbol
  V1       1.0000 0.26414  0.02617  0.14757  Biso   1.000  V
  Zr1      1.0000 0.27565  0.02058  0.64512  Biso   1.000  Zr
  Zr2      1.0000 0.27743  0.52265  0.14549  Biso   1.000  Zr
  Zr3      1.0000 0.27897  0.52170  0.64605  Biso   1.000  Zr
  Zr4      1.0000 0.27947  0.22725  0.39182  Biso   1.000  Zr
  Zr5      1.0000 0.28024  0.22687  0.89646  Biso   1.000  Zr
  Zr6      1.0000 0.28041  0.73061  0.39438  Biso   1.000  Zr
  Zr7      1.0000 0.27550  0.73081  0.89831  Biso   1.000  Zr
  Zr8      1.0000 0.72098  0.26783  0.10606  Biso   1.000  Zr
  Zr9      1.0000 0.72184  0.27122  0.60394  Biso   1.000  Zr
  Zr10     1.0000 0.71938  0.77739  0.10561  Biso   1.000  Zr
  Zr11     1.0000 0.72188  0.77133  0.60531  Biso   1.000  Zr
  Zr12     1.0000 0.72321  0.47905  0.35437  Biso   1.000  Zr
  Zr13     1.0000 0.72278  0.47861  0.85647  Biso   1.000  Zr
  Zr14     1.0000 0.72398  0.97921  0.35070  Biso   1.000  Zr
  Zr15     1.0000 0.71583  0.98000  0.85738  Biso   1.000  Zr
  O1       1.0000 0.07982  0.16097  0.08543  Biso   1.000  O
  O2       1.0000 0.07054  0.16689  0.57601  Biso   1.000  O
  O3       1.0000 0.06841  0.67105  0.08287  Biso   1.000  O
  O4       1.0000 0.07358  0.67097  0.58138  Biso   1.000  O
  O5       1.0000 0.08108  0.07798  0.31910  Biso   1.000  O
  O6       1.0000 0.06814  0.08109  0.83062  Biso   1.000  O
  O7       1.0000 0.07485  0.57860  0.33240  Biso   1.000  O
  O8       1.0000 0.07298  0.57958  0.83310  Biso   1.000  O
  O9       1.0000 0.93086  0.41788  0.16872  Biso   1.000  O
  O10      1.0000 0.92923  0.41897  0.66999  Biso   1.000  O
  O11      1.0000 0.95580  0.92297  0.16438  Biso   1.000  O
  O12      1.0000 0.92572  0.92036  0.66939  Biso   1.000  O
  O13      1.0000 0.92764  0.32795  0.41726  Biso   1.000  O
  O14      1.0000 0.92793  0.32687  0.92200  Biso   1.000  O
  O15      1.0000 0.92792  0.83008  0.41714  Biso   1.000  O
  O16      1.0000 0.91921  0.82930  0.91906  Biso   1.000  O
  O17      1.0000 0.54390  0.12362  0.23548  Biso   1.000  O
  O18      1.0000 0.55142  0.12885  0.74058  Biso   1.000  O
  O19      1.0000 0.55414  0.63063  0.24102  Biso   1.000  O
  O20      1.0000 0.55335  0.62917  0.74233  Biso   1.000  O
  O21      1.0000 0.55588  0.12084  0.48765  Biso   1.000  O
  O22      1.0000 0.54654  0.12017  0.99461  Biso   1.000  O
  O23      1.0000 0.55423  0.62102  0.49126  Biso   1.000  O
  O24      1.0000 0.55262  0.62353  0.99228  Biso   1.000  O
  O25      1.0000 0.44824  0.37888  0.01034  Biso   1.000  O
  O26      1.0000 0.44697  0.37855  0.50895  Biso   1.000  O
  O27      1.0000 0.43445  0.88701  0.01526  Biso   1.000  O
  O28      1.0000 0.44748  0.87911  0.50893  Biso   1.000  O
  O29      1.0000 0.45057  0.36944  0.25865  Biso   1.000  O
  O30      1.0000 0.44777  0.37048  0.76030  Biso   1.000  O
  O31      1.0000 0.45264  0.87456  0.25759  Biso   1.000  O
  O32      1.0000 0.44437  0.87134  0.76085  Biso   1.000  O
