data_image0
_cell_length_a       9.99519
_cell_length_b       5.22259
_cell_length_c       10.0333
_cell_angle_alpha    90.9208
_cell_angle_beta     89.4069
_cell_angle_gamma    90.3077

_symmetry_space_group_name_H-M    "P 1"
_symmetry_int_tables_number       1

loop_
  _symmetry_equiv_pos_as_xyz
  'x, y, z'

loop_
  _atom_site_label
  _atom_site_occupancy
  _atom_site_fract_x
  _atom_site_fract_y
  _atom_site_fract_z
  _atom_site_thermal_displace_type
  _atom_site_B_iso_or_equiv
  _atom_site_type_symbol
  V1       1.0000 0.11930  0.06304  0.11390  Biso   1.000  V
  Zr1      1.0000 0.13619  0.03568  0.62737  Biso   1.000  Zr
  Zr2      1.0000 0.63494  0.03455  0.12609  Biso   1.000  Zr
  Zr3      1.0000 0.62847  0.02869  0.62127  Biso   1.000  Zr
  Zr4      1.0000 0.13522  0.45388  0.37414  Biso   1.000  Zr
  Zr5      1.0000 0.13201  0.48243  0.87954  Biso   1.000  Zr
  Zr6      1.0000 0.63629  0.46949  0.37683  Biso   1.000  Zr
  Zr7      1.0000 0.63065  0.47266  0.87255  Biso   1.000  Zr
  Zr8      1.0000 0.37066  0.51935  0.12155  Biso   1.000  Zr
  Zr9      1.0000 0.36534  0.53771  0.62810  Biso   1.000  Zr
  Zr10     1.0000 0.86927  0.53187  0.11978  Biso   1.000  Zr
  Zr11     1.0000 0.86834  0.53127  0.62296  Biso   1.000  Zr
  Zr12     1.0000 0.36462  0.95615  0.37153  Biso   1.000  Zr
  Zr13     1.0000 0.35813  0.97663  0.88397  Biso   1.000  Zr
  Zr14     1.0000 0.86955  0.97090  0.37452  Biso   1.000  Zr
  Zr15     1.0000 0.86261  0.97417  0.87099  Biso   1.000  Zr
  O1       1.0000 0.03539  0.36620  0.18950  Biso   1.000  O
  O2       1.0000 0.03388  0.36960  0.69908  Biso   1.000  O
  O3       1.0000 0.53410  0.36418  0.20219  Biso   1.000  O
  O4       1.0000 0.53394  0.36906  0.69392  Biso   1.000  O
  O5       1.0000 0.03437  0.13010  0.45089  Biso   1.000  O
  O6       1.0000 0.03097  0.14053  0.95261  Biso   1.000  O
  O7       1.0000 0.53676  0.13308  0.44172  Biso   1.000  O
  O8       1.0000 0.52673  0.15002  0.95326  Biso   1.000  O
  O9       1.0000 0.47185  0.85951  0.19484  Biso   1.000  O
  O10      1.0000 0.46241  0.87273  0.70165  Biso   1.000  O
  O11      1.0000 0.98871  0.87256  0.18742  Biso   1.000  O
  O12      1.0000 0.96541  0.86954  0.69372  Biso   1.000  O
  O13      1.0000 0.47235  0.64184  0.45481  Biso   1.000  O
  O14      1.0000 0.45849  0.64180  0.94179  Biso   1.000  O
  O15      1.0000 0.96599  0.63076  0.43929  Biso   1.000  O
  O16      1.0000 0.95807  0.63807  0.93879  Biso   1.000  O
  O17      1.0000 0.25006  0.17343  0.23946  Biso   1.000  O
  O18      1.0000 0.26909  0.24287  0.75179  Biso   1.000  O
  O19      1.0000 0.77470  0.23116  0.24597  Biso   1.000  O
  O20      1.0000 0.76538  0.23216  0.74619  Biso   1.000  O
  O21      1.0000 0.27373  0.26326  0.49625  Biso   1.000  O
  O22      1.0000 0.25918  0.27551  0.00056  Biso   1.000  O
  O23      1.0000 0.77036  0.26688  0.49680  Biso   1.000  O
  O24      1.0000 0.76624  0.27364  0.99596  Biso   1.000  O
  O25      1.0000 0.22961  0.76249  0.50369  Biso   1.000  O
  O26      1.0000 0.22101  0.78571  0.01443  Biso   1.000  O
  O27      1.0000 0.73522  0.76941  0.49697  Biso   1.000  O
  O28      1.0000 0.72703  0.77282  0.99561  Biso   1.000  O
  O29      1.0000 0.25630  0.67177  0.26341  Biso   1.000  O
  O30      1.0000 0.22760  0.74334  0.75565  Biso   1.000  O
  O31      1.0000 0.74041  0.73320  0.24578  Biso   1.000  O
  O32      1.0000 0.72973  0.73292  0.74576  Biso   1.000  O
