data_image0
_cell_length_a       10.0421
_cell_length_b       10.2743
_cell_length_c       5.22638
_cell_angle_alpha    89.8628
_cell_angle_beta     89.9761
_cell_angle_gamma    89.9208

_symmetry_space_group_name_H-M    "P 1"
_symmetry_int_tables_number       1

loop_
  _symmetry_equiv_pos_as_xyz
  'x, y, z'

loop_
  _atom_site_label
  _atom_site_occupancy
  _atom_site_fract_x
  _atom_site_fract_y
  _atom_site_fract_z
  _atom_site_thermal_displace_type
  _atom_site_B_iso_or_equiv
  _atom_site_type_symbol
  V1       1.0000 0.12915  0.02555  0.35105  Biso   1.000  V
  Zr1      1.0000 0.13999  0.52124  0.34314  Biso   1.000  Zr
  Zr2      1.0000 0.14134  0.22631  0.84443  Biso   1.000  Zr
  Zr3      1.0000 0.14056  0.73228  0.84020  Biso   1.000  Zr
  Zr4      1.0000 0.35889  0.26823  0.34351  Biso   1.000  Zr
  Zr5      1.0000 0.35673  0.77614  0.34033  Biso   1.000  Zr
  Zr6      1.0000 0.36126  0.47934  0.84283  Biso   1.000  Zr
  Zr7      1.0000 0.35609  0.97947  0.84252  Biso   1.000  Zr
  Zr8      1.0000 0.63780  0.02102  0.15436  Biso   1.000  Zr
  Zr9      1.0000 0.63793  0.52196  0.16225  Biso   1.000  Zr
  Zr10     1.0000 0.63852  0.22928  0.65884  Biso   1.000  Zr
  Zr11     1.0000 0.63740  0.72972  0.65777  Biso   1.000  Zr
  Zr12     1.0000 0.86245  0.26958  0.16116  Biso   1.000  Zr
  Zr13     1.0000 0.86375  0.77143  0.15612  Biso   1.000  Zr
  Zr14     1.0000 0.86218  0.47878  0.66141  Biso   1.000  Zr
  Zr15     1.0000 0.86255  0.97976  0.65416  Biso   1.000  Zr
  O1       1.0000 0.03501  0.15543  0.16977  Biso   1.000  O
  O2       1.0000 0.03325  0.66591  0.16873  Biso   1.000  O
  O3       1.0000 0.03725  0.08361  0.64513  Biso   1.000  O
  O4       1.0000 0.03394  0.58306  0.67108  Biso   1.000  O
  O5       1.0000 0.46530  0.41769  0.17422  Biso   1.000  O
  O6       1.0000 0.46725  0.91663  0.16793  Biso   1.000  O
  O7       1.0000 0.46522  0.33123  0.67368  Biso   1.000  O
  O8       1.0000 0.46380  0.83404  0.67081  Biso   1.000  O
  O9       1.0000 0.27254  0.12248  0.58884  Biso   1.000  O
  O10      1.0000 0.27628  0.62604  0.58919  Biso   1.000  O
  O11      1.0000 0.27043  0.12098  0.10225  Biso   1.000  O
  O12      1.0000 0.27629  0.62669  0.08896  Biso   1.000  O
  O13      1.0000 0.22402  0.37425  0.59130  Biso   1.000  O
  O14      1.0000 0.21872  0.87965  0.58162  Biso   1.000  O
  O15      1.0000 0.22378  0.37389  0.08962  Biso   1.000  O
  O16      1.0000 0.22000  0.87799  0.08932  Biso   1.000  O
  O17      1.0000 0.53393  0.16761  0.32944  Biso   1.000  O
  O18      1.0000 0.53330  0.66992  0.32843  Biso   1.000  O
  O19      1.0000 0.53157  0.08412  0.83062  Biso   1.000  O
  O20      1.0000 0.53488  0.58178  0.82806  Biso   1.000  O
  O21      1.0000 0.96882  0.41341  0.33394  Biso   1.000  O
  O22      1.0000 0.98056  0.91995  0.32590  Biso   1.000  O
  O23      1.0000 0.96782  0.32920  0.83374  Biso   1.000  O
  O24      1.0000 0.96639  0.83409  0.82703  Biso   1.000  O
  O25      1.0000 0.77792  0.12332  0.90723  Biso   1.000  O
  O26      1.0000 0.77688  0.62544  0.91408  Biso   1.000  O
  O27      1.0000 0.77641  0.12525  0.40815  Biso   1.000  O
  O28      1.0000 0.77678  0.62558  0.41349  Biso   1.000  O
  O29      1.0000 0.72517  0.37379  0.91450  Biso   1.000  O
  O30      1.0000 0.72412  0.87487  0.90775  Biso   1.000  O
  O31      1.0000 0.72497  0.37565  0.41295  Biso   1.000  O
  O32      1.0000 0.73081  0.87635  0.40815  Biso   1.000  O
