data_image0
_cell_length_a       10.1516
_cell_length_b       10.3345
_cell_length_c       10.4713
_cell_angle_alpha    90.0195
_cell_angle_beta     80.4107
_cell_angle_gamma    89.9402

_symmetry_space_group_name_H-M    "P 1"
_symmetry_int_tables_number       1

loop_
  _symmetry_equiv_pos_as_xyz
  'x, y, z'

loop_
  _atom_site_label
  _atom_site_occupancy
  _atom_site_fract_x
  _atom_site_fract_y
  _atom_site_fract_z
  _atom_site_thermal_displace_type
  _atom_site_B_iso_or_equiv
  _atom_site_type_symbol
  V1       1.0000 0.13166  0.02610  0.14792  Biso   1.000  V
  Zr1      1.0000 0.13883  0.02122  0.64485  Biso   1.000  Zr
  Zr2      1.0000 0.13976  0.52135  0.14569  Biso   1.000  Zr
  Zr3      1.0000 0.13932  0.52164  0.64543  Biso   1.000  Zr
  Zr4      1.0000 0.63883  0.02188  0.14529  Biso   1.000  Zr
  Zr5      1.0000 0.63786  0.02061  0.64565  Biso   1.000  Zr
  Zr6      1.0000 0.63777  0.52272  0.14507  Biso   1.000  Zr
  Zr7      1.0000 0.63903  0.52138  0.64586  Biso   1.000  Zr
  Zr8      1.0000 0.13950  0.22792  0.39248  Biso   1.000  Zr
  Zr9      1.0000 0.14040  0.22651  0.89639  Biso   1.000  Zr
  Zr10     1.0000 0.13940  0.72956  0.39450  Biso   1.000  Zr
  Zr11     1.0000 0.13937  0.73039  0.89628  Biso   1.000  Zr
  Zr12     1.0000 0.63904  0.22815  0.39502  Biso   1.000  Zr
  Zr13     1.0000 0.63848  0.22890  0.89538  Biso   1.000  Zr
  Zr14     1.0000 0.63969  0.72984  0.39516  Biso   1.000  Zr
  Zr15     1.0000 0.63717  0.72890  0.89720  Biso   1.000  Zr
  Zr16     1.0000 0.35931  0.26890  0.10492  Biso   1.000  Zr
  Zr17     1.0000 0.36105  0.27171  0.60450  Biso   1.000  Zr
  Zr18     1.0000 0.35609  0.77577  0.10586  Biso   1.000  Zr
  Zr19     1.0000 0.36167  0.77190  0.60466  Biso   1.000  Zr
  Zr20     1.0000 0.86204  0.27034  0.10577  Biso   1.000  Zr
  Zr21     1.0000 0.86102  0.27088  0.60417  Biso   1.000  Zr
  Zr22     1.0000 0.86436  0.77314  0.10425  Biso   1.000  Zr
  Zr23     1.0000 0.86051  0.77083  0.60519  Biso   1.000  Zr
  Zr24     1.0000 0.36181  0.47901  0.35454  Biso   1.000  Zr
  Zr25     1.0000 0.36045  0.47891  0.85518  Biso   1.000  Zr
  Zr26     1.0000 0.35858  0.97858  0.35212  Biso   1.000  Zr
  Zr27     1.0000 0.35840  0.97962  0.85775  Biso   1.000  Zr
  Zr28     1.0000 0.86099  0.47880  0.35440  Biso   1.000  Zr
  Zr29     1.0000 0.86206  0.47831  0.85585  Biso   1.000  Zr
  Zr30     1.0000 0.86439  0.97937  0.35313  Biso   1.000  Zr
  Zr31     1.0000 0.86054  0.97896  0.85431  Biso   1.000  Zr
  O1       1.0000 0.03938  0.16022  0.08443  Biso   1.000  O
  O2       1.0000 0.03428  0.16575  0.57548  Biso   1.000  O
  O3       1.0000 0.03585  0.66909  0.08138  Biso   1.000  O
  O4       1.0000 0.03564  0.66952  0.58080  Biso   1.000  O
  O5       1.0000 0.53630  0.17084  0.08152  Biso   1.000  O
  O6       1.0000 0.53672  0.17087  0.58137  Biso   1.000  O
  O7       1.0000 0.53412  0.67145  0.08186  Biso   1.000  O
  O8       1.0000 0.53702  0.67123  0.58114  Biso   1.000  O
  O9       1.0000 0.04112  0.07819  0.31964  Biso   1.000  O
  O10      1.0000 0.03452  0.08205  0.82877  Biso   1.000  O
  O11      1.0000 0.03614  0.57947  0.33116  Biso   1.000  O
  O12      1.0000 0.03638  0.58040  0.83170  Biso   1.000  O
  O13      1.0000 0.53510  0.08069  0.33014  Biso   1.000  O
  O14      1.0000 0.53548  0.07899  0.83269  Biso   1.000  O
  O15      1.0000 0.53704  0.57956  0.33179  Biso   1.000  O
  O16      1.0000 0.53590  0.57919  0.83198  Biso   1.000  O
  O17      1.0000 0.46357  0.42010  0.16839  Biso   1.000  O
  O18      1.0000 0.46346  0.42115  0.66869  Biso   1.000  O
  O19      1.0000 0.46543  0.91935  0.16928  Biso   1.000  O
  O20      1.0000 0.46297  0.92089  0.66959  Biso   1.000  O
  O21      1.0000 0.96603  0.41757  0.16968  Biso   1.000  O
  O22      1.0000 0.96530  0.41768  0.67052  Biso   1.000  O
  O23      1.0000 0.97762  0.92252  0.16547  Biso   1.000  O
  O24      1.0000 0.96413  0.91920  0.66925  Biso   1.000  O
  O25      1.0000 0.46430  0.32996  0.41904  Biso   1.000  O
  O26      1.0000 0.46208  0.32784  0.91824  Biso   1.000  O
  O27      1.0000 0.46434  0.83045  0.41805  Biso   1.000  O
  O28      1.0000 0.45995  0.82932  0.91946  Biso   1.000  O
  O29      1.0000 0.96372  0.32842  0.41773  Biso   1.000  O
  O30      1.0000 0.96582  0.32878  0.92277  Biso   1.000  O
  O31      1.0000 0.96411  0.83025  0.41873  Biso   1.000  O
  O32      1.0000 0.96374  0.83021  0.91906  Biso   1.000  O
  O33      1.0000 0.27068  0.12420  0.23589  Biso   1.000  O
  O34      1.0000 0.27625  0.12879  0.74101  Biso   1.000  O
  O35      1.0000 0.27610  0.62992  0.24105  Biso   1.000  O
  O36      1.0000 0.27643  0.62942  0.74097  Biso   1.000  O
  O37      1.0000 0.77736  0.12840  0.24047  Biso   1.000  O
  O38      1.0000 0.77549  0.12896  0.74040  Biso   1.000  O
  O39      1.0000 0.77690  0.62984  0.24047  Biso   1.000  O
  O40      1.0000 0.77624  0.62864  0.74187  Biso   1.000  O
  O41      1.0000 0.27654  0.12172  0.48902  Biso   1.000  O
  O42      1.0000 0.27249  0.11953  0.99490  Biso   1.000  O
  O43      1.0000 0.27670  0.62126  0.49078  Biso   1.000  O
  O44      1.0000 0.27580  0.62235  0.99121  Biso   1.000  O
  O45      1.0000 0.77733  0.12014  0.48953  Biso   1.000  O
  O46      1.0000 0.77671  0.12140  0.99079  Biso   1.000  O
  O47      1.0000 0.77649  0.62091  0.49096  Biso   1.000  O
  O48      1.0000 0.77661  0.62211  0.99153  Biso   1.000  O
  O49      1.0000 0.22322  0.37887  0.00983  Biso   1.000  O
  O50      1.0000 0.22338  0.37873  0.50885  Biso   1.000  O
  O51      1.0000 0.21720  0.88615  0.01447  Biso   1.000  O
  O52      1.0000 0.22372  0.87903  0.50909  Biso   1.000  O
  O53      1.0000 0.72488  0.37897  0.00985  Biso   1.000  O
  O54      1.0000 0.72413  0.37888  0.50949  Biso   1.000  O
  O55      1.0000 0.72382  0.87946  0.00967  Biso   1.000  O
  O56      1.0000 0.72403  0.87903  0.50908  Biso   1.000  O
  O57      1.0000 0.22485  0.37000  0.25924  Biso   1.000  O
  O58      1.0000 0.22372  0.37024  0.75979  Biso   1.000  O
  O59      1.0000 0.22064  0.87318  0.25857  Biso   1.000  O
  O60      1.0000 0.22329  0.87153  0.76014  Biso   1.000  O
  O61      1.0000 0.72448  0.37044  0.25880  Biso   1.000  O
  O62      1.0000 0.72408  0.37122  0.75985  Biso   1.000  O
  O63      1.0000 0.73056  0.87263  0.25804  Biso   1.000  O
  O64      1.0000 0.72291  0.87078  0.75985  Biso   1.000  O
