data_image0
_cell_length_a       10.1675
_cell_length_b       10.2483
_cell_length_c       5.31993
_cell_angle_alpha    90.1073
_cell_angle_beta     90.9288
_cell_angle_gamma    90.1684

_symmetry_space_group_name_H-M    "P 1"
_symmetry_int_tables_number       1

loop_
  _symmetry_equiv_pos_as_xyz
  'x, y, z'

loop_
  _atom_site_label
  _atom_site_occupancy
  _atom_site_fract_x
  _atom_site_fract_y
  _atom_site_fract_z
  _atom_site_thermal_displace_type
  _atom_site_B_iso_or_equiv
  _atom_site_type_symbol
  Zr1      1.0000 0.13972  0.02137  0.34456  Biso   1.000  Zr
  Zr2      1.0000 0.14067  0.22791  0.84373  Biso   1.000  Zr
  Zr3      1.0000 0.36121  0.26750  0.35364  Biso   1.000  Zr
  Zr4      1.0000 0.36014  0.47906  0.84409  Biso   1.000  Zr
  Zr5      1.0000 0.64001  0.00552  0.15665  Biso   1.000  Zr
  Zr6      1.0000 0.63584  0.22828  0.66259  Biso   1.000  Zr
  Zr7      1.0000 0.87229  0.27215  0.14963  Biso   1.000  Zr
  Zr8      1.0000 0.86281  0.47789  0.65502  Biso   1.000  Zr
  O1       1.0000 0.03171  0.15283  0.14180  Biso   1.000  O
  O2       1.0000 0.02692  0.09665  0.64092  Biso   1.000  O
  O3       1.0000 0.47805  0.39779  0.14177  Biso   1.000  O
  O4       1.0000 0.47101  0.34931  0.64881  Biso   1.000  O
  O5       1.0000 0.27183  0.12528  0.59981  Biso   1.000  O
  O6       1.0000 0.27359  0.12396  0.09699  Biso   1.000  O
  O7       1.0000 0.22430  0.37511  0.59488  Biso   1.000  O
  O8       1.0000 0.22652  0.37647  0.09330  Biso   1.000  O
  O9       1.0000 0.51472  0.13046  0.39431  Biso   1.000  O
  O10      1.0000 0.51962  0.12039  0.91377  Biso   1.000  O
  O11      1.0000 0.97139  0.41198  0.34633  Biso   1.000  O
  O12      1.0000 0.97360  0.34278  0.83834  Biso   1.000  O
  O13      1.0000 0.77791  0.11772  0.88894  Biso   1.000  O
  O14      1.0000 0.75883  0.13689  0.37805  Biso   1.000  O
  O15      1.0000 0.72383  0.37207  0.92649  Biso   1.000  O
  O16      1.0000 0.72054  0.37837  0.41078  Biso   1.000  O
  Zr9      1.0000 0.14022  0.52138  0.34491  Biso   1.000  Zr
  Zr10     1.0000 0.13977  0.72939  0.84415  Biso   1.000  Zr
  Zr11     1.0000 0.36176  0.77220  0.34875  Biso   1.000  Zr
  Zr12     1.0000 0.36482  0.98101  0.85162  Biso   1.000  Zr
  Zr13     1.0000 0.64072  0.52854  0.15337  Biso   1.000  Zr
  Zr14     1.0000 0.63915  0.72804  0.65528  Biso   1.000  Zr
  Zr15     1.0000 0.86634  0.77036  0.15711  Biso   1.000  Zr
  Zr16     1.0000 0.86434  0.97865  0.65590  Biso   1.000  Zr
  O17      1.0000 0.03233  0.65933  0.15318  Biso   1.000  O
  O18      1.0000 0.02951  0.59262  0.65385  Biso   1.000  O
  O19      1.0000 0.47299  0.89334  0.13500  Biso   1.000  O
  O20      1.0000 0.47808  0.85381  0.64068  Biso   1.000  O
  O21      1.0000 0.27448  0.62550  0.59433  Biso   1.000  O
  O22      1.0000 0.27537  0.62539  0.09403  Biso   1.000  O
  O23      1.0000 0.22816  0.87450  0.59600  Biso   1.000  O
  O24      1.0000 0.22720  0.87697  0.09368  Biso   1.000  O
  O25      1.0000 0.52608  0.65305  0.35917  Biso   1.000  O
  O26      1.0000 0.52621  0.59892  0.85606  Biso   1.000  O
  O27      1.0000 0.97240  0.90933  0.34186  Biso   1.000  O
  O28      1.0000 0.97246  0.84336  0.84405  Biso   1.000  O
  O29      1.0000 0.77669  0.62245  0.90283  Biso   1.000  O
  O30      1.0000 0.77625  0.62773  0.40557  Biso   1.000  O
  O31      1.0000 0.72869  0.86969  0.91088  Biso   1.000  O
  O32      1.0000 0.73196  0.87203  0.41487  Biso   1.000  O
  V1       1.0000 0.61569  0.25487  0.17822  Biso   1.000  V
