data_image0
_cell_length_a       10.2477
_cell_length_b       10.2978
_cell_length_c       10.6184
_cell_angle_alpha    89.6988
_cell_angle_beta     80.0153
_cell_angle_gamma    89.9457

_symmetry_space_group_name_H-M    "P 1"
_symmetry_int_tables_number       1

loop_
  _symmetry_equiv_pos_as_xyz
  'x, y, z'

loop_
  _atom_site_label
  _atom_site_occupancy
  _atom_site_fract_x
  _atom_site_fract_y
  _atom_site_fract_z
  _atom_site_thermal_displace_type
  _atom_site_B_iso_or_equiv
  _atom_site_type_symbol
  Zr1      1.0000 0.13682  0.02063  0.14467  Biso   1.000  Zr
  Zr2      1.0000 0.12952  0.22683  0.39698  Biso   1.000  Zr
  Zr3      1.0000 0.35962  0.26745  0.09186  Biso   1.000  Zr
  Zr4      1.0000 0.36026  0.48981  0.35781  Biso   1.000  Zr
  O1       1.0000 0.03097  0.16086  0.07244  Biso   1.000  O
  O2       1.0000 0.02806  0.08682  0.32122  Biso   1.000  O
  O3       1.0000 0.47924  0.38576  0.19418  Biso   1.000  O
  O4       1.0000 0.47803  0.35493  0.43731  Biso   1.000  O
  O5       1.0000 0.27620  0.12264  0.23519  Biso   1.000  O
  O6       1.0000 0.28380  0.12910  0.47822  Biso   1.000  O
  O7       1.0000 0.22192  0.37987  0.00724  Biso   1.000  O
  O8       1.0000 0.24072  0.36296  0.26198  Biso   1.000  O
  Zr5      1.0000 0.13751  0.02182  0.64483  Biso   1.000  Zr
  Zr6      1.0000 0.13589  0.22812  0.89264  Biso   1.000  Zr
  Zr7      1.0000 0.36141  0.27573  0.60722  Biso   1.000  Zr
  Zr8      1.0000 0.36093  0.48041  0.85476  Biso   1.000  Zr
  O9       1.0000 0.03134  0.16194  0.57653  Biso   1.000  O
  O10      1.0000 0.03087  0.08648  0.82372  Biso   1.000  O
  O11      1.0000 0.46977  0.41108  0.68119  Biso   1.000  O
  O12      1.0000 0.47464  0.34703  0.92761  Biso   1.000  O
  O13      1.0000 0.27310  0.12766  0.73609  Biso   1.000  O
  O14      1.0000 0.27158  0.12085  0.98376  Biso   1.000  O
  O15      1.0000 0.22505  0.38158  0.51432  Biso   1.000  O
  O16      1.0000 0.22536  0.37287  0.76121  Biso   1.000  O
  Zr9      1.0000 0.13960  0.52028  0.14584  Biso   1.000  Zr
  Zr10     1.0000 0.13440  0.72889  0.39640  Biso   1.000  Zr
  Zr11     1.0000 0.36130  0.77090  0.10381  Biso   1.000  Zr
  Zr12     1.0000 0.35850  0.97197  0.35260  Biso   1.000  Zr
  O17      1.0000 0.03220  0.65977  0.07527  Biso   1.000  O
  O18      1.0000 0.03296  0.58748  0.32402  Biso   1.000  O
  O19      1.0000 0.47021  0.90673  0.17860  Biso   1.000  O
  O20      1.0000 0.46955  0.84056  0.42924  Biso   1.000  O
  O21      1.0000 0.27454  0.62736  0.23986  Biso   1.000  O
  O22      1.0000 0.27038  0.62800  0.49341  Biso   1.000  O
  O23      1.0000 0.22512  0.87746  0.01003  Biso   1.000  O
  O24      1.0000 0.22245  0.86837  0.25880  Biso   1.000  O
  Zr13     1.0000 0.13733  0.52296  0.64657  Biso   1.000  Zr
  Zr14     1.0000 0.13816  0.72797  0.89603  Biso   1.000  Zr
  Zr15     1.0000 0.36119  0.77280  0.60552  Biso   1.000  Zr
  Zr16     1.0000 0.36172  0.97804  0.85324  Biso   1.000  Zr
  O25      1.0000 0.02799  0.66196  0.57490  Biso   1.000  O
  O26      1.0000 0.03119  0.58793  0.82605  Biso   1.000  O
  O27      1.0000 0.46923  0.91061  0.67742  Biso   1.000  O
  O28      1.0000 0.46976  0.84100  0.92849  Biso   1.000  O
  O29      1.0000 0.27432  0.62870  0.74070  Biso   1.000  O
  O30      1.0000 0.27494  0.62281  0.99038  Biso   1.000  O
  O31      1.0000 0.22378  0.88085  0.51019  Biso   1.000  O
  O32      1.0000 0.22475  0.87217  0.76042  Biso   1.000  O
  Zr17     1.0000 0.63921  0.02109  0.14351  Biso   1.000  Zr
  Zr18     1.0000 0.64142  0.23264  0.39881  Biso   1.000  Zr
  Zr19     1.0000 0.86261  0.27161  0.10606  Biso   1.000  Zr
  Zr20     1.0000 0.86130  0.48031  0.35604  Biso   1.000  Zr
  O33      1.0000 0.52915  0.15183  0.06607  Biso   1.000  O
  O34      1.0000 0.52542  0.09659  0.32237  Biso   1.000  O
  O35      1.0000 0.97254  0.40840  0.17878  Biso   1.000  O
  O36      1.0000 0.96660  0.34360  0.43086  Biso   1.000  O
  O37      1.0000 0.77246  0.12764  0.23885  Biso   1.000  O
  O38      1.0000 0.77730  0.12252  0.49091  Biso   1.000  O
  O39      1.0000 0.72546  0.37607  0.01222  Biso   1.000  O
  O40      1.0000 0.73019  0.37328  0.26208  Biso   1.000  O
  Zr21     1.0000 0.63793  0.02336  0.64510  Biso   1.000  Zr
  Zr22     1.0000 0.63954  0.22751  0.89530  Biso   1.000  Zr
  Zr23     1.0000 0.86038  0.27380  0.60781  Biso   1.000  Zr
  Zr24     1.0000 0.86065  0.47883  0.85633  Biso   1.000  Zr
  O41      1.0000 0.53114  0.16205  0.57254  Biso   1.000  O
  O42      1.0000 0.52900  0.09269  0.82030  Biso   1.000  O
  O43      1.0000 0.96820  0.41177  0.67869  Biso   1.000  O
  O44      1.0000 0.96694  0.33783  0.92664  Biso   1.000  O
  O45      1.0000 0.77419  0.12812  0.74068  Biso   1.000  O
  O46      1.0000 0.77547  0.12089  0.98961  Biso   1.000  O
  O47      1.0000 0.72602  0.37957  0.51369  Biso   1.000  O
  O48      1.0000 0.72536  0.37297  0.76203  Biso   1.000  O
  Zr25     1.0000 0.63615  0.51746  0.14784  Biso   1.000  Zr
  Zr26     1.0000 0.63822  0.72922  0.39565  Biso   1.000  Zr
  Zr27     1.0000 0.86109  0.76999  0.10527  Biso   1.000  Zr
  Zr28     1.0000 0.85865  0.97878  0.35436  Biso   1.000  Zr
  O49      1.0000 0.52693  0.65262  0.07101  Biso   1.000  O
  O50      1.0000 0.53176  0.59493  0.31893  Biso   1.000  O
  O51      1.0000 0.96664  0.91064  0.17520  Biso   1.000  O
  O52      1.0000 0.96613  0.83893  0.42640  Biso   1.000  O
  O53      1.0000 0.77473  0.62688  0.23885  Biso   1.000  O
  O54      1.0000 0.77392  0.62350  0.48993  Biso   1.000  O
  O55      1.0000 0.72445  0.87703  0.01159  Biso   1.000  O
  O56      1.0000 0.72365  0.87225  0.26087  Biso   1.000  O
  Zr29     1.0000 0.63770  0.52309  0.64645  Biso   1.000  Zr
  Zr30     1.0000 0.63768  0.72714  0.89622  Biso   1.000  Zr
  Zr31     1.0000 0.85969  0.77290  0.60577  Biso   1.000  Zr
  Zr32     1.0000 0.86093  0.97714  0.85520  Biso   1.000  Zr
  O57      1.0000 0.52913  0.65950  0.57193  Biso   1.000  O
  O58      1.0000 0.52949  0.59376  0.82098  Biso   1.000  O
  O59      1.0000 0.96836  0.91171  0.67656  Biso   1.000  O
  O60      1.0000 0.96726  0.83618  0.92619  Biso   1.000  O
  O61      1.0000 0.77402  0.62846  0.74042  Biso   1.000  O
  O62      1.0000 0.77317  0.62104  0.99064  Biso   1.000  O
  O63      1.0000 0.72356  0.87884  0.51110  Biso   1.000  O
  O64      1.0000 0.72461  0.87246  0.76148  Biso   1.000  O
  V1       1.0000 0.38733  0.24156  0.32455  Biso   1.000  V
