data_image0
_cell_length_a       5.02595
_cell_length_b       10.0644
_cell_length_c       10.149
_cell_angle_alpha    89.999
_cell_angle_beta     90.0003
_cell_angle_gamma    90.0045

_symmetry_space_group_name_H-M    "P 1"
_symmetry_int_tables_number       1

loop_
  _symmetry_equiv_pos_as_xyz
  'x, y, z'

loop_
  _atom_site_label
  _atom_site_occupancy
  _atom_site_fract_x
  _atom_site_fract_y
  _atom_site_fract_z
  _atom_site_thermal_displace_type
  _atom_site_B_iso_or_equiv
  _atom_site_type_symbol
  V1       1.0000 0.25077  0.00000  0.12555  Biso   1.000  V
  Zr1      1.0000 0.25080  0.00001  0.62546  Biso   1.000  Zr
  Zr2      1.0000 0.25078  0.50000  0.12545  Biso   1.000  Zr
  Zr3      1.0000 0.25080  0.50001  0.62547  Biso   1.000  Zr
  Zr4      1.0000 0.25913  0.24927  0.37475  Biso   1.000  Zr
  Zr5      1.0000 0.24238  0.24924  0.87618  Biso   1.000  Zr
  Zr6      1.0000 0.24246  0.75074  0.37474  Biso   1.000  Zr
  Zr7      1.0000 0.25919  0.75076  0.87618  Biso   1.000  Zr
  Zr8      1.0000 0.75071  0.24879  0.12546  Biso   1.000  Zr
  Zr9      1.0000 0.75078  0.25172  0.62546  Biso   1.000  Zr
  Zr10     1.0000 0.75086  0.75121  0.12546  Biso   1.000  Zr
  Zr11     1.0000 0.75082  0.74829  0.62547  Biso   1.000  Zr
  Zr12     1.0000 0.75080  0.00001  0.37639  Biso   1.000  Zr
  Zr13     1.0000 0.75079  1.00000  0.87450  Biso   1.000  Zr
  Zr14     1.0000 0.75080  0.50001  0.37460  Biso   1.000  Zr
  Zr15     1.0000 0.75079  0.50000  0.87633  Biso   1.000  Zr
  O1       1.0000 0.95240  0.14533  0.97543  Biso   1.000  O
  O2       1.0000 0.99461  0.13157  0.47813  Biso   1.000  O
  O3       1.0000 0.98581  0.64207  0.98417  Biso   1.000  O
  O4       1.0000 0.99291  0.63151  0.48436  Biso   1.000  O
  O5       1.0000 0.03937  0.10608  0.22401  Biso   1.000  O
  O6       1.0000 0.00305  0.11978  0.72986  Biso   1.000  O
  O7       1.0000 0.00607  0.61211  0.23573  Biso   1.000  O
  O8       1.0000 0.00332  0.61888  0.73478  Biso   1.000  O
  O9       1.0000 0.98569  0.35794  0.26676  Biso   1.000  O
  O10      1.0000 0.99290  0.36850  0.76657  Biso   1.000  O
  O11      1.0000 0.95268  0.85476  0.27545  Biso   1.000  O
  O12      1.0000 0.99465  0.86844  0.77278  Biso   1.000  O
  O13      1.0000 0.00597  0.38791  0.01521  Biso   1.000  O
  O14      1.0000 0.00332  0.38113  0.51615  Biso   1.000  O
  O15      1.0000 0.03962  0.89397  0.02690  Biso   1.000  O
  O16      1.0000 0.00306  0.88022  0.52104  Biso   1.000  O
  O17      1.0000 0.54890  0.14526  0.27545  Biso   1.000  O
  O18      1.0000 0.50694  0.13156  0.77279  Biso   1.000  O
  O19      1.0000 0.51589  0.64208  0.26677  Biso   1.000  O
  O20      1.0000 0.50869  0.63150  0.76657  Biso   1.000  O
  O21      1.0000 0.46198  0.10601  0.02691  Biso   1.000  O
  O22      1.0000 0.49852  0.11980  0.52105  Biso   1.000  O
  O23      1.0000 0.49563  0.61207  0.01521  Biso   1.000  O
  O24      1.0000 0.49827  0.61889  0.51615  Biso   1.000  O
  O25      1.0000 0.51579  0.35792  0.98417  Biso   1.000  O
  O26      1.0000 0.50868  0.36851  0.48436  Biso   1.000  O
  O27      1.0000 0.54921  0.85465  0.97541  Biso   1.000  O
  O28      1.0000 0.50698  0.86845  0.47812  Biso   1.000  O
  O29      1.0000 0.49552  0.38790  0.23573  Biso   1.000  O
  O30      1.0000 0.49828  0.38112  0.73478  Biso   1.000  O
  O31      1.0000 0.46220  0.89393  0.22400  Biso   1.000  O
  O32      1.0000 0.49854  0.88022  0.72985  Biso   1.000  O
