data_image0
_cell_length_a       10.1408
_cell_length_b       10.259
_cell_length_c       10.5992
_cell_angle_alpha    90.2244
_cell_angle_beta     90.0547
_cell_angle_gamma    89.9838

_symmetry_space_group_name_H-M    "P 1"
_symmetry_int_tables_number       1

loop_
  _symmetry_equiv_pos_as_xyz
  'x, y, z'

loop_
  _atom_site_label
  _atom_site_occupancy
  _atom_site_fract_x
  _atom_site_fract_y
  _atom_site_fract_z
  _atom_site_thermal_displace_type
  _atom_site_B_iso_or_equiv
  _atom_site_type_symbol
  Zr1      1.0000 0.13872  0.01994  0.17385  Biso   1.000  Zr
  Zr2      1.0000 0.13831  0.22761  0.42343  Biso   1.000  Zr
  Zr3      1.0000 0.35857  0.26786  0.17599  Biso   1.000  Zr
  Zr4      1.0000 0.36202  0.47758  0.42251  Biso   1.000  Zr
  Zr5      1.0000 0.63936  0.00854  0.08270  Biso   1.000  Zr
  Zr6      1.0000 0.63803  0.22537  0.33153  Biso   1.000  Zr
  Zr7      1.0000 0.87107  0.27272  0.07677  Biso   1.000  Zr
  Zr8      1.0000 0.86153  0.47800  0.32596  Biso   1.000  Zr
  O1       1.0000 0.03169  0.15467  0.07693  Biso   1.000  O
  O2       1.0000 0.02927  0.09035  0.32942  Biso   1.000  O
  O3       1.0000 0.47692  0.39902  0.07327  Biso   1.000  O
  O4       1.0000 0.47120  0.34208  0.32556  Biso   1.000  O
  O5       1.0000 0.27320  0.12327  0.29923  Biso   1.000  O
  O6       1.0000 0.27327  0.12438  0.04843  Biso   1.000  O
  O7       1.0000 0.22406  0.37389  0.29802  Biso   1.000  O
  O8       1.0000 0.22712  0.37609  0.04633  Biso   1.000  O
  O9       1.0000 0.52091  0.14384  0.18427  Biso   1.000  O
  O10      1.0000 0.52786  0.09208  0.42791  Biso   1.000  O
  O11      1.0000 0.97216  0.41251  0.17427  Biso   1.000  O
  O12      1.0000 0.97061  0.34025  0.42156  Biso   1.000  O
  O13      1.0000 0.77406  0.12310  0.45642  Biso   1.000  O
  O14      1.0000 0.77445  0.12408  0.20835  Biso   1.000  O
  O15      1.0000 0.72607  0.37486  0.45064  Biso   1.000  O
  O16      1.0000 0.71754  0.37076  0.19410  Biso   1.000  O
  Zr9      1.0000 0.13811  0.02144  0.67383  Biso   1.000  Zr
  Zr10     1.0000 0.14101  0.22829  0.92288  Biso   1.000  Zr
  Zr11     1.0000 0.36049  0.27191  0.67163  Biso   1.000  Zr
  Zr12     1.0000 0.36078  0.47948  0.92085  Biso   1.000  Zr
  Zr13     1.0000 0.63831  0.01915  0.57894  Biso   1.000  Zr
  Zr14     1.0000 0.63869  0.23286  0.81659  Biso   1.000  Zr
  Zr15     1.0000 0.86304  0.27191  0.57575  Biso   1.000  Zr
  Zr16     1.0000 0.86333  0.47895  0.82707  Biso   1.000  Zr
  O17      1.0000 0.03011  0.15957  0.57952  Biso   1.000  O
  O18      1.0000 0.02836  0.09203  0.82939  Biso   1.000  O
  O19      1.0000 0.47310  0.40445  0.57362  Biso   1.000  O
  O20      1.0000 0.47201  0.35050  0.81962  Biso   1.000  O
  O21      1.0000 0.27360  0.12578  0.79690  Biso   1.000  O
  O22      1.0000 0.27377  0.12480  0.54731  Biso   1.000  O
  O23      1.0000 0.22565  0.37490  0.79648  Biso   1.000  O
  O24      1.0000 0.22600  0.37599  0.54694  Biso   1.000  O
  O25      1.0000 0.52306  0.15008  0.67541  Biso   1.000  O
  O26      1.0000 0.52023  0.11479  0.94173  Biso   1.000  O
  O27      1.0000 0.97183  0.41020  0.67149  Biso   1.000  O
  O28      1.0000 0.97445  0.34199  0.92081  Biso   1.000  O
  O29      1.0000 0.75875  0.13318  0.96053  Biso   1.000  O
  O30      1.0000 0.77674  0.12459  0.70258  Biso   1.000  O
  O31      1.0000 0.72540  0.37810  0.95068  Biso   1.000  O
  O32      1.0000 0.72830  0.37741  0.69852  Biso   1.000  O
  Zr17     1.0000 0.14042  0.52176  0.17405  Biso   1.000  Zr
  Zr18     1.0000 0.13850  0.72833  0.42401  Biso   1.000  Zr
  Zr19     1.0000 0.36129  0.77030  0.17321  Biso   1.000  Zr
  Zr20     1.0000 0.36162  0.97763  0.42366  Biso   1.000  Zr
  Zr21     1.0000 0.64143  0.52790  0.07591  Biso   1.000  Zr
  Zr22     1.0000 0.63844  0.72772  0.32937  Biso   1.000  Zr
  Zr23     1.0000 0.86534  0.77087  0.07823  Biso   1.000  Zr
  Zr24     1.0000 0.86145  0.97848  0.32943  Biso   1.000  Zr
  O33      1.0000 0.03238  0.66013  0.07966  Biso   1.000  O
  O34      1.0000 0.02942  0.58989  0.33127  Biso   1.000  O
  O35      1.0000 0.47048  0.90057  0.07222  Biso   1.000  O
  O36      1.0000 0.47294  0.84418  0.32487  Biso   1.000  O
  O37      1.0000 0.27471  0.62393  0.29728  Biso   1.000  O
  O38      1.0000 0.27600  0.62489  0.04711  Biso   1.000  O
  O39      1.0000 0.22611  0.87276  0.29779  Biso   1.000  O
  O40      1.0000 0.22625  0.87626  0.04696  Biso   1.000  O
  O41      1.0000 0.52804  0.65575  0.17611  Biso   1.000  O
  O42      1.0000 0.52820  0.59292  0.42446  Biso   1.000  O
  O43      1.0000 0.97095  0.90906  0.17317  Biso   1.000  O
  O44      1.0000 0.97135  0.84103  0.42444  Biso   1.000  O
  O45      1.0000 0.77490  0.62384  0.45420  Biso   1.000  O
  O46      1.0000 0.77592  0.62452  0.20399  Biso   1.000  O
  O47      1.0000 0.72564  0.87352  0.45539  Biso   1.000  O
  O48      1.0000 0.72966  0.87017  0.20694  Biso   1.000  O
  Zr25     1.0000 0.13902  0.52220  0.67275  Biso   1.000  Zr
  Zr26     1.0000 0.13983  0.73029  0.92290  Biso   1.000  Zr
  Zr27     1.0000 0.36234  0.77260  0.67334  Biso   1.000  Zr
  Zr28     1.0000 0.36433  0.98199  0.92472  Biso   1.000  Zr
  Zr29     1.0000 0.63842  0.52182  0.57679  Biso   1.000  Zr
  Zr30     1.0000 0.63892  0.72922  0.82719  Biso   1.000  Zr
  Zr31     1.0000 0.86219  0.77148  0.57909  Biso   1.000  Zr
  Zr32     1.0000 0.86105  0.98131  0.82927  Biso   1.000  Zr
  O49      1.0000 0.03053  0.66059  0.58051  Biso   1.000  O
  O50      1.0000 0.03072  0.59139  0.82923  Biso   1.000  O
  O51      1.0000 0.47224  0.90317  0.57422  Biso   1.000  O
  O52      1.0000 0.47528  0.84963  0.82382  Biso   1.000  O
  O53      1.0000 0.27566  0.62508  0.79743  Biso   1.000  O
  O54      1.0000 0.27517  0.62559  0.54727  Biso   1.000  O
  O55      1.0000 0.22719  0.87528  0.79775  Biso   1.000  O
  O56      1.0000 0.22554  0.87593  0.54816  Biso   1.000  O
  O57      1.0000 0.52856  0.65650  0.67498  Biso   1.000  O
  O58      1.0000 0.52759  0.59557  0.92490  Biso   1.000  O
  O59      1.0000 0.96965  0.91003  0.67504  Biso   1.000  O
  O60      1.0000 0.97167  0.84190  0.92246  Biso   1.000  O
  O61      1.0000 0.77639  0.62689  0.95241  Biso   1.000  O
  O62      1.0000 0.77475  0.62624  0.70391  Biso   1.000  O
  O63      1.0000 0.72766  0.87445  0.95392  Biso   1.000  O
  O64      1.0000 0.72619  0.87562  0.70526  Biso   1.000  O
  V1       1.0000 0.61537  0.25583  0.05719  Biso   1.000  V
