data_image0
_cell_length_a       10.1235
_cell_length_b       5.15601
_cell_length_c       10.4432
_cell_angle_alpha    90.0677
_cell_angle_beta     80.4164
_cell_angle_gamma    89.8735

_symmetry_space_group_name_H-M    "P 1"
_symmetry_int_tables_number       1

loop_
  _symmetry_equiv_pos_as_xyz
  'x, y, z'

loop_
  _atom_site_label
  _atom_site_occupancy
  _atom_site_fract_x
  _atom_site_fract_y
  _atom_site_fract_z
  _atom_site_thermal_displace_type
  _atom_site_B_iso_or_equiv
  _atom_site_type_symbol
  V1       1.0000 0.13213  0.05024  0.14778  Biso   1.000  V
  Zr1      1.0000 0.13937  0.04322  0.64490  Biso   1.000  Zr
  Zr2      1.0000 0.63818  0.04620  0.14503  Biso   1.000  Zr
  Zr3      1.0000 0.63796  0.04145  0.64621  Biso   1.000  Zr
  Zr4      1.0000 0.14008  0.45749  0.39140  Biso   1.000  Zr
  Zr5      1.0000 0.14095  0.45705  0.89720  Biso   1.000  Zr
  Zr6      1.0000 0.63985  0.45879  0.39477  Biso   1.000  Zr
  Zr7      1.0000 0.63682  0.45873  0.89731  Biso   1.000  Zr
  Zr8      1.0000 0.35475  0.54644  0.10636  Biso   1.000  Zr
  Zr9      1.0000 0.36157  0.54482  0.60452  Biso   1.000  Zr
  Zr10     1.0000 0.86609  0.54372  0.10530  Biso   1.000  Zr
  Zr11     1.0000 0.86040  0.54066  0.60465  Biso   1.000  Zr
  Zr12     1.0000 0.35920  0.95833  0.35182  Biso   1.000  Zr
  Zr13     1.0000 0.35773  0.96040  0.85857  Biso   1.000  Zr
  Zr14     1.0000 0.86401  0.95898  0.35302  Biso   1.000  Zr
  Zr15     1.0000 0.86139  0.95740  0.85555  Biso   1.000  Zr
  O1       1.0000 0.03926  0.31927  0.08571  Biso   1.000  O
  O2       1.0000 0.03428  0.33158  0.57568  Biso   1.000  O
  O3       1.0000 0.53473  0.34526  0.08296  Biso   1.000  O
  O4       1.0000 0.53805  0.34546  0.58216  Biso   1.000  O
  O5       1.0000 0.04235  0.15126  0.32055  Biso   1.000  O
  O6       1.0000 0.03534  0.16435  0.83002  Biso   1.000  O
  O7       1.0000 0.53653  0.15974  0.33144  Biso   1.000  O
  O8       1.0000 0.53576  0.15519  0.83445  Biso   1.000  O
  O9       1.0000 0.46503  0.83971  0.16808  Biso   1.000  O
  O10      1.0000 0.46196  0.84548  0.66887  Biso   1.000  O
  O11      1.0000 0.97900  0.84148  0.16488  Biso   1.000  O
  O12      1.0000 0.96507  0.83512  0.66992  Biso   1.000  O
  O13      1.0000 0.46426  0.66028  0.41765  Biso   1.000  O
  O14      1.0000 0.45704  0.65265  0.91812  Biso   1.000  O
  O15      1.0000 0.96317  0.65448  0.41602  Biso   1.000  O
  O16      1.0000 0.96531  0.65729  0.92185  Biso   1.000  O
  O17      1.0000 0.27094  0.25096  0.23631  Biso   1.000  O
  O18      1.0000 0.27675  0.25892  0.74146  Biso   1.000  O
  O19      1.0000 0.77853  0.25827  0.24052  Biso   1.000  O
  O20      1.0000 0.77565  0.25769  0.74173  Biso   1.000  O
  O21      1.0000 0.27722  0.24398  0.48927  Biso   1.000  O
  O22      1.0000 0.27184  0.24189  0.99576  Biso   1.000  O
  O23      1.0000 0.77770  0.23982  0.49001  Biso   1.000  O
  O24      1.0000 0.77719  0.24495  0.99162  Biso   1.000  O
  O25      1.0000 0.21605  0.77411  0.01583  Biso   1.000  O
  O26      1.0000 0.22290  0.75758  0.50845  Biso   1.000  O
  O27      1.0000 0.72479  0.75884  0.00997  Biso   1.000  O
  O28      1.0000 0.72430  0.75811  0.50921  Biso   1.000  O
  O29      1.0000 0.22182  0.74456  0.25838  Biso   1.000  O
  O30      1.0000 0.22295  0.74193  0.76079  Biso   1.000  O
  O31      1.0000 0.73083  0.74376  0.25762  Biso   1.000  O
  O32      1.0000 0.72294  0.74212  0.76029  Biso   1.000  O
