data_image0
_cell_length_a       5.14054
_cell_length_b       10.2733
_cell_length_c       10.6769
_cell_angle_alpha    89.4648
_cell_angle_beta     80.0352
_cell_angle_gamma    90.021

_symmetry_space_group_name_H-M    "P 1"
_symmetry_int_tables_number       1

loop_
  _symmetry_equiv_pos_as_xyz
  'x, y, z'

loop_
  _atom_site_label
  _atom_site_occupancy
  _atom_site_fract_x
  _atom_site_fract_y
  _atom_site_fract_z
  _atom_site_thermal_displace_type
  _atom_site_B_iso_or_equiv
  _atom_site_type_symbol
  Zr1      1.0000 0.27681  0.02060  0.14380  Biso   1.000  Zr
  Zr2      1.0000 0.26316  0.23345  0.40192  Biso   1.000  Zr
  Zr3      1.0000 0.72382  0.26664  0.09359  Biso   1.000  Zr
  Zr4      1.0000 0.71912  0.49213  0.35893  Biso   1.000  Zr
  O1       1.0000 0.05696  0.14941  0.06324  Biso   1.000  O
  O2       1.0000 0.04708  0.09634  0.31861  Biso   1.000  O
  O3       1.0000 0.96711  0.38255  0.19771  Biso   1.000  O
  O4       1.0000 0.94604  0.35859  0.44094  Biso   1.000  O
  O5       1.0000 0.55093  0.12277  0.23551  Biso   1.000  O
  O6       1.0000 0.57003  0.12845  0.48044  Biso   1.000  O
  O7       1.0000 0.44671  0.37773  0.00896  Biso   1.000  O
  O8       1.0000 0.49025  0.36474  0.26355  Biso   1.000  O
  Zr5      1.0000 0.27349  0.02328  0.64482  Biso   1.000  Zr
  Zr6      1.0000 0.27398  0.22750  0.89283  Biso   1.000  Zr
  Zr7      1.0000 0.71944  0.27715  0.61014  Biso   1.000  Zr
  Zr8      1.0000 0.72059  0.48065  0.85663  Biso   1.000  Zr
  O9       1.0000 0.05814  0.16066  0.57515  Biso   1.000  O
  O10      1.0000 0.05536  0.09255  0.81877  Biso   1.000  O
  O11      1.0000 0.93957  0.40920  0.68485  Biso   1.000  O
  O12      1.0000 0.94917  0.34825  0.92929  Biso   1.000  O
  O13      1.0000 0.54417  0.12760  0.73745  Biso   1.000  O
  O14      1.0000 0.54503  0.12055  0.98421  Biso   1.000  O
  O15      1.0000 0.44863  0.38292  0.51779  Biso   1.000  O
  O16      1.0000 0.45131  0.37411  0.76273  Biso   1.000  O
  Zr9      1.0000 0.27374  0.51559  0.14820  Biso   1.000  Zr
  Zr10     1.0000 0.26706  0.73017  0.39705  Biso   1.000  Zr
  Zr11     1.0000 0.72299  0.76930  0.10497  Biso   1.000  Zr
  Zr12     1.0000 0.71365  0.97271  0.35302  Biso   1.000  Zr
  O17      1.0000 0.05385  0.64868  0.07083  Biso   1.000  O
  O18      1.0000 0.06176  0.59632  0.31729  Biso   1.000  O
  O19      1.0000 0.94078  0.90377  0.18061  Biso   1.000  O
  O20      1.0000 0.93824  0.84409  0.43260  Biso   1.000  O
  O21      1.0000 0.54588  0.62566  0.23912  Biso   1.000  O
  O22      1.0000 0.53719  0.62930  0.49347  Biso   1.000  O
  O23      1.0000 0.45111  0.87658  0.01208  Biso   1.000  O
  O24      1.0000 0.44489  0.86886  0.25974  Biso   1.000  O
  Zr13     1.0000 0.27151  0.52442  0.64791  Biso   1.000  Zr
  Zr14     1.0000 0.27453  0.72695  0.89738  Biso   1.000  Zr
  Zr15     1.0000 0.71934  0.77384  0.60718  Biso   1.000  Zr
  Zr16     1.0000 0.72338  0.97694  0.85457  Biso   1.000  Zr
  O25      1.0000 0.04812  0.65700  0.57079  Biso   1.000  O
  O26      1.0000 0.05522  0.59610  0.82104  Biso   1.000  O
  O27      1.0000 0.94118  0.90782  0.68071  Biso   1.000  O
  O28      1.0000 0.94016  0.84132  0.93143  Biso   1.000  O
  O29      1.0000 0.54529  0.62887  0.74152  Biso   1.000  O
  O30      1.0000 0.54612  0.62237  0.99120  Biso   1.000  O
  O31      1.0000 0.44643  0.88080  0.51167  Biso   1.000  O
  O32      1.0000 0.45005  0.87290  0.76217  Biso   1.000  O
  V1       1.0000 0.77331  0.24192  0.32661  Biso   1.000  V
