data_image0
_cell_length_a       10.0451
_cell_length_b       10.1771
_cell_length_c       10.0553
_cell_angle_alpha    90
_cell_angle_beta     90
_cell_angle_gamma    90

_symmetry_space_group_name_H-M    "P 1"
_symmetry_int_tables_number       1

loop_
  _symmetry_equiv_pos_as_xyz
  'x, y, z'

loop_
  _atom_site_label
  _atom_site_occupancy
  _atom_site_fract_x
  _atom_site_fract_y
  _atom_site_fract_z
  _atom_site_thermal_displace_type
  _atom_site_B_iso_or_equiv
  _atom_site_type_symbol
  Hf1      1.0000 0.12491  0.98402  0.12491  Biso   1.000  Hf
  Hf2      1.0000 0.12491  0.25005  0.39102  Biso   1.000  Hf
  Hf3      1.0000 0.40156  0.25005  0.12491  Biso   1.000  Hf
  Hf4      1.0000 0.37463  0.99854  0.37798  Biso   1.000  Hf
  O1       1.0000 0.99506  0.14668  0.99847  Biso   1.000  O
  O2       1.0000 0.01040  0.11052  0.24563  Biso   1.000  O
  O3       1.0000 0.99506  0.35343  0.25134  Biso   1.000  O
  O4       1.0000 0.01040  0.38959  0.00419  Biso   1.000  O
  O5       1.0000 0.25476  0.14668  0.25134  Biso   1.000  O
  O6       1.0000 0.23942  0.11052  0.00419  Biso   1.000  O
  O7       1.0000 0.25476  0.35343  0.99847  Biso   1.000  O
  O8       1.0000 0.23942  0.38959  0.24563  Biso   1.000  O
  Hf5      1.0000 0.12491  0.99911  0.62491  Biso   1.000  Hf
  Hf6      1.0000 0.12491  0.25005  0.85879  Biso   1.000  Hf
  Hf7      1.0000 0.38308  0.25005  0.62491  Biso   1.000  Hf
  Hf8      1.0000 0.37329  0.99810  0.87437  Biso   1.000  Hf
  O9       1.0000 0.99399  0.14251  0.50075  Biso   1.000  O
  O10      1.0000 0.00313  0.10490  0.74904  Biso   1.000  O
  O11      1.0000 0.99399  0.35760  0.74907  Biso   1.000  O
  O12      1.0000 0.00314  0.39521  0.50078  Biso   1.000  O
  O13      1.0000 0.25583  0.14251  0.74907  Biso   1.000  O
  O14      1.0000 0.24668  0.10490  0.50078  Biso   1.000  O
  O15      1.0000 0.25583  0.35760  0.50075  Biso   1.000  O
  O16      1.0000 0.24668  0.39521  0.74904  Biso   1.000  O
  Hf9      1.0000 0.12491  0.51608  0.12491  Biso   1.000  Hf
  Hf10     1.0000 0.12491  0.75005  0.37773  Biso   1.000  Hf
  Hf11     1.0000 0.38063  0.75005  0.12491  Biso   1.000  Hf
  Hf12     1.0000 0.37329  0.50201  0.37545  Biso   1.000  Hf
  O17      1.0000 0.99754  0.64425  0.99828  Biso   1.000  O
  O18      1.0000 0.99948  0.60928  0.25189  Biso   1.000  O
  O19      1.0000 0.99754  0.85586  0.25154  Biso   1.000  O
  O20      1.0000 0.99948  0.89083  0.99793  Biso   1.000  O
  O21      1.0000 0.25228  0.64425  0.25154  Biso   1.000  O
  O22      1.0000 0.25034  0.60928  0.99793  Biso   1.000  O
  O23      1.0000 0.25228  0.85586  0.99828  Biso   1.000  O
  O24      1.0000 0.25034  0.89082  0.25189  Biso   1.000  O
  Hf13     1.0000 0.12491  0.50099  0.62491  Biso   1.000  Hf
  Hf14     1.0000 0.12491  0.75005  0.87208  Biso   1.000  Hf
  Hf15     1.0000 0.37654  0.75005  0.62491  Biso   1.000  Hf
  Hf16     1.0000 0.37463  0.50157  0.87183  Biso   1.000  Hf
  O25      1.0000 0.99475  0.64504  0.49865  Biso   1.000  O
  O26      1.0000 0.00630  0.60691  0.74949  Biso   1.000  O
  O27      1.0000 0.99475  0.85507  0.75117  Biso   1.000  O
  O28      1.0000 0.00630  0.89320  0.50033  Biso   1.000  O
  O29      1.0000 0.25507  0.64504  0.75117  Biso   1.000  O
  O30      1.0000 0.24351  0.60691  0.50033  Biso   1.000  O
  O31      1.0000 0.25507  0.85507  0.49865  Biso   1.000  O
  O32      1.0000 0.24351  0.89320  0.74949  Biso   1.000  O
  Hf17     1.0000 0.62491  0.00527  0.12491  Biso   1.000  Hf
  Hf18     1.0000 0.62491  0.25005  0.36316  Biso   1.000  Hf
  Hf19     1.0000 0.84826  0.25005  0.12491  Biso   1.000  Hf
  Hf20     1.0000 0.87653  0.99810  0.37545  Biso   1.000  Hf
  O33      1.0000 0.48923  0.13443  0.98457  Biso   1.000  O
  O34      1.0000 0.49890  0.10377  0.24929  Biso   1.000  O
  O35      1.0000 0.48923  0.36568  0.26525  Biso   1.000  O
  O36      1.0000 0.49890  0.39634  0.00052  Biso   1.000  O
  O37      1.0000 0.76058  0.13443  0.26525  Biso   1.000  O
  O38      1.0000 0.75092  0.10377  0.00052  Biso   1.000  O
  O39      1.0000 0.76058  0.36568  0.98457  Biso   1.000  O
  O40      1.0000 0.75092  0.39634  0.24929  Biso   1.000  O
  Hf21     1.0000 0.62491  0.00325  0.62491  Biso   1.000  Hf
  Hf22     1.0000 0.62491  0.25005  0.88665  Biso   1.000  Hf
  Hf23     1.0000 0.86673  0.25006  0.62491  Biso   1.000  Hf
  Hf24     1.0000 0.87519  0.99854  0.87184  Biso   1.000  Hf
  O41      1.0000 0.49762  0.14728  0.49221  Biso   1.000  O
  O42      1.0000 0.49843  0.10227  0.74218  Biso   1.000  O
  O43      1.0000 0.49762  0.35282  0.75761  Biso   1.000  O
  O44      1.0000 0.49843  0.39784  0.50764  Biso   1.000  O
  O45      1.0000 0.75220  0.14728  0.75761  Biso   1.000  O
  O46      1.0000 0.75139  0.10227  0.50764  Biso   1.000  O
  O47      1.0000 0.75219  0.35282  0.49221  Biso   1.000  O
  O48      1.0000 0.75139  0.39784  0.74218  Biso   1.000  O
  Hf25     1.0000 0.62491  0.49483  0.12491  Biso   1.000  Hf
  Hf26     1.0000 0.62491  0.75005  0.37304  Biso   1.000  Hf
  Hf27     1.0000 0.86919  0.75005  0.12491  Biso   1.000  Hf
  Hf28     1.0000 0.87519  0.50157  0.37798  Biso   1.000  Hf
  O49      1.0000 0.49744  0.64395  0.99349  Biso   1.000  O
  O50      1.0000 0.50016  0.60675  0.24323  Biso   1.000  O
  O51      1.0000 0.49744  0.85616  0.25633  Biso   1.000  O
  O52      1.0000 0.50017  0.89336  0.00659  Biso   1.000  O
  O53      1.0000 0.75238  0.64395  0.25633  Biso   1.000  O
  O54      1.0000 0.74965  0.60675  0.00659  Biso   1.000  O
  O55      1.0000 0.75237  0.85616  0.99349  Biso   1.000  O
  O56      1.0000 0.74965  0.89336  0.24323  Biso   1.000  O
  Hf29     1.0000 0.62491  0.49686  0.62491  Biso   1.000  Hf
  Hf30     1.0000 0.62491  0.75005  0.87678  Biso   1.000  Hf
  Hf31     1.0000 0.87328  0.75005  0.62491  Biso   1.000  Hf
  Hf32     1.0000 0.87653  0.50201  0.87437  Biso   1.000  Hf
  O57      1.0000 0.49257  0.64688  0.49116  Biso   1.000  O
  O58      1.0000 0.50262  0.60399  0.74466  Biso   1.000  O
  O59      1.0000 0.49257  0.85323  0.75866  Biso   1.000  O
  O60      1.0000 0.50262  0.89612  0.50516  Biso   1.000  O
  O61      1.0000 0.75725  0.64688  0.75865  Biso   1.000  O
  O62      1.0000 0.74720  0.60399  0.50516  Biso   1.000  O
  O63      1.0000 0.75725  0.85323  0.49116  Biso   1.000  O
  O64      1.0000 0.74719  0.89612  0.74466  Biso   1.000  O
  W1       1.0000 0.12491  0.25006  0.12491  Biso   1.000  W
