data_image0
_cell_length_a       10.0091
_cell_length_b       10.1558
_cell_length_c       5.00446
_cell_angle_alpha    90.0012
_cell_angle_beta     90.0001
_cell_angle_gamma    90.0003

_symmetry_space_group_name_H-M    "P 1"
_symmetry_int_tables_number       1

loop_
  _symmetry_equiv_pos_as_xyz
  'x, y, z'

loop_
  _atom_site_label
  _atom_site_occupancy
  _atom_site_fract_x
  _atom_site_fract_y
  _atom_site_fract_z
  _atom_site_thermal_displace_type
  _atom_site_B_iso_or_equiv
  _atom_site_type_symbol
  W1       1.0000 0.12488  0.00005  0.24982  Biso   1.000  W
  Hf1      1.0000 0.12486  0.25450  0.74978  Biso   1.000  Hf
  Hf2      1.0000 0.37440  0.24870  0.25551  Biso   1.000  Hf
  Hf3      1.0000 0.37329  0.00005  0.74982  Biso   1.000  Hf
  O1       1.0000 0.99848  0.14457  0.96857  Biso   1.000  O
  O2       1.0000 0.99172  0.09874  0.45757  Biso   1.000  O
  O3       1.0000 0.00057  0.35200  0.50330  Biso   1.000  O
  O4       1.0000 0.99772  0.39711  0.00605  Biso   1.000  O
  O5       1.0000 0.25130  0.14458  0.53112  Biso   1.000  O
  O6       1.0000 0.25806  0.09872  0.04212  Biso   1.000  O
  O7       1.0000 0.24919  0.35198  0.99625  Biso   1.000  O
  O8       1.0000 0.25204  0.39711  0.49351  Biso   1.000  O
  Hf4      1.0000 0.12486  0.50005  0.24981  Biso   1.000  Hf
  Hf5      1.0000 0.12487  0.74560  0.74983  Biso   1.000  Hf
  Hf6      1.0000 0.37441  0.75141  0.24411  Biso   1.000  Hf
  Hf7      1.0000 0.37825  0.50005  0.74981  Biso   1.000  Hf
  O9       1.0000 0.00057  0.64812  0.99632  Biso   1.000  O
  O10      1.0000 0.99772  0.60300  0.49357  Biso   1.000  O
  O11      1.0000 0.99848  0.85554  0.53107  Biso   1.000  O
  O12      1.0000 0.99172  0.90137  0.04208  Biso   1.000  O
  O13      1.0000 0.24919  0.64812  0.50337  Biso   1.000  O
  O14      1.0000 0.25204  0.60299  0.00611  Biso   1.000  O
  O15      1.0000 0.25130  0.85552  0.96852  Biso   1.000  O
  O16      1.0000 0.25806  0.90139  0.45752  Biso   1.000  O
  Hf8      1.0000 0.62488  0.00005  0.24982  Biso   1.000  Hf
  Hf9      1.0000 0.62487  0.24832  0.74980  Biso   1.000  Hf
  Hf10     1.0000 0.87533  0.24870  0.24409  Biso   1.000  Hf
  Hf11     1.0000 0.87648  0.00005  0.74982  Biso   1.000  Hf
  O17      1.0000 0.49741  0.14631  0.98772  Biso   1.000  O
  O18      1.0000 0.49892  0.10453  0.48839  Biso   1.000  O
  O19      1.0000 0.50013  0.35508  0.51433  Biso   1.000  O
  O20      1.0000 0.49595  0.39548  0.01567  Biso   1.000  O
  O21      1.0000 0.75236  0.14632  0.51190  Biso   1.000  O
  O22      1.0000 0.75086  0.10453  0.01124  Biso   1.000  O
  O23      1.0000 0.74963  0.35507  0.98524  Biso   1.000  O
  O24      1.0000 0.75381  0.39549  0.48390  Biso   1.000  O
  Hf12     1.0000 0.62486  0.50005  0.24981  Biso   1.000  Hf
  Hf13     1.0000 0.62486  0.75178  0.74983  Biso   1.000  Hf
  Hf14     1.0000 0.87533  0.75141  0.25553  Biso   1.000  Hf
  Hf15     1.0000 0.87148  0.50006  0.74981  Biso   1.000  Hf
  O25      1.0000 0.50014  0.64502  0.98530  Biso   1.000  O
  O26      1.0000 0.49596  0.60463  0.48396  Biso   1.000  O
  O27      1.0000 0.49741  0.85380  0.51191  Biso   1.000  O
  O28      1.0000 0.49892  0.89557  0.01123  Biso   1.000  O
  O29      1.0000 0.74963  0.64504  0.51439  Biso   1.000  O
  O30      1.0000 0.75381  0.60462  0.01574  Biso   1.000  O
  O31      1.0000 0.75236  0.85379  0.98772  Biso   1.000  O
  O32      1.0000 0.75085  0.89558  0.48839  Biso   1.000  O
