data_image0
_cell_length_a       10.0893
_cell_length_b       10.2439
_cell_length_c       5.30395
_cell_angle_alpha    90.0298
_cell_angle_beta     91.5389
_cell_angle_gamma    90.5297

_symmetry_space_group_name_H-M    "P 1"
_symmetry_int_tables_number       1

loop_
  _symmetry_equiv_pos_as_xyz
  'x, y, z'

loop_
  _atom_site_label
  _atom_site_occupancy
  _atom_site_fract_x
  _atom_site_fract_y
  _atom_site_fract_z
  _atom_site_thermal_displace_type
  _atom_site_B_iso_or_equiv
  _atom_site_type_symbol
  Hf1      1.0000 0.14229  0.02207  0.34340  Biso   1.000  Hf
  Hf2      1.0000 0.14290  0.22848  0.84196  Biso   1.000  Hf
  Hf3      1.0000 0.36491  0.26648  0.36103  Biso   1.000  Hf
  Hf4      1.0000 0.35745  0.48066  0.84379  Biso   1.000  Hf
  Hf5      1.0000 0.64444  0.00354  0.15026  Biso   1.000  Hf
  Hf6      1.0000 0.63417  0.22664  0.67599  Biso   1.000  Hf
  Hf7      1.0000 0.87416  0.26804  0.13988  Biso   1.000  Hf
  Hf8      1.0000 0.86213  0.47926  0.65380  Biso   1.000  Hf
  O1       1.0000 0.03490  0.15567  0.14332  Biso   1.000  O
  O2       1.0000 0.03092  0.09328  0.64139  Biso   1.000  O
  O3       1.0000 0.47087  0.41373  0.15501  Biso   1.000  O
  O4       1.0000 0.46448  0.34127  0.67707  Biso   1.000  O
  O5       1.0000 0.27297  0.12506  0.60225  Biso   1.000  O
  O6       1.0000 0.27532  0.12324  0.09743  Biso   1.000  O
  O7       1.0000 0.22077  0.37582  0.59351  Biso   1.000  O
  O8       1.0000 0.22404  0.37657  0.09271  Biso   1.000  O
  O9       1.0000 0.51536  0.11951  0.41008  Biso   1.000  O
  O10      1.0000 0.51763  0.11487  0.91623  Biso   1.000  O
  O11      1.0000 0.96505  0.41320  0.33668  Biso   1.000  O
  O12      1.0000 0.97058  0.33797  0.82773  Biso   1.000  O
  O13      1.0000 0.78605  0.11369  0.87784  Biso   1.000  O
  O14      1.0000 0.76162  0.13790  0.37635  Biso   1.000  O
  O15      1.0000 0.72558  0.37781  0.93590  Biso   1.000  O
  O16      1.0000 0.71214  0.38621  0.43098  Biso   1.000  O
  Hf9      1.0000 0.13963  0.51905  0.34117  Biso   1.000  Hf
  Hf10     1.0000 0.14016  0.72836  0.84085  Biso   1.000  Hf
  Hf11     1.0000 0.36144  0.77273  0.34798  Biso   1.000  Hf
  Hf12     1.0000 0.36351  0.97912  0.85344  Biso   1.000  Hf
  Hf13     1.0000 0.64032  0.53437  0.15265  Biso   1.000  Hf
  Hf14     1.0000 0.63960  0.72963  0.65265  Biso   1.000  Hf
  Hf15     1.0000 0.86843  0.76994  0.15337  Biso   1.000  Hf
  Hf16     1.0000 0.86778  0.97652  0.64997  Biso   1.000  Hf
  O17      1.0000 0.03402  0.66046  0.15307  Biso   1.000  O
  O18      1.0000 0.03156  0.58901  0.65330  Biso   1.000  O
  O19      1.0000 0.47383  0.89396  0.13813  Biso   1.000  O
  O20      1.0000 0.47644  0.85120  0.64620  Biso   1.000  O
  O21      1.0000 0.27480  0.62573  0.58986  Biso   1.000  O
  O22      1.0000 0.27547  0.62585  0.09150  Biso   1.000  O
  O23      1.0000 0.22671  0.87384  0.59333  Biso   1.000  O
  O24      1.0000 0.22646  0.87683  0.09191  Biso   1.000  O
  O25      1.0000 0.52826  0.65957  0.35128  Biso   1.000  O
  O26      1.0000 0.52788  0.59773  0.84716  Biso   1.000  O
  O27      1.0000 0.97247  0.91251  0.33119  Biso   1.000  O
  O28      1.0000 0.97243  0.83937  0.83558  Biso   1.000  O
  O29      1.0000 0.77822  0.62450  0.89907  Biso   1.000  O
  O30      1.0000 0.77926  0.63045  0.40280  Biso   1.000  O
  O31      1.0000 0.72980  0.86971  0.90729  Biso   1.000  O
  O32      1.0000 0.73246  0.87190  0.41146  Biso   1.000  O
  W1       1.0000 0.60717  0.25697  0.19076  Biso   1.000  W
