data_image0
_cell_length_a       9.94732
_cell_length_b       10.3528
_cell_length_c       9.99095
_cell_angle_alpha    89.9267
_cell_angle_beta     89.97
_cell_angle_gamma    90.0015

_symmetry_space_group_name_H-M    "P 1"
_symmetry_int_tables_number       1

loop_
  _symmetry_equiv_pos_as_xyz
  'x, y, z'

loop_
  _atom_site_label
  _atom_site_occupancy
  _atom_site_fract_x
  _atom_site_fract_y
  _atom_site_fract_z
  _atom_site_thermal_displace_type
  _atom_site_B_iso_or_equiv
  _atom_site_type_symbol
  W1       1.0000 0.13688  0.02058  0.12397  Biso   1.000  W
  Hf1      1.0000 0.13322  0.23251  0.37549  Biso   1.000  Hf
  Hf2      1.0000 0.36672  0.26756  0.12576  Biso   1.000  Hf
  Hf3      1.0000 0.36600  0.48406  0.37627  Biso   1.000  Hf
  O1       1.0000 0.03713  0.18047  0.19512  Biso   1.000  O
  O2       1.0000 0.03451  0.06747  0.44945  Biso   1.000  O
  O3       1.0000 0.46344  0.43493  0.19362  Biso   1.000  O
  O4       1.0000 0.46346  0.31611  0.44377  Biso   1.000  O
  O5       1.0000 0.26949  0.11789  0.24647  Biso   1.000  O
  O6       1.0000 0.27074  0.13220  0.49874  Biso   1.000  O
  O7       1.0000 0.22916  0.38208  0.49992  Biso   1.000  O
  O8       1.0000 0.22986  0.36822  0.25024  Biso   1.000  O
  Hf4      1.0000 0.13437  0.01643  0.62696  Biso   1.000  Hf
  Hf5      1.0000 0.13458  0.23364  0.87758  Biso   1.000  Hf
  Hf6      1.0000 0.36588  0.26654  0.62585  Biso   1.000  Hf
  Hf7      1.0000 0.36584  0.48389  0.87573  Biso   1.000  Hf
  O9       1.0000 0.03458  0.18221  0.70001  Biso   1.000  O
  O10      1.0000 0.03701  0.06464  0.95583  Biso   1.000  O
  O11      1.0000 0.46306  0.43466  0.69347  Biso   1.000  O
  O12      1.0000 0.46250  0.31478  0.94323  Biso   1.000  O
  O13      1.0000 0.27090  0.11802  0.75021  Biso   1.000  O
  O14      1.0000 0.27163  0.12901  0.00052  Biso   1.000  O
  O15      1.0000 0.22915  0.38159  0.00020  Biso   1.000  O
  O16      1.0000 0.22885  0.36728  0.75037  Biso   1.000  O
  Hf8      1.0000 0.13454  0.51653  0.12670  Biso   1.000  Hf
  Hf9      1.0000 0.13396  0.73462  0.37566  Biso   1.000  Hf
  Hf10     1.0000 0.36430  0.76834  0.12645  Biso   1.000  Hf
  Hf11     1.0000 0.36534  0.98362  0.37501  Biso   1.000  Hf
  O17      1.0000 0.03695  0.68349  0.19387  Biso   1.000  O
  O18      1.0000 0.03649  0.56610  0.44353  Biso   1.000  O
  O19      1.0000 0.46428  0.93405  0.19494  Biso   1.000  O
  O20      1.0000 0.46340  0.81599  0.44329  Biso   1.000  O
  O21      1.0000 0.27136  0.61973  0.25011  Biso   1.000  O
  O22      1.0000 0.27063  0.63242  0.49967  Biso   1.000  O
  O23      1.0000 0.22937  0.88252  0.49968  Biso   1.000  O
  O24      1.0000 0.22525  0.87222  0.24813  Biso   1.000  O
  Hf12     1.0000 0.13367  0.51624  0.62558  Biso   1.000  Hf
  Hf13     1.0000 0.13337  0.73279  0.87581  Biso   1.000  Hf
  Hf14     1.0000 0.36616  0.76643  0.62564  Biso   1.000  Hf
  Hf15     1.0000 0.36513  0.98253  0.87683  Biso   1.000  Hf
  O25      1.0000 0.03610  0.68386  0.69362  Biso   1.000  O
  O26      1.0000 0.03633  0.56472  0.94479  Biso   1.000  O
  O27      1.0000 0.46322  0.93448  0.69425  Biso   1.000  O
  O28      1.0000 0.46194  0.81538  0.94466  Biso   1.000  O
  O29      1.0000 0.27038  0.61743  0.74955  Biso   1.000  O
  O30      1.0000 0.27098  0.63207  0.99992  Biso   1.000  O
  O31      1.0000 0.22335  0.88225  0.00103  Biso   1.000  O
  O32      1.0000 0.22979  0.86710  0.75018  Biso   1.000  O
  Hf16     1.0000 0.63423  0.01654  0.12557  Biso   1.000  Hf
  Hf17     1.0000 0.63402  0.23364  0.37616  Biso   1.000  Hf
  Hf18     1.0000 0.86597  0.26566  0.12619  Biso   1.000  Hf
  Hf19     1.0000 0.86591  0.48365  0.37607  Biso   1.000  Hf
  O33      1.0000 0.53639  0.18446  0.19400  Biso   1.000  O
  O34      1.0000 0.53574  0.06589  0.44364  Biso   1.000  O
  O35      1.0000 0.96486  0.43221  0.19502  Biso   1.000  O
  O36      1.0000 0.96397  0.31595  0.44523  Biso   1.000  O
  O37      1.0000 0.77053  0.11805  0.24954  Biso   1.000  O
  O38      1.0000 0.77054  0.13237  0.49938  Biso   1.000  O
  O39      1.0000 0.72933  0.38234  0.50003  Biso   1.000  O
  O40      1.0000 0.72942  0.36808  0.24990  Biso   1.000  O
  Hf20     1.0000 0.63377  0.01616  0.62522  Biso   1.000  Hf
  Hf21     1.0000 0.63375  0.23300  0.87563  Biso   1.000  Hf
  Hf22     1.0000 0.86602  0.26566  0.62631  Biso   1.000  Hf
  Hf23     1.0000 0.86570  0.48322  0.87611  Biso   1.000  Hf
  O41      1.0000 0.53671  0.18466  0.69329  Biso   1.000  O
  O42      1.0000 0.53631  0.06507  0.94383  Biso   1.000  O
  O43      1.0000 0.96349  0.43371  0.69432  Biso   1.000  O
  O44      1.0000 0.96364  0.31481  0.94473  Biso   1.000  O
  O45      1.0000 0.77007  0.11701  0.74970  Biso   1.000  O
  O46      1.0000 0.77092  0.13206  0.99939  Biso   1.000  O
  O47      1.0000 0.72913  0.38162  0.00014  Biso   1.000  O
  O48      1.0000 0.72931  0.36739  0.74980  Biso   1.000  O
  Hf24     1.0000 0.63454  0.51722  0.12608  Biso   1.000  Hf
  Hf25     1.0000 0.63471  0.73442  0.37463  Biso   1.000  Hf
  Hf26     1.0000 0.86851  0.76755  0.12449  Biso   1.000  Hf
  Hf27     1.0000 0.86844  0.98431  0.37424  Biso   1.000  Hf
  O49      1.0000 0.53637  0.68526  0.19301  Biso   1.000  O
  O50      1.0000 0.53688  0.56638  0.44353  Biso   1.000  O
  O51      1.0000 0.97055  0.93478  0.19176  Biso   1.000  O
  O52      1.0000 0.96427  0.81639  0.44470  Biso   1.000  O
  O53      1.0000 0.77131  0.61810  0.24959  Biso   1.000  O
  O54      1.0000 0.77071  0.63276  0.49966  Biso   1.000  O
  O55      1.0000 0.72985  0.88296  0.49832  Biso   1.000  O
  O56      1.0000 0.73274  0.86849  0.24820  Biso   1.000  O
  Hf28     1.0000 0.63408  0.51668  0.62575  Biso   1.000  Hf
  Hf29     1.0000 0.63378  0.73354  0.87613  Biso   1.000  Hf
  Hf30     1.0000 0.86585  0.76681  0.62597  Biso   1.000  Hf
  Hf31     1.0000 0.86643  0.98340  0.87622  Biso   1.000  Hf
  O57      1.0000 0.53644  0.68459  0.69419  Biso   1.000  O
  O58      1.0000 0.53692  0.56502  0.94324  Biso   1.000  O
  O59      1.0000 0.96448  0.93386  0.69590  Biso   1.000  O
  O60      1.0000 0.96148  0.81424  0.94125  Biso   1.000  O
  O61      1.0000 0.77050  0.61771  0.74991  Biso   1.000  O
  O62      1.0000 0.77081  0.63217  0.99987  Biso   1.000  O
  O63      1.0000 0.72882  0.88263  0.99866  Biso   1.000  O
  O64      1.0000 0.72914  0.86795  0.74940  Biso   1.000  O
