data_image0
_cell_length_a       9.99306
_cell_length_b       5.09936
_cell_length_c       10.455
_cell_angle_alpha    89.9926
_cell_angle_beta     89.9074
_cell_angle_gamma    89.8617

_symmetry_space_group_name_H-M    "P 1"
_symmetry_int_tables_number       1

loop_
  _symmetry_equiv_pos_as_xyz
  'x, y, z'

loop_
  _atom_site_label
  _atom_site_occupancy
  _atom_site_fract_x
  _atom_site_fract_y
  _atom_site_fract_z
  _atom_site_thermal_displace_type
  _atom_site_B_iso_or_equiv
  _atom_site_type_symbol
  W1       1.0000 0.13940  0.04500  0.17391  Biso   1.000  W
  Hf1      1.0000 0.13892  0.45943  0.42133  Biso   1.000  Hf
  Hf2      1.0000 0.35793  0.55163  0.17215  Biso   1.000  Hf
  Hf3      1.0000 0.36018  0.95992  0.42160  Biso   1.000  Hf
  Hf4      1.0000 0.63837  0.04508  0.07753  Biso   1.000  Hf
  Hf5      1.0000 0.63792  0.45722  0.32715  Biso   1.000  Hf
  Hf6      1.0000 0.86409  0.54261  0.07811  Biso   1.000  Hf
  Hf7      1.0000 0.86090  0.95770  0.32721  Biso   1.000  Hf
  O1       1.0000 0.03573  0.32305  0.08644  Biso   1.000  O
  O2       1.0000 0.03715  0.16451  0.32791  Biso   1.000  O
  O3       1.0000 0.46782  0.82944  0.08208  Biso   1.000  O
  O4       1.0000 0.46539  0.67075  0.33341  Biso   1.000  O
  O5       1.0000 0.27723  0.24643  0.29537  Biso   1.000  O
  O6       1.0000 0.27534  0.24989  0.05110  Biso   1.000  O
  O7       1.0000 0.21917  0.75156  0.29622  Biso   1.000  O
  O8       1.0000 0.21734  0.75637  0.04628  Biso   1.000  O
  O9       1.0000 0.53230  0.33484  0.16599  Biso   1.000  O
  O10      1.0000 0.53320  0.16971  0.41615  Biso   1.000  O
  O11      1.0000 0.97748  0.82749  0.16569  Biso   1.000  O
  O12      1.0000 0.96626  0.66846  0.41521  Biso   1.000  O
  O13      1.0000 0.77769  0.24529  0.45353  Biso   1.000  O
  O14      1.0000 0.77708  0.25119  0.20422  Biso   1.000  O
  O15      1.0000 0.72282  0.74658  0.45416  Biso   1.000  O
  O16      1.0000 0.72772  0.75300  0.20444  Biso   1.000  O
  Hf8      1.0000 0.13836  0.04206  0.67228  Biso   1.000  Hf
  Hf9      1.0000 0.13966  0.45453  0.92350  Biso   1.000  Hf
  Hf10     1.0000 0.36109  0.54318  0.67210  Biso   1.000  Hf
  Hf11     1.0000 0.36019  0.95715  0.92300  Biso   1.000  Hf
  Hf12     1.0000 0.63847  0.04223  0.57835  Biso   1.000  Hf
  Hf13     1.0000 0.63896  0.45891  0.82879  Biso   1.000  Hf
  Hf14     1.0000 0.86044  0.54144  0.57788  Biso   1.000  Hf
  Hf15     1.0000 0.86125  0.95659  0.82862  Biso   1.000  Hf
  O17      1.0000 0.03118  0.32413  0.57968  Biso   1.000  O
  O18      1.0000 0.03136  0.17245  0.83173  Biso   1.000  O
  O19      1.0000 0.46638  0.83203  0.58394  Biso   1.000  O
  O20      1.0000 0.46654  0.67073  0.83383  Biso   1.000  O
  O21      1.0000 0.27683  0.24679  0.79679  Biso   1.000  O
  O22      1.0000 0.27660  0.25327  0.54606  Biso   1.000  O
  O23      1.0000 0.22279  0.74676  0.79590  Biso   1.000  O
  O24      1.0000 0.22285  0.75148  0.54510  Biso   1.000  O
  O25      1.0000 0.53313  0.33177  0.66639  Biso   1.000  O
  O26      1.0000 0.53188  0.17135  0.91656  Biso   1.000  O
  O27      1.0000 0.96773  0.82595  0.66694  Biso   1.000  O
  O28      1.0000 0.96743  0.66702  0.91737  Biso   1.000  O
  O29      1.0000 0.77669  0.24947  0.95463  Biso   1.000  O
  O30      1.0000 0.77650  0.25168  0.70439  Biso   1.000  O
  O31      1.0000 0.72313  0.74928  0.95445  Biso   1.000  O
  O32      1.0000 0.72314  0.75258  0.70452  Biso   1.000  O
