data_image0
_cell_length_a       10.0071
_cell_length_b       10.2138
_cell_length_c       10.4555
_cell_angle_alpha    89.9934
_cell_angle_beta     89.9364
_cell_angle_gamma    89.9551

_symmetry_space_group_name_H-M    "P 1"
_symmetry_int_tables_number       1

loop_
  _symmetry_equiv_pos_as_xyz
  'x, y, z'

loop_
  _atom_site_label
  _atom_site_occupancy
  _atom_site_fract_x
  _atom_site_fract_y
  _atom_site_fract_z
  _atom_site_thermal_displace_type
  _atom_site_B_iso_or_equiv
  _atom_site_type_symbol
  W1       1.0000 0.14047  0.02331  0.17478  Biso   1.000  W
  Hf1      1.0000 0.13987  0.22987  0.42085  Biso   1.000  Hf
  Hf2      1.0000 0.36040  0.27065  0.17221  Biso   1.000  Hf
  Hf3      1.0000 0.36137  0.47966  0.42153  Biso   1.000  Hf
  Hf4      1.0000 0.63867  0.02159  0.07752  Biso   1.000  Hf
  Hf5      1.0000 0.63870  0.22873  0.32841  Biso   1.000  Hf
  Hf6      1.0000 0.86226  0.27025  0.07898  Biso   1.000  Hf
  Hf7      1.0000 0.86081  0.47885  0.32814  Biso   1.000  Hf
  O1       1.0000 0.03399  0.16101  0.08451  Biso   1.000  O
  O2       1.0000 0.03898  0.08141  0.32886  Biso   1.000  O
  O3       1.0000 0.46630  0.41567  0.08474  Biso   1.000  O
  O4       1.0000 0.46642  0.33385  0.33451  Biso   1.000  O
  O5       1.0000 0.27836  0.12158  0.29637  Biso   1.000  O
  O6       1.0000 0.27370  0.12327  0.04916  Biso   1.000  O
  O7       1.0000 0.22409  0.37436  0.29521  Biso   1.000  O
  O8       1.0000 0.22354  0.37523  0.04522  Biso   1.000  O
  O9       1.0000 0.53319  0.16563  0.16650  Biso   1.000  O
  O10      1.0000 0.53345  0.08428  0.41650  Biso   1.000  O
  O11      1.0000 0.96757  0.41469  0.16654  Biso   1.000  O
  O12      1.0000 0.96644  0.33291  0.41476  Biso   1.000  O
  O13      1.0000 0.77816  0.12282  0.45384  Biso   1.000  O
  O14      1.0000 0.77722  0.12607  0.20481  Biso   1.000  O
  O15      1.0000 0.72335  0.37330  0.45529  Biso   1.000  O
  O16      1.0000 0.72348  0.37605  0.20497  Biso   1.000  O
  Hf8      1.0000 0.13871  0.02107  0.67136  Biso   1.000  Hf
  Hf9      1.0000 0.13849  0.22731  0.92204  Biso   1.000  Hf
  Hf10     1.0000 0.36127  0.27140  0.67181  Biso   1.000  Hf
  Hf11     1.0000 0.36099  0.47892  0.92202  Biso   1.000  Hf
  Hf12     1.0000 0.63874  0.02110  0.57815  Biso   1.000  Hf
  Hf13     1.0000 0.63882  0.22936  0.82855  Biso   1.000  Hf
  Hf14     1.0000 0.86137  0.27081  0.57812  Biso   1.000  Hf
  Hf15     1.0000 0.86133  0.47869  0.82914  Biso   1.000  Hf
  O17      1.0000 0.03253  0.16343  0.58030  Biso   1.000  O
  O18      1.0000 0.03196  0.08556  0.83159  Biso   1.000  O
  O19      1.0000 0.46653  0.41622  0.58412  Biso   1.000  O
  O20      1.0000 0.46663  0.33463  0.83419  Biso   1.000  O
  O21      1.0000 0.27663  0.12364  0.79639  Biso   1.000  O
  O22      1.0000 0.27714  0.12669  0.54570  Biso   1.000  O
  O23      1.0000 0.22304  0.37344  0.79535  Biso   1.000  O
  O24      1.0000 0.22313  0.37610  0.54468  Biso   1.000  O
  O25      1.0000 0.53325  0.16586  0.66631  Biso   1.000  O
  O26      1.0000 0.53177  0.08556  0.91664  Biso   1.000  O
  O27      1.0000 0.96738  0.41419  0.66675  Biso   1.000  O
  O28      1.0000 0.96753  0.33358  0.91738  Biso   1.000  O
  O29      1.0000 0.77583  0.12406  0.95416  Biso   1.000  O
  O30      1.0000 0.77654  0.12627  0.70422  Biso   1.000  O
  O31      1.0000 0.72380  0.37401  0.95543  Biso   1.000  O
  O32      1.0000 0.72345  0.37644  0.70521  Biso   1.000  O
  Hf16     1.0000 0.13899  0.52132  0.17151  Biso   1.000  Hf
  Hf17     1.0000 0.13827  0.72871  0.42162  Biso   1.000  Hf
  Hf18     1.0000 0.35821  0.77521  0.17156  Biso   1.000  Hf
  Hf19     1.0000 0.36070  0.97866  0.42196  Biso   1.000  Hf
  Hf20     1.0000 0.63819  0.52197  0.07902  Biso   1.000  Hf
  Hf21     1.0000 0.63793  0.72891  0.32756  Biso   1.000  Hf
  Hf22     1.0000 0.86306  0.77247  0.07804  Biso   1.000  Hf
  Hf23     1.0000 0.86126  0.97866  0.32723  Biso   1.000  Hf
  O33      1.0000 0.03295  0.66439  0.08336  Biso   1.000  O
  O34      1.0000 0.03277  0.58422  0.33353  Biso   1.000  O
  O35      1.0000 0.46730  0.91540  0.08232  Biso   1.000  O
  O36      1.0000 0.46605  0.83595  0.33259  Biso   1.000  O
  O37      1.0000 0.27634  0.62494  0.29511  Biso   1.000  O
  O38      1.0000 0.27660  0.62762  0.04527  Biso   1.000  O
  O39      1.0000 0.21793  0.87536  0.29491  Biso   1.000  O
  O40      1.0000 0.21752  0.87940  0.04619  Biso   1.000  O
  O41      1.0000 0.53184  0.66732  0.16574  Biso   1.000  O
  O42      1.0000 0.53326  0.58472  0.41608  Biso   1.000  O
  O43      1.0000 0.97439  0.91690  0.16520  Biso   1.000  O
  O44      1.0000 0.96682  0.83543  0.41625  Biso   1.000  O
  O45      1.0000 0.77634  0.62373  0.45489  Biso   1.000  O
  O46      1.0000 0.77612  0.62648  0.20496  Biso   1.000  O
  O47      1.0000 0.72309  0.87377  0.45399  Biso   1.000  O
  O48      1.0000 0.72682  0.87695  0.20449  Biso   1.000  O
  Hf24     1.0000 0.13877  0.52110  0.67193  Biso   1.000  Hf
  Hf25     1.0000 0.13902  0.72929  0.92184  Biso   1.000  Hf
  Hf26     1.0000 0.36135  0.77100  0.67178  Biso   1.000  Hf
  Hf27     1.0000 0.36057  0.97827  0.92236  Biso   1.000  Hf
  Hf28     1.0000 0.63900  0.52119  0.57886  Biso   1.000  Hf
  Hf29     1.0000 0.63897  0.72886  0.82900  Biso   1.000  Hf
  Hf30     1.0000 0.86072  0.77109  0.57813  Biso   1.000  Hf
  Hf31     1.0000 0.86095  0.97882  0.82797  Biso   1.000  Hf
  O49      1.0000 0.03236  0.66481  0.58335  Biso   1.000  O
  O50      1.0000 0.03296  0.58468  0.83372  Biso   1.000  O
  O51      1.0000 0.46703  0.91553  0.58407  Biso   1.000  O
  O52      1.0000 0.46669  0.83439  0.83402  Biso   1.000  O
  O53      1.0000 0.27673  0.62359  0.79524  Biso   1.000  O
  O54      1.0000 0.27661  0.62621  0.54545  Biso   1.000  O
  O55      1.0000 0.22339  0.87377  0.79528  Biso   1.000  O
  O56      1.0000 0.22348  0.87587  0.54537  Biso   1.000  O
  O57      1.0000 0.53355  0.66583  0.66629  Biso   1.000  O
  O58      1.0000 0.53341  0.58393  0.91614  Biso   1.000  O
  O59      1.0000 0.96715  0.91491  0.66609  Biso   1.000  O
  O60      1.0000 0.96657  0.83442  0.91581  Biso   1.000  O
  O61      1.0000 0.77712  0.62440  0.95569  Biso   1.000  O
  O62      1.0000 0.77689  0.62594  0.70539  Biso   1.000  O
  O63      1.0000 0.72299  0.87410  0.95444  Biso   1.000  O
  O64      1.0000 0.72332  0.87612  0.70458  Biso   1.000  O
