data_image0
_cell_length_a       5.14749
_cell_length_b       10.2534
_cell_length_c       10.5829
_cell_angle_alpha    89.8605
_cell_angle_beta     78.7557
_cell_angle_gamma    90.3398

_symmetry_space_group_name_H-M    "P 1"
_symmetry_int_tables_number       1

loop_
  _symmetry_equiv_pos_as_xyz
  'x, y, z'

loop_
  _atom_site_label
  _atom_site_occupancy
  _atom_site_fract_x
  _atom_site_fract_y
  _atom_site_fract_z
  _atom_site_thermal_displace_type
  _atom_site_B_iso_or_equiv
  _atom_site_type_symbol
  Hf1      1.0000 0.27299  0.02068  0.14362  Biso   1.000  Hf
  Hf2      1.0000 0.25486  0.23413  0.40004  Biso   1.000  Hf
  Hf3      1.0000 0.71375  0.27160  0.10247  Biso   1.000  Hf
  Hf4      1.0000 0.71309  0.49745  0.34870  Biso   1.000  Hf
  O1       1.0000 0.05331  0.15473  0.06979  Biso   1.000  O
  O2       1.0000 0.05166  0.08438  0.31828  Biso   1.000  O
  O3       1.0000 0.94931  0.38817  0.19822  Biso   1.000  O
  O4       1.0000 0.97560  0.38107  0.44824  Biso   1.000  O
  O5       1.0000 0.54936  0.12565  0.24524  Biso   1.000  O
  O6       1.0000 0.57591  0.11151  0.49118  Biso   1.000  O
  O7       1.0000 0.44767  0.37706  0.00551  Biso   1.000  O
  O8       1.0000 0.43540  0.38152  0.25048  Biso   1.000  O
  Hf5      1.0000 0.28345  0.02074  0.64812  Biso   1.000  Hf
  Hf6      1.0000 0.27206  0.22887  0.89713  Biso   1.000  Hf
  Hf7      1.0000 0.74298  0.27115  0.60908  Biso   1.000  Hf
  Hf8      1.0000 0.72188  0.47817  0.85446  Biso   1.000  Hf
  O9       1.0000 0.08541  0.16527  0.58158  Biso   1.000  O
  O10      1.0000 0.05980  0.08984  0.82391  Biso   1.000  O
  O11      1.0000 0.95352  0.40341  0.69078  Biso   1.000  O
  O12      1.0000 0.94424  0.34867  0.93591  Biso   1.000  O
  O13      1.0000 0.54966  0.12737  0.74486  Biso   1.000  O
  O14      1.0000 0.54472  0.12263  0.99152  Biso   1.000  O
  O15      1.0000 0.49081  0.36961  0.49548  Biso   1.000  O
  O16      1.0000 0.45309  0.37426  0.75754  Biso   1.000  O
  Hf9      1.0000 0.27186  0.51986  0.14519  Biso   1.000  Hf
  Hf10     1.0000 0.26409  0.72833  0.39760  Biso   1.000  Hf
  Hf11     1.0000 0.71924  0.77095  0.09934  Biso   1.000  Hf
  Hf12     1.0000 0.71041  0.96500  0.35255  Biso   1.000  Hf
  O17      1.0000 0.04166  0.64986  0.06517  Biso   1.000  O
  O18      1.0000 0.05210  0.60478  0.31091  Biso   1.000  O
  O19      1.0000 0.93598  0.90453  0.17485  Biso   1.000  O
  O20      1.0000 0.93289  0.83909  0.42957  Biso   1.000  O
  O21      1.0000 0.53961  0.63076  0.23749  Biso   1.000  O
  O22      1.0000 0.53490  0.62602  0.49298  Biso   1.000  O
  O23      1.0000 0.44680  0.87729  0.00930  Biso   1.000  O
  O24      1.0000 0.43869  0.87065  0.25858  Biso   1.000  O
  Hf13     1.0000 0.27648  0.51990  0.64620  Biso   1.000  Hf
  Hf14     1.0000 0.27075  0.72605  0.89531  Biso   1.000  Hf
  Hf15     1.0000 0.72100  0.77143  0.60640  Biso   1.000  Hf
  Hf16     1.0000 0.72259  0.97897  0.85358  Biso   1.000  Hf
  O25      1.0000 0.04866  0.65437  0.57128  Biso   1.000  O
  O26      1.0000 0.05803  0.59465  0.81599  Biso   1.000  O
  O27      1.0000 0.93881  0.91114  0.67662  Biso   1.000  O
  O28      1.0000 0.93701  0.83991  0.92510  Biso   1.000  O
  O29      1.0000 0.54673  0.62629  0.73993  Biso   1.000  O
  O30      1.0000 0.54005  0.62255  0.98919  Biso   1.000  O
  O31      1.0000 0.44235  0.87363  0.51169  Biso   1.000  O
  O32      1.0000 0.45084  0.87154  0.76071  Biso   1.000  O
  W1       1.0000 0.78660  0.24447  0.35731  Biso   1.000  W
