data_image0
_cell_length_a       10.0194
_cell_length_b       10.4529
_cell_length_c       10.0579
_cell_angle_alpha    89.6899
_cell_angle_beta     89.6318
_cell_angle_gamma    89.9115

_symmetry_space_group_name_H-M    "P 1"
_symmetry_int_tables_number       1

loop_
  _symmetry_equiv_pos_as_xyz
  'x, y, z'

loop_
  _atom_site_label
  _atom_site_occupancy
  _atom_site_fract_x
  _atom_site_fract_y
  _atom_site_fract_z
  _atom_site_thermal_displace_type
  _atom_site_B_iso_or_equiv
  _atom_site_type_symbol
  Hf1      1.0000 0.13128  0.02052  0.12298  Biso   1.000  Hf
  Hf2      1.0000 0.13527  0.22599  0.38087  Biso   1.000  Hf
  Hf3      1.0000 0.38330  0.26947  0.12271  Biso   1.000  Hf
  Hf4      1.0000 0.36642  0.48057  0.37559  Biso   1.000  Hf
  O1       1.0000 0.00540  0.17057  0.22848  Biso   1.000  O
  O2       1.0000 0.03821  0.05711  0.45097  Biso   1.000  O
  O3       1.0000 0.47432  0.43273  0.20237  Biso   1.000  O
  O4       1.0000 0.46859  0.31680  0.45277  Biso   1.000  O
  O5       1.0000 0.26614  0.10613  0.25192  Biso   1.000  O
  O6       1.0000 0.27441  0.12873  0.50350  Biso   1.000  O
  O7       1.0000 0.23218  0.38159  0.50496  Biso   1.000  O
  O8       1.0000 0.24783  0.35148  0.25989  Biso   1.000  O
  Hf5      1.0000 0.13533  0.00891  0.62400  Biso   1.000  Hf
  Hf6      1.0000 0.12471  0.22449  0.85702  Biso   1.000  Hf
  Hf7      1.0000 0.36688  0.26567  0.62765  Biso   1.000  Hf
  Hf8      1.0000 0.37111  0.49115  0.87173  Biso   1.000  Hf
  O9       1.0000 0.03032  0.17371  0.68329  Biso   1.000  O
  O10      1.0000 0.03003  0.06195  0.94028  Biso   1.000  O
  O11      1.0000 0.46743  0.43065  0.69566  Biso   1.000  O
  O12      1.0000 0.47041  0.32168  0.94243  Biso   1.000  O
  O13      1.0000 0.26779  0.11071  0.75144  Biso   1.000  O
  O14      1.0000 0.24842  0.16537  0.00863  Biso   1.000  O
  O15      1.0000 0.25214  0.41407  0.01201  Biso   1.000  O
  O16      1.0000 0.23269  0.36469  0.75546  Biso   1.000  O
  Hf9      1.0000 0.12922  0.54545  0.11128  Biso   1.000  Hf
  Hf10     1.0000 0.13522  0.73262  0.37639  Biso   1.000  Hf
  Hf11     1.0000 0.36734  0.76953  0.12438  Biso   1.000  Hf
  Hf12     1.0000 0.36638  0.98224  0.37580  Biso   1.000  Hf
  O17      1.0000 0.02579  0.68986  0.20586  Biso   1.000  O
  O18      1.0000 0.03581  0.56556  0.44757  Biso   1.000  O
  O19      1.0000 0.46514  0.93146  0.19825  Biso   1.000  O
  O20      1.0000 0.46775  0.81450  0.44562  Biso   1.000  O
  O21      1.0000 0.27208  0.61667  0.24583  Biso   1.000  O
  O22      1.0000 0.27143  0.62970  0.49681  Biso   1.000  O
  O23      1.0000 0.23250  0.87855  0.49768  Biso   1.000  O
  O24      1.0000 0.22836  0.86358  0.24656  Biso   1.000  O
  Hf13     1.0000 0.13343  0.51291  0.62580  Biso   1.000  Hf
  Hf14     1.0000 0.12821  0.74199  0.86437  Biso   1.000  Hf
  Hf15     1.0000 0.36913  0.75987  0.62108  Biso   1.000  Hf
  Hf16     1.0000 0.37507  0.97986  0.86717  Biso   1.000  Hf
  O25      1.0000 0.03544  0.68181  0.68919  Biso   1.000  O
  O26      1.0000 0.03171  0.57340  0.93581  Biso   1.000  O
  O27      1.0000 0.47009  0.92716  0.69386  Biso   1.000  O
  O28      1.0000 0.47040  0.81949  0.94524  Biso   1.000  O
  O29      1.0000 0.26792  0.61419  0.74475  Biso   1.000  O
  O30      1.0000 0.26605  0.65674  0.98904  Biso   1.000  O
  O31      1.0000 0.23637  0.90076  0.99600  Biso   1.000  O
  O32      1.0000 0.23713  0.86271  0.74442  Biso   1.000  O
  Hf17     1.0000 0.63150  0.01217  0.12693  Biso   1.000  Hf
  Hf18     1.0000 0.63306  0.23197  0.37759  Biso   1.000  Hf
  Hf19     1.0000 0.85155  0.25915  0.12454  Biso   1.000  Hf
  Hf20     1.0000 0.87100  0.48054  0.37442  Biso   1.000  Hf
  O33      1.0000 0.53590  0.17833  0.20335  Biso   1.000  O
  O34      1.0000 0.53494  0.06491  0.44795  Biso   1.000  O
  O35      1.0000 0.97299  0.42942  0.19641  Biso   1.000  O
  O36      1.0000 0.96924  0.31874  0.45113  Biso   1.000  O
  O37      1.0000 0.75983  0.10985  0.25007  Biso   1.000  O
  O38      1.0000 0.77118  0.13374  0.49741  Biso   1.000  O
  O39      1.0000 0.73326  0.38329  0.49985  Biso   1.000  O
  O40      1.0000 0.73150  0.36588  0.25244  Biso   1.000  O
  Hf21     1.0000 0.63673  0.01400  0.62165  Biso   1.000  Hf
  Hf22     1.0000 0.63259  0.23215  0.87270  Biso   1.000  Hf
  Hf23     1.0000 0.86482  0.26631  0.62292  Biso   1.000  Hf
  Hf24     1.0000 0.86295  0.48286  0.87516  Biso   1.000  Hf
  O41      1.0000 0.53298  0.17751  0.69895  Biso   1.000  O
  O42      1.0000 0.52399  0.07387  0.95486  Biso   1.000  O
  O43      1.0000 0.96784  0.42739  0.70173  Biso   1.000  O
  O44      1.0000 0.96726  0.32033  0.95241  Biso   1.000  O
  O45      1.0000 0.76926  0.11383  0.74692  Biso   1.000  O
  O46      1.0000 0.76476  0.12916  0.99637  Biso   1.000  O
  O47      1.0000 0.72659  0.38260  0.99945  Biso   1.000  O
  O48      1.0000 0.73062  0.36544  0.74986  Biso   1.000  O
  Hf25     1.0000 0.63599  0.51777  0.12733  Biso   1.000  Hf
  Hf26     1.0000 0.63445  0.73162  0.37408  Biso   1.000  Hf
  Hf27     1.0000 0.86276  0.76752  0.12581  Biso   1.000  Hf
  Hf28     1.0000 0.87112  0.98527  0.37095  Biso   1.000  Hf
  O49      1.0000 0.53601  0.68421  0.19548  Biso   1.000  O
  O50      1.0000 0.53431  0.56608  0.44706  Biso   1.000  O
  O51      1.0000 0.96191  0.93324  0.19092  Biso   1.000  O
  O52      1.0000 0.96621  0.81643  0.44486  Biso   1.000  O
  O53      1.0000 0.77066  0.61395  0.24893  Biso   1.000  O
  O54      1.0000 0.76942  0.63223  0.49785  Biso   1.000  O
  O55      1.0000 0.73387  0.88395  0.49650  Biso   1.000  O
  O56      1.0000 0.72939  0.86440  0.24859  Biso   1.000  O
  Hf29     1.0000 0.63442  0.51477  0.62316  Biso   1.000  Hf
  Hf30     1.0000 0.63587  0.73198  0.87472  Biso   1.000  Hf
  Hf31     1.0000 0.86649  0.76448  0.62057  Biso   1.000  Hf
  Hf32     1.0000 0.86399  0.97998  0.87315  Biso   1.000  Hf
  O57      1.0000 0.53412  0.67847  0.69926  Biso   1.000  O
  O58      1.0000 0.53472  0.57048  0.95075  Biso   1.000  O
  O59      1.0000 0.96982  0.92449  0.70060  Biso   1.000  O
  O60      1.0000 0.96416  0.81657  0.94857  Biso   1.000  O
  O61      1.0000 0.77022  0.61409  0.74737  Biso   1.000  O
  O62      1.0000 0.77137  0.63266  0.99806  Biso   1.000  O
  O63      1.0000 0.72731  0.88225  0.99739  Biso   1.000  O
  O64      1.0000 0.73141  0.86365  0.74635  Biso   1.000  O
  W1       1.0000 0.11169  0.30284  0.10873  Biso   1.000  W
