data_image0
_cell_length_a       10.1155
_cell_length_b       5.18633
_cell_length_c       10.4841
_cell_angle_alpha    89.9302
_cell_angle_beta     90.4873
_cell_angle_gamma    89.8837

_symmetry_space_group_name_H-M    "P 1"
_symmetry_int_tables_number       1

loop_
  _symmetry_equiv_pos_as_xyz
  'x, y, z'

loop_
  _atom_site_label
  _atom_site_occupancy
  _atom_site_fract_x
  _atom_site_fract_y
  _atom_site_fract_z
  _atom_site_thermal_displace_type
  _atom_site_B_iso_or_equiv
  _atom_site_type_symbol
  Hf1      1.0000 0.14028  0.04116  0.17050  Biso   1.000  Hf
  Hf2      1.0000 0.13645  0.45837  0.42288  Biso   1.000  Hf
  Hf3      1.0000 0.34938  0.53899  0.17693  Biso   1.000  Hf
  Hf4      1.0000 0.36002  0.95654  0.42522  Biso   1.000  Hf
  Hf5      1.0000 0.64189  0.07368  0.06452  Biso   1.000  Hf
  Hf6      1.0000 0.63360  0.45599  0.35177  Biso   1.000  Hf
  Hf7      1.0000 0.87600  0.54869  0.07299  Biso   1.000  Hf
  Hf8      1.0000 0.86553  0.95719  0.33212  Biso   1.000  Hf
  O1       1.0000 0.03919  0.32519  0.07917  Biso   1.000  O
  O2       1.0000 0.02781  0.18243  0.32850  Biso   1.000  O
  O3       1.0000 0.46256  0.82998  0.07791  Biso   1.000  O
  O4       1.0000 0.45974  0.66056  0.34043  Biso   1.000  O
  O5       1.0000 0.26897  0.24819  0.29808  Biso   1.000  O
  O6       1.0000 0.27779  0.24571  0.04155  Biso   1.000  O
  O7       1.0000 0.21945  0.75182  0.29824  Biso   1.000  O
  O8       1.0000 0.22132  0.74936  0.04325  Biso   1.000  O
  O9       1.0000 0.50401  0.27708  0.17522  Biso   1.000  O
  O10      1.0000 0.53304  0.15703  0.42331  Biso   1.000  O
  O11      1.0000 0.97285  0.83060  0.16998  Biso   1.000  O
  O12      1.0000 0.96511  0.67370  0.41920  Biso   1.000  O
  O13      1.0000 0.78058  0.23524  0.45919  Biso   1.000  O
  O14      1.0000 0.75614  0.31210  0.20092  Biso   1.000  O
  O15      1.0000 0.72408  0.74175  0.46248  Biso   1.000  O
  O16      1.0000 0.73047  0.80587  0.20460  Biso   1.000  O
  Hf9      1.0000 0.13996  0.03808  0.66931  Biso   1.000  Hf
  Hf10     1.0000 0.14449  0.45244  0.91800  Biso   1.000  Hf
  Hf11     1.0000 0.36569  0.53551  0.67110  Biso   1.000  Hf
  Hf12     1.0000 0.36002  0.95203  0.91519  Biso   1.000  Hf
  Hf13     1.0000 0.64020  0.03692  0.58563  Biso   1.000  Hf
  Hf14     1.0000 0.64155  0.45264  0.83455  Biso   1.000  Hf
  Hf15     1.0000 0.86217  0.53706  0.58328  Biso   1.000  Hf
  Hf16     1.0000 0.86768  0.95698  0.82740  Biso   1.000  Hf
  O17      1.0000 0.03382  0.32850  0.58238  Biso   1.000  O
  O18      1.0000 0.03921  0.16546  0.82998  Biso   1.000  O
  O19      1.0000 0.46625  0.83425  0.58984  Biso   1.000  O
  O20      1.0000 0.46444  0.64869  0.83779  Biso   1.000  O
  O21      1.0000 0.27877  0.24306  0.79169  Biso   1.000  O
  O22      1.0000 0.27473  0.24923  0.54464  Biso   1.000  O
  O23      1.0000 0.22653  0.74403  0.79239  Biso   1.000  O
  O24      1.0000 0.22572  0.74775  0.54505  Biso   1.000  O
  O25      1.0000 0.53797  0.33775  0.66287  Biso   1.000  O
  O26      1.0000 0.53789  0.13365  0.89623  Biso   1.000  O
  O27      1.0000 0.96959  0.82879  0.66339  Biso   1.000  O
  O28      1.0000 0.97493  0.66808  0.91176  Biso   1.000  O
  O29      1.0000 0.79602  0.23992  0.94778  Biso   1.000  O
  O30      1.0000 0.77872  0.24685  0.70525  Biso   1.000  O
  O31      1.0000 0.73021  0.75369  0.96038  Biso   1.000  O
  O32      1.0000 0.72775  0.74681  0.71089  Biso   1.000  O
  W1       1.0000 0.60826  0.56520  0.10955  Biso   1.000  W
