data_image0
_cell_length_a       10.2702
_cell_length_b       10.2632
_cell_length_c       5.30186
_cell_angle_alpha    89.9601
_cell_angle_beta     78.743
_cell_angle_gamma    90.4391

_symmetry_space_group_name_H-M    "P 1"
_symmetry_int_tables_number       1

loop_
  _symmetry_equiv_pos_as_xyz
  'x, y, z'

loop_
  _atom_site_label
  _atom_site_occupancy
  _atom_site_fract_x
  _atom_site_fract_y
  _atom_site_fract_z
  _atom_site_thermal_displace_type
  _atom_site_B_iso_or_equiv
  _atom_site_type_symbol
  Hf1      1.0000 0.13750  0.02127  0.29110  Biso   1.000  Hf
  Hf2      1.0000 0.12737  0.22931  0.78603  Biso   1.000  Hf
  Hf3      1.0000 0.36738  0.27415  0.22093  Biso   1.000  Hf
  Hf4      1.0000 0.35650  0.49671  0.69747  Biso   1.000  Hf
  O1       1.0000 0.03377  0.16287  0.14308  Biso   1.000  O
  O2       1.0000 0.02827  0.08640  0.63710  Biso   1.000  O
  O3       1.0000 0.48334  0.38576  0.41989  Biso   1.000  O
  O4       1.0000 0.48784  0.38107  0.91439  Biso   1.000  O
  O5       1.0000 0.27755  0.12569  0.50276  Biso   1.000  O
  O6       1.0000 0.28287  0.11460  0.98927  Biso   1.000  O
  O7       1.0000 0.24207  0.36723  0.97555  Biso   1.000  O
  O8       1.0000 0.21136  0.37893  0.48878  Biso   1.000  O
  Hf5      1.0000 0.13560  0.52103  0.28488  Biso   1.000  Hf
  Hf6      1.0000 0.13023  0.72922  0.79080  Biso   1.000  Hf
  Hf7      1.0000 0.36067  0.77109  0.20462  Biso   1.000  Hf
  Hf8      1.0000 0.35906  0.96630  0.70717  Biso   1.000  Hf
  O9       1.0000 0.02334  0.65993  0.13813  Biso   1.000  O
  O10      1.0000 0.02898  0.59120  0.63238  Biso   1.000  O
  O11      1.0000 0.46923  0.90500  0.35579  Biso   1.000  O
  O12      1.0000 0.46959  0.83810  0.85853  Biso   1.000  O
  O13      1.0000 0.27077  0.63044  0.47658  Biso   1.000  O
  O14      1.0000 0.26650  0.62551  0.98403  Biso   1.000  O
  O15      1.0000 0.22162  0.87427  0.01853  Biso   1.000  O
  O16      1.0000 0.22108  0.87122  0.51500  Biso   1.000  O
  Hf9      1.0000 0.64139  0.01998  0.29062  Biso   1.000  Hf
  Hf10     1.0000 0.63748  0.23382  0.81221  Biso   1.000  Hf
  Hf11     1.0000 0.85958  0.27071  0.21421  Biso   1.000  Hf
  Hf12     1.0000 0.85986  0.47821  0.70642  Biso   1.000  Hf
  O17      1.0000 0.53641  0.15983  0.16467  Biso   1.000  O
  O18      1.0000 0.52967  0.08587  0.64743  Biso   1.000  O
  O19      1.0000 0.96706  0.41228  0.34299  Biso   1.000  O
  O20      1.0000 0.96608  0.34101  0.84741  Biso   1.000  O
  O21      1.0000 0.77421  0.12711  0.48195  Biso   1.000  O
  O22      1.0000 0.77918  0.11916  0.98319  Biso   1.000  O
  O23      1.0000 0.72976  0.37691  0.03253  Biso   1.000  O
  O24      1.0000 0.72733  0.37375  0.52849  Biso   1.000  O
  Hf13     1.0000 0.63732  0.52079  0.29571  Biso   1.000  Hf
  Hf14     1.0000 0.63803  0.72632  0.79222  Biso   1.000  Hf
  Hf15     1.0000 0.85912  0.77223  0.20422  Biso   1.000  Hf
  Hf16     1.0000 0.85712  0.97902  0.70426  Biso   1.000  Hf
  O25      1.0000 0.52456  0.65025  0.13810  Biso   1.000  O
  O26      1.0000 0.52727  0.60371  0.62725  Biso   1.000  O
  O27      1.0000 0.96735  0.91257  0.34188  Biso   1.000  O
  O28      1.0000 0.96438  0.83915  0.84476  Biso   1.000  O
  O29      1.0000 0.77281  0.62682  0.47456  Biso   1.000  O
  O30      1.0000 0.77177  0.62133  0.97524  Biso   1.000  O
  O31      1.0000 0.72223  0.87571  0.01985  Biso   1.000  O
  O32      1.0000 0.72382  0.87114  0.52058  Biso   1.000  O
  W1       1.0000 0.39505  0.24500  0.72642  Biso   1.000  W
