data_image0
_cell_length_a       10.1853
_cell_length_b       5.22111
_cell_length_c       10.5541
_cell_angle_alpha    89.835
_cell_angle_beta     90.4784
_cell_angle_gamma    89.9171

_symmetry_space_group_name_H-M    "P 1"
_symmetry_int_tables_number       1

loop_
  _symmetry_equiv_pos_as_xyz
  'x, y, z'

loop_
  _atom_site_label
  _atom_site_occupancy
  _atom_site_fract_x
  _atom_site_fract_y
  _atom_site_fract_z
  _atom_site_thermal_displace_type
  _atom_site_B_iso_or_equiv
  _atom_site_type_symbol
  Zr1      1.0000 0.13990  0.04149  0.17045  Biso   1.000  Zr
  Zr2      1.0000 0.13659  0.45883  0.42273  Biso   1.000  Zr
  Zr3      1.0000 0.34902  0.53965  0.17671  Biso   1.000  Zr
  Zr4      1.0000 0.36065  0.95731  0.42473  Biso   1.000  Zr
  Zr5      1.0000 0.64188  0.06984  0.06473  Biso   1.000  Zr
  Zr6      1.0000 0.63465  0.46025  0.35166  Biso   1.000  Zr
  Zr7      1.0000 0.87600  0.54811  0.07457  Biso   1.000  Zr
  Zr8      1.0000 0.86513  0.95837  0.33274  Biso   1.000  Zr
  O1       1.0000 0.03822  0.32266  0.07811  Biso   1.000  O
  O2       1.0000 0.02639  0.18559  0.32768  Biso   1.000  O
  O3       1.0000 0.46530  0.82216  0.07592  Biso   1.000  O
  O4       1.0000 0.46053  0.66504  0.33815  Biso   1.000  O
  O5       1.0000 0.26800  0.24899  0.29798  Biso   1.000  O
  O6       1.0000 0.27656  0.24476  0.04151  Biso   1.000  O
  O7       1.0000 0.21970  0.75259  0.29839  Biso   1.000  O
  O8       1.0000 0.22204  0.74903  0.04344  Biso   1.000  O
  O9       1.0000 0.50307  0.27772  0.17266  Biso   1.000  O
  O10      1.0000 0.53264  0.16156  0.42397  Biso   1.000  O
  O11      1.0000 0.97265  0.83069  0.17090  Biso   1.000  O
  O12      1.0000 0.96625  0.67730  0.42014  Biso   1.000  O
  O13      1.0000 0.78058  0.23788  0.45909  Biso   1.000  O
  O14      1.0000 0.75342  0.30786  0.19998  Biso   1.000  O
  O15      1.0000 0.72567  0.74453  0.46365  Biso   1.000  O
  O16      1.0000 0.72971  0.79555  0.20683  Biso   1.000  O
  Zr9      1.0000 0.14032  0.03862  0.66907  Biso   1.000  Zr
  Zr10     1.0000 0.14431  0.45213  0.91783  Biso   1.000  Zr
  Zr11     1.0000 0.36586  0.53623  0.67084  Biso   1.000  Zr
  Zr12     1.0000 0.35985  0.95166  0.91502  Biso   1.000  Zr
  Zr13     1.0000 0.64065  0.03833  0.58542  Biso   1.000  Zr
  Zr14     1.0000 0.64193  0.45181  0.83369  Biso   1.000  Zr
  Zr15     1.0000 0.86271  0.53809  0.58393  Biso   1.000  Zr
  Zr16     1.0000 0.86766  0.95678  0.82825  Biso   1.000  Zr
  O17      1.0000 0.03336  0.32740  0.58149  Biso   1.000  O
  O18      1.0000 0.03824  0.16822  0.82890  Biso   1.000  O
  O19      1.0000 0.46772  0.83218  0.58836  Biso   1.000  O
  O20      1.0000 0.46538  0.65118  0.83675  Biso   1.000  O
  O21      1.0000 0.27814  0.24344  0.79177  Biso   1.000  O
  O22      1.0000 0.27422  0.24906  0.54463  Biso   1.000  O
  O23      1.0000 0.22725  0.74472  0.79254  Biso   1.000  O
  O24      1.0000 0.22689  0.74772  0.54517  Biso   1.000  O
  O25      1.0000 0.53733  0.33643  0.66344  Biso   1.000  O
  O26      1.0000 0.53691  0.13628  0.89753  Biso   1.000  O
  O27      1.0000 0.97070  0.82737  0.66484  Biso   1.000  O
  O28      1.0000 0.97522  0.67026  0.91352  Biso   1.000  O
  O29      1.0000 0.79467  0.23958  0.94701  Biso   1.000  O
  O30      1.0000 0.77827  0.24663  0.70488  Biso   1.000  O
  O31      1.0000 0.72876  0.74962  0.96256  Biso   1.000  O
  O32      1.0000 0.72899  0.74746  0.71155  Biso   1.000  O
  W1       1.0000 0.60886  0.56141  0.10960  Biso   1.000  W
