data_image0
_cell_length_a       10.1248
_cell_length_b       5.13121
_cell_length_c       10.1248
_cell_angle_alpha    90
_cell_angle_beta     90.0002
_cell_angle_gamma    90

_symmetry_space_group_name_H-M    "P 1"
_symmetry_int_tables_number       1

loop_
  _symmetry_equiv_pos_as_xyz
  'x, y, z'

loop_
  _atom_site_label
  _atom_site_occupancy
  _atom_site_fract_x
  _atom_site_fract_y
  _atom_site_fract_z
  _atom_site_thermal_displace_type
  _atom_site_B_iso_or_equiv
  _atom_site_type_symbol
  Zr1      1.0000 0.12540  0.00018  0.12540  Biso   1.000  Zr
  Zr2      1.0000 0.12539  0.50015  0.39729  Biso   1.000  Zr
  Zr3      1.0000 0.39729  0.50015  0.12540  Biso   1.000  Zr
  Zr4      1.0000 0.37656  0.00247  0.37656  Biso   1.000  Zr
  O1       1.0000 0.00103  0.27214  0.00103  Biso   1.000  O
  O2       1.0000 0.00621  0.24801  0.24458  Biso   1.000  O
  O3       1.0000 0.00103  0.72822  0.24977  Biso   1.000  O
  O4       1.0000 0.00621  0.75235  0.00621  Biso   1.000  O
  O5       1.0000 0.24976  0.27214  0.24977  Biso   1.000  O
  O6       1.0000 0.24458  0.24801  0.00621  Biso   1.000  O
  O7       1.0000 0.24976  0.72822  0.00103  Biso   1.000  O
  O8       1.0000 0.24458  0.75235  0.24458  Biso   1.000  O
  Zr5      1.0000 0.12540  0.00015  0.62540  Biso   1.000  Zr
  Zr6      1.0000 0.12540  0.50015  0.85350  Biso   1.000  Zr
  Zr7      1.0000 0.37459  0.50014  0.62540  Biso   1.000  Zr
  Zr8      1.0000 0.37656  0.99780  0.87423  Biso   1.000  Zr
  O9       1.0000 0.98741  0.26833  0.49577  Biso   1.000  O
  O10      1.0000 0.00562  0.21982  0.74891  Biso   1.000  O
  O11      1.0000 0.98741  0.73195  0.75502  Biso   1.000  O
  O12      1.0000 0.00562  0.78046  0.50188  Biso   1.000  O
  O13      1.0000 0.26338  0.26833  0.75502  Biso   1.000  O
  O14      1.0000 0.24517  0.21982  0.50188  Biso   1.000  O
  O15      1.0000 0.26338  0.73195  0.49577  Biso   1.000  O
  O16      1.0000 0.24517  0.78046  0.74891  Biso   1.000  O
  Zr9      1.0000 0.62540  0.00015  0.12540  Biso   1.000  Zr
  Zr10     1.0000 0.62540  0.50014  0.37459  Biso   1.000  Zr
  Zr11     1.0000 0.85350  0.50015  0.12540  Biso   1.000  Zr
  Zr12     1.0000 0.87423  0.99780  0.37656  Biso   1.000  Zr
  O17      1.0000 0.49577  0.26833  0.98741  Biso   1.000  O
  O18      1.0000 0.50187  0.21982  0.24517  Biso   1.000  O
  O19      1.0000 0.49577  0.73195  0.26338  Biso   1.000  O
  O20      1.0000 0.50188  0.78046  0.00562  Biso   1.000  O
  O21      1.0000 0.75502  0.26833  0.26338  Biso   1.000  O
  O22      1.0000 0.74892  0.21982  0.00562  Biso   1.000  O
  O23      1.0000 0.75502  0.73195  0.98741  Biso   1.000  O
  O24      1.0000 0.74891  0.78046  0.24517  Biso   1.000  O
  Zr13     1.0000 0.62540  0.00015  0.62540  Biso   1.000  Zr
  Zr14     1.0000 0.62540  0.50014  0.87620  Biso   1.000  Zr
  Zr15     1.0000 0.87620  0.50014  0.62539  Biso   1.000  Zr
  Zr16     1.0000 0.87423  0.00247  0.87423  Biso   1.000  Zr
  O25      1.0000 0.48971  0.28534  0.48970  Biso   1.000  O
  O26      1.0000 0.50690  0.21655  0.74389  Biso   1.000  O
  O27      1.0000 0.48971  0.71495  0.76109  Biso   1.000  O
  O28      1.0000 0.50690  0.78374  0.50690  Biso   1.000  O
  O29      1.0000 0.76108  0.28535  0.76109  Biso   1.000  O
  O30      1.0000 0.74389  0.21655  0.50690  Biso   1.000  O
  O31      1.0000 0.76109  0.71495  0.48970  Biso   1.000  O
  O32      1.0000 0.74389  0.78375  0.74389  Biso   1.000  O
  W1       1.0000 0.12540  0.50018  0.12540  Biso   1.000  W
