data_image0
_cell_length_a       10.1682
_cell_length_b       10.3358
_cell_length_c       10.4969
_cell_angle_alpha    89.9762
_cell_angle_beta     80.2165
_cell_angle_gamma    89.8808

_symmetry_space_group_name_H-M    "P 1"
_symmetry_int_tables_number       1

loop_
  _symmetry_equiv_pos_as_xyz
  'x, y, z'

loop_
  _atom_site_label
  _atom_site_occupancy
  _atom_site_fract_x
  _atom_site_fract_y
  _atom_site_fract_z
  _atom_site_thermal_displace_type
  _atom_site_B_iso_or_equiv
  _atom_site_type_symbol
  W1       1.0000 0.14064  0.02254  0.14764  Biso   1.000  W
  Zr1      1.0000 0.14003  0.22924  0.39467  Biso   1.000  Zr
  Zr2      1.0000 0.36111  0.27159  0.10501  Biso   1.000  Zr
  Zr3      1.0000 0.36180  0.47958  0.35450  Biso   1.000  Zr
  O1       1.0000 0.03836  0.16292  0.08217  Biso   1.000  O
  O2       1.0000 0.04292  0.07715  0.32125  Biso   1.000  O
  O3       1.0000 0.46412  0.42057  0.16877  Biso   1.000  O
  O4       1.0000 0.46455  0.33103  0.41948  Biso   1.000  O
  O5       1.0000 0.27585  0.12546  0.23887  Biso   1.000  O
  O6       1.0000 0.27748  0.12179  0.49078  Biso   1.000  O
  O7       1.0000 0.22347  0.37826  0.00984  Biso   1.000  O
  O8       1.0000 0.22549  0.37063  0.25966  Biso   1.000  O
  Zr4      1.0000 0.13875  0.02102  0.64490  Biso   1.000  Zr
  Zr5      1.0000 0.13881  0.22729  0.89543  Biso   1.000  Zr
  Zr6      1.0000 0.36131  0.27178  0.60466  Biso   1.000  Zr
  Zr7      1.0000 0.36032  0.47879  0.85506  Biso   1.000  Zr
  O9       1.0000 0.03438  0.16618  0.57608  Biso   1.000  O
  O10      1.0000 0.03417  0.08185  0.82793  Biso   1.000  O
  O11      1.0000 0.46426  0.41998  0.66971  Biso   1.000  O
  O12      1.0000 0.46280  0.32900  0.91942  Biso   1.000  O
  O13      1.0000 0.27610  0.12878  0.74156  Biso   1.000  O
  O14      1.0000 0.27213  0.11852  0.99586  Biso   1.000  O
  O15      1.0000 0.22347  0.37876  0.50908  Biso   1.000  O
  O16      1.0000 0.22363  0.37074  0.75959  Biso   1.000  O
  Zr8      1.0000 0.13927  0.52147  0.14548  Biso   1.000  Zr
  Zr9      1.0000 0.13886  0.72897  0.39521  Biso   1.000  Zr
  Zr10     1.0000 0.35701  0.77664  0.10517  Biso   1.000  Zr
  Zr11     1.0000 0.36115  0.97830  0.35432  Biso   1.000  Zr
  O17      1.0000 0.03518  0.66710  0.07972  Biso   1.000  O
  O18      1.0000 0.03550  0.58023  0.33063  Biso   1.000  O
  O19      1.0000 0.46568  0.91913  0.17187  Biso   1.000  O
  O20      1.0000 0.46567  0.83082  0.42004  Biso   1.000  O
  O21      1.0000 0.27519  0.63158  0.24085  Biso   1.000  O
  O22      1.0000 0.27671  0.62133  0.49083  Biso   1.000  O
  O23      1.0000 0.21240  0.88224  0.01088  Biso   1.000  O
  O24      1.0000 0.21793  0.87574  0.25827  Biso   1.000  O
  Zr12     1.0000 0.13879  0.52140  0.64546  Biso   1.000  Zr
  Zr13     1.0000 0.13872  0.72861  0.89555  Biso   1.000  Zr
  Zr14     1.0000 0.36152  0.77129  0.60477  Biso   1.000  Zr
  Zr15     1.0000 0.35945  0.97920  0.85534  Biso   1.000  Zr
  O25      1.0000 0.03510  0.66868  0.57958  Biso   1.000  O
  O26      1.0000 0.03477  0.58058  0.82994  Biso   1.000  O
  O27      1.0000 0.46395  0.91975  0.67031  Biso   1.000  O
  O28      1.0000 0.46066  0.83164  0.92098  Biso   1.000  O
  O29      1.0000 0.27593  0.62864  0.74059  Biso   1.000  O
  O30      1.0000 0.27603  0.62186  0.99098  Biso   1.000  O
  O31      1.0000 0.22453  0.87835  0.50906  Biso   1.000  O
  O32      1.0000 0.22380  0.87112  0.75924  Biso   1.000  O
  Zr16     1.0000 0.63914  0.02190  0.14585  Biso   1.000  Zr
  Zr17     1.0000 0.63955  0.22883  0.39512  Biso   1.000  Zr
  Zr18     1.0000 0.86238  0.27056  0.10497  Biso   1.000  Zr
  Zr19     1.0000 0.86110  0.47862  0.35398  Biso   1.000  Zr
  O33      1.0000 0.53574  0.16997  0.08093  Biso   1.000  O
  O34      1.0000 0.53630  0.08126  0.33099  Biso   1.000  O
  O35      1.0000 0.96578  0.41772  0.16984  Biso   1.000  O
  O36      1.0000 0.96387  0.32866  0.41812  Biso   1.000  O
  O37      1.0000 0.77812  0.12845  0.24068  Biso   1.000  O
  O38      1.0000 0.77776  0.12020  0.48962  Biso   1.000  O
  O39      1.0000 0.72415  0.37902  0.00957  Biso   1.000  O
  O40      1.0000 0.72423  0.37087  0.25883  Biso   1.000  O
  Zr20     1.0000 0.63835  0.02120  0.64561  Biso   1.000  Zr
  Zr21     1.0000 0.63880  0.22864  0.89548  Biso   1.000  Zr
  Zr22     1.0000 0.86088  0.27107  0.60417  Biso   1.000  Zr
  Zr23     1.0000 0.86089  0.47835  0.85513  Biso   1.000  Zr
  O41      1.0000 0.53663  0.17039  0.58080  Biso   1.000  O
  O42      1.0000 0.53433  0.08061  0.83126  Biso   1.000  O
  O43      1.0000 0.96509  0.41734  0.67016  Biso   1.000  O
  O44      1.0000 0.96525  0.32956  0.92145  Biso   1.000  O
  O45      1.0000 0.77528  0.12879  0.74023  Biso   1.000  O
  O46      1.0000 0.77592  0.12142  0.99033  Biso   1.000  O
  O47      1.0000 0.72421  0.37895  0.50956  Biso   1.000  O
  O48      1.0000 0.72380  0.37121  0.75974  Biso   1.000  O
  Zr24     1.0000 0.63847  0.52310  0.14486  Biso   1.000  Zr
  Zr25     1.0000 0.64003  0.72882  0.39531  Biso   1.000  Zr
  Zr26     1.0000 0.86333  0.77305  0.10384  Biso   1.000  Zr
  Zr27     1.0000 0.86207  0.97871  0.35364  Biso   1.000  Zr
  O49      1.0000 0.53322  0.67129  0.08146  Biso   1.000  O
  O50      1.0000 0.53626  0.58069  0.33081  Biso   1.000  O
  O51      1.0000 0.97539  0.91860  0.16660  Biso   1.000  O
  O52      1.0000 0.96499  0.83216  0.41984  Biso   1.000  O
  O53      1.0000 0.77654  0.62948  0.24022  Biso   1.000  O
  O54      1.0000 0.77674  0.62112  0.49076  Biso   1.000  O
  O55      1.0000 0.72223  0.87939  0.00967  Biso   1.000  O
  O56      1.0000 0.72914  0.87241  0.25917  Biso   1.000  O
  Zr28     1.0000 0.63898  0.52147  0.64597  Biso   1.000  Zr
  Zr29     1.0000 0.63722  0.72895  0.89705  Biso   1.000  Zr
  Zr30     1.0000 0.86050  0.77126  0.60508  Biso   1.000  Zr
  Zr31     1.0000 0.86044  0.97840  0.85464  Biso   1.000  Zr
  O57      1.0000 0.53652  0.66984  0.58059  Biso   1.000  O
  O58      1.0000 0.53486  0.58065  0.83126  Biso   1.000  O
  O59      1.0000 0.96454  0.91846  0.66961  Biso   1.000  O
  O60      1.0000 0.96307  0.82980  0.91892  Biso   1.000  O
  O61      1.0000 0.77571  0.62873  0.74140  Biso   1.000  O
  O62      1.0000 0.77541  0.62175  0.99084  Biso   1.000  O
  O63      1.0000 0.72419  0.87905  0.50922  Biso   1.000  O
  O64      1.0000 0.72289  0.87112  0.75981  Biso   1.000  O
