data_image0
_cell_length_a       10.1665
_cell_length_b       10.3209
_cell_length_c       5.24037
_cell_angle_alpha    89.9536
_cell_angle_beta     79.9634
_cell_angle_gamma    89.8839

_symmetry_space_group_name_H-M    "P 1"
_symmetry_int_tables_number       1

loop_
  _symmetry_equiv_pos_as_xyz
  'x, y, z'

loop_
  _atom_site_label
  _atom_site_occupancy
  _atom_site_fract_x
  _atom_site_fract_y
  _atom_site_fract_z
  _atom_site_thermal_displace_type
  _atom_site_B_iso_or_equiv
  _atom_site_type_symbol
  W1       1.0000 0.13936  0.02368  0.29290  Biso   1.000  W
  Zr1      1.0000 0.13962  0.22725  0.78914  Biso   1.000  Zr
  Zr2      1.0000 0.36023  0.27162  0.21159  Biso   1.000  Zr
  Zr3      1.0000 0.36080  0.47915  0.71045  Biso   1.000  Zr
  O1       1.0000 0.03684  0.16311  0.15801  Biso   1.000  O
  O2       1.0000 0.04263  0.07565  0.63950  Biso   1.000  O
  O3       1.0000 0.46376  0.42102  0.33793  Biso   1.000  O
  O4       1.0000 0.46251  0.32870  0.83883  Biso   1.000  O
  O5       1.0000 0.27714  0.12444  0.48277  Biso   1.000  O
  O6       1.0000 0.27340  0.11919  0.99521  Biso   1.000  O
  O7       1.0000 0.22281  0.37793  0.01914  Biso   1.000  O
  O8       1.0000 0.22451  0.37083  0.51957  Biso   1.000  O
  Zr4      1.0000 0.13919  0.52167  0.29081  Biso   1.000  Zr
  Zr5      1.0000 0.13854  0.72957  0.79037  Biso   1.000  Zr
  Zr6      1.0000 0.35875  0.77530  0.21151  Biso   1.000  Zr
  Zr7      1.0000 0.35953  0.97874  0.71186  Biso   1.000  Zr
  O9       1.0000 0.03495  0.66786  0.15875  Biso   1.000  O
  O10      1.0000 0.03531  0.58006  0.66146  Biso   1.000  O
  O11      1.0000 0.46519  0.91925  0.34432  Biso   1.000  O
  O12      1.0000 0.46217  0.83014  0.84085  Biso   1.000  O
  O13      1.0000 0.27539  0.63128  0.48234  Biso   1.000  O
  O14      1.0000 0.27630  0.62228  0.98220  Biso   1.000  O
  O15      1.0000 0.21690  0.88154  0.02422  Biso   1.000  O
  O16      1.0000 0.21800  0.87638  0.51619  Biso   1.000  O
  Zr8      1.0000 0.63857  0.02191  0.29200  Biso   1.000  Zr
  Zr9      1.0000 0.63900  0.22894  0.79104  Biso   1.000  Zr
  Zr10     1.0000 0.86201  0.27075  0.20784  Biso   1.000  Zr
  Zr11     1.0000 0.86094  0.47847  0.70845  Biso   1.000  Zr
  O17      1.0000 0.53641  0.17088  0.16415  Biso   1.000  O
  O18      1.0000 0.53543  0.08035  0.66499  Biso   1.000  O
  O19      1.0000 0.96568  0.41763  0.33873  Biso   1.000  O
  O20      1.0000 0.96432  0.32721  0.83712  Biso   1.000  O
  O21      1.0000 0.77751  0.12855  0.48082  Biso   1.000  O
  O22      1.0000 0.77710  0.12051  0.97857  Biso   1.000  O
  O23      1.0000 0.72406  0.37903  0.01845  Biso   1.000  O
  O24      1.0000 0.72391  0.37103  0.51766  Biso   1.000  O
  Zr12     1.0000 0.63875  0.52254  0.29120  Biso   1.000  Zr
  Zr13     1.0000 0.63845  0.72876  0.79326  Biso   1.000  Zr
  Zr14     1.0000 0.86262  0.77295  0.20742  Biso   1.000  Zr
  Zr15     1.0000 0.86064  0.97861  0.70670  Biso   1.000  Zr
  O25      1.0000 0.53471  0.67129  0.16392  Biso   1.000  O
  O26      1.0000 0.53582  0.57971  0.66437  Biso   1.000  O
  O27      1.0000 0.97367  0.92037  0.32799  Biso   1.000  O
  O28      1.0000 0.96351  0.83084  0.83526  Biso   1.000  O
  O29      1.0000 0.77627  0.62945  0.48200  Biso   1.000  O
  O30      1.0000 0.77630  0.62178  0.98201  Biso   1.000  O
  O31      1.0000 0.72263  0.87948  0.01801  Biso   1.000  O
  O32      1.0000 0.72785  0.87230  0.51810  Biso   1.000  O
