data_image0
_cell_length_a       10.0525
_cell_length_b       10.1665
_cell_length_c       5.02751
_cell_angle_alpha    90.0001
_cell_angle_beta     89.9999
_cell_angle_gamma    90

_symmetry_space_group_name_H-M    "P 1"
_symmetry_int_tables_number       1

loop_
  _symmetry_equiv_pos_as_xyz
  'x, y, z'

loop_
  _atom_site_label
  _atom_site_occupancy
  _atom_site_fract_x
  _atom_site_fract_y
  _atom_site_fract_z
  _atom_site_thermal_displace_type
  _atom_site_B_iso_or_equiv
  _atom_site_type_symbol
  W1       1.0000 0.12540  0.00008  0.25079  Biso   1.000  W
  Zr1      1.0000 0.12540  0.24901  0.75079  Biso   1.000  Zr
  Zr2      1.0000 0.37480  0.24940  0.25307  Biso   1.000  Zr
  Zr3      1.0000 0.37518  0.00007  0.75079  Biso   1.000  Zr
  O1       1.0000 0.99540  0.14254  0.99072  Biso   1.000  O
  O2       1.0000 0.00855  0.10154  0.49005  Biso   1.000  O
  O3       1.0000 0.99647  0.35361  0.50709  Biso   1.000  O
  O4       1.0000 0.00293  0.39463  0.00376  Biso   1.000  O
  O5       1.0000 0.25540  0.14254  0.51087  Biso   1.000  O
  O6       1.0000 0.24224  0.10154  0.01154  Biso   1.000  O
  O7       1.0000 0.25432  0.35361  0.99449  Biso   1.000  O
  O8       1.0000 0.24786  0.39462  0.49782  Biso   1.000  O
  Zr4      1.0000 0.12540  0.50008  0.25080  Biso   1.000  Zr
  Zr5      1.0000 0.12540  0.75114  0.75079  Biso   1.000  Zr
  Zr6      1.0000 0.37480  0.75075  0.24852  Biso   1.000  Zr
  Zr7      1.0000 0.37605  0.50008  0.75079  Biso   1.000  Zr
  O9       1.0000 0.99647  0.64654  0.99449  Biso   1.000  O
  O10      1.0000 0.00293  0.60553  0.49783  Biso   1.000  O
  O11      1.0000 0.99540  0.85761  0.51087  Biso   1.000  O
  O12      1.0000 0.00855  0.89861  0.01154  Biso   1.000  O
  O13      1.0000 0.25432  0.64654  0.50709  Biso   1.000  O
  O14      1.0000 0.24786  0.60553  0.00376  Biso   1.000  O
  O15      1.0000 0.25539  0.85761  0.99071  Biso   1.000  O
  O16      1.0000 0.24224  0.89861  0.49004  Biso   1.000  O
  Zr8      1.0000 0.62540  0.00008  0.25080  Biso   1.000  Zr
  Zr9      1.0000 0.62540  0.25005  0.75079  Biso   1.000  Zr
  Zr10     1.0000 0.87600  0.24940  0.24852  Biso   1.000  Zr
  Zr11     1.0000 0.87561  0.00008  0.75079  Biso   1.000  Zr
  O17      1.0000 0.49220  0.14461  0.98933  Biso   1.000  O
  O18      1.0000 0.50525  0.10668  0.49553  Biso   1.000  O
  O19      1.0000 0.49673  0.35566  0.50539  Biso   1.000  O
  O20      1.0000 0.50336  0.39436  0.00235  Biso   1.000  O
  O21      1.0000 0.75860  0.14461  0.51225  Biso   1.000  O
  O22      1.0000 0.74554  0.10668  0.00606  Biso   1.000  O
  O23      1.0000 0.75406  0.35566  0.99620  Biso   1.000  O
  O24      1.0000 0.74743  0.39436  0.49923  Biso   1.000  O
  Zr12     1.0000 0.62540  0.50008  0.25079  Biso   1.000  Zr
  Zr13     1.0000 0.62540  0.75010  0.75079  Biso   1.000  Zr
  Zr14     1.0000 0.87600  0.75075  0.25306  Biso   1.000  Zr
  Zr15     1.0000 0.87474  0.50007  0.75079  Biso   1.000  Zr
  O25      1.0000 0.49673  0.64449  0.99620  Biso   1.000  O
  O26      1.0000 0.50336  0.60579  0.49923  Biso   1.000  O
  O27      1.0000 0.49220  0.85554  0.51225  Biso   1.000  O
  O28      1.0000 0.50525  0.89348  0.00605  Biso   1.000  O
  O29      1.0000 0.75407  0.64449  0.50538  Biso   1.000  O
  O30      1.0000 0.74743  0.60579  0.00235  Biso   1.000  O
  O31      1.0000 0.75860  0.85554  0.98933  Biso   1.000  O
  O32      1.0000 0.74554  0.89347  0.49553  Biso   1.000  O
