data_image0
_cell_length_a       10.1649
_cell_length_b       10.3023
_cell_length_c       5.33692
_cell_angle_alpha    90.037
_cell_angle_beta     91.4718
_cell_angle_gamma    90.5354

_symmetry_space_group_name_H-M    "P 1"
_symmetry_int_tables_number       1

loop_
  _symmetry_equiv_pos_as_xyz
  'x, y, z'

loop_
  _atom_site_label
  _atom_site_occupancy
  _atom_site_fract_x
  _atom_site_fract_y
  _atom_site_fract_z
  _atom_site_thermal_displace_type
  _atom_site_B_iso_or_equiv
  _atom_site_type_symbol
  Zr1      1.0000 0.14191  0.02263  0.34307  Biso   1.000  Zr
  Zr2      1.0000 0.14225  0.22855  0.84233  Biso   1.000  Zr
  Zr3      1.0000 0.36470  0.26717  0.36103  Biso   1.000  Zr
  Zr4      1.0000 0.35741  0.48050  0.84328  Biso   1.000  Zr
  Zr5      1.0000 0.64429  0.00263  0.14932  Biso   1.000  Zr
  Zr6      1.0000 0.63423  0.22616  0.67464  Biso   1.000  Zr
  Zr7      1.0000 0.87386  0.26915  0.14518  Biso   1.000  Zr
  Zr8      1.0000 0.86285  0.47897  0.65445  Biso   1.000  Zr
  O1       1.0000 0.03249  0.15323  0.13831  Biso   1.000  O
  O2       1.0000 0.02837  0.09675  0.63597  Biso   1.000  O
  O3       1.0000 0.47326  0.40965  0.14953  Biso   1.000  O
  O4       1.0000 0.46554  0.34339  0.67396  Biso   1.000  O
  O5       1.0000 0.27148  0.12552  0.60236  Biso   1.000  O
  O6       1.0000 0.27385  0.12360  0.09726  Biso   1.000  O
  O7       1.0000 0.22131  0.37656  0.59458  Biso   1.000  O
  O8       1.0000 0.22481  0.37670  0.09319  Biso   1.000  O
  O9       1.0000 0.51442  0.12023  0.40846  Biso   1.000  O
  O10      1.0000 0.51574  0.11888  0.92202  Biso   1.000  O
  O11      1.0000 0.96741  0.41238  0.34094  Biso   1.000  O
  O12      1.0000 0.97102  0.34042  0.83316  Biso   1.000  O
  O13      1.0000 0.78378  0.11350  0.87819  Biso   1.000  O
  O14      1.0000 0.75913  0.13757  0.37522  Biso   1.000  O
  O15      1.0000 0.72398  0.37526  0.93762  Biso   1.000  O
  O16      1.0000 0.71479  0.38306  0.42667  Biso   1.000  O
  Zr9      1.0000 0.14036  0.51990  0.34104  Biso   1.000  Zr
  Zr10     1.0000 0.14053  0.72877  0.84070  Biso   1.000  Zr
  Zr11     1.0000 0.36176  0.77343  0.34791  Biso   1.000  Zr
  Zr12     1.0000 0.36425  0.97972  0.85303  Biso   1.000  Zr
  Zr13     1.0000 0.64031  0.53418  0.15161  Biso   1.000  Zr
  Zr14     1.0000 0.63980  0.72913  0.65214  Biso   1.000  Zr
  Zr15     1.0000 0.86913  0.76994  0.15454  Biso   1.000  Zr
  Zr16     1.0000 0.86772  0.97673  0.65199  Biso   1.000  Zr
  O17      1.0000 0.03302  0.65868  0.14973  Biso   1.000  O
  O18      1.0000 0.03024  0.59127  0.65065  Biso   1.000  O
  O19      1.0000 0.47470  0.89169  0.13320  Biso   1.000  O
  O20      1.0000 0.47802  0.85307  0.64181  Biso   1.000  O
  O21      1.0000 0.27405  0.62635  0.59027  Biso   1.000  O
  O22      1.0000 0.27480  0.62600  0.09181  Biso   1.000  O
  O23      1.0000 0.22821  0.87476  0.59387  Biso   1.000  O
  O24      1.0000 0.22781  0.87704  0.09220  Biso   1.000  O
  O25      1.0000 0.52706  0.65700  0.35501  Biso   1.000  O
  O26      1.0000 0.52698  0.59977  0.85108  Biso   1.000  O
  O27      1.0000 0.97433  0.90993  0.33616  Biso   1.000  O
  O28      1.0000 0.97437  0.84174  0.83983  Biso   1.000  O
  O29      1.0000 0.77756  0.62349  0.89864  Biso   1.000  O
  O30      1.0000 0.77781  0.62940  0.40222  Biso   1.000  O
  O31      1.0000 0.73153  0.86864  0.90715  Biso   1.000  O
  O32      1.0000 0.73399  0.87159  0.41146  Biso   1.000  O
  W1       1.0000 0.60752  0.25551  0.19176  Biso   1.000  W
