data_image0
_cell_length_a       10.0139
_cell_length_b       10.3905
_cell_length_c       5.02227
_cell_angle_alpha    89.7642
_cell_angle_beta     89.8535
_cell_angle_gamma    89.9874

_symmetry_space_group_name_H-M    "P 1"
_symmetry_int_tables_number       1

loop_
  _symmetry_equiv_pos_as_xyz
  'x, y, z'

loop_
  _atom_site_label
  _atom_site_occupancy
  _atom_site_fract_x
  _atom_site_fract_y
  _atom_site_fract_z
  _atom_site_thermal_displace_type
  _atom_site_B_iso_or_equiv
  _atom_site_type_symbol
  W1       1.0000 0.13535  0.02088  0.25716  Biso   1.000  W
  Zr1      1.0000 0.13350  0.23222  0.75656  Biso   1.000  Zr
  Zr2      1.0000 0.36686  0.26703  0.24962  Biso   1.000  Zr
  Zr3      1.0000 0.36593  0.48526  0.75087  Biso   1.000  Zr
  O1       1.0000 0.03472  0.17676  0.40806  Biso   1.000  O
  O2       1.0000 0.03396  0.06584  0.93676  Biso   1.000  O
  O3       1.0000 0.46361  0.43461  0.38638  Biso   1.000  O
  O4       1.0000 0.46323  0.31576  0.88570  Biso   1.000  O
  O5       1.0000 0.26999  0.11678  0.48554  Biso   1.000  O
  O6       1.0000 0.26947  0.12805  0.99568  Biso   1.000  O
  O7       1.0000 0.23042  0.38231  0.99952  Biso   1.000  O
  O8       1.0000 0.23044  0.36656  0.50082  Biso   1.000  O
  Zr4      1.0000 0.13404  0.51546  0.25246  Biso   1.000  Zr
  Zr5      1.0000 0.13332  0.73541  0.75028  Biso   1.000  Zr
  Zr6      1.0000 0.36507  0.76761  0.25095  Biso   1.000  Zr
  Zr7      1.0000 0.36445  0.98330  0.75161  Biso   1.000  Zr
  O9       1.0000 0.03569  0.68240  0.38658  Biso   1.000  O
  O10      1.0000 0.03545  0.56613  0.88925  Biso   1.000  O
  O11      1.0000 0.46502  0.93324  0.38961  Biso   1.000  O
  O12      1.0000 0.46103  0.81590  0.88658  Biso   1.000  O
  O13      1.0000 0.26982  0.61906  0.49817  Biso   1.000  O
  O14      1.0000 0.26947  0.63366  0.99790  Biso   1.000  O
  O15      1.0000 0.22164  0.88598  0.00186  Biso   1.000  O
  O16      1.0000 0.22673  0.87178  0.49154  Biso   1.000  O
  Zr8      1.0000 0.63435  0.01508  0.24740  Biso   1.000  Zr
  Zr9      1.0000 0.63346  0.23327  0.74983  Biso   1.000  Zr
  Zr10     1.0000 0.86557  0.26390  0.25223  Biso   1.000  Zr
  Zr11     1.0000 0.86616  0.48400  0.75116  Biso   1.000  Zr
  O17      1.0000 0.53605  0.18405  0.38611  Biso   1.000  O
  O18      1.0000 0.53451  0.06596  0.88711  Biso   1.000  O
  O19      1.0000 0.96576  0.43025  0.39233  Biso   1.000  O
  O20      1.0000 0.96564  0.31571  0.89528  Biso   1.000  O
  O21      1.0000 0.76906  0.11623  0.49532  Biso   1.000  O
  O22      1.0000 0.77038  0.13275  0.99404  Biso   1.000  O
  O23      1.0000 0.73044  0.38212  0.99883  Biso   1.000  O
  O24      1.0000 0.73046  0.36696  0.49788  Biso   1.000  O
  Zr12     1.0000 0.63431  0.51658  0.25040  Biso   1.000  Zr
  Zr13     1.0000 0.63451  0.73549  0.74752  Biso   1.000  Zr
  Zr14     1.0000 0.86826  0.76656  0.24560  Biso   1.000  Zr
  Zr15     1.0000 0.87187  0.98542  0.74570  Biso   1.000  Zr
  O25      1.0000 0.53560  0.68487  0.38678  Biso   1.000  O
  O26      1.0000 0.53633  0.56648  0.88597  Biso   1.000  O
  O27      1.0000 0.97261  0.93338  0.38095  Biso   1.000  O
  O28      1.0000 0.96181  0.81539  0.87968  Biso   1.000  O
  O29      1.0000 0.76984  0.61725  0.49704  Biso   1.000  O
  O30      1.0000 0.76946  0.63313  0.99655  Biso   1.000  O
  O31      1.0000 0.73006  0.88409  0.98951  Biso   1.000  O
  O32      1.0000 0.73453  0.86817  0.49204  Biso   1.000  O
