data_image0
_cell_length_a       10.1172
_cell_length_b       10.1358
_cell_length_c       5.13582
_cell_angle_alpha    89.9999
_cell_angle_beta     90.0002
_cell_angle_gamma    89.7634

_symmetry_space_group_name_H-M    "P 1"
_symmetry_int_tables_number       1

loop_
  _symmetry_equiv_pos_as_xyz
  'x, y, z'

loop_
  _atom_site_label
  _atom_site_occupancy
  _atom_site_fract_x
  _atom_site_fract_y
  _atom_site_fract_z
  _atom_site_thermal_displace_type
  _atom_site_B_iso_or_equiv
  _atom_site_type_symbol
  Zr1      1.0000 0.12480  0.98359  0.24831  Biso   1.000  Zr
  Zr2      1.0000 0.12540  0.25006  0.75586  Biso   1.000  Zr
  Zr3      1.0000 0.40212  0.25040  0.25390  Biso   1.000  Zr
  Zr4      1.0000 0.37555  0.99458  0.74890  Biso   1.000  Zr
  O1       1.0000 0.00689  0.13060  0.00195  Biso   1.000  O
  O2       1.0000 0.99990  0.12673  0.48037  Biso   1.000  O
  O3       1.0000 0.00774  0.37166  0.50875  Biso   1.000  O
  O4       1.0000 0.00155  0.37452  0.02941  Biso   1.000  O
  O5       1.0000 0.24306  0.12847  0.50875  Biso   1.000  O
  O6       1.0000 0.24925  0.12561  0.02940  Biso   1.000  O
  O7       1.0000 0.24390  0.36953  0.00195  Biso   1.000  O
  O8       1.0000 0.25090  0.37340  0.48037  Biso   1.000  O
  Zr5      1.0000 0.12599  0.51654  0.24831  Biso   1.000  Zr
  Zr6      1.0000 0.12540  0.75007  0.74759  Biso   1.000  Zr
  Zr7      1.0000 0.38195  0.74948  0.24659  Biso   1.000  Zr
  Zr8      1.0000 0.37717  0.50397  0.74310  Biso   1.000  Zr
  O9       1.0000 0.00702  0.62763  0.96923  Biso   1.000  O
  O10      1.0000 0.99237  0.62556  0.47104  Biso   1.000  O
  O11      1.0000 0.00664  0.87292  0.52659  Biso   1.000  O
  O12      1.0000 0.99203  0.87614  0.02397  Biso   1.000  O
  O13      1.0000 0.24416  0.62721  0.52659  Biso   1.000  O
  O14      1.0000 0.25877  0.62399  0.02396  Biso   1.000  O
  O15      1.0000 0.24378  0.87250  0.96923  Biso   1.000  O
  O16      1.0000 0.25842  0.87457  0.47103  Biso   1.000  O
  Zr9      1.0000 0.62439  0.01313  0.25155  Biso   1.000  Zr
  Zr10     1.0000 0.62540  0.25007  0.77554  Biso   1.000  Zr
  Zr11     1.0000 0.84868  0.24973  0.25390  Biso   1.000  Zr
  Zr12     1.0000 0.87362  0.99616  0.74310  Biso   1.000  Zr
  O17      1.0000 0.49593  0.12576  0.96841  Biso   1.000  O
  O18      1.0000 0.49246  0.11104  0.48900  Biso   1.000  O
  O19      1.0000 0.50223  0.37027  0.53506  Biso   1.000  O
  O20      1.0000 0.49125  0.38983  0.01321  Biso   1.000  O
  O21      1.0000 0.74857  0.12986  0.53507  Biso   1.000  O
  O22      1.0000 0.75955  0.11029  0.01322  Biso   1.000  O
  O23      1.0000 0.75487  0.37437  0.96841  Biso   1.000  O
  O24      1.0000 0.75835  0.38910  0.48901  Biso   1.000  O
  Zr13     1.0000 0.62640  0.48700  0.25156  Biso   1.000  Zr
  Zr14     1.0000 0.62540  0.75006  0.75149  Biso   1.000  Zr
  Zr15     1.0000 0.86885  0.75065  0.24659  Biso   1.000  Zr
  Zr16     1.0000 0.87524  0.50555  0.74891  Biso   1.000  Zr
  O25      1.0000 0.50278  0.63290  0.95997  Biso   1.000  O
  O26      1.0000 0.49208  0.61363  0.46042  Biso   1.000  O
  O27      1.0000 0.50282  0.86645  0.53556  Biso   1.000  O
  O28      1.0000 0.49287  0.88420  0.03627  Biso   1.000  O
  O29      1.0000 0.74798  0.63368  0.53557  Biso   1.000  O
  O30      1.0000 0.75793  0.61592  0.03628  Biso   1.000  O
  O31      1.0000 0.74801  0.86722  0.95997  Biso   1.000  O
  O32      1.0000 0.75872  0.88650  0.46042  Biso   1.000  O
  W1       1.0000 0.12540  0.25007  0.25498  Biso   1.000  W
