data_image0
_cell_length_a       5.13582
_cell_length_b       10.1358
_cell_length_c       10.1172
_cell_angle_alpha    89.7638
_cell_angle_beta     90.0005
_cell_angle_gamma    89.9999

_symmetry_space_group_name_H-M    "P 1"
_symmetry_int_tables_number       1

loop_
  _symmetry_equiv_pos_as_xyz
  'x, y, z'

loop_
  _atom_site_label
  _atom_site_occupancy
  _atom_site_fract_x
  _atom_site_fract_y
  _atom_site_fract_z
  _atom_site_thermal_displace_type
  _atom_site_B_iso_or_equiv
  _atom_site_type_symbol
  Zr1      1.0000 0.24832  0.98360  0.12480  Biso   1.000  Zr
  Zr2      1.0000 0.25390  0.25041  0.40212  Biso   1.000  Zr
  Zr3      1.0000 0.75587  0.25007  0.12540  Biso   1.000  Zr
  Zr4      1.0000 0.74890  0.99459  0.37555  Biso   1.000  Zr
  O1       1.0000 0.00195  0.13061  0.00689  Biso   1.000  O
  O2       1.0000 0.02941  0.12562  0.24924  Biso   1.000  O
  O3       1.0000 0.00195  0.36954  0.24390  Biso   1.000  O
  O4       1.0000 0.02941  0.37453  0.00155  Biso   1.000  O
  O5       1.0000 0.50876  0.12848  0.24305  Biso   1.000  O
  O6       1.0000 0.48037  0.12674  0.99989  Biso   1.000  O
  O7       1.0000 0.50876  0.37167  0.00773  Biso   1.000  O
  O8       1.0000 0.48037  0.37341  0.25090  Biso   1.000  O
  Zr5      1.0000 0.25156  0.01314  0.62439  Biso   1.000  Zr
  Zr6      1.0000 0.25390  0.24974  0.84868  Biso   1.000  Zr
  Zr7      1.0000 0.77555  0.25008  0.62540  Biso   1.000  Zr
  Zr8      1.0000 0.74311  0.99617  0.87362  Biso   1.000  Zr
  O9       1.0000 0.96840  0.12577  0.49593  Biso   1.000  O
  O10      1.0000 0.01321  0.11031  0.75954  Biso   1.000  O
  O11      1.0000 0.96842  0.37438  0.75486  Biso   1.000  O
  O12      1.0000 0.01321  0.38984  0.49125  Biso   1.000  O
  O13      1.0000 0.53507  0.12986  0.74857  Biso   1.000  O
  O14      1.0000 0.48900  0.11104  0.49244  Biso   1.000  O
  O15      1.0000 0.53506  0.37029  0.50222  Biso   1.000  O
  O16      1.0000 0.48901  0.38911  0.75834  Biso   1.000  O
  Zr9      1.0000 0.24832  0.51655  0.12599  Biso   1.000  Zr
  Zr10     1.0000 0.24659  0.74949  0.38194  Biso   1.000  Zr
  Zr11     1.0000 0.74760  0.75008  0.12540  Biso   1.000  Zr
  Zr12     1.0000 0.74311  0.50398  0.37717  Biso   1.000  Zr
  O17      1.0000 0.96924  0.62764  0.00701  Biso   1.000  O
  O18      1.0000 0.02397  0.62399  0.25877  Biso   1.000  O
  O19      1.0000 0.96924  0.87251  0.24378  Biso   1.000  O
  O20      1.0000 0.02397  0.87616  0.99202  Biso   1.000  O
  O21      1.0000 0.52660  0.62722  0.24416  Biso   1.000  O
  O22      1.0000 0.47105  0.62557  0.99237  Biso   1.000  O
  O23      1.0000 0.52660  0.87293  0.00663  Biso   1.000  O
  O24      1.0000 0.47105  0.87458  0.25842  Biso   1.000  O
  Zr13     1.0000 0.25156  0.48701  0.62640  Biso   1.000  Zr
  Zr14     1.0000 0.24659  0.75066  0.86885  Biso   1.000  Zr
  Zr15     1.0000 0.75148  0.75007  0.62540  Biso   1.000  Zr
  Zr16     1.0000 0.74891  0.50556  0.87524  Biso   1.000  Zr
  O25      1.0000 0.95997  0.63292  0.50278  Biso   1.000  O
  O26      1.0000 0.03628  0.61594  0.75792  Biso   1.000  O
  O27      1.0000 0.95997  0.86724  0.74801  Biso   1.000  O
  O28      1.0000 0.03627  0.88422  0.49287  Biso   1.000  O
  O29      1.0000 0.53556  0.63369  0.74797  Biso   1.000  O
  O30      1.0000 0.46042  0.61364  0.49208  Biso   1.000  O
  O31      1.0000 0.53556  0.86646  0.50282  Biso   1.000  O
  O32      1.0000 0.46042  0.88651  0.75871  Biso   1.000  O
  W1       1.0000 0.25498  0.25008  0.12540  Biso   1.000  W
