data_image0
_cell_length_a       10.1715
_cell_length_b       10.4543
_cell_length_c       5.10719
_cell_angle_alpha    91.0809
_cell_angle_beta     87.3127
_cell_angle_gamma    88.8422

_symmetry_space_group_name_H-M    "P 1"
_symmetry_int_tables_number       1

loop_
  _symmetry_equiv_pos_as_xyz
  'x, y, z'

loop_
  _atom_site_label
  _atom_site_occupancy
  _atom_site_fract_x
  _atom_site_fract_y
  _atom_site_fract_z
  _atom_site_thermal_displace_type
  _atom_site_B_iso_or_equiv
  _atom_site_type_symbol
  Zr1      1.0000 0.12389  0.99893  0.21468  Biso   1.000  Zr
  Zr2      1.0000 0.13339  0.21043  0.70696  Biso   1.000  Zr
  Zr3      1.0000 0.39464  0.23369  0.26262  Biso   1.000  Zr
  Zr4      1.0000 0.36331  0.50323  0.71658  Biso   1.000  Zr
  O1       1.0000 0.01820  0.16814  0.39681  Biso   1.000  O
  O2       1.0000 0.99571  0.09417  0.93398  Biso   1.000  O
  O3       1.0000 0.50796  0.38981  0.50530  Biso   1.000  O
  O4       1.0000 0.52405  0.32982  0.01718  Biso   1.000  O
  O5       1.0000 0.26462  0.08153  0.47455  Biso   1.000  O
  O6       1.0000 0.25834  0.16242  0.00418  Biso   1.000  O
  O7       1.0000 0.26799  0.42316  0.01731  Biso   1.000  O
  O8       1.0000 0.26242  0.34147  0.52338  Biso   1.000  O
  Zr5      1.0000 0.12250  0.55205  0.19287  Biso   1.000  Zr
  Zr6      1.0000 0.11867  0.76936  0.69704  Biso   1.000  Zr
  Zr7      1.0000 0.38232  0.73759  0.22117  Biso   1.000  Zr
  Zr8      1.0000 0.39011  0.99597  0.74251  Biso   1.000  Zr
  O9       1.0000 0.98981  0.67303  0.44677  Biso   1.000  O
  O10      1.0000 0.99144  0.61377  0.92510  Biso   1.000  O
  O11      1.0000 0.49513  0.88499  0.44860  Biso   1.000  O
  O12      1.0000 0.47523  0.83253  0.92673  Biso   1.000  O
  O13      1.0000 0.24785  0.60872  0.47405  Biso   1.000  O
  O14      1.0000 0.25005  0.67100  0.94790  Biso   1.000  O
  O15      1.0000 0.22158  0.92063  0.88439  Biso   1.000  O
  O16      1.0000 0.23040  0.84227  0.38122  Biso   1.000  O
  Zr9      1.0000 0.63421  0.00214  0.26276  Biso   1.000  Zr
  Zr10     1.0000 0.64293  0.25685  0.71291  Biso   1.000  Zr
  Zr11     1.0000 0.87801  0.25209  0.16887  Biso   1.000  Zr
  Zr12     1.0000 0.87898  0.50237  0.68378  Biso   1.000  Zr
  O17      1.0000 0.51244  0.13534  0.53197  Biso   1.000  O
  O18      1.0000 0.49239  0.07468  0.03872  Biso   1.000  O
  O19      1.0000 0.99490  0.42113  0.39710  Biso   1.000  O
  O20      1.0000 0.00538  0.34878  0.90042  Biso   1.000  O
  O21      1.0000 0.76405  0.10332  0.47627  Biso   1.000  O
  O22      1.0000 0.74316  0.13613  0.97425  Biso   1.000  O
  O23      1.0000 0.75873  0.39404  0.93961  Biso   1.000  O
  O24      1.0000 0.75258  0.35288  0.44180  Biso   1.000  O
  Zr13     1.0000 0.62098  0.48582  0.21483  Biso   1.000  Zr
  Zr14     1.0000 0.61878  0.73533  0.70828  Biso   1.000  Zr
  Zr15     1.0000 0.85538  0.74175  0.19196  Biso   1.000  Zr
  Zr16     1.0000 0.85941  0.98834  0.74964  Biso   1.000  Zr
  O25      1.0000 0.49940  0.63438  0.46402  Biso   1.000  O
  O26      1.0000 0.49754  0.58606  0.96860  Biso   1.000  O
  O27      1.0000 0.00506  0.92198  0.50147  Biso   1.000  O
  O28      1.0000 0.98543  0.85496  0.98948  Biso   1.000  O
  O29      1.0000 0.74683  0.59880  0.44759  Biso   1.000  O
  O30      1.0000 0.74075  0.63808  0.95108  Biso   1.000  O
  O31      1.0000 0.73159  0.88310  0.98569  Biso   1.000  O
  O32      1.0000 0.74776  0.85103  0.48560  Biso   1.000  O
  W1       1.0000 0.13707  0.30884  0.20709  Biso   1.000  W
