data_image0
_cell_length_a       10.3498
_cell_length_b       10.3187
_cell_length_c       5.3363
_cell_angle_alpha    89.9566
_cell_angle_beta     78.7579
_cell_angle_gamma    90.5091

_symmetry_space_group_name_H-M    "P 1"
_symmetry_int_tables_number       1

loop_
  _symmetry_equiv_pos_as_xyz
  'x, y, z'

loop_
  _atom_site_label
  _atom_site_occupancy
  _atom_site_fract_x
  _atom_site_fract_y
  _atom_site_fract_z
  _atom_site_thermal_displace_type
  _atom_site_B_iso_or_equiv
  _atom_site_type_symbol
  Zr1      1.0000 0.13746  0.02153  0.29104  Biso   1.000  Zr
  Zr2      1.0000 0.12729  0.22933  0.78743  Biso   1.000  Zr
  Zr3      1.0000 0.36722  0.27397  0.22060  Biso   1.000  Zr
  Zr4      1.0000 0.35624  0.49700  0.69672  Biso   1.000  Zr
  O1       1.0000 0.03220  0.16059  0.14092  Biso   1.000  O
  O2       1.0000 0.02763  0.08801  0.63375  Biso   1.000  O
  O3       1.0000 0.48520  0.38120  0.42601  Biso   1.000  O
  O4       1.0000 0.48820  0.38006  0.91332  Biso   1.000  O
  O5       1.0000 0.27814  0.12733  0.50625  Biso   1.000  O
  O6       1.0000 0.28299  0.11665  0.98926  Biso   1.000  O
  O7       1.0000 0.24402  0.36610  0.97405  Biso   1.000  O
  O8       1.0000 0.21338  0.38039  0.48863  Biso   1.000  O
  Zr5      1.0000 0.13567  0.52118  0.28469  Biso   1.000  Zr
  Zr6      1.0000 0.12979  0.72930  0.78996  Biso   1.000  Zr
  Zr7      1.0000 0.36072  0.77153  0.20487  Biso   1.000  Zr
  Zr8      1.0000 0.35929  0.96638  0.70726  Biso   1.000  Zr
  O9       1.0000 0.02151  0.65733  0.13372  Biso   1.000  O
  O10      1.0000 0.02709  0.59368  0.62850  Biso   1.000  O
  O11      1.0000 0.47062  0.90252  0.35997  Biso   1.000  O
  O12      1.0000 0.47124  0.84103  0.86232  Biso   1.000  O
  O13      1.0000 0.26896  0.63131  0.47650  Biso   1.000  O
  O14      1.0000 0.26493  0.62588  0.98359  Biso   1.000  O
  O15      1.0000 0.22284  0.87465  0.01827  Biso   1.000  O
  O16      1.0000 0.22208  0.87250  0.51478  Biso   1.000  O
  Zr9      1.0000 0.64165  0.01999  0.28910  Biso   1.000  Zr
  Zr10     1.0000 0.63756  0.23338  0.81156  Biso   1.000  Zr
  Zr11     1.0000 0.85958  0.27087  0.21576  Biso   1.000  Zr
  Zr12     1.0000 0.85991  0.47807  0.70770  Biso   1.000  Zr
  O17      1.0000 0.53534  0.15746  0.16134  Biso   1.000  O
  O18      1.0000 0.52726  0.09032  0.64224  Biso   1.000  O
  O19      1.0000 0.96885  0.40964  0.34775  Biso   1.000  O
  O20      1.0000 0.96764  0.34354  0.85180  Biso   1.000  O
  O21      1.0000 0.77362  0.12634  0.48171  Biso   1.000  O
  O22      1.0000 0.77870  0.11934  0.98299  Biso   1.000  O
  O23      1.0000 0.73036  0.37634  0.03285  Biso   1.000  O
  O24      1.0000 0.72834  0.37375  0.52859  Biso   1.000  O
  Zr13     1.0000 0.63598  0.52014  0.29511  Biso   1.000  Zr
  Zr14     1.0000 0.63774  0.72582  0.79130  Biso   1.000  Zr
  Zr15     1.0000 0.85912  0.77172  0.20508  Biso   1.000  Zr
  Zr16     1.0000 0.85745  0.97868  0.70481  Biso   1.000  Zr
  O25      1.0000 0.52275  0.64804  0.13406  Biso   1.000  O
  O26      1.0000 0.52586  0.60603  0.62277  Biso   1.000  O
  O27      1.0000 0.96911  0.91037  0.34458  Biso   1.000  O
  O28      1.0000 0.96579  0.84117  0.84817  Biso   1.000  O
  O29      1.0000 0.77128  0.62589  0.47428  Biso   1.000  O
  O30      1.0000 0.77020  0.62142  0.97550  Biso   1.000  O
  O31      1.0000 0.72335  0.87508  0.01962  Biso   1.000  O
  O32      1.0000 0.72501  0.87125  0.52046  Biso   1.000  O
  W1       1.0000 0.39416  0.24600  0.72844  Biso   1.000  W
