data_image0
_cell_length_a       10.0602
_cell_length_b       5.13455
_cell_length_c       10.5072
_cell_angle_alpha    89.9988
_cell_angle_beta     89.9693
_cell_angle_gamma    89.8164

_symmetry_space_group_name_H-M    "P 1"
_symmetry_int_tables_number       1

loop_
  _symmetry_equiv_pos_as_xyz
  'x, y, z'

loop_
  _atom_site_label
  _atom_site_occupancy
  _atom_site_fract_x
  _atom_site_fract_y
  _atom_site_fract_z
  _atom_site_thermal_displace_type
  _atom_site_B_iso_or_equiv
  _atom_site_type_symbol
  W1       1.0000 0.13974  0.04408  0.17369  Biso   1.000  W
  Zr1      1.0000 0.13849  0.45953  0.42090  Biso   1.000  Zr
  Zr2      1.0000 0.35759  0.55374  0.17175  Biso   1.000  Zr
  Zr3      1.0000 0.35971  0.96067  0.42118  Biso   1.000  Zr
  Zr4      1.0000 0.63865  0.04585  0.07772  Biso   1.000  Zr
  Zr5      1.0000 0.63784  0.45749  0.32731  Biso   1.000  Zr
  Zr6      1.0000 0.86503  0.54301  0.07876  Biso   1.000  Zr
  Zr7      1.0000 0.86093  0.95811  0.32768  Biso   1.000  Zr
  O1       1.0000 0.03700  0.31934  0.08809  Biso   1.000  O
  O2       1.0000 0.03824  0.16105  0.32680  Biso   1.000  O
  O3       1.0000 0.46825  0.82942  0.08137  Biso   1.000  O
  O4       1.0000 0.46519  0.67161  0.33311  Biso   1.000  O
  O5       1.0000 0.27516  0.24602  0.29395  Biso   1.000  O
  O6       1.0000 0.27406  0.24841  0.05244  Biso   1.000  O
  O7       1.0000 0.21836  0.75290  0.29574  Biso   1.000  O
  O8       1.0000 0.21544  0.75927  0.04692  Biso   1.000  O
  O9       1.0000 0.53197  0.33535  0.16624  Biso   1.000  O
  O10      1.0000 0.53223  0.17113  0.41639  Biso   1.000  O
  O11      1.0000 0.98025  0.82628  0.16554  Biso   1.000  O
  O12      1.0000 0.96595  0.66716  0.41471  Biso   1.000  O
  O13      1.0000 0.77669  0.24584  0.45348  Biso   1.000  O
  O14      1.0000 0.77669  0.25059  0.20444  Biso   1.000  O
  O15      1.0000 0.72339  0.74746  0.45436  Biso   1.000  O
  O16      1.0000 0.72926  0.75285  0.20470  Biso   1.000  O
  Zr8      1.0000 0.13828  0.04213  0.67207  Biso   1.000  Zr
  Zr9      1.0000 0.14029  0.45434  0.92363  Biso   1.000  Zr
  Zr10     1.0000 0.36113  0.54350  0.67170  Biso   1.000  Zr
  Zr11     1.0000 0.36046  0.95766  0.92261  Biso   1.000  Zr
  Zr12     1.0000 0.63827  0.04234  0.57866  Biso   1.000  Zr
  Zr13     1.0000 0.63934  0.45939  0.82924  Biso   1.000  Zr
  Zr14     1.0000 0.86017  0.54117  0.57827  Biso   1.000  Zr
  Zr15     1.0000 0.86148  0.95625  0.82917  Biso   1.000  Zr
  O17      1.0000 0.03029  0.32223  0.57849  Biso   1.000  O
  O18      1.0000 0.03091  0.17333  0.83119  Biso   1.000  O
  O19      1.0000 0.46667  0.83167  0.58340  Biso   1.000  O
  O20      1.0000 0.46725  0.67231  0.83333  Biso   1.000  O
  O21      1.0000 0.27634  0.24772  0.79687  Biso   1.000  O
  O22      1.0000 0.27577  0.25261  0.54592  Biso   1.000  O
  O23      1.0000 0.22373  0.74747  0.79593  Biso   1.000  O
  O24      1.0000 0.22341  0.75068  0.54481  Biso   1.000  O
  O25      1.0000 0.53264  0.33134  0.66677  Biso   1.000  O
  O26      1.0000 0.53125  0.17317  0.91697  Biso   1.000  O
  O27      1.0000 0.96848  0.82425  0.66734  Biso   1.000  O
  O28      1.0000 0.96788  0.66586  0.91801  Biso   1.000  O
  O29      1.0000 0.77621  0.25018  0.95478  Biso   1.000  O
  O30      1.0000 0.77582  0.25083  0.70444  Biso   1.000  O
  O31      1.0000 0.72382  0.75041  0.95451  Biso   1.000  O
  O32      1.0000 0.72398  0.75200  0.70464  Biso   1.000  O
