data_image0
_cell_length_a       10.3171
_cell_length_b       5.25058
_cell_length_c       10.526
_cell_angle_alpha    89.4826
_cell_angle_beta     79.9378
_cell_angle_gamma    90.0246

_symmetry_space_group_name_H-M    "P 1"
_symmetry_int_tables_number       1

loop_
  _symmetry_equiv_pos_as_xyz
  'x, y, z'

loop_
  _atom_site_label
  _atom_site_occupancy
  _atom_site_fract_x
  _atom_site_fract_y
  _atom_site_fract_z
  _atom_site_thermal_displace_type
  _atom_site_B_iso_or_equiv
  _atom_site_type_symbol
  Zr1      1.0000 0.13421  0.04170  0.14403  Biso   1.000  Zr
  Zr2      1.0000 0.12372  0.44676  0.39313  Biso   1.000  Zr
  Zr3      1.0000 0.35871  0.54458  0.10814  Biso   1.000  Zr
  Zr4      1.0000 0.35719  0.91471  0.33955  Biso   1.000  Zr
  O1       1.0000 0.03136  0.34351  0.07689  Biso   1.000  O
  O2       1.0000 0.02620  0.16168  0.32274  Biso   1.000  O
  O3       1.0000 0.46089  0.86206  0.15163  Biso   1.000  O
  O4       1.0000 0.49393  0.70813  0.42677  Biso   1.000  O
  O5       1.0000 0.27461  0.24960  0.24569  Biso   1.000  O
  O6       1.0000 0.25646  0.17330  0.48377  Biso   1.000  O
  O7       1.0000 0.22319  0.76300  0.00738  Biso   1.000  O
  O8       1.0000 0.20320  0.74467  0.25206  Biso   1.000  O
  Zr5      1.0000 0.13342  0.04659  0.65265  Biso   1.000  Zr
  Zr6      1.0000 0.13653  0.46830  0.89863  Biso   1.000  Zr
  Zr7      1.0000 0.37155  0.55379  0.62809  Biso   1.000  Zr
  Zr8      1.0000 0.36130  0.96725  0.86120  Biso   1.000  Zr
  O9       1.0000 0.03061  0.33958  0.58101  Biso   1.000  O
  O10      1.0000 0.03217  0.17555  0.82773  Biso   1.000  O
  O11      1.0000 0.46681  0.85821  0.67761  Biso   1.000  O
  O12      1.0000 0.46152  0.65913  0.91590  Biso   1.000  O
  O13      1.0000 0.27320  0.26822  0.74584  Biso   1.000  O
  O14      1.0000 0.27204  0.24837  0.99459  Biso   1.000  O
  O15      1.0000 0.24961  0.67598  0.49760  Biso   1.000  O
  O16      1.0000 0.22125  0.76235  0.76227  Biso   1.000  O
  Zr9      1.0000 0.63909  0.04808  0.13988  Biso   1.000  Zr
  Zr10     1.0000 0.65155  0.45794  0.39829  Biso   1.000  Zr
  Zr11     1.0000 0.85961  0.54720  0.10309  Biso   1.000  Zr
  Zr12     1.0000 0.85755  0.95706  0.35165  Biso   1.000  Zr
  O17      1.0000 0.53712  0.35157  0.08135  Biso   1.000  O
  O18      1.0000 0.53536  0.16415  0.32273  Biso   1.000  O
  O19      1.0000 0.96062  0.84181  0.16504  Biso   1.000  O
  O20      1.0000 0.95966  0.66863  0.42042  Biso   1.000  O
  O21      1.0000 0.77580  0.25913  0.23771  Biso   1.000  O
  O22      1.0000 0.78130  0.23977  0.49258  Biso   1.000  O
  O23      1.0000 0.72440  0.76328  0.00800  Biso   1.000  O
  O24      1.0000 0.72407  0.74514  0.25698  Biso   1.000  O
  Zr13     1.0000 0.64298  0.04665  0.64836  Biso   1.000  Zr
  Zr14     1.0000 0.63545  0.46429  0.89645  Biso   1.000  Zr
  Zr15     1.0000 0.86082  0.54762  0.60691  Biso   1.000  Zr
  Zr16     1.0000 0.85983  0.96340  0.85554  Biso   1.000  Zr
  O25      1.0000 0.54294  0.34115  0.58346  Biso   1.000  O
  O26      1.0000 0.53621  0.16610  0.83527  Biso   1.000  O
  O27      1.0000 0.96717  0.83849  0.67054  Biso   1.000  O
  O28      1.0000 0.96407  0.67106  0.91856  Biso   1.000  O
  O29      1.0000 0.77453  0.26377  0.74224  Biso   1.000  O
  O30      1.0000 0.77378  0.24654  0.98927  Biso   1.000  O
  O31      1.0000 0.72684  0.76056  0.51261  Biso   1.000  O
  O32      1.0000 0.72703  0.74892  0.76105  Biso   1.000  O
  W1       1.0000 0.38988  0.42087  0.38212  Biso   1.000  W
