data_image0
_cell_length_a       10.2062
_cell_length_b       10.3315
_cell_length_c       5.32693
_cell_angle_alpha    90.0554
_cell_angle_beta     78.8469
_cell_angle_gamma    90.2558

_symmetry_space_group_name_H-M    "P 1"
_symmetry_int_tables_number       1

loop_
  _symmetry_equiv_pos_as_xyz
  'x, y, z'

loop_
  _atom_site_label
  _atom_site_occupancy
  _atom_site_fract_x
  _atom_site_fract_y
  _atom_site_fract_z
  _atom_site_thermal_displace_type
  _atom_site_B_iso_or_equiv
  _atom_site_type_symbol
  Hf1      1.0000 0.13347  0.01946  0.29398  Biso   1.000  Hf
  Hf2      1.0000 0.12896  0.22813  0.77846  Biso   1.000  Hf
  Hf3      1.0000 0.34427  0.28148  0.15561  Biso   1.000  Hf
  Hf4      1.0000 0.35509  0.49570  0.70526  Biso   1.000  Hf
  O1       1.0000 0.03862  0.16542  0.14829  Biso   1.000  O
  O2       1.0000 0.02894  0.08249  0.65227  Biso   1.000  O
  O3       1.0000 0.46488  0.41859  0.35168  Biso   1.000  O
  O4       1.0000 0.47629  0.36361  0.86576  Biso   1.000  O
  O5       1.0000 0.27160  0.12293  0.45249  Biso   1.000  O
  O6       1.0000 0.28664  0.13148  0.92848  Biso   1.000  O
  O7       1.0000 0.20824  0.39121  0.00069  Biso   1.000  O
  O8       1.0000 0.22966  0.36768  0.50526  Biso   1.000  O
  Hf5      1.0000 0.13436  0.52485  0.29442  Biso   1.000  Hf
  Hf6      1.0000 0.13231  0.72958  0.79679  Biso   1.000  Hf
  Hf7      1.0000 0.35975  0.77173  0.20918  Biso   1.000  Hf
  Hf8      1.0000 0.36027  0.96390  0.70398  Biso   1.000  Hf
  O9       1.0000 0.02800  0.66332  0.15629  Biso   1.000  O
  O10      1.0000 0.03043  0.58594  0.65714  Biso   1.000  O
  O11      1.0000 0.46695  0.91168  0.35119  Biso   1.000  O
  O12      1.0000 0.46509  0.82996  0.85565  Biso   1.000  O
  O13      1.0000 0.27225  0.62855  0.48051  Biso   1.000  O
  O14      1.0000 0.27075  0.63024  0.98552  Biso   1.000  O
  O15      1.0000 0.22184  0.88216  0.02266  Biso   1.000  O
  O16      1.0000 0.21785  0.86695  0.51799  Biso   1.000  O
  Hf9      1.0000 0.64078  0.01845  0.30785  Biso   1.000  Hf
  Hf10     1.0000 0.64999  0.22636  0.82728  Biso   1.000  Hf
  Hf11     1.0000 0.86167  0.27058  0.22640  Biso   1.000  Hf
  Hf12     1.0000 0.85842  0.47746  0.71839  Biso   1.000  Hf
  O17      1.0000 0.52833  0.16898  0.16861  Biso   1.000  O
  O18      1.0000 0.54632  0.06402  0.68374  Biso   1.000  O
  O19      1.0000 0.96715  0.41231  0.35968  Biso   1.000  O
  O20      1.0000 0.96070  0.33365  0.85413  Biso   1.000  O
  O21      1.0000 0.78343  0.12711  0.49890  Biso   1.000  O
  O22      1.0000 0.78107  0.11776  0.00692  Biso   1.000  O
  O23      1.0000 0.72578  0.37692  0.04319  Biso   1.000  O
  O24      1.0000 0.72313  0.37153  0.53814  Biso   1.000  O
  Hf13     1.0000 0.63722  0.52388  0.29935  Biso   1.000  Hf
  Hf14     1.0000 0.63797  0.72694  0.80022  Biso   1.000  Hf
  Hf15     1.0000 0.85804  0.77143  0.21613  Biso   1.000  Hf
  Hf16     1.0000 0.85554  0.97630  0.71784  Biso   1.000  Hf
  O25      1.0000 0.53025  0.66228  0.15483  Biso   1.000  O
  O26      1.0000 0.52973  0.59456  0.64705  Biso   1.000  O
  O27      1.0000 0.96355  0.91112  0.35870  Biso   1.000  O
  O28      1.0000 0.96431  0.83693  0.85818  Biso   1.000  O
  O29      1.0000 0.77524  0.62690  0.48688  Biso   1.000  O
  O30      1.0000 0.77320  0.62042  0.98605  Biso   1.000  O
  O31      1.0000 0.72138  0.87565  0.02969  Biso   1.000  O
  O32      1.0000 0.72230  0.86892  0.52590  Biso   1.000  O
  Y1       1.0000 0.43929  0.23245  0.56634  Biso   1.000  Y
