data_image0
_cell_length_a       10.0221
_cell_length_b       5.18012
_cell_length_c       10.0596
_cell_angle_alpha    90.1408
_cell_angle_beta     90.3038
_cell_angle_gamma    90.0515

_symmetry_space_group_name_H-M    "P 1"
_symmetry_int_tables_number       1

loop_
  _symmetry_equiv_pos_as_xyz
  'x, y, z'

loop_
  _atom_site_label
  _atom_site_occupancy
  _atom_site_fract_x
  _atom_site_fract_y
  _atom_site_fract_z
  _atom_site_thermal_displace_type
  _atom_site_B_iso_or_equiv
  _atom_site_type_symbol
  Y1       1.0000 0.13095  0.02479  0.12263  Biso   1.000  Y
  Hf1      1.0000 0.13501  0.46736  0.37651  Biso   1.000  Hf
  Hf2      1.0000 0.36515  0.52797  0.12573  Biso   1.000  Hf
  Hf3      1.0000 0.36373  0.96736  0.37434  Biso   1.000  Hf
  O1       1.0000 0.03012  0.38258  0.20195  Biso   1.000  O
  O2       1.0000 0.03439  0.13170  0.44523  Biso   1.000  O
  O3       1.0000 0.46417  0.86769  0.19434  Biso   1.000  O
  O4       1.0000 0.46445  0.63171  0.44630  Biso   1.000  O
  O5       1.0000 0.27569  0.24207  0.25297  Biso   1.000  O
  O6       1.0000 0.26946  0.26373  0.50054  Biso   1.000  O
  O7       1.0000 0.22970  0.76674  0.49963  Biso   1.000  O
  O8       1.0000 0.23527  0.72399  0.25305  Biso   1.000  O
  Hf4      1.0000 0.13373  0.03331  0.62569  Biso   1.000  Hf
  Hf5      1.0000 0.13743  0.46881  0.87382  Biso   1.000  Hf
  Hf6      1.0000 0.36611  0.53236  0.62488  Biso   1.000  Hf
  Hf7      1.0000 0.36703  0.96582  0.87524  Biso   1.000  Hf
  O9       1.0000 0.03812  0.37380  0.68980  Biso   1.000  O
  O10      1.0000 0.03215  0.14685  0.93035  Biso   1.000  O
  O11      1.0000 0.46582  0.86578  0.69517  Biso   1.000  O
  O12      1.0000 0.47115  0.63559  0.94582  Biso   1.000  O
  O13      1.0000 0.27146  0.23505  0.74779  Biso   1.000  O
  O14      1.0000 0.27573  0.26553  0.99419  Biso   1.000  O
  O15      1.0000 0.23808  0.75202  0.99369  Biso   1.000  O
  O16      1.0000 0.23085  0.73701  0.74668  Biso   1.000  O
  Hf8      1.0000 0.63347  0.03014  0.12549  Biso   1.000  Hf
  Hf9      1.0000 0.63210  0.46545  0.37664  Biso   1.000  Hf
  Hf10     1.0000 0.86197  0.53392  0.12890  Biso   1.000  Hf
  Hf11     1.0000 0.86359  0.96633  0.37804  Biso   1.000  Hf
  O17      1.0000 0.53622  0.36510  0.19419  Biso   1.000  O
  O18      1.0000 0.53432  0.13053  0.44579  Biso   1.000  O
  O19      1.0000 0.95050  0.86618  0.20166  Biso   1.000  O
  O20      1.0000 0.96438  0.63420  0.44752  Biso   1.000  O
  O21      1.0000 0.76739  0.23366  0.25084  Biso   1.000  O
  O22      1.0000 0.76850  0.26617  0.50007  Biso   1.000  O
  O23      1.0000 0.72874  0.76393  0.50061  Biso   1.000  O
  O24      1.0000 0.72223  0.73279  0.25113  Biso   1.000  O
  Hf12     1.0000 0.63356  0.03213  0.62568  Biso   1.000  Hf
  Hf13     1.0000 0.63596  0.46611  0.87540  Biso   1.000  Hf
  Hf14     1.0000 0.86646  0.53274  0.62512  Biso   1.000  Hf
  Hf15     1.0000 0.86502  0.96647  0.87502  Biso   1.000  Hf
  O25      1.0000 0.53570  0.36642  0.69510  Biso   1.000  O
  O26      1.0000 0.53753  0.13186  0.94392  Biso   1.000  O
  O27      1.0000 0.96392  0.86863  0.69492  Biso   1.000  O
  O28      1.0000 0.97025  0.64350  0.95111  Biso   1.000  O
  O29      1.0000 0.77116  0.23456  0.74858  Biso   1.000  O
  O30      1.0000 0.77119  0.26390  0.99936  Biso   1.000  O
  O31      1.0000 0.73087  0.76395  0.99976  Biso   1.000  O
  O32      1.0000 0.73052  0.73383  0.74959  Biso   1.000  O
