data_image0
_cell_length_a       10.1986
_cell_length_b       5.14355
_cell_length_c       10.4692
_cell_angle_alpha    90.0417
_cell_angle_beta     80.1976
_cell_angle_gamma    90.1627

_symmetry_space_group_name_H-M    "P 1"
_symmetry_int_tables_number       1

loop_
  _symmetry_equiv_pos_as_xyz
  'x, y, z'

loop_
  _atom_site_label
  _atom_site_occupancy
  _atom_site_fract_x
  _atom_site_fract_y
  _atom_site_fract_z
  _atom_site_thermal_displace_type
  _atom_site_B_iso_or_equiv
  _atom_site_type_symbol
  Y1       1.0000 0.13888  0.03425  0.14426  Biso   1.000  Y
  Hf1      1.0000 0.14103  0.45431  0.39632  Biso   1.000  Hf
  Hf2      1.0000 0.36187  0.53546  0.10383  Biso   1.000  Hf
  Hf3      1.0000 0.35981  0.95668  0.35342  Biso   1.000  Hf
  O1       1.0000 0.03407  0.35996  0.07724  Biso   1.000  O
  O2       1.0000 0.02816  0.16993  0.33963  Biso   1.000  O
  O3       1.0000 0.46576  0.83352  0.17014  Biso   1.000  O
  O4       1.0000 0.46422  0.66372  0.42209  Biso   1.000  O
  O5       1.0000 0.28195  0.25912  0.24567  Biso   1.000  O
  O6       1.0000 0.27515  0.24045  0.49261  Biso   1.000  O
  O7       1.0000 0.23318  0.74356  0.00154  Biso   1.000  O
  O8       1.0000 0.22910  0.73008  0.26181  Biso   1.000  O
  Hf4      1.0000 0.13985  0.04242  0.64632  Biso   1.000  Hf
  Hf5      1.0000 0.14049  0.46056  0.89595  Biso   1.000  Hf
  Hf6      1.0000 0.36012  0.54246  0.60419  Biso   1.000  Hf
  Hf7      1.0000 0.36213  0.95680  0.85415  Biso   1.000  Hf
  O9       1.0000 0.03564  0.34143  0.58370  Biso   1.000  O
  O10      1.0000 0.03555  0.16097  0.83107  Biso   1.000  O
  O11      1.0000 0.46666  0.83259  0.67091  Biso   1.000  O
  O12      1.0000 0.47218  0.67130  0.92071  Biso   1.000  O
  O13      1.0000 0.27588  0.25801  0.73988  Biso   1.000  O
  O14      1.0000 0.28260  0.24654  0.98439  Biso   1.000  O
  O15      1.0000 0.22370  0.75779  0.51025  Biso   1.000  O
  O16      1.0000 0.22445  0.74484  0.75751  Biso   1.000  O
  Hf8      1.0000 0.63899  0.03858  0.14630  Biso   1.000  Hf
  Hf9      1.0000 0.63691  0.45711  0.39618  Biso   1.000  Hf
  Hf10     1.0000 0.85826  0.54070  0.10346  Biso   1.000  Hf
  Hf11     1.0000 0.85830  0.95803  0.35480  Biso   1.000  Hf
  O17      1.0000 0.53643  0.33287  0.07851  Biso   1.000  O
  O18      1.0000 0.53432  0.16282  0.32973  Biso   1.000  O
  O19      1.0000 0.94906  0.84007  0.17253  Biso   1.000  O
  O20      1.0000 0.96612  0.66659  0.42018  Biso   1.000  O
  O21      1.0000 0.77393  0.25857  0.24128  Biso   1.000  O
  O22      1.0000 0.77335  0.24511  0.49161  Biso   1.000  O
  O23      1.0000 0.72404  0.75735  0.00825  Biso   1.000  O
  O24      1.0000 0.71558  0.74082  0.26171  Biso   1.000  O
  Hf12     1.0000 0.63937  0.04307  0.64568  Biso   1.000  Hf
  Hf13     1.0000 0.64052  0.45770  0.89545  Biso   1.000  Hf
  Hf14     1.0000 0.86132  0.54296  0.60332  Biso   1.000  Hf
  Hf15     1.0000 0.86072  0.95852  0.85353  Biso   1.000  Hf
  O25      1.0000 0.53282  0.33289  0.58013  Biso   1.000  O
  O26      1.0000 0.53641  0.16586  0.82810  Biso   1.000  O
  O27      1.0000 0.96472  0.84015  0.66836  Biso   1.000  O
  O28      1.0000 0.96438  0.66541  0.91630  Biso   1.000  O
  O29      1.0000 0.77696  0.25819  0.73958  Biso   1.000  O
  O30      1.0000 0.77563  0.23976  0.98965  Biso   1.000  O
  O31      1.0000 0.72403  0.75791  0.50966  Biso   1.000  O
  O32      1.0000 0.72542  0.74221  0.75808  Biso   1.000  O
