data_image0
_cell_length_a       10.0821
_cell_length_b       10.3202
_cell_length_c       5.13625
_cell_angle_alpha    93.146
_cell_angle_beta     89.8751
_cell_angle_gamma    88.5903

_symmetry_space_group_name_H-M    "P 1"
_symmetry_int_tables_number       1

loop_
  _symmetry_equiv_pos_as_xyz
  'x, y, z'

loop_
  _atom_site_label
  _atom_site_occupancy
  _atom_site_fract_x
  _atom_site_fract_y
  _atom_site_fract_z
  _atom_site_thermal_displace_type
  _atom_site_B_iso_or_equiv
  _atom_site_type_symbol
  Hf1      1.0000 0.13868  0.96447  0.26411  Biso   1.000  Hf
  Hf2      1.0000 0.13130  0.24098  0.70997  Biso   1.000  Hf
  Hf3      1.0000 0.41033  0.26042  0.28960  Biso   1.000  Hf
  Hf4      1.0000 0.37855  0.00679  0.71878  Biso   1.000  Hf
  O1       1.0000 0.96803  0.17606  0.93154  Biso   1.000  O
  O2       1.0000 0.00582  0.10926  0.44595  Biso   1.000  O
  O3       1.0000 0.00184  0.36608  0.48090  Biso   1.000  O
  O4       1.0000 0.04192  0.40901  0.97321  Biso   1.000  O
  O5       1.0000 0.26660  0.11844  0.44343  Biso   1.000  O
  O6       1.0000 0.21328  0.06680  0.93399  Biso   1.000  O
  O7       1.0000 0.29358  0.31137  0.93632  Biso   1.000  O
  O8       1.0000 0.25480  0.38006  0.47347  Biso   1.000  O
  Hf5      1.0000 0.11031  0.52190  0.29865  Biso   1.000  Hf
  Hf6      1.0000 0.10269  0.75888  0.76267  Biso   1.000  Hf
  Hf7      1.0000 0.36156  0.71825  0.30210  Biso   1.000  Hf
  Hf8      1.0000 0.37125  0.48150  0.78092  Biso   1.000  Hf
  O9       1.0000 0.00709  0.65498  0.05282  Biso   1.000  O
  O10      1.0000 0.98254  0.62372  0.55455  Biso   1.000  O
  O11      1.0000 0.99800  0.86503  0.49630  Biso   1.000  O
  O12      1.0000 0.98880  0.90758  0.99526  Biso   1.000  O
  O13      1.0000 0.24292  0.62777  0.58634  Biso   1.000  O
  O14      1.0000 0.27272  0.56304  0.09821  Biso   1.000  O
  O15      1.0000 0.23144  0.81103  0.05962  Biso   1.000  O
  O16      1.0000 0.25022  0.86977  0.54552  Biso   1.000  O
  Hf9      1.0000 0.60669  0.98543  0.21089  Biso   1.000  Hf
  Hf10     1.0000 0.61902  0.24343  0.80605  Biso   1.000  Hf
  Hf11     1.0000 0.84886  0.25693  0.26384  Biso   1.000  Hf
  Hf12     1.0000 0.87906  0.02393  0.72831  Biso   1.000  Hf
  O17      1.0000 0.48689  0.12936  0.00479  Biso   1.000  O
  O18      1.0000 0.51809  0.11034  0.50747  Biso   1.000  O
  O19      1.0000 0.50816  0.35650  0.58079  Biso   1.000  O
  O20      1.0000 0.51358  0.38928  0.07117  Biso   1.000  O
  O21      1.0000 0.76609  0.17884  0.56964  Biso   1.000  O
  O22      1.0000 0.73749  0.11293  0.04153  Biso   1.000  O
  O23      1.0000 0.76075  0.37036  0.98302  Biso   1.000  O
  O24      1.0000 0.76447  0.42957  0.46921  Biso   1.000  O
  Hf13     1.0000 0.64436  0.52550  0.22655  Biso   1.000  Hf
  Hf14     1.0000 0.60405  0.74301  0.74756  Biso   1.000  Hf
  Hf15     1.0000 0.85846  0.77910  0.22580  Biso   1.000  Hf
  Hf16     1.0000 0.89163  0.48946  0.76592  Biso   1.000  Hf
  O25      1.0000 0.49879  0.63957  0.00711  Biso   1.000  O
  O26      1.0000 0.49457  0.59729  0.51068  Biso   1.000  O
  O27      1.0000 0.50096  0.85537  0.45717  Biso   1.000  O
  O28      1.0000 0.48599  0.88690  0.94946  Biso   1.000  O
  O29      1.0000 0.72372  0.68689  0.43217  Biso   1.000  O
  O30      1.0000 0.75224  0.61839  0.94732  Biso   1.000  O
  O31      1.0000 0.73680  0.86354  0.95471  Biso   1.000  O
  O32      1.0000 0.76164  0.93536  0.44094  Biso   1.000  O
  Y1       1.0000 0.13205  0.24241  0.20379  Biso   1.000  Y
