data_image0
_cell_length_a       5.08557
_cell_length_b       10.3171
_cell_length_c       10.6719
_cell_angle_alpha    90.0118
_cell_angle_beta     78.572
_cell_angle_gamma    91.0345

_symmetry_space_group_name_H-M    "P 1"
_symmetry_int_tables_number       1

loop_
  _symmetry_equiv_pos_as_xyz
  'x, y, z'

loop_
  _atom_site_label
  _atom_site_occupancy
  _atom_site_fract_x
  _atom_site_fract_y
  _atom_site_fract_z
  _atom_site_thermal_displace_type
  _atom_site_B_iso_or_equiv
  _atom_site_type_symbol
  Hf1      1.0000 0.28647  0.01586  0.15094  Biso   1.000  Hf
  Hf2      1.0000 0.31906  0.22955  0.41861  Biso   1.000  Hf
  Hf3      1.0000 0.66945  0.27035  0.08590  Biso   1.000  Hf
  Hf4      1.0000 0.70204  0.48404  0.35357  Biso   1.000  Hf
  O1       1.0000 0.02963  0.15562  0.06439  Biso   1.000  O
  O2       1.0000 0.09753  0.07029  0.34092  Biso   1.000  O
  O3       1.0000 0.89099  0.42961  0.16359  Biso   1.000  O
  O4       1.0000 0.95888  0.34428  0.44011  Biso   1.000  O
  O5       1.0000 0.59083  0.13156  0.24903  Biso   1.000  O
  O6       1.0000 0.58393  0.11627  0.49906  Biso   1.000  O
  O7       1.0000 0.40458  0.38363  0.00545  Biso   1.000  O
  O8       1.0000 0.39770  0.36835  0.25548  Biso   1.000  O
  Hf5      1.0000 0.28186  0.01842  0.64912  Biso   1.000  Hf
  Hf6      1.0000 0.25330  0.22545  0.89298  Biso   1.000  Hf
  Hf7      1.0000 0.73521  0.27445  0.61154  Biso   1.000  Hf
  Hf8      1.0000 0.70666  0.48148  0.85539  Biso   1.000  Hf
  O9       1.0000 0.08268  0.16764  0.58847  Biso   1.000  O
  O10      1.0000 0.05595  0.08165  0.82391  Biso   1.000  O
  O11      1.0000 0.93257  0.41825  0.68060  Biso   1.000  O
  O12      1.0000 0.90583  0.33226  0.91604  Biso   1.000  O
  O13      1.0000 0.54719  0.12813  0.74433  Biso   1.000  O
  O14      1.0000 0.52627  0.11870  0.98722  Biso   1.000  O
  O15      1.0000 0.46224  0.38120  0.51729  Biso   1.000  O
  O16      1.0000 0.44133  0.37177  0.76018  Biso   1.000  O
  Hf9      1.0000 0.26438  0.52675  0.14676  Biso   1.000  Hf
  Hf10     1.0000 0.26965  0.72679  0.39929  Biso   1.000  Hf
  Hf11     1.0000 0.71886  0.77311  0.10521  Biso   1.000  Hf
  Hf12     1.0000 0.72413  0.97315  0.35775  Biso   1.000  Hf
  O17      1.0000 0.06024  0.67047  0.07893  Biso   1.000  O
  O18      1.0000 0.05246  0.58529  0.32718  Biso   1.000  O
  O19      1.0000 0.93605  0.91461  0.17733  Biso   1.000  O
  O20      1.0000 0.92828  0.82943  0.42557  Biso   1.000  O
  O21      1.0000 0.54032  0.63035  0.24399  Biso   1.000  O
  O22      1.0000 0.54040  0.62314  0.49304  Biso   1.000  O
  O23      1.0000 0.44811  0.87676  0.01147  Biso   1.000  O
  O24      1.0000 0.44819  0.86955  0.26051  Biso   1.000  O
  Hf13     1.0000 0.27521  0.52401  0.65015  Biso   1.000  Hf
  Hf14     1.0000 0.26874  0.72902  0.89922  Biso   1.000  Hf
  Hf15     1.0000 0.71978  0.77088  0.60529  Biso   1.000  Hf
  Hf16     1.0000 0.71330  0.97589  0.85436  Biso   1.000  Hf
  O25      1.0000 0.05770  0.66284  0.57931  Biso   1.000  O
  O26      1.0000 0.05937  0.58690  0.82997  Biso   1.000  O
  O27      1.0000 0.92914  0.91300  0.67453  Biso   1.000  O
  O28      1.0000 0.93081  0.83706  0.92519  Biso   1.000  O
  O29      1.0000 0.54807  0.62921  0.74303  Biso   1.000  O
  O30      1.0000 0.54516  0.62369  0.99294  Biso   1.000  O
  O31      1.0000 0.44335  0.87621  0.51157  Biso   1.000  O
  O32      1.0000 0.44044  0.87070  0.76148  Biso   1.000  O
  Y1       1.0000 0.99426  0.24995  0.25225  Biso   1.000  Y
