data_image0
_cell_length_a       10.1603
_cell_length_b       10.3051
_cell_length_c       10.5495
_cell_angle_alpha    89.9307
_cell_angle_beta     79.506
_cell_angle_gamma    90.0476

_symmetry_space_group_name_H-M    "P 1"
_symmetry_int_tables_number       1

loop_
  _symmetry_equiv_pos_as_xyz
  'x, y, z'

loop_
  _atom_site_label
  _atom_site_occupancy
  _atom_site_fract_x
  _atom_site_fract_y
  _atom_site_fract_z
  _atom_site_thermal_displace_type
  _atom_site_B_iso_or_equiv
  _atom_site_type_symbol
  Hf1      1.0000 0.13462  0.02059  0.14527  Biso   1.000  Hf
  Hf2      1.0000 0.13377  0.22708  0.39384  Biso   1.000  Hf
  Hf3      1.0000 0.34312  0.27315  0.07545  Biso   1.000  Hf
  Hf4      1.0000 0.35896  0.49184  0.35660  Biso   1.000  Hf
  O1       1.0000 0.03248  0.16675  0.07564  Biso   1.000  O
  O2       1.0000 0.03253  0.08129  0.32806  Biso   1.000  O
  O3       1.0000 0.46498  0.41855  0.17084  Biso   1.000  O
  O4       1.0000 0.47916  0.35797  0.43766  Biso   1.000  O
  O5       1.0000 0.27359  0.12028  0.23278  Biso   1.000  O
  O6       1.0000 0.29183  0.13163  0.47306  Biso   1.000  O
  O7       1.0000 0.20830  0.38759  0.99905  Biso   1.000  O
  O8       1.0000 0.23311  0.36440  0.25560  Biso   1.000  O
  Hf5      1.0000 0.13755  0.02078  0.64575  Biso   1.000  Hf
  Hf6      1.0000 0.13185  0.22847  0.89016  Biso   1.000  Hf
  Hf7      1.0000 0.36167  0.27724  0.60509  Biso   1.000  Hf
  Hf8      1.0000 0.35760  0.48396  0.85063  Biso   1.000  Hf
  O9       1.0000 0.04066  0.16837  0.57862  Biso   1.000  O
  O10      1.0000 0.03084  0.08211  0.82646  Biso   1.000  O
  O11      1.0000 0.46601  0.41861  0.67645  Biso   1.000  O
  O12      1.0000 0.46479  0.33803  0.91551  Biso   1.000  O
  O13      1.0000 0.27387  0.12866  0.73396  Biso   1.000  O
  O14      1.0000 0.26872  0.11926  0.98133  Biso   1.000  O
  O15      1.0000 0.22418  0.38254  0.50815  Biso   1.000  O
  O16      1.0000 0.22258  0.37194  0.75592  Biso   1.000  O
  Hf9      1.0000 0.13772  0.52165  0.14689  Biso   1.000  Hf
  Hf10     1.0000 0.13423  0.72851  0.39707  Biso   1.000  Hf
  Hf11     1.0000 0.35930  0.77134  0.10289  Biso   1.000  Hf
  Hf12     1.0000 0.36051  0.96566  0.35262  Biso   1.000  Hf
  O17      1.0000 0.03365  0.66536  0.07927  Biso   1.000  O
  O18      1.0000 0.03401  0.58227  0.32927  Biso   1.000  O
  O19      1.0000 0.46611  0.91365  0.17328  Biso   1.000  O
  O20      1.0000 0.46422  0.82693  0.42508  Biso   1.000  O
  O21      1.0000 0.27486  0.62802  0.24067  Biso   1.000  O
  O22      1.0000 0.27193  0.62737  0.49343  Biso   1.000  O
  O23      1.0000 0.22250  0.87873  0.00943  Biso   1.000  O
  O24      1.0000 0.21968  0.86579  0.25839  Biso   1.000  O
  Hf13     1.0000 0.13698  0.52289  0.64617  Biso   1.000  Hf
  Hf14     1.0000 0.13645  0.72858  0.89754  Biso   1.000  Hf
  Hf15     1.0000 0.36142  0.77198  0.60560  Biso   1.000  Hf
  Hf16     1.0000 0.35975  0.97679  0.85236  Biso   1.000  Hf
  O25      1.0000 0.03054  0.66639  0.57942  Biso   1.000  O
  O26      1.0000 0.03321  0.58328  0.82957  Biso   1.000  O
  O27      1.0000 0.46553  0.91695  0.67238  Biso   1.000  O
  O28      1.0000 0.46497  0.83488  0.92237  Biso   1.000  O
  O29      1.0000 0.27448  0.62930  0.74058  Biso   1.000  O
  O30      1.0000 0.27606  0.62407  0.99087  Biso   1.000  O
  O31      1.0000 0.22254  0.88178  0.51073  Biso   1.000  O
  O32      1.0000 0.22211  0.87095  0.76000  Biso   1.000  O
  Hf17     1.0000 0.64030  0.01920  0.15010  Biso   1.000  Hf
  Hf18     1.0000 0.65405  0.22735  0.41175  Biso   1.000  Hf
  Hf19     1.0000 0.85824  0.27112  0.10763  Biso   1.000  Hf
  Hf20     1.0000 0.86057  0.47812  0.35613  Biso   1.000  Hf
  O33      1.0000 0.52432  0.16650  0.08018  Biso   1.000  O
  O34      1.0000 0.54850  0.06431  0.34102  Biso   1.000  O
  O35      1.0000 0.96625  0.41411  0.17506  Biso   1.000  O
  O36      1.0000 0.96473  0.33322  0.42513  Biso   1.000  O
  O37      1.0000 0.78356  0.12752  0.24518  Biso   1.000  O
  O38      1.0000 0.78623  0.11693  0.50040  Biso   1.000  O
  O39      1.0000 0.71999  0.37814  0.01379  Biso   1.000  O
  O40      1.0000 0.72325  0.37151  0.26527  Biso   1.000  O
  Hf21     1.0000 0.63854  0.02184  0.64966  Biso   1.000  Hf
  Hf22     1.0000 0.63703  0.22839  0.89970  Biso   1.000  Hf
  Hf23     1.0000 0.86361  0.27183  0.61078  Biso   1.000  Hf
  Hf24     1.0000 0.85889  0.47881  0.85713  Biso   1.000  Hf
  O41      1.0000 0.53632  0.16951  0.58331  Biso   1.000  O
  O42      1.0000 0.53145  0.08441  0.83006  Biso   1.000  O
  O43      1.0000 0.96579  0.41715  0.67489  Biso   1.000  O
  O44      1.0000 0.95914  0.33111  0.92166  Biso   1.000  O
  O45      1.0000 0.77494  0.12959  0.74617  Biso   1.000  O
  O46      1.0000 0.77301  0.12119  0.99500  Biso   1.000  O
  O47      1.0000 0.72943  0.37903  0.51756  Biso   1.000  O
  O48      1.0000 0.72305  0.37159  0.76429  Biso   1.000  O
  Hf25     1.0000 0.63719  0.52277  0.14710  Biso   1.000  Hf
  Hf26     1.0000 0.64009  0.72749  0.39820  Biso   1.000  Hf
  Hf27     1.0000 0.86003  0.77022  0.10587  Biso   1.000  Hf
  Hf28     1.0000 0.85755  0.97713  0.35573  Biso   1.000  Hf
  O49      1.0000 0.53300  0.66692  0.07763  Biso   1.000  O
  O50      1.0000 0.53354  0.58987  0.32537  Biso   1.000  O
  O51      1.0000 0.96353  0.91379  0.17412  Biso   1.000  O
  O52      1.0000 0.96383  0.83359  0.42448  Biso   1.000  O
  O53      1.0000 0.77739  0.62688  0.24185  Biso   1.000  O
  O54      1.0000 0.77532  0.62076  0.49207  Biso   1.000  O
  O55      1.0000 0.72304  0.87781  0.01208  Biso   1.000  O
  O56      1.0000 0.72330  0.86781  0.26033  Biso   1.000  O
  Hf29     1.0000 0.63866  0.52286  0.64933  Biso   1.000  Hf
  Hf30     1.0000 0.63733  0.72875  0.89808  Biso   1.000  Hf
  Hf31     1.0000 0.85931  0.77278  0.60632  Biso   1.000  Hf
  Hf32     1.0000 0.85813  0.97768  0.85729  Biso   1.000  Hf
  O57      1.0000 0.53305  0.66524  0.58021  Biso   1.000  O
  O58      1.0000 0.53214  0.58671  0.82883  Biso   1.000  O
  O59      1.0000 0.96444  0.91650  0.67438  Biso   1.000  O
  O60      1.0000 0.96472  0.83359  0.92386  Biso   1.000  O
  O61      1.0000 0.77508  0.62968  0.74240  Biso   1.000  O
  O62      1.0000 0.77490  0.62115  0.99164  Biso   1.000  O
  O63      1.0000 0.72153  0.87742  0.51276  Biso   1.000  O
  O64      1.0000 0.72219  0.87260  0.76240  Biso   1.000  O
  Y1       1.0000 0.44130  0.23329  0.28300  Biso   1.000  Y
