data_image0
_cell_length_a       10.1947
_cell_length_b       10.2897
_cell_length_c       5.23585
_cell_angle_alpha    90.0445
_cell_angle_beta     80.2094
_cell_angle_gamma    90.1255

_symmetry_space_group_name_H-M    "P 1"
_symmetry_int_tables_number       1

loop_
  _symmetry_equiv_pos_as_xyz
  'x, y, z'

loop_
  _atom_site_label
  _atom_site_occupancy
  _atom_site_fract_x
  _atom_site_fract_y
  _atom_site_fract_z
  _atom_site_thermal_displace_type
  _atom_site_B_iso_or_equiv
  _atom_site_type_symbol
  Y1       1.0000 0.13930  0.01785  0.29085  Biso   1.000  Y
  Hf1      1.0000 0.13965  0.22932  0.79313  Biso   1.000  Hf
  Hf2      1.0000 0.35956  0.26872  0.20893  Biso   1.000  Hf
  Hf3      1.0000 0.36068  0.47733  0.70706  Biso   1.000  Hf
  O1       1.0000 0.03424  0.18126  0.16064  Biso   1.000  O
  O2       1.0000 0.02940  0.08339  0.68320  Biso   1.000  O
  O3       1.0000 0.46564  0.41550  0.34260  Biso   1.000  O
  O4       1.0000 0.46685  0.33399  0.84253  Biso   1.000  O
  O5       1.0000 0.28146  0.13296  0.49121  Biso   1.000  O
  O6       1.0000 0.28132  0.12496  0.97369  Biso   1.000  O
  O7       1.0000 0.22474  0.37928  0.01787  Biso   1.000  O
  O8       1.0000 0.22241  0.37245  0.51731  Biso   1.000  O
  Hf4      1.0000 0.13970  0.52071  0.29044  Biso   1.000  Hf
  Hf5      1.0000 0.14186  0.72828  0.79109  Biso   1.000  Hf
  Hf6      1.0000 0.36238  0.77036  0.20719  Biso   1.000  Hf
  Hf7      1.0000 0.36144  0.97933  0.70831  Biso   1.000  Hf
  O9       1.0000 0.03520  0.66850  0.16019  Biso   1.000  O
  O10      1.0000 0.03422  0.58245  0.65806  Biso   1.000  O
  O11      1.0000 0.46667  0.91762  0.34034  Biso   1.000  O
  O12      1.0000 0.46993  0.83467  0.84405  Biso   1.000  O
  O13      1.0000 0.27636  0.62590  0.47912  Biso   1.000  O
  O14      1.0000 0.27644  0.61898  0.98028  Biso   1.000  O
  O15      1.0000 0.23160  0.87114  0.00693  Biso   1.000  O
  O16      1.0000 0.23120  0.86481  0.52158  Biso   1.000  O
  Hf8      1.0000 0.63965  0.02102  0.29290  Biso   1.000  Hf
  Hf9      1.0000 0.63868  0.22900  0.79230  Biso   1.000  Hf
  Hf10     1.0000 0.85994  0.27180  0.20556  Biso   1.000  Hf
  Hf11     1.0000 0.85991  0.47967  0.70596  Biso   1.000  Hf
  O17      1.0000 0.53454  0.16727  0.15878  Biso   1.000  O
  O18      1.0000 0.53654  0.08221  0.65838  Biso   1.000  O
  O19      1.0000 0.96271  0.42218  0.33563  Biso   1.000  O
  O20      1.0000 0.96401  0.33449  0.83427  Biso   1.000  O
  O21      1.0000 0.77613  0.12956  0.48221  Biso   1.000  O
  O22      1.0000 0.77399  0.12197  0.98331  Biso   1.000  O
  O23      1.0000 0.72306  0.37952  0.01678  Biso   1.000  O
  O24      1.0000 0.72337  0.37151  0.51809  Biso   1.000  O
  Hf12     1.0000 0.63826  0.51999  0.29061  Biso   1.000  Hf
  Hf13     1.0000 0.63869  0.72840  0.79035  Biso   1.000  Hf
  Hf14     1.0000 0.85906  0.77002  0.20806  Biso   1.000  Hf
  Hf15     1.0000 0.85929  0.97829  0.71067  Biso   1.000  Hf
  O25      1.0000 0.53477  0.66558  0.15693  Biso   1.000  O
  O26      1.0000 0.53344  0.58306  0.65595  Biso   1.000  O
  O27      1.0000 0.95259  0.91583  0.34871  Biso   1.000  O
  O28      1.0000 0.96662  0.83187  0.84128  Biso   1.000  O
  O29      1.0000 0.77472  0.62834  0.47892  Biso   1.000  O
  O30      1.0000 0.77511  0.62044  0.97853  Biso   1.000  O
  O31      1.0000 0.72479  0.87826  0.01856  Biso   1.000  O
  O32      1.0000 0.71789  0.86997  0.52064  Biso   1.000  O
