data_image0
_cell_length_a       10.096
_cell_length_b       5.12726
_cell_length_c       10.47
_cell_angle_alpha    90.0136
_cell_angle_beta     89.9425
_cell_angle_gamma    90.1137

_symmetry_space_group_name_H-M    "P 1"
_symmetry_int_tables_number       1

loop_
  _symmetry_equiv_pos_as_xyz
  'x, y, z'

loop_
  _atom_site_label
  _atom_site_occupancy
  _atom_site_fract_x
  _atom_site_fract_y
  _atom_site_fract_z
  _atom_site_thermal_displace_type
  _atom_site_B_iso_or_equiv
  _atom_site_type_symbol
  Y1       1.0000 0.13935  0.03437  0.17014  Biso   1.000  Y
  Hf1      1.0000 0.14140  0.45522  0.42271  Biso   1.000  Hf
  Hf2      1.0000 0.36154  0.53552  0.17150  Biso   1.000  Hf
  Hf3      1.0000 0.36084  0.95623  0.42130  Biso   1.000  Hf
  Hf4      1.0000 0.63864  0.03923  0.07850  Biso   1.000  Hf
  Hf5      1.0000 0.63893  0.45913  0.32801  Biso   1.000  Hf
  Hf6      1.0000 0.85824  0.54113  0.07662  Biso   1.000  Hf
  Hf7      1.0000 0.85917  0.95948  0.32861  Biso   1.000  Hf
  O1       1.0000 0.03104  0.35169  0.08080  Biso   1.000  O
  O2       1.0000 0.02642  0.17556  0.34374  Biso   1.000  O
  O3       1.0000 0.46868  0.82780  0.08341  Biso   1.000  O
  O4       1.0000 0.47088  0.67372  0.33306  Biso   1.000  O
  O5       1.0000 0.28174  0.24920  0.30152  Biso   1.000  O
  O6       1.0000 0.28214  0.25574  0.04031  Biso   1.000  O
  O7       1.0000 0.22928  0.73408  0.29942  Biso   1.000  O
  O8       1.0000 0.23256  0.73865  0.03979  Biso   1.000  O
  O9       1.0000 0.53310  0.32605  0.16715  Biso   1.000  O
  O10      1.0000 0.53278  0.16975  0.41715  Biso   1.000  O
  O11      1.0000 0.95302  0.83091  0.16662  Biso   1.000  O
  O12      1.0000 0.96868  0.67184  0.41640  Biso   1.000  O
  O13      1.0000 0.77399  0.25190  0.45578  Biso   1.000  O
  O14      1.0000 0.77530  0.25358  0.20485  Biso   1.000  O
  O15      1.0000 0.72518  0.74989  0.45478  Biso   1.000  O
  O16      1.0000 0.71661  0.75243  0.20502  Biso   1.000  O
  Hf8      1.0000 0.13966  0.04183  0.67228  Biso   1.000  Hf
  Hf9      1.0000 0.14021  0.46063  0.92178  Biso   1.000  Hf
  Hf10     1.0000 0.36074  0.54150  0.67208  Biso   1.000  Hf
  Hf11     1.0000 0.36142  0.95848  0.92195  Biso   1.000  Hf
  Hf12     1.0000 0.63871  0.04176  0.57781  Biso   1.000  Hf
  Hf13     1.0000 0.63841  0.45751  0.82755  Biso   1.000  Hf
  Hf14     1.0000 0.86130  0.54229  0.57792  Biso   1.000  Hf
  Hf15     1.0000 0.86005  0.95960  0.82760  Biso   1.000  Hf
  O17      1.0000 0.03383  0.33775  0.58904  Biso   1.000  O
  O18      1.0000 0.03294  0.16589  0.83542  Biso   1.000  O
  O19      1.0000 0.46841  0.82707  0.58315  Biso   1.000  O
  O20      1.0000 0.46819  0.66988  0.83218  Biso   1.000  O
  O21      1.0000 0.27523  0.24869  0.79446  Biso   1.000  O
  O22      1.0000 0.27567  0.24996  0.54726  Biso   1.000  O
  O23      1.0000 0.22470  0.74991  0.79373  Biso   1.000  O
  O24      1.0000 0.22461  0.75224  0.54666  Biso   1.000  O
  O25      1.0000 0.53197  0.32785  0.66638  Biso   1.000  O
  O26      1.0000 0.53373  0.16863  0.91568  Biso   1.000  O
  O27      1.0000 0.96622  0.83629  0.66369  Biso   1.000  O
  O28      1.0000 0.96648  0.67189  0.91211  Biso   1.000  O
  O29      1.0000 0.77499  0.24589  0.95328  Biso   1.000  O
  O30      1.0000 0.77533  0.25270  0.70410  Biso   1.000  O
  O31      1.0000 0.72315  0.74744  0.95299  Biso   1.000  O
  O32      1.0000 0.72455  0.75122  0.70369  Biso   1.000  O
