data_image0
_cell_length_a       10.1295
_cell_length_b       5.17388
_cell_length_c       10.6699
_cell_angle_alpha    90.0381
_cell_angle_beta     78.9128
_cell_angle_gamma    91.0212

_symmetry_space_group_name_H-M    "P 1"
_symmetry_int_tables_number       1

loop_
  _symmetry_equiv_pos_as_xyz
  'x, y, z'

loop_
  _atom_site_label
  _atom_site_occupancy
  _atom_site_fract_x
  _atom_site_fract_y
  _atom_site_fract_z
  _atom_site_thermal_displace_type
  _atom_site_B_iso_or_equiv
  _atom_site_type_symbol
  Hf1      1.0000 0.13561  0.04813  0.14970  Biso   1.000  Hf
  Hf2      1.0000 0.13840  0.46453  0.39676  Biso   1.000  Hf
  Hf3      1.0000 0.34158  0.55402  0.08194  Biso   1.000  Hf
  Hf4      1.0000 0.35299  0.96567  0.35582  Biso   1.000  Hf
  O1       1.0000 0.02977  0.33377  0.07877  Biso   1.000  O
  O2       1.0000 0.03519  0.16629  0.32983  Biso   1.000  O
  O3       1.0000 0.45296  0.86380  0.16504  Biso   1.000  O
  O4       1.0000 0.47302  0.67891  0.43929  Biso   1.000  O
  O5       1.0000 0.28479  0.27465  0.24288  Biso   1.000  O
  O6       1.0000 0.27693  0.25196  0.49092  Biso   1.000  O
  O7       1.0000 0.20830  0.77412  0.00242  Biso   1.000  O
  O8       1.0000 0.21207  0.74738  0.25439  Biso   1.000  O
  Hf5      1.0000 0.13799  0.04672  0.64576  Biso   1.000  Hf
  Hf6      1.0000 0.12944  0.45659  0.89453  Biso   1.000  Hf
  Hf7      1.0000 0.36008  0.54785  0.60730  Biso   1.000  Hf
  Hf8      1.0000 0.35440  0.96230  0.85099  Biso   1.000  Hf
  O9       1.0000 0.03555  0.33544  0.58057  Biso   1.000  O
  O10      1.0000 0.02962  0.16645  0.82756  Biso   1.000  O
  O11      1.0000 0.46534  0.82954  0.67787  Biso   1.000  O
  O12      1.0000 0.46158  0.67461  0.91670  Biso   1.000  O
  O13      1.0000 0.27329  0.25637  0.74041  Biso   1.000  O
  O14      1.0000 0.26725  0.24689  0.98672  Biso   1.000  O
  O15      1.0000 0.22111  0.76140  0.51007  Biso   1.000  O
  O16      1.0000 0.21924  0.74105  0.75723  Biso   1.000  O
  Hf9      1.0000 0.64141  0.03429  0.14927  Biso   1.000  Hf
  Hf10     1.0000 0.65282  0.44593  0.42315  Biso   1.000  Hf
  Hf11     1.0000 0.85601  0.53542  0.10833  Biso   1.000  Hf
  Hf12     1.0000 0.85879  0.95183  0.35539  Biso   1.000  Hf
  O17      1.0000 0.52138  0.32102  0.06581  Biso   1.000  O
  O18      1.0000 0.54145  0.13614  0.34005  Biso   1.000  O
  O19      1.0000 0.95921  0.83367  0.17526  Biso   1.000  O
  O20      1.0000 0.96463  0.66619  0.42632  Biso   1.000  O
  O21      1.0000 0.78233  0.25257  0.25070  Biso   1.000  O
  O22      1.0000 0.78610  0.22582  0.50268  Biso   1.000  O
  O23      1.0000 0.71748  0.74800  0.01417  Biso   1.000  O
  O24      1.0000 0.70961  0.72529  0.26221  Biso   1.000  O
  Hf13     1.0000 0.64000  0.03766  0.65411  Biso   1.000  Hf
  Hf14     1.0000 0.63433  0.45210  0.89780  Biso   1.000  Hf
  Hf15     1.0000 0.86496  0.54336  0.61056  Biso   1.000  Hf
  Hf16     1.0000 0.85641  0.95323  0.85933  Biso   1.000  Hf
  O25      1.0000 0.53282  0.32534  0.58839  Biso   1.000  O
  O26      1.0000 0.52907  0.17041  0.82722  Biso   1.000  O
  O27      1.0000 0.96478  0.83350  0.67753  Biso   1.000  O
  O28      1.0000 0.95885  0.66451  0.92452  Biso   1.000  O
  O29      1.0000 0.77517  0.25890  0.74787  Biso   1.000  O
  O30      1.0000 0.77330  0.23856  0.99502  Biso   1.000  O
  O31      1.0000 0.72715  0.75306  0.51837  Biso   1.000  O
  O32      1.0000 0.72111  0.74358  0.76468  Biso   1.000  O
  Y1       1.0000 0.49720  0.49997  0.25255  Biso   1.000  Y
