data_image0
_cell_length_a       10.1592
_cell_length_b       10.2755
_cell_length_c       5.11563
_cell_angle_alpha    89.9998
_cell_angle_beta     90
_cell_angle_gamma    89.9993

_symmetry_space_group_name_H-M    "P 1"
_symmetry_int_tables_number       1

loop_
  _symmetry_equiv_pos_as_xyz
  'x, y, z'

loop_
  _atom_site_label
  _atom_site_occupancy
  _atom_site_fract_x
  _atom_site_fract_y
  _atom_site_fract_z
  _atom_site_thermal_displace_type
  _atom_site_B_iso_or_equiv
  _atom_site_type_symbol
  Zr1      1.0000 0.12538  0.97531  0.25076  Biso   1.000  Zr
  Zr2      1.0000 0.12540  0.25008  0.75084  Biso   1.000  Zr
  Zr3      1.0000 0.39792  0.25007  0.25078  Biso   1.000  Zr
  Zr4      1.0000 0.37139  0.00559  0.75237  Biso   1.000  Zr
  O1       1.0000 0.98585  0.14390  0.98141  Biso   1.000  O
  O2       1.0000 0.00553  0.10282  0.48743  Biso   1.000  O
  O3       1.0000 0.98581  0.35621  0.52029  Biso   1.000  O
  O4       1.0000 0.00550  0.39731  0.01425  Biso   1.000  O
  O5       1.0000 0.26498  0.14395  0.52029  Biso   1.000  O
  O6       1.0000 0.24529  0.10284  0.01425  Biso   1.000  O
  O7       1.0000 0.26495  0.35625  0.98141  Biso   1.000  O
  O8       1.0000 0.24527  0.39733  0.48743  Biso   1.000  O
  Zr5      1.0000 0.12541  0.52483  0.25076  Biso   1.000  Zr
  Zr6      1.0000 0.12539  0.75008  0.75076  Biso   1.000  Zr
  Zr7      1.0000 0.38141  0.75009  0.25078  Biso   1.000  Zr
  Zr8      1.0000 0.37139  0.49456  0.74921  Biso   1.000  Zr
  O9       1.0000 0.99935  0.64624  0.99873  Biso   1.000  O
  O10      1.0000 0.99786  0.61068  0.50422  Biso   1.000  O
  O11      1.0000 0.99935  0.85389  0.50278  Biso   1.000  O
  O12      1.0000 0.99785  0.88944  0.99730  Biso   1.000  O
  O13      1.0000 0.25144  0.64626  0.50279  Biso   1.000  O
  O14      1.0000 0.25294  0.61072  0.99730  Biso   1.000  O
  O15      1.0000 0.25144  0.85391  0.99873  Biso   1.000  O
  O16      1.0000 0.25294  0.88946  0.50422  Biso   1.000  O
  Zr9      1.0000 0.62540  0.99339  0.25079  Biso   1.000  Zr
  Zr10     1.0000 0.62540  0.25008  0.75077  Biso   1.000  Zr
  Zr11     1.0000 0.85288  0.25008  0.25078  Biso   1.000  Zr
  Zr12     1.0000 0.87940  0.00559  0.74921  Biso   1.000  Zr
  O17      1.0000 0.49774  0.14229  0.97814  Biso   1.000  O
  O18      1.0000 0.50618  0.10490  0.48737  Biso   1.000  O
  O19      1.0000 0.49773  0.35787  0.52341  Biso   1.000  O
  O20      1.0000 0.50617  0.39526  0.01420  Biso   1.000  O
  O21      1.0000 0.75306  0.14228  0.52342  Biso   1.000  O
  O22      1.0000 0.74462  0.10490  0.01419  Biso   1.000  O
  O23      1.0000 0.75305  0.35786  0.97815  Biso   1.000  O
  O24      1.0000 0.74461  0.39525  0.48736  Biso   1.000  O
  Zr13     1.0000 0.62539  0.50676  0.25079  Biso   1.000  Zr
  Zr14     1.0000 0.62540  0.75008  0.75079  Biso   1.000  Zr
  Zr15     1.0000 0.86938  0.75006  0.25078  Biso   1.000  Zr
  Zr16     1.0000 0.87940  0.49456  0.75237  Biso   1.000  Zr
  O25      1.0000 0.50133  0.64517  0.99246  Biso   1.000  O
  O26      1.0000 0.49770  0.60583  0.49017  Biso   1.000  O
  O27      1.0000 0.50132  0.85499  0.50913  Biso   1.000  O
  O28      1.0000 0.49771  0.89433  0.01142  Biso   1.000  O
  O29      1.0000 0.74947  0.64516  0.50914  Biso   1.000  O
  O30      1.0000 0.75308  0.60582  0.01142  Biso   1.000  O
  O31      1.0000 0.74947  0.85498  0.99246  Biso   1.000  O
  O32      1.0000 0.75309  0.89432  0.49017  Biso   1.000  O
  Y1       1.0000 0.12540  0.25008  0.25084  Biso   1.000  Y
