data_image0
_cell_length_a       10.2892
_cell_length_b       10.4029
_cell_length_c       5.36294
_cell_angle_alpha    90.0073
_cell_angle_beta     78.7746
_cell_angle_gamma    90.2994

_symmetry_space_group_name_H-M    "P 1"
_symmetry_int_tables_number       1

loop_
  _symmetry_equiv_pos_as_xyz
  'x, y, z'

loop_
  _atom_site_label
  _atom_site_occupancy
  _atom_site_fract_x
  _atom_site_fract_y
  _atom_site_fract_z
  _atom_site_thermal_displace_type
  _atom_site_B_iso_or_equiv
  _atom_site_type_symbol
  Zr1      1.0000 0.13422  0.01960  0.29196  Biso   1.000  Zr
  Zr2      1.0000 0.12756  0.22817  0.77776  Biso   1.000  Zr
  Zr3      1.0000 0.34332  0.28193  0.15553  Biso   1.000  Zr
  Zr4      1.0000 0.35471  0.49641  0.70497  Biso   1.000  Zr
  O1       1.0000 0.03789  0.16476  0.14778  Biso   1.000  O
  O2       1.0000 0.02854  0.08327  0.64992  Biso   1.000  O
  O3       1.0000 0.46650  0.41709  0.35301  Biso   1.000  O
  O4       1.0000 0.47550  0.36153  0.86222  Biso   1.000  O
  O5       1.0000 0.27205  0.12303  0.45150  Biso   1.000  O
  O6       1.0000 0.28603  0.13235  0.92602  Biso   1.000  O
  O7       1.0000 0.20826  0.39141  0.00026  Biso   1.000  O
  O8       1.0000 0.23235  0.36678  0.50738  Biso   1.000  O
  Zr5      1.0000 0.13435  0.52515  0.29323  Biso   1.000  Zr
  Zr6      1.0000 0.13215  0.72952  0.79560  Biso   1.000  Zr
  Zr7      1.0000 0.35981  0.77195  0.20934  Biso   1.000  Zr
  Zr8      1.0000 0.35959  0.96340  0.70375  Biso   1.000  Zr
  O9       1.0000 0.02692  0.66191  0.15415  Biso   1.000  O
  O10      1.0000 0.02934  0.58690  0.65525  Biso   1.000  O
  O11      1.0000 0.46778  0.91099  0.35268  Biso   1.000  O
  O12      1.0000 0.46626  0.83150  0.85729  Biso   1.000  O
  O13      1.0000 0.27125  0.62811  0.48006  Biso   1.000  O
  O14      1.0000 0.26997  0.63107  0.98495  Biso   1.000  O
  O15      1.0000 0.22254  0.88187  0.02232  Biso   1.000  O
  O16      1.0000 0.21804  0.86723  0.51654  Biso   1.000  O
  Zr9      1.0000 0.64184  0.01774  0.30735  Biso   1.000  Zr
  Zr10     1.0000 0.65014  0.22662  0.82959  Biso   1.000  Zr
  Zr11     1.0000 0.86193  0.27078  0.22858  Biso   1.000  Zr
  Zr12     1.0000 0.85819  0.47766  0.71950  Biso   1.000  Zr
  O17      1.0000 0.52917  0.16949  0.17276  Biso   1.000  O
  O18      1.0000 0.54506  0.06730  0.68052  Biso   1.000  O
  O19      1.0000 0.96824  0.41090  0.36223  Biso   1.000  O
  O20      1.0000 0.96097  0.33468  0.85639  Biso   1.000  O
  O21      1.0000 0.78232  0.12692  0.49922  Biso   1.000  O
  O22      1.0000 0.78081  0.11783  0.00710  Biso   1.000  O
  O23      1.0000 0.72643  0.37676  0.04409  Biso   1.000  O
  O24      1.0000 0.72370  0.37109  0.53902  Biso   1.000  O
  Zr13     1.0000 0.63723  0.52376  0.29926  Biso   1.000  Zr
  Zr14     1.0000 0.63772  0.72662  0.80041  Biso   1.000  Zr
  Zr15     1.0000 0.85840  0.77138  0.21713  Biso   1.000  Zr
  Zr16     1.0000 0.85593  0.97596  0.71804  Biso   1.000  Zr
  O25      1.0000 0.52925  0.66114  0.15358  Biso   1.000  O
  O26      1.0000 0.52904  0.59514  0.64618  Biso   1.000  O
  O27      1.0000 0.96454  0.91038  0.35970  Biso   1.000  O
  O28      1.0000 0.96554  0.83823  0.86005  Biso   1.000  O
  O29      1.0000 0.77442  0.62650  0.48748  Biso   1.000  O
  O30      1.0000 0.77247  0.62068  0.98649  Biso   1.000  O
  O31      1.0000 0.72260  0.87514  0.02983  Biso   1.000  O
  O32      1.0000 0.72295  0.86923  0.52653  Biso   1.000  O
  Y1       1.0000 0.43748  0.23221  0.56546  Biso   1.000  Y
