data_image0
_cell_length_a       10.2697
_cell_length_b       10.359
_cell_length_c       5.26258
_cell_angle_alpha    90.0451
_cell_angle_beta     80.2193
_cell_angle_gamma    90.1086

_symmetry_space_group_name_H-M    "P 1"
_symmetry_int_tables_number       1

loop_
  _symmetry_equiv_pos_as_xyz
  'x, y, z'

loop_
  _atom_site_label
  _atom_site_occupancy
  _atom_site_fract_x
  _atom_site_fract_y
  _atom_site_fract_z
  _atom_site_thermal_displace_type
  _atom_site_B_iso_or_equiv
  _atom_site_type_symbol
  Y1       1.0000 0.13933  0.01783  0.29088  Biso   1.000  Y
  Zr1      1.0000 0.13972  0.52080  0.28980  Biso   1.000  Zr
  Zr2      1.0000 0.63950  0.02106  0.29189  Biso   1.000  Zr
  Zr3      1.0000 0.63838  0.51991  0.28977  Biso   1.000  Zr
  Zr4      1.0000 0.13965  0.22906  0.79209  Biso   1.000  Zr
  Zr5      1.0000 0.14186  0.72862  0.79040  Biso   1.000  Zr
  Zr6      1.0000 0.63875  0.22908  0.79136  Biso   1.000  Zr
  Zr7      1.0000 0.63865  0.72842  0.78958  Biso   1.000  Zr
  Zr8      1.0000 0.35942  0.26875  0.20978  Biso   1.000  Zr
  Zr9      1.0000 0.36230  0.77043  0.20789  Biso   1.000  Zr
  Zr10     1.0000 0.86047  0.27147  0.20644  Biso   1.000  Zr
  Zr11     1.0000 0.85919  0.77031  0.20928  Biso   1.000  Zr
  Zr12     1.0000 0.36072  0.47742  0.70798  Biso   1.000  Zr
  Zr13     1.0000 0.36129  0.97946  0.70931  Biso   1.000  Zr
  Zr14     1.0000 0.86002  0.47968  0.70714  Biso   1.000  Zr
  Zr15     1.0000 0.85917  0.97834  0.71113  Biso   1.000  Zr
  O1       1.0000 0.03391  0.18017  0.16006  Biso   1.000  O
  O2       1.0000 0.03493  0.66819  0.15989  Biso   1.000  O
  O3       1.0000 0.53399  0.16679  0.15827  Biso   1.000  O
  O4       1.0000 0.53411  0.66503  0.15647  Biso   1.000  O
  O5       1.0000 0.02931  0.08366  0.68066  Biso   1.000  O
  O6       1.0000 0.03392  0.58293  0.65808  Biso   1.000  O
  O7       1.0000 0.53581  0.08279  0.65799  Biso   1.000  O
  O8       1.0000 0.53301  0.58339  0.65553  Biso   1.000  O
  O9       1.0000 0.46619  0.41502  0.34308  Biso   1.000  O
  O10      1.0000 0.46716  0.91704  0.34119  Biso   1.000  O
  O11      1.0000 0.96340  0.42181  0.33606  Biso   1.000  O
  O12      1.0000 0.95374  0.91550  0.34823  Biso   1.000  O
  O13      1.0000 0.46719  0.33429  0.84301  Biso   1.000  O
  O14      1.0000 0.47020  0.83499  0.84440  Biso   1.000  O
  O15      1.0000 0.96459  0.33478  0.83446  Biso   1.000  O
  O16      1.0000 0.96701  0.83239  0.84142  Biso   1.000  O
  O17      1.0000 0.28028  0.13228  0.49038  Biso   1.000  O
  O18      1.0000 0.27567  0.62606  0.47953  Biso   1.000  O
  O19      1.0000 0.77524  0.12912  0.48201  Biso   1.000  O
  O20      1.0000 0.77407  0.62811  0.47910  Biso   1.000  O
  O21      1.0000 0.28016  0.12469  0.97454  Biso   1.000  O
  O22      1.0000 0.27577  0.61938  0.98043  Biso   1.000  O
  O23      1.0000 0.77344  0.12209  0.98296  Biso   1.000  O
  O24      1.0000 0.77438  0.62075  0.97881  Biso   1.000  O
  O25      1.0000 0.22538  0.37901  0.01790  Biso   1.000  O
  O26      1.0000 0.23172  0.87154  0.00786  Biso   1.000  O
  O27      1.0000 0.72391  0.37911  0.01701  Biso   1.000  O
  O28      1.0000 0.72536  0.87809  0.01857  Biso   1.000  O
  O29      1.0000 0.22336  0.37260  0.51734  Biso   1.000  O
  O30      1.0000 0.23111  0.86579  0.52118  Biso   1.000  O
  O31      1.0000 0.72428  0.37168  0.51814  Biso   1.000  O
  O32      1.0000 0.71896  0.87030  0.52071  Biso   1.000  O
