data_image0
_cell_length_a       10.1437
_cell_length_b       10.3684
_cell_length_c       5.35471
_cell_angle_alpha    89.9487
_cell_angle_beta     91.4633
_cell_angle_gamma    90.5594

_symmetry_space_group_name_H-M    "P 1"
_symmetry_int_tables_number       1

loop_
  _symmetry_equiv_pos_as_xyz
  'x, y, z'

loop_
  _atom_site_label
  _atom_site_occupancy
  _atom_site_fract_x
  _atom_site_fract_y
  _atom_site_fract_z
  _atom_site_thermal_displace_type
  _atom_site_B_iso_or_equiv
  _atom_site_type_symbol
  Zr1      1.0000 0.14082  0.02067  0.35306  Biso   1.000  Zr
  Zr2      1.0000 0.14202  0.22793  0.85915  Biso   1.000  Zr
  Zr3      1.0000 0.35076  0.27421  0.38447  Biso   1.000  Zr
  Zr4      1.0000 0.35743  0.48519  0.86132  Biso   1.000  Zr
  Zr5      1.0000 0.64540  0.00408  0.15288  Biso   1.000  Zr
  Zr6      1.0000 0.65485  0.21914  0.59975  Biso   1.000  Zr
  Zr7      1.0000 0.87035  0.27154  0.14231  Biso   1.000  Zr
  Zr8      1.0000 0.86169  0.47825  0.65050  Biso   1.000  Zr
  O1       1.0000 0.03385  0.15734  0.16140  Biso   1.000  O
  O2       1.0000 0.03338  0.08962  0.66351  Biso   1.000  O
  O3       1.0000 0.45778  0.43354  0.19556  Biso   1.000  O
  O4       1.0000 0.47356  0.33204  0.68080  Biso   1.000  O
  O5       1.0000 0.27392  0.12492  0.60945  Biso   1.000  O
  O6       1.0000 0.27969  0.12639  0.10570  Biso   1.000  O
  O7       1.0000 0.22130  0.37713  0.61806  Biso   1.000  O
  O8       1.0000 0.21923  0.37648  0.11496  Biso   1.000  O
  O9       1.0000 0.52269  0.13894  0.35259  Biso   1.000  O
  O10      1.0000 0.53175  0.08439  0.84367  Biso   1.000  O
  O11      1.0000 0.96735  0.41193  0.34806  Biso   1.000  O
  O12      1.0000 0.97406  0.33857  0.84434  Biso   1.000  O
  O13      1.0000 0.76911  0.12777  0.89738  Biso   1.000  O
  O14      1.0000 0.79005  0.11499  0.38970  Biso   1.000  O
  O15      1.0000 0.72813  0.37885  0.88752  Biso   1.000  O
  O16      1.0000 0.71534  0.37084  0.36624  Biso   1.000  O
  Zr9      1.0000 0.13932  0.52174  0.35258  Biso   1.000  Zr
  Zr10     1.0000 0.13837  0.72904  0.84948  Biso   1.000  Zr
  Zr11     1.0000 0.36184  0.77239  0.35562  Biso   1.000  Zr
  Zr12     1.0000 0.36227  0.97599  0.85523  Biso   1.000  Zr
  Zr13     1.0000 0.64151  0.53808  0.15192  Biso   1.000  Zr
  Zr14     1.0000 0.64096  0.72998  0.65746  Biso   1.000  Zr
  Zr15     1.0000 0.86766  0.76930  0.16092  Biso   1.000  Zr
  Zr16     1.0000 0.86706  0.97868  0.65982  Biso   1.000  Zr
  O17      1.0000 0.03297  0.65974  0.16460  Biso   1.000  O
  O18      1.0000 0.03143  0.58775  0.66737  Biso   1.000  O
  O19      1.0000 0.47295  0.90200  0.15472  Biso   1.000  O
  O20      1.0000 0.47247  0.84101  0.66281  Biso   1.000  O
  O21      1.0000 0.27399  0.62682  0.59896  Biso   1.000  O
  O22      1.0000 0.27398  0.62764  0.09667  Biso   1.000  O
  O23      1.0000 0.22688  0.87454  0.60281  Biso   1.000  O
  O24      1.0000 0.22581  0.87683  0.10361  Biso   1.000  O
  O25      1.0000 0.53234  0.66787  0.34731  Biso   1.000  O
  O26      1.0000 0.52996  0.59078  0.84096  Biso   1.000  O
  O27      1.0000 0.97445  0.90831  0.35175  Biso   1.000  O
  O28      1.0000 0.97340  0.83997  0.85069  Biso   1.000  O
  O29      1.0000 0.78031  0.62837  0.90283  Biso   1.000  O
  O30      1.0000 0.77964  0.62587  0.41188  Biso   1.000  O
  O31      1.0000 0.73122  0.87410  0.90990  Biso   1.000  O
  O32      1.0000 0.73189  0.86981  0.41399  Biso   1.000  O
  Y1       1.0000 0.56152  0.26883  0.04431  Biso   1.000  Y
