data_image0
_cell_length_a       10.1355
_cell_length_b       10.3081
_cell_length_c       10.5254
_cell_angle_alpha    90.006
_cell_angle_beta     89.9963
_cell_angle_gamma    90.0413

_symmetry_space_group_name_H-M    "P 1"
_symmetry_int_tables_number       1

loop_
  _symmetry_equiv_pos_as_xyz
  'x, y, z'

loop_
  _atom_site_label
  _atom_site_occupancy
  _atom_site_fract_x
  _atom_site_fract_y
  _atom_site_fract_z
  _atom_site_thermal_displace_type
  _atom_site_B_iso_or_equiv
  _atom_site_type_symbol
  Y1       1.0000 0.13946  0.01766  0.17018  Biso   1.000  Y
  Zr1      1.0000 0.13912  0.02103  0.67182  Biso   1.000  Zr
  Zr2      1.0000 0.13900  0.52071  0.17148  Biso   1.000  Zr
  Zr3      1.0000 0.13893  0.52103  0.67158  Biso   1.000  Zr
  Zr4      1.0000 0.13884  0.22762  0.42171  Biso   1.000  Zr
  Zr5      1.0000 0.13853  0.22999  0.92166  Biso   1.000  Zr
  Zr6      1.0000 0.14001  0.72878  0.42159  Biso   1.000  Zr
  Zr7      1.0000 0.13985  0.72893  0.92183  Biso   1.000  Zr
  Zr8      1.0000 0.35966  0.26939  0.17160  Biso   1.000  Zr
  Zr9      1.0000 0.36055  0.27057  0.67167  Biso   1.000  Zr
  Zr10     1.0000 0.36254  0.76961  0.17153  Biso   1.000  Zr
  Zr11     1.0000 0.36074  0.77124  0.67159  Biso   1.000  Zr
  Zr12     1.0000 0.36067  0.47812  0.42120  Biso   1.000  Zr
  Zr13     1.0000 0.36063  0.47858  0.92206  Biso   1.000  Zr
  Zr14     1.0000 0.36103  0.97902  0.42140  Biso   1.000  Zr
  Zr15     1.0000 0.36148  0.97967  0.92131  Biso   1.000  Zr
  Zr16     1.0000 0.63933  0.02079  0.07913  Biso   1.000  Zr
  Zr17     1.0000 0.63915  0.02114  0.57863  Biso   1.000  Zr
  Zr18     1.0000 0.63867  0.51975  0.07806  Biso   1.000  Zr
  Zr19     1.0000 0.63869  0.52093  0.57768  Biso   1.000  Zr
  Zr20     1.0000 0.63880  0.22935  0.32823  Biso   1.000  Zr
  Zr21     1.0000 0.63905  0.22884  0.82832  Biso   1.000  Zr
  Zr22     1.0000 0.63932  0.72930  0.32835  Biso   1.000  Zr
  Zr23     1.0000 0.63859  0.72898  0.82794  Biso   1.000  Zr
  Zr24     1.0000 0.86143  0.27140  0.07701  Biso   1.000  Zr
  Zr25     1.0000 0.86107  0.27130  0.57808  Biso   1.000  Zr
  Zr26     1.0000 0.85933  0.77034  0.07880  Biso   1.000  Zr
  Zr27     1.0000 0.86166  0.77116  0.57840  Biso   1.000  Zr
  Zr28     1.0000 0.86114  0.47925  0.32817  Biso   1.000  Zr
  Zr29     1.0000 0.86039  0.47979  0.82746  Biso   1.000  Zr
  Zr30     1.0000 0.86025  0.97905  0.32888  Biso   1.000  Zr
  Zr31     1.0000 0.86120  0.97898  0.82904  Biso   1.000  Zr
  O1       1.0000 0.03021  0.17244  0.07894  Biso   1.000  O
  O2       1.0000 0.03245  0.16667  0.58634  Biso   1.000  O
  O3       1.0000 0.03196  0.66395  0.08222  Biso   1.000  O
  O4       1.0000 0.03212  0.66433  0.58347  Biso   1.000  O
  O5       1.0000 0.02647  0.08841  0.34068  Biso   1.000  O
  O6       1.0000 0.03218  0.08506  0.83368  Biso   1.000  O
  O7       1.0000 0.03177  0.58673  0.33281  Biso   1.000  O
  O8       1.0000 0.03142  0.58623  0.83192  Biso   1.000  O
  O9       1.0000 0.46835  0.41233  0.08180  Biso   1.000  O
  O10      1.0000 0.46873  0.41286  0.58207  Biso   1.000  O
  O11      1.0000 0.46943  0.91422  0.08292  Biso   1.000  O
  O12      1.0000 0.46892  0.91314  0.58243  Biso   1.000  O
  O13      1.0000 0.46917  0.33766  0.33188  Biso   1.000  O
  O14      1.0000 0.46844  0.33617  0.83202  Biso   1.000  O
  O15      1.0000 0.47100  0.83706  0.33220  Biso   1.000  O
  O16      1.0000 0.46901  0.83667  0.83150  Biso   1.000  O
  O17      1.0000 0.28014  0.12722  0.30091  Biso   1.000  O
  O18      1.0000 0.27462  0.12438  0.79420  Biso   1.000  O
  O19      1.0000 0.27594  0.62181  0.29530  Biso   1.000  O
  O20      1.0000 0.27515  0.62462  0.79568  Biso   1.000  O
  O21      1.0000 0.28117  0.13054  0.03991  Biso   1.000  O
  O22      1.0000 0.27481  0.12493  0.54680  Biso   1.000  O
  O23      1.0000 0.27508  0.62304  0.04608  Biso   1.000  O
  O24      1.0000 0.27525  0.62551  0.54555  Biso   1.000  O
  O25      1.0000 0.22389  0.37374  0.29534  Biso   1.000  O
  O26      1.0000 0.22534  0.37509  0.79517  Biso   1.000  O
  O27      1.0000 0.23024  0.86809  0.29904  Biso   1.000  O
  O28      1.0000 0.22509  0.87453  0.79418  Biso   1.000  O
  O29      1.0000 0.22401  0.37673  0.04555  Biso   1.000  O
  O30      1.0000 0.22529  0.37575  0.54577  Biso   1.000  O
  O31      1.0000 0.23316  0.86864  0.04025  Biso   1.000  O
  O32      1.0000 0.22501  0.87574  0.54622  Biso   1.000  O
  O33      1.0000 0.53191  0.16388  0.16754  Biso   1.000  O
  O34      1.0000 0.53150  0.16352  0.66739  Biso   1.000  O
  O35      1.0000 0.53175  0.66161  0.16817  Biso   1.000  O
  O36      1.0000 0.53103  0.66284  0.66785  Biso   1.000  O
  O37      1.0000 0.53226  0.08617  0.41780  Biso   1.000  O
  O38      1.0000 0.53352  0.08533  0.91650  Biso   1.000  O
  O39      1.0000 0.53104  0.58669  0.41816  Biso   1.000  O
  O40      1.0000 0.53053  0.58691  0.91802  Biso   1.000  O
  O41      1.0000 0.96671  0.41635  0.16665  Biso   1.000  O
  O42      1.0000 0.96756  0.41573  0.66581  Biso   1.000  O
  O43      1.0000 0.95751  0.91000  0.17005  Biso   1.000  O
  O44      1.0000 0.96780  0.91439  0.66755  Biso   1.000  O
  O45      1.0000 0.96826  0.33759  0.41783  Biso   1.000  O
  O46      1.0000 0.96716  0.33814  0.91420  Biso   1.000  O
  O47      1.0000 0.96899  0.83592  0.41844  Biso   1.000  O
  O48      1.0000 0.96901  0.83655  0.91791  Biso   1.000  O
  O49      1.0000 0.77545  0.12435  0.95444  Biso   1.000  O
  O50      1.0000 0.77350  0.12573  0.45590  Biso   1.000  O
  O51      1.0000 0.77366  0.62332  0.95334  Biso   1.000  O
  O52      1.0000 0.77515  0.62458  0.45436  Biso   1.000  O
  O53      1.0000 0.77461  0.12607  0.20509  Biso   1.000  O
  O54      1.0000 0.77515  0.12569  0.70502  Biso   1.000  O
  O55      1.0000 0.77484  0.62559  0.20418  Biso   1.000  O
  O56      1.0000 0.77436  0.62611  0.70363  Biso   1.000  O
  O57      1.0000 0.72374  0.37439  0.95342  Biso   1.000  O
  O58      1.0000 0.72472  0.37514  0.45402  Biso   1.000  O
  O59      1.0000 0.72502  0.87398  0.95431  Biso   1.000  O
  O60      1.0000 0.72554  0.87445  0.45536  Biso   1.000  O
  O61      1.0000 0.72443  0.37612  0.20455  Biso   1.000  O
  O62      1.0000 0.72479  0.37559  0.70370  Biso   1.000  O
  O63      1.0000 0.71852  0.87515  0.20478  Biso   1.000  O
  O64      1.0000 0.72508  0.87558  0.70477  Biso   1.000  O
