data_image0
_cell_length_a       5.04579
_cell_length_b       10.4223
_cell_length_c       10.1243
_cell_angle_alpha    90.1563
_cell_angle_beta     90.3018
_cell_angle_gamma    90.0206

_symmetry_space_group_name_H-M    "P 1"
_symmetry_int_tables_number       1

loop_
  _symmetry_equiv_pos_as_xyz
  'x, y, z'

loop_
  _atom_site_label
  _atom_site_occupancy
  _atom_site_fract_x
  _atom_site_fract_y
  _atom_site_fract_z
  _atom_site_thermal_displace_type
  _atom_site_B_iso_or_equiv
  _atom_site_type_symbol
  Y1       1.0000 0.26317  0.01203  0.12095  Biso   1.000  Y
  Zr1      1.0000 0.26704  0.01619  0.62445  Biso   1.000  Zr
  Zr2      1.0000 0.26746  0.51476  0.12468  Biso   1.000  Zr
  Zr3      1.0000 0.26786  0.51553  0.62549  Biso   1.000  Zr
  Zr4      1.0000 0.26721  0.23388  0.37454  Biso   1.000  Zr
  Zr5      1.0000 0.27081  0.23502  0.87283  Biso   1.000  Zr
  Zr6      1.0000 0.26614  0.73406  0.37650  Biso   1.000  Zr
  Zr7      1.0000 0.27468  0.73423  0.87529  Biso   1.000  Zr
  Zr8      1.0000 0.72648  0.26486  0.12638  Biso   1.000  Zr
  Zr9      1.0000 0.73235  0.26572  0.62351  Biso   1.000  Zr
  Zr10     1.0000 0.72937  0.76526  0.12700  Biso   1.000  Zr
  Zr11     1.0000 0.73303  0.76556  0.62463  Biso   1.000  Zr
  Zr12     1.0000 0.72963  0.48448  0.37538  Biso   1.000  Zr
  Zr13     1.0000 0.73307  0.48363  0.87589  Biso   1.000  Zr
  Zr14     1.0000 0.72604  0.98386  0.37423  Biso   1.000  Zr
  Zr15     1.0000 0.73196  0.98405  0.87298  Biso   1.000  Zr
  O1       1.0000 0.06199  0.18959  0.19883  Biso   1.000  O
  O2       1.0000 0.07401  0.18613  0.68921  Biso   1.000  O
  O3       1.0000 0.06701  0.68068  0.19720  Biso   1.000  O
  O4       1.0000 0.07006  0.68296  0.69589  Biso   1.000  O
  O5       1.0000 0.06628  0.06681  0.44458  Biso   1.000  O
  O6       1.0000 0.06863  0.07161  0.92898  Biso   1.000  O
  O7       1.0000 0.06614  0.56647  0.44730  Biso   1.000  O
  O8       1.0000 0.06865  0.56920  0.94568  Biso   1.000  O
  O9       1.0000 0.92819  0.43481  0.19584  Biso   1.000  O
  O10      1.0000 0.93369  0.43316  0.69675  Biso   1.000  O
  O11      1.0000 0.90949  0.92924  0.20101  Biso   1.000  O
  O12      1.0000 0.93047  0.93270  0.69391  Biso   1.000  O
  O13      1.0000 0.92934  0.31826  0.44563  Biso   1.000  O
  O14      1.0000 0.93693  0.31990  0.94674  Biso   1.000  O
  O15      1.0000 0.93145  0.81639  0.44825  Biso   1.000  O
  O16      1.0000 0.94996  0.82174  0.95095  Biso   1.000  O
  O17      1.0000 0.54557  0.12234  0.25269  Biso   1.000  O
  O18      1.0000 0.54102  0.11723  0.74608  Biso   1.000  O
  O19      1.0000 0.53585  0.61468  0.24843  Biso   1.000  O
  O20      1.0000 0.54105  0.61660  0.74811  Biso   1.000  O
  O21      1.0000 0.53434  0.13354  0.49962  Biso   1.000  O
  O22      1.0000 0.54842  0.13562  0.99348  Biso   1.000  O
  O23      1.0000 0.53699  0.63316  0.49851  Biso   1.000  O
  O24      1.0000 0.54064  0.63009  0.99837  Biso   1.000  O
  O25      1.0000 0.46111  0.38400  0.49816  Biso   1.000  O
  O26      1.0000 0.46200  0.38336  0.99772  Biso   1.000  O
  O27      1.0000 0.46004  0.88327  0.49923  Biso   1.000  O
  O28      1.0000 0.47936  0.87562  0.99344  Biso   1.000  O
  O29      1.0000 0.45748  0.36824  0.24838  Biso   1.000  O
  O30      1.0000 0.46518  0.36760  0.74741  Biso   1.000  O
  O31      1.0000 0.45959  0.85955  0.25240  Biso   1.000  O
  O32      1.0000 0.46200  0.86678  0.74647  Biso   1.000  O
