data_image0
_cell_length_a       10.2379
_cell_length_b       10.3838
_cell_length_c       10.6086
_cell_angle_alpha    89.8974
_cell_angle_beta     79.506
_cell_angle_gamma    90.0425

_symmetry_space_group_name_H-M    "P 1"
_symmetry_int_tables_number       1

loop_
  _symmetry_equiv_pos_as_xyz
  'x, y, z'

loop_
  _atom_site_label
  _atom_site_occupancy
  _atom_site_fract_x
  _atom_site_fract_y
  _atom_site_fract_z
  _atom_site_thermal_displace_type
  _atom_site_B_iso_or_equiv
  _atom_site_type_symbol
  Zr1      1.0000 0.13499  0.02026  0.14440  Biso   1.000  Zr
  Zr2      1.0000 0.13232  0.22698  0.39337  Biso   1.000  Zr
  Zr3      1.0000 0.34216  0.27352  0.07406  Biso   1.000  Zr
  Zr4      1.0000 0.35885  0.49263  0.35708  Biso   1.000  Zr
  O1       1.0000 0.03262  0.16670  0.07567  Biso   1.000  O
  O2       1.0000 0.03189  0.08170  0.32741  Biso   1.000  O
  O3       1.0000 0.46647  0.41748  0.17243  Biso   1.000  O
  O4       1.0000 0.47873  0.35550  0.43585  Biso   1.000  O
  O5       1.0000 0.27367  0.12027  0.23264  Biso   1.000  O
  O6       1.0000 0.29142  0.13262  0.47209  Biso   1.000  O
  O7       1.0000 0.20679  0.38811  0.99811  Biso   1.000  O
  O8       1.0000 0.23564  0.36319  0.25687  Biso   1.000  O
  Zr5      1.0000 0.13752  0.02098  0.64506  Biso   1.000  Zr
  Zr6      1.0000 0.13245  0.22851  0.88954  Biso   1.000  Zr
  Zr7      1.0000 0.36122  0.27712  0.60526  Biso   1.000  Zr
  Zr8      1.0000 0.35723  0.48413  0.85024  Biso   1.000  Zr
  O9       1.0000 0.04031  0.16849  0.57865  Biso   1.000  O
  O10      1.0000 0.03051  0.08230  0.82602  Biso   1.000  O
  O11      1.0000 0.46653  0.41815  0.67587  Biso   1.000  O
  O12      1.0000 0.46543  0.33905  0.91578  Biso   1.000  O
  O13      1.0000 0.27324  0.12850  0.73346  Biso   1.000  O
  O14      1.0000 0.26827  0.11797  0.98153  Biso   1.000  O
  O15      1.0000 0.22509  0.38295  0.50801  Biso   1.000  O
  O16      1.0000 0.22324  0.37236  0.75510  Biso   1.000  O
  Zr9      1.0000 0.13812  0.52137  0.14639  Biso   1.000  Zr
  Zr10     1.0000 0.13374  0.72846  0.39654  Biso   1.000  Zr
  Zr11     1.0000 0.35937  0.77098  0.10283  Biso   1.000  Zr
  Zr12     1.0000 0.35978  0.96555  0.35268  Biso   1.000  Zr
  O17      1.0000 0.03346  0.66484  0.07911  Biso   1.000  O
  O18      1.0000 0.03336  0.58233  0.32925  Biso   1.000  O
  O19      1.0000 0.46636  0.91329  0.17322  Biso   1.000  O
  O20      1.0000 0.46494  0.82838  0.42544  Biso   1.000  O
  O21      1.0000 0.27414  0.62774  0.24073  Biso   1.000  O
  O22      1.0000 0.27093  0.62823  0.49344  Biso   1.000  O
  O23      1.0000 0.22314  0.87780  0.00921  Biso   1.000  O
  O24      1.0000 0.22024  0.86591  0.25810  Biso   1.000  O
  Zr13     1.0000 0.13686  0.52292  0.64545  Biso   1.000  Zr
  Zr14     1.0000 0.13653  0.72840  0.89689  Biso   1.000  Zr
  Zr15     1.0000 0.36130  0.77236  0.60591  Biso   1.000  Zr
  Zr16     1.0000 0.35977  0.97645  0.85271  Biso   1.000  Zr
  O25      1.0000 0.02960  0.66599  0.57897  Biso   1.000  O
  O26      1.0000 0.03270  0.58348  0.82926  Biso   1.000  O
  O27      1.0000 0.46643  0.91639  0.67294  Biso   1.000  O
  O28      1.0000 0.46573  0.83515  0.92264  Biso   1.000  O
  O29      1.0000 0.27360  0.62921  0.74019  Biso   1.000  O
  O30      1.0000 0.27560  0.62427  0.99035  Biso   1.000  O
  O31      1.0000 0.22309  0.88170  0.51059  Biso   1.000  O
  O32      1.0000 0.22290  0.87117  0.75966  Biso   1.000  O
  Zr17     1.0000 0.64102  0.01809  0.14863  Biso   1.000  Zr
  Zr18     1.0000 0.65485  0.22743  0.41207  Biso   1.000  Zr
  Zr19     1.0000 0.85900  0.27116  0.10771  Biso   1.000  Zr
  Zr20     1.0000 0.86044  0.47850  0.35633  Biso   1.000  Zr
  O33      1.0000 0.52597  0.16781  0.08268  Biso   1.000  O
  O34      1.0000 0.54664  0.06771  0.33829  Biso   1.000  O
  O35      1.0000 0.96700  0.41352  0.17559  Biso   1.000  O
  O36      1.0000 0.96433  0.33325  0.42536  Biso   1.000  O
  O37      1.0000 0.78165  0.12738  0.24459  Biso   1.000  O
  O38      1.0000 0.78609  0.11718  0.50066  Biso   1.000  O
  O39      1.0000 0.72069  0.37796  0.01395  Biso   1.000  O
  O40      1.0000 0.72392  0.37061  0.26535  Biso   1.000  O
  Zr21     1.0000 0.63867  0.02185  0.64993  Biso   1.000  Zr
  Zr22     1.0000 0.63735  0.22862  0.89992  Biso   1.000  Zr
  Zr23     1.0000 0.86337  0.27208  0.61199  Biso   1.000  Zr
  Zr24     1.0000 0.85901  0.47866  0.85782  Biso   1.000  Zr
  O41      1.0000 0.53619  0.16877  0.58257  Biso   1.000  O
  O42      1.0000 0.53070  0.08513  0.83045  Biso   1.000  O
  O43      1.0000 0.96611  0.41688  0.67493  Biso   1.000  O
  O44      1.0000 0.95928  0.33065  0.92131  Biso   1.000  O
  O45      1.0000 0.77414  0.12941  0.74645  Biso   1.000  O
  O46      1.0000 0.77270  0.12056  0.99497  Biso   1.000  O
  O47      1.0000 0.72987  0.37897  0.51766  Biso   1.000  O
  O48      1.0000 0.72351  0.37186  0.76449  Biso   1.000  O
  Zr25     1.0000 0.63729  0.52232  0.14696  Biso   1.000  Zr
  Zr26     1.0000 0.63996  0.72755  0.39811  Biso   1.000  Zr
  Zr27     1.0000 0.86045  0.76981  0.10619  Biso   1.000  Zr
  Zr28     1.0000 0.85752  0.97703  0.35596  Biso   1.000  Zr
  O49      1.0000 0.53233  0.66596  0.07717  Biso   1.000  O
  O50      1.0000 0.53324  0.59026  0.32566  Biso   1.000  O
  O51      1.0000 0.96382  0.91365  0.17400  Biso   1.000  O
  O52      1.0000 0.96410  0.83398  0.42451  Biso   1.000  O
  O53      1.0000 0.77677  0.62656  0.24210  Biso   1.000  O
  O54      1.0000 0.77456  0.62105  0.49222  Biso   1.000  O
  O55      1.0000 0.72396  0.87693  0.01197  Biso   1.000  O
  O56      1.0000 0.72378  0.86826  0.26056  Biso   1.000  O
  Zr29     1.0000 0.63855  0.52301  0.64900  Biso   1.000  Zr
  Zr30     1.0000 0.63735  0.72831  0.89767  Biso   1.000  Zr
  Zr31     1.0000 0.85920  0.77284  0.60689  Biso   1.000  Zr
  Zr32     1.0000 0.85874  0.97757  0.85748  Biso   1.000  Zr
  O57      1.0000 0.53227  0.66484  0.57975  Biso   1.000  O
  O58      1.0000 0.53127  0.58738  0.82798  Biso   1.000  O
  O59      1.0000 0.96521  0.91609  0.67433  Biso   1.000  O
  O60      1.0000 0.96536  0.83355  0.92404  Biso   1.000  O
  O61      1.0000 0.77423  0.62946  0.74249  Biso   1.000  O
  O62      1.0000 0.77430  0.62118  0.99172  Biso   1.000  O
  O63      1.0000 0.72224  0.87739  0.51285  Biso   1.000  O
  O64      1.0000 0.72305  0.87278  0.76256  Biso   1.000  O
  Y1       1.0000 0.43926  0.23358  0.28222  Biso   1.000  Y
