data_image0
_cell_length_a       10.1667
_cell_length_b       10.3247
_cell_length_c       5.26251
_cell_angle_alpha    90.0075
_cell_angle_beta     89.9316
_cell_angle_gamma    90.0738

_symmetry_space_group_name_H-M    "P 1"
_symmetry_int_tables_number       1

loop_
  _symmetry_equiv_pos_as_xyz
  'x, y, z'

loop_
  _atom_site_label
  _atom_site_occupancy
  _atom_site_fract_x
  _atom_site_fract_y
  _atom_site_fract_z
  _atom_site_thermal_displace_type
  _atom_site_B_iso_or_equiv
  _atom_site_type_symbol
  Y1       1.0000 0.13950  0.01746  0.34066  Biso   1.000  Y
  Zr1      1.0000 0.13975  0.52066  0.34297  Biso   1.000  Zr
  Zr2      1.0000 0.13974  0.22921  0.84361  Biso   1.000  Zr
  Zr3      1.0000 0.14199  0.72882  0.84343  Biso   1.000  Zr
  Zr4      1.0000 0.35952  0.26876  0.34313  Biso   1.000  Zr
  Zr5      1.0000 0.36252  0.76992  0.34271  Biso   1.000  Zr
  Zr6      1.0000 0.36079  0.47773  0.84307  Biso   1.000  Zr
  Zr7      1.0000 0.36170  0.97965  0.84192  Biso   1.000  Zr
  Zr8      1.0000 0.63906  0.02087  0.15894  Biso   1.000  Zr
  Zr9      1.0000 0.63800  0.51974  0.15495  Biso   1.000  Zr
  Zr10     1.0000 0.63852  0.22920  0.65649  Biso   1.000  Zr
  Zr11     1.0000 0.63862  0.72916  0.65593  Biso   1.000  Zr
  Zr12     1.0000 0.86030  0.27160  0.15333  Biso   1.000  Zr
  Zr13     1.0000 0.85931  0.77018  0.15742  Biso   1.000  Zr
  Zr14     1.0000 0.85992  0.48019  0.65435  Biso   1.000  Zr
  Zr15     1.0000 0.85936  0.97908  0.65921  Biso   1.000  Zr
  O1       1.0000 0.03127  0.17694  0.16841  Biso   1.000  O
  O2       1.0000 0.03266  0.66552  0.16910  Biso   1.000  O
  O3       1.0000 0.02697  0.08656  0.68724  Biso   1.000  O
  O4       1.0000 0.03175  0.58564  0.66733  Biso   1.000  O
  O5       1.0000 0.46845  0.41206  0.16364  Biso   1.000  O
  O6       1.0000 0.46973  0.91415  0.16643  Biso   1.000  O
  O7       1.0000 0.46899  0.33692  0.66384  Biso   1.000  O
  O8       1.0000 0.47125  0.83685  0.66359  Biso   1.000  O
  O9       1.0000 0.27923  0.12719  0.59866  Biso   1.000  O
  O10      1.0000 0.27582  0.62200  0.59107  Biso   1.000  O
  O11      1.0000 0.28072  0.12989  0.08296  Biso   1.000  O
  O12      1.0000 0.27503  0.62289  0.09228  Biso   1.000  O
  O13      1.0000 0.22444  0.37446  0.59000  Biso   1.000  O
  O14      1.0000 0.23047  0.86811  0.59477  Biso   1.000  O
  O15      1.0000 0.22448  0.37685  0.09134  Biso   1.000  O
  O16      1.0000 0.23332  0.86871  0.08214  Biso   1.000  O
  O17      1.0000 0.53218  0.16422  0.33411  Biso   1.000  O
  O18      1.0000 0.53155  0.66137  0.33616  Biso   1.000  O
  O19      1.0000 0.53415  0.08479  0.83282  Biso   1.000  O
  O20      1.0000 0.53033  0.58668  0.83640  Biso   1.000  O
  O21      1.0000 0.96587  0.41916  0.32705  Biso   1.000  O
  O22      1.0000 0.95645  0.91174  0.33776  Biso   1.000  O
  O23      1.0000 0.96699  0.33798  0.82598  Biso   1.000  O
  O24      1.0000 0.96965  0.83554  0.83515  Biso   1.000  O
  O25      1.0000 0.77369  0.12568  0.91193  Biso   1.000  O
  O26      1.0000 0.77372  0.62358  0.90653  Biso   1.000  O
  O27      1.0000 0.77462  0.12604  0.41146  Biso   1.000  O
  O28      1.0000 0.77420  0.62593  0.40683  Biso   1.000  O
  O29      1.0000 0.72398  0.37525  0.90557  Biso   1.000  O
  O30      1.0000 0.72588  0.87404  0.91011  Biso   1.000  O
  O31      1.0000 0.72464  0.37601  0.40721  Biso   1.000  O
  O32      1.0000 0.71895  0.87500  0.41000  Biso   1.000  O
