data_image0
_cell_length_a       10.2309
_cell_length_b       10.3521
_cell_length_c       10.5165
_cell_angle_alpha    90.0216
_cell_angle_beta     80.2605
_cell_angle_gamma    90.0592

_symmetry_space_group_name_H-M    "P 1"
_symmetry_int_tables_number       1

loop_
  _symmetry_equiv_pos_as_xyz
  'x, y, z'

loop_
  _atom_site_label
  _atom_site_occupancy
  _atom_site_fract_x
  _atom_site_fract_y
  _atom_site_fract_z
  _atom_site_thermal_displace_type
  _atom_site_B_iso_or_equiv
  _atom_site_type_symbol
  Y1       1.0000 0.13937  0.01782  0.14507  Biso   1.000  Y
  Zr1      1.0000 0.13927  0.02137  0.64564  Biso   1.000  Zr
  Zr2      1.0000 0.13911  0.52084  0.14469  Biso   1.000  Zr
  Zr3      1.0000 0.13918  0.52126  0.64561  Biso   1.000  Zr
  Zr4      1.0000 0.63928  0.02071  0.14569  Biso   1.000  Zr
  Zr5      1.0000 0.63942  0.02165  0.64564  Biso   1.000  Zr
  Zr6      1.0000 0.63866  0.51983  0.14536  Biso   1.000  Zr
  Zr7      1.0000 0.63894  0.52129  0.64500  Biso   1.000  Zr
  Zr8      1.0000 0.13911  0.22782  0.39576  Biso   1.000  Zr
  Zr9      1.0000 0.13870  0.22944  0.89576  Biso   1.000  Zr
  Zr10     1.0000 0.14002  0.72803  0.39531  Biso   1.000  Zr
  Zr11     1.0000 0.14021  0.72927  0.89534  Biso   1.000  Zr
  Zr12     1.0000 0.63865  0.22886  0.39550  Biso   1.000  Zr
  Zr13     1.0000 0.63924  0.22897  0.89566  Biso   1.000  Zr
  Zr14     1.0000 0.63770  0.72841  0.39544  Biso   1.000  Zr
  Zr15     1.0000 0.64007  0.72880  0.89477  Biso   1.000  Zr
  Zr16     1.0000 0.35979  0.26933  0.10478  Biso   1.000  Zr
  Zr17     1.0000 0.36042  0.27085  0.60470  Biso   1.000  Zr
  Zr18     1.0000 0.36263  0.77000  0.10391  Biso   1.000  Zr
  Zr19     1.0000 0.36062  0.77171  0.60452  Biso   1.000  Zr
  Zr20     1.0000 0.86126  0.27127  0.10338  Biso   1.000  Zr
  Zr21     1.0000 0.86104  0.27148  0.60446  Biso   1.000  Zr
  Zr22     1.0000 0.85904  0.77033  0.10525  Biso   1.000  Zr
  Zr23     1.0000 0.86150  0.77145  0.60408  Biso   1.000  Zr
  Zr24     1.0000 0.35997  0.47785  0.35390  Biso   1.000  Zr
  Zr25     1.0000 0.36148  0.47823  0.85469  Biso   1.000  Zr
  Zr26     1.0000 0.36074  0.97934  0.35467  Biso   1.000  Zr
  Zr27     1.0000 0.36149  0.97890  0.85454  Biso   1.000  Zr
  Zr28     1.0000 0.86061  0.47897  0.35445  Biso   1.000  Zr
  Zr29     1.0000 0.86067  0.47935  0.85381  Biso   1.000  Zr
  Zr30     1.0000 0.85936  0.97852  0.35510  Biso   1.000  Zr
  Zr31     1.0000 0.86138  0.97858  0.85496  Biso   1.000  Zr
  O1       1.0000 0.03354  0.17735  0.07659  Biso   1.000  O
  O2       1.0000 0.03533  0.17062  0.58292  Biso   1.000  O
  O3       1.0000 0.03501  0.66843  0.07933  Biso   1.000  O
  O4       1.0000 0.03486  0.66812  0.58007  Biso   1.000  O
  O5       1.0000 0.53498  0.16756  0.07916  Biso   1.000  O
  O6       1.0000 0.53354  0.16715  0.57953  Biso   1.000  O
  O7       1.0000 0.53518  0.66614  0.07845  Biso   1.000  O
  O8       1.0000 0.53366  0.66689  0.57940  Biso   1.000  O
  O9       1.0000 0.02915  0.08435  0.33870  Biso   1.000  O
  O10      1.0000 0.03525  0.08078  0.83076  Biso   1.000  O
  O11      1.0000 0.03413  0.58281  0.32919  Biso   1.000  O
  O12      1.0000 0.03469  0.58189  0.82924  Biso   1.000  O
  O13      1.0000 0.53512  0.08191  0.32993  Biso   1.000  O
  O14      1.0000 0.53567  0.08276  0.82862  Biso   1.000  O
  O15      1.0000 0.53315  0.58233  0.32880  Biso   1.000  O
  O16      1.0000 0.53459  0.58298  0.82850  Biso   1.000  O
  O17      1.0000 0.46543  0.41605  0.17127  Biso   1.000  O
  O18      1.0000 0.46602  0.41693  0.67078  Biso   1.000  O
  O19      1.0000 0.46583  0.91823  0.16999  Biso   1.000  O
  O20      1.0000 0.46638  0.91701  0.67096  Biso   1.000  O
  O21      1.0000 0.96347  0.42060  0.16975  Biso   1.000  O
  O22      1.0000 0.96486  0.41964  0.66890  Biso   1.000  O
  O23      1.0000 0.95346  0.91557  0.17421  Biso   1.000  O
  O24      1.0000 0.96534  0.91833  0.67028  Biso   1.000  O
  O25      1.0000 0.46523  0.33232  0.42102  Biso   1.000  O
  O26      1.0000 0.46723  0.33397  0.92105  Biso   1.000  O
  O27      1.0000 0.46512  0.83246  0.42186  Biso   1.000  O
  O28      1.0000 0.47056  0.83447  0.92079  Biso   1.000  O
  O29      1.0000 0.96540  0.33367  0.42089  Biso   1.000  O
  O30      1.0000 0.96413  0.33313  0.91696  Biso   1.000  O
  O31      1.0000 0.96608  0.83199  0.42074  Biso   1.000  O
  O32      1.0000 0.96591  0.83203  0.92047  Biso   1.000  O
  O33      1.0000 0.28089  0.13247  0.24603  Biso   1.000  O
  O34      1.0000 0.27530  0.12860  0.73979  Biso   1.000  O
  O35      1.0000 0.27578  0.62585  0.23960  Biso   1.000  O
  O36      1.0000 0.27569  0.62901  0.74050  Biso   1.000  O
  O37      1.0000 0.77470  0.12916  0.24087  Biso   1.000  O
  O38      1.0000 0.77629  0.12882  0.74063  Biso   1.000  O
  O39      1.0000 0.77426  0.62805  0.24066  Biso   1.000  O
  O40      1.0000 0.77550  0.62892  0.73945  Biso   1.000  O
  O41      1.0000 0.27490  0.12083  0.49240  Biso   1.000  O
  O42      1.0000 0.28102  0.12503  0.98506  Biso   1.000  O
  O43      1.0000 0.27542  0.62108  0.49040  Biso   1.000  O
  O44      1.0000 0.27612  0.61958  0.99020  Biso   1.000  O
  O45      1.0000 0.77369  0.12234  0.49169  Biso   1.000  O
  O46      1.0000 0.77539  0.12103  0.99031  Biso   1.000  O
  O47      1.0000 0.77510  0.62164  0.49020  Biso   1.000  O
  O48      1.0000 0.77501  0.62030  0.98979  Biso   1.000  O
  O49      1.0000 0.22500  0.37896  0.00894  Biso   1.000  O
  O50      1.0000 0.22464  0.37884  0.50953  Biso   1.000  O
  O51      1.0000 0.23191  0.87161  0.00288  Biso   1.000  O
  O52      1.0000 0.22422  0.87873  0.51012  Biso   1.000  O
  O53      1.0000 0.72390  0.37875  0.00893  Biso   1.000  O
  O54      1.0000 0.72413  0.37901  0.50937  Biso   1.000  O
  O55      1.0000 0.72497  0.87828  0.00914  Biso   1.000  O
  O56      1.0000 0.72464  0.87853  0.50985  Biso   1.000  O
  O57      1.0000 0.22261  0.37179  0.25902  Biso   1.000  O
  O58      1.0000 0.22492  0.37206  0.75909  Biso   1.000  O
  O59      1.0000 0.23064  0.86527  0.26208  Biso   1.000  O
  O60      1.0000 0.22461  0.87180  0.75806  Biso   1.000  O
  O61      1.0000 0.72385  0.37162  0.26003  Biso   1.000  O
  O62      1.0000 0.72458  0.37138  0.75879  Biso   1.000  O
  O63      1.0000 0.71747  0.87019  0.26100  Biso   1.000  O
  O64      1.0000 0.72562  0.87144  0.75904  Biso   1.000  O
