data_image0
_cell_length_a       10.127
_cell_length_b       10.2644
_cell_length_c       10.1285
_cell_angle_alpha    90.0002
_cell_angle_beta     90.0003
_cell_angle_gamma    89.6618

_symmetry_space_group_name_H-M    "P 1"
_symmetry_int_tables_number       1

loop_
  _symmetry_equiv_pos_as_xyz
  'x, y, z'

loop_
  _atom_site_label
  _atom_site_occupancy
  _atom_site_fract_x
  _atom_site_fract_y
  _atom_site_fract_z
  _atom_site_thermal_displace_type
  _atom_site_B_iso_or_equiv
  _atom_site_type_symbol
  Zr1      1.0000 0.11790  0.97206  0.11660  Biso   1.000  Zr
  Zr2      1.0000 0.12566  0.24993  0.40246  Biso   1.000  Zr
  Zr3      1.0000 0.39686  0.24870  0.12426  Biso   1.000  Zr
  Zr4      1.0000 0.37390  0.00720  0.37346  Biso   1.000  Zr
  O1       1.0000 0.99260  0.13829  0.99879  Biso   1.000  O
  O2       1.0000 0.01840  0.09247  0.25666  Biso   1.000  O
  O3       1.0000 0.97588  0.33644  0.27656  Biso   1.000  O
  O4       1.0000 0.00164  0.39471  0.01411  Biso   1.000  O
  O5       1.0000 0.27544  0.16343  0.27656  Biso   1.000  O
  O6       1.0000 0.24968  0.10516  0.01410  Biso   1.000  O
  O7       1.0000 0.25873  0.36158  0.99879  Biso   1.000  O
  O8       1.0000 0.23294  0.40740  0.25664  Biso   1.000  O
  Zr5      1.0000 0.12110  0.99451  0.62379  Biso   1.000  Zr
  Zr6      1.0000 0.12566  0.24993  0.86443  Biso   1.000  Zr
  Zr7      1.0000 0.37857  0.24787  0.62741  Biso   1.000  Zr
  Zr8      1.0000 0.37177  0.00390  0.87840  Biso   1.000  Zr
  O9       1.0000 0.99331  0.13911  0.50704  Biso   1.000  O
  O10      1.0000 0.00566  0.10354  0.75180  Biso   1.000  O
  O11      1.0000 0.99032  0.35477  0.75912  Biso   1.000  O
  O12      1.0000 0.00207  0.39523  0.51284  Biso   1.000  O
  O13      1.0000 0.26100  0.14509  0.75911  Biso   1.000  O
  O14      1.0000 0.24926  0.10463  0.51284  Biso   1.000  O
  O15      1.0000 0.25801  0.36075  0.50703  Biso   1.000  O
  O16      1.0000 0.24567  0.39632  0.75179  Biso   1.000  O
  Zr9      1.0000 0.13343  0.52782  0.11660  Biso   1.000  Zr
  Zr10     1.0000 0.12567  0.74994  0.37826  Biso   1.000  Zr
  Zr11     1.0000 0.38176  0.75608  0.12410  Biso   1.000  Zr
  Zr12     1.0000 0.37264  0.49786  0.37254  Biso   1.000  Zr
  O17      1.0000 0.00126  0.64475  0.99428  Biso   1.000  O
  O18      1.0000 0.99619  0.59910  0.24668  Biso   1.000  O
  O19      1.0000 0.00207  0.84498  0.24357  Biso   1.000  O
  O20      1.0000 0.99476  0.88405  0.98950  Biso   1.000  O
  O21      1.0000 0.24926  0.65488  0.24357  Biso   1.000  O
  O22      1.0000 0.25658  0.61582  0.98950  Biso   1.000  O
  O23      1.0000 0.25007  0.85512  0.99428  Biso   1.000  O
  O24      1.0000 0.25513  0.90076  0.24668  Biso   1.000  O
  Zr13     1.0000 0.13022  0.50536  0.62379  Biso   1.000  Zr
  Zr14     1.0000 0.12566  0.74994  0.86482  Biso   1.000  Zr
  Zr15     1.0000 0.37818  0.75402  0.62353  Biso   1.000  Zr
  Zr16     1.0000 0.37670  0.49645  0.87463  Biso   1.000  Zr
  O25      1.0000 0.99800  0.64367  0.49652  Biso   1.000  O
  O26      1.0000 0.00312  0.60387  0.74911  Biso   1.000  O
  O27      1.0000 0.99910  0.85385  0.74203  Biso   1.000  O
  O28      1.0000 0.00472  0.89218  0.49373  Biso   1.000  O
  O29      1.0000 0.25223  0.64601  0.74203  Biso   1.000  O
  O30      1.0000 0.24661  0.60769  0.49373  Biso   1.000  O
  O31      1.0000 0.25333  0.85620  0.49652  Biso   1.000  O
  O32      1.0000 0.24821  0.89600  0.74911  Biso   1.000  O
  Zr17     1.0000 0.62849  0.99400  0.12556  Biso   1.000  Zr
  Zr18     1.0000 0.62566  0.24993  0.37698  Biso   1.000  Zr
  Zr19     1.0000 0.85446  0.25117  0.12425  Biso   1.000  Zr
  Zr20     1.0000 0.87869  0.00201  0.37254  Biso   1.000  Zr
  O33      1.0000 0.50082  0.14209  0.99091  Biso   1.000  O
  O34      1.0000 0.51074  0.10529  0.24708  Biso   1.000  O
  O35      1.0000 0.49617  0.35992  0.25710  Biso   1.000  O
  O36      1.0000 0.50566  0.39521  0.00108  Biso   1.000  O
  O37      1.0000 0.75516  0.13996  0.25710  Biso   1.000  O
  O38      1.0000 0.74566  0.10466  0.00108  Biso   1.000  O
  O39      1.0000 0.75050  0.35778  0.99090  Biso   1.000  O
  O40      1.0000 0.74059  0.39459  0.24707  Biso   1.000  O
  Zr21     1.0000 0.62635  0.99863  0.62400  Biso   1.000  Zr
  Zr22     1.0000 0.62566  0.24993  0.87072  Biso   1.000  Zr
  Zr23     1.0000 0.87274  0.25200  0.62742  Biso   1.000  Zr
  Zr24     1.0000 0.87462  0.00342  0.87463  Biso   1.000  Zr
  O41      1.0000 0.49736  0.14786  0.49658  Biso   1.000  O
  O42      1.0000 0.50430  0.10325  0.74698  Biso   1.000  O
  O43      1.0000 0.49653  0.35406  0.75288  Biso   1.000  O
  O44      1.0000 0.50349  0.39709  0.50113  Biso   1.000  O
  O45      1.0000 0.75479  0.14580  0.75288  Biso   1.000  O
  O46      1.0000 0.74784  0.10277  0.50113  Biso   1.000  O
  O47      1.0000 0.75396  0.35201  0.49658  Biso   1.000  O
  O48      1.0000 0.74703  0.39662  0.74698  Biso   1.000  O
  Zr25     1.0000 0.62284  0.50588  0.12556  Biso   1.000  Zr
  Zr26     1.0000 0.62566  0.74994  0.37803  Biso   1.000  Zr
  Zr27     1.0000 0.86956  0.74379  0.12410  Biso   1.000  Zr
  Zr28     1.0000 0.87743  0.49267  0.37346  Biso   1.000  Zr
  O49      1.0000 0.50375  0.64641  0.99958  Biso   1.000  O
  O50      1.0000 0.49595  0.60776  0.24769  Biso   1.000  O
  O51      1.0000 0.50381  0.85670  0.25283  Biso   1.000  O
  O52      1.0000 0.49800  0.89612  0.00434  Biso   1.000  O
  O53      1.0000 0.74752  0.64317  0.25283  Biso   1.000  O
  O54      1.0000 0.75332  0.60376  0.00434  Biso   1.000  O
  O55      1.0000 0.74759  0.85346  0.99958  Biso   1.000  O
  O56      1.0000 0.75538  0.89212  0.24769  Biso   1.000  O
  Zr29     1.0000 0.62497  0.50124  0.62399  Biso   1.000  Zr
  Zr30     1.0000 0.62566  0.74993  0.87281  Biso   1.000  Zr
  Zr31     1.0000 0.87314  0.74584  0.62353  Biso   1.000  Zr
  Zr32     1.0000 0.87956  0.49597  0.87839  Biso   1.000  Zr
  O57      1.0000 0.49842  0.64734  0.49843  Biso   1.000  O
  O58      1.0000 0.50243  0.60412  0.74961  Biso   1.000  O
  O59      1.0000 0.49747  0.85401  0.75367  Biso   1.000  O
  O60      1.0000 0.50194  0.89777  0.50223  Biso   1.000  O
  O61      1.0000 0.75385  0.64585  0.75366  Biso   1.000  O
  O62      1.0000 0.74939  0.60210  0.50223  Biso   1.000  O
  O63      1.0000 0.75292  0.85253  0.49842  Biso   1.000  O
  O64      1.0000 0.74889  0.89575  0.74961  Biso   1.000  O
  Y1       1.0000 0.12566  0.24994  0.13538  Biso   1.000  Y
