data_image0
_cell_length_a       10.094
_cell_length_b       10.4236
_cell_length_c       5.06015
_cell_angle_alpha    90.1415
_cell_angle_beta     90.2715
_cell_angle_gamma    90.0286

_symmetry_space_group_name_H-M    "P 1"
_symmetry_int_tables_number       1

loop_
  _symmetry_equiv_pos_as_xyz
  'x, y, z'

loop_
  _atom_site_label
  _atom_site_occupancy
  _atom_site_fract_x
  _atom_site_fract_y
  _atom_site_fract_z
  _atom_site_thermal_displace_type
  _atom_site_B_iso_or_equiv
  _atom_site_type_symbol
  Y1       1.0000 0.13115  0.01254  0.24551  Biso   1.000  Y
  Zr1      1.0000 0.13427  0.51551  0.25011  Biso   1.000  Zr
  Zr2      1.0000 0.63354  0.01535  0.24892  Biso   1.000  Zr
  Zr3      1.0000 0.63349  0.51465  0.25096  Biso   1.000  Zr
  Zr4      1.0000 0.13531  0.23448  0.74777  Biso   1.000  Zr
  Zr5      1.0000 0.13670  0.73482  0.75185  Biso   1.000  Zr
  Zr6      1.0000 0.63384  0.23417  0.74881  Biso   1.000  Zr
  Zr7      1.0000 0.63415  0.73334  0.75235  Biso   1.000  Zr
  Zr8      1.0000 0.36452  0.26413  0.25075  Biso   1.000  Zr
  Zr9      1.0000 0.36711  0.76487  0.24842  Biso   1.000  Zr
  Zr10     1.0000 0.86496  0.26643  0.24990  Biso   1.000  Zr
  Zr11     1.0000 0.86426  0.76548  0.25503  Biso   1.000  Zr
  Zr12     1.0000 0.36563  0.48329  0.75029  Biso   1.000  Zr
  Zr13     1.0000 0.36553  0.98459  0.74739  Biso   1.000  Zr
  Zr14     1.0000 0.86591  0.48475  0.75293  Biso   1.000  Zr
  Zr15     1.0000 0.86353  0.98296  0.75011  Biso   1.000  Zr
  O1       1.0000 0.03205  0.19256  0.39185  Biso   1.000  O
  O2       1.0000 0.03483  0.68299  0.39309  Biso   1.000  O
  O3       1.0000 0.53623  0.18374  0.38592  Biso   1.000  O
  O4       1.0000 0.53436  0.68089  0.39326  Biso   1.000  O
  O5       1.0000 0.03129  0.07168  0.86282  Biso   1.000  O
  O6       1.0000 0.03427  0.56858  0.89230  Biso   1.000  O
  O7       1.0000 0.53616  0.06658  0.88661  Biso   1.000  O
  O8       1.0000 0.53343  0.56683  0.89386  Biso   1.000  O
  O9       1.0000 0.46631  0.43179  0.39276  Biso   1.000  O
  O10      1.0000 0.46549  0.93381  0.38780  Biso   1.000  O
  O11      1.0000 0.96441  0.43666  0.39234  Biso   1.000  O
  O12      1.0000 0.95410  0.92786  0.40316  Biso   1.000  O
  O13      1.0000 0.46663  0.31733  0.89016  Biso   1.000  O
  O14      1.0000 0.47066  0.81821  0.89487  Biso   1.000  O
  O15      1.0000 0.96658  0.32062  0.89469  Biso   1.000  O
  O16      1.0000 0.96984  0.81934  0.90361  Biso   1.000  O
  O17      1.0000 0.27580  0.12260  0.50224  Biso   1.000  O
  O18      1.0000 0.26943  0.61481  0.49638  Biso   1.000  O
  O19      1.0000 0.76798  0.11657  0.49696  Biso   1.000  O
  O20      1.0000 0.76916  0.61630  0.49735  Biso   1.000  O
  O21      1.0000 0.27270  0.13479  0.99124  Biso   1.000  O
  O22      1.0000 0.27013  0.63103  0.99704  Biso   1.000  O
  O23      1.0000 0.76877  0.13404  0.99733  Biso   1.000  O
  O24      1.0000 0.76893  0.63204  0.99694  Biso   1.000  O
  O25      1.0000 0.23162  0.38338  0.99663  Biso   1.000  O
  O26      1.0000 0.23764  0.87720  0.98773  Biso   1.000  O
  O27      1.0000 0.73004  0.38377  0.99597  Biso   1.000  O
  O28      1.0000 0.73183  0.88159  0.00047  Biso   1.000  O
  O29      1.0000 0.23017  0.36856  0.49507  Biso   1.000  O
  O30      1.0000 0.23713  0.86085  0.49990  Biso   1.000  O
  O31      1.0000 0.73115  0.36707  0.49762  Biso   1.000  O
  O32      1.0000 0.72408  0.86556  0.49941  Biso   1.000  O
