data_image0
_cell_length_a       10.0916
_cell_length_b       5.10842
_cell_length_c       10.0916
_cell_angle_alpha    90.0014
_cell_angle_beta     90.0035
_cell_angle_gamma    90.0004

_symmetry_space_group_name_H-M    "P 1"
_symmetry_int_tables_number       1

loop_
  _symmetry_equiv_pos_as_xyz
  'x, y, z'

loop_
  _atom_site_label
  _atom_site_occupancy
  _atom_site_fract_x
  _atom_site_fract_y
  _atom_site_fract_z
  _atom_site_thermal_displace_type
  _atom_site_B_iso_or_equiv
  _atom_site_type_symbol
  Y1       1.0000 0.12496  0.00053  0.12496  Biso   1.000  Y
  Zr1      1.0000 0.12497  0.00053  0.62497  Biso   1.000  Zr
  Zr2      1.0000 0.62497  0.00053  0.12497  Biso   1.000  Zr
  Zr3      1.0000 0.62497  0.00053  0.62497  Biso   1.000  Zr
  Zr4      1.0000 0.12496  0.50052  0.37487  Biso   1.000  Zr
  Zr5      1.0000 0.12496  0.50053  0.87505  Biso   1.000  Zr
  Zr6      1.0000 0.62496  0.50053  0.37473  Biso   1.000  Zr
  Zr7      1.0000 0.62496  0.50052  0.87520  Biso   1.000  Zr
  Zr8      1.0000 0.37487  0.50052  0.12496  Biso   1.000  Zr
  Zr9      1.0000 0.37473  0.50053  0.62496  Biso   1.000  Zr
  Zr10     1.0000 0.87505  0.50053  0.12496  Biso   1.000  Zr
  Zr11     1.0000 0.87520  0.50052  0.62496  Biso   1.000  Zr
  Zr12     1.0000 0.37466  0.99962  0.37466  Biso   1.000  Zr
  Zr13     1.0000 0.37467  0.00143  0.87526  Biso   1.000  Zr
  Zr14     1.0000 0.87527  0.00143  0.37467  Biso   1.000  Zr
  Zr15     1.0000 0.87526  0.99963  0.87526  Biso   1.000  Zr
  O1       1.0000 0.99901  0.28407  0.99900  Biso   1.000  O
  O2       1.0000 0.00379  0.28836  0.50594  Biso   1.000  O
  O3       1.0000 0.50594  0.28835  0.00379  Biso   1.000  O
  O4       1.0000 0.50284  0.29102  0.50284  Biso   1.000  O
  O5       1.0000 0.99217  0.23297  0.25776  Biso   1.000  O
  O6       1.0000 0.99814  0.21224  0.75201  Biso   1.000  O
  O7       1.0000 0.49792  0.21223  0.25179  Biso   1.000  O
  O8       1.0000 0.49850  0.21090  0.75143  Biso   1.000  O
  O9       1.0000 0.99900  0.71699  0.25092  Biso   1.000  O
  O10      1.0000 0.00379  0.71273  0.74398  Biso   1.000  O
  O11      1.0000 0.50594  0.71273  0.24615  Biso   1.000  O
  O12      1.0000 0.50284  0.71006  0.74709  Biso   1.000  O
  O13      1.0000 0.99216  0.76807  0.99216  Biso   1.000  O
  O14      1.0000 0.99814  0.78883  0.49792  Biso   1.000  O
  O15      1.0000 0.49792  0.78883  0.99814  Biso   1.000  O
  O16      1.0000 0.49850  0.79016  0.49850  Biso   1.000  O
  O17      1.0000 0.25092  0.28405  0.25092  Biso   1.000  O
  O18      1.0000 0.24614  0.28836  0.74398  Biso   1.000  O
  O19      1.0000 0.74398  0.28836  0.24614  Biso   1.000  O
  O20      1.0000 0.74709  0.29100  0.74709  Biso   1.000  O
  O21      1.0000 0.25776  0.23297  0.99217  Biso   1.000  O
  O22      1.0000 0.25179  0.21223  0.49792  Biso   1.000  O
  O23      1.0000 0.75201  0.21223  0.99814  Biso   1.000  O
  O24      1.0000 0.75143  0.21090  0.49850  Biso   1.000  O
  O25      1.0000 0.25092  0.71699  0.99900  Biso   1.000  O
  O26      1.0000 0.24615  0.71273  0.50594  Biso   1.000  O
  O27      1.0000 0.74398  0.71273  0.00379  Biso   1.000  O
  O28      1.0000 0.74709  0.71006  0.50284  Biso   1.000  O
  O29      1.0000 0.25776  0.76805  0.25776  Biso   1.000  O
  O30      1.0000 0.25179  0.78883  0.75201  Biso   1.000  O
  O31      1.0000 0.75201  0.78883  0.25179  Biso   1.000  O
  O32      1.0000 0.75143  0.79014  0.75143  Biso   1.000  O
