data_image0
_cell_length_a       10.0749
_cell_length_b       10.2799
_cell_length_c       5.30704
_cell_angle_alpha    90.0145
_cell_angle_beta     91.1185
_cell_angle_gamma    90.3815

_symmetry_space_group_name_H-M    "P 1"
_symmetry_int_tables_number       1

loop_
  _symmetry_equiv_pos_as_xyz
  'x, y, z'

loop_
  _atom_site_label
  _atom_site_occupancy
  _atom_site_fract_x
  _atom_site_fract_y
  _atom_site_fract_z
  _atom_site_thermal_displace_type
  _atom_site_B_iso_or_equiv
  _atom_site_type_symbol
  Hf1      1.0000 0.14055  0.02051  0.35344  Biso   1.000  Hf
  Hf2      1.0000 0.14181  0.22784  0.85822  Biso   1.000  Hf
  Hf3      1.0000 0.35220  0.27287  0.38266  Biso   1.000  Hf
  Hf4      1.0000 0.35922  0.48434  0.85693  Biso   1.000  Hf
  Hf5      1.0000 0.64343  0.00682  0.15379  Biso   1.000  Hf
  Hf6      1.0000 0.65230  0.21975  0.60101  Biso   1.000  Hf
  Hf7      1.0000 0.86979  0.27164  0.14496  Biso   1.000  Hf
  Hf8      1.0000 0.86236  0.47819  0.65396  Biso   1.000  Hf
  O1       1.0000 0.03558  0.16038  0.16654  Biso   1.000  O
  O2       1.0000 0.03391  0.08756  0.66769  Biso   1.000  O
  O3       1.0000 0.45723  0.43161  0.19437  Biso   1.000  O
  O4       1.0000 0.47113  0.33200  0.68370  Biso   1.000  O
  O5       1.0000 0.27422  0.12400  0.60872  Biso   1.000  O
  O6       1.0000 0.28092  0.12729  0.10415  Biso   1.000  O
  O7       1.0000 0.22010  0.37655  0.61535  Biso   1.000  O
  O8       1.0000 0.22153  0.37619  0.10968  Biso   1.000  O
  O9       1.0000 0.52100  0.13922  0.35666  Biso   1.000  O
  O10      1.0000 0.53315  0.08322  0.84216  Biso   1.000  O
  O11      1.0000 0.96819  0.41221  0.34645  Biso   1.000  O
  O12      1.0000 0.97280  0.33683  0.84183  Biso   1.000  O
  O13      1.0000 0.77117  0.12815  0.89940  Biso   1.000  O
  O14      1.0000 0.79066  0.11706  0.39036  Biso   1.000  O
  O15      1.0000 0.72881  0.37899  0.89264  Biso   1.000  O
  O16      1.0000 0.71709  0.37313  0.37647  Biso   1.000  O
  Hf9      1.0000 0.13972  0.52093  0.35236  Biso   1.000  Hf
  Hf10     1.0000 0.13888  0.72916  0.84956  Biso   1.000  Hf
  Hf11     1.0000 0.36132  0.77178  0.35316  Biso   1.000  Hf
  Hf12     1.0000 0.36296  0.97663  0.85411  Biso   1.000  Hf
  Hf13     1.0000 0.64204  0.53594  0.15231  Biso   1.000  Hf
  Hf14     1.0000 0.64083  0.73058  0.65576  Biso   1.000  Hf
  Hf15     1.0000 0.86751  0.77008  0.16020  Biso   1.000  Hf
  Hf16     1.0000 0.86544  0.97935  0.66014  Biso   1.000  Hf
  O17      1.0000 0.03418  0.66115  0.16705  Biso   1.000  O
  O18      1.0000 0.03264  0.58659  0.66939  Biso   1.000  O
  O19      1.0000 0.47139  0.90342  0.15719  Biso   1.000  O
  O20      1.0000 0.47112  0.83933  0.66357  Biso   1.000  O
  O21      1.0000 0.27534  0.62614  0.59700  Biso   1.000  O
  O22      1.0000 0.27533  0.62770  0.09532  Biso   1.000  O
  O23      1.0000 0.22604  0.87395  0.60106  Biso   1.000  O
  O24      1.0000 0.22447  0.87721  0.10208  Biso   1.000  O
  O25      1.0000 0.53335  0.66751  0.34288  Biso   1.000  O
  O26      1.0000 0.53135  0.58992  0.83865  Biso   1.000  O
  O27      1.0000 0.97288  0.91023  0.34801  Biso   1.000  O
  O28      1.0000 0.97152  0.83835  0.84674  Biso   1.000  O
  O29      1.0000 0.77919  0.62861  0.90298  Biso   1.000  O
  O30      1.0000 0.78025  0.62572  0.41025  Biso   1.000  O
  O31      1.0000 0.72889  0.87365  0.91069  Biso   1.000  O
  O32      1.0000 0.73083  0.87079  0.41352  Biso   1.000  O
  Yb1      1.0000 0.56221  0.26925  0.04546  Biso   1.000  Yb
