data_image0
_cell_length_a       10.1732
_cell_length_b       10.2847
_cell_length_c       5.23303
_cell_angle_alpha    90.0277
_cell_angle_beta     80.1959
_cell_angle_gamma    90.0375

_symmetry_space_group_name_H-M    "P 1"
_symmetry_int_tables_number       1

loop_
  _symmetry_equiv_pos_as_xyz
  'x, y, z'

loop_
  _atom_site_label
  _atom_site_occupancy
  _atom_site_fract_x
  _atom_site_fract_y
  _atom_site_fract_z
  _atom_site_thermal_displace_type
  _atom_site_B_iso_or_equiv
  _atom_site_type_symbol
  Yb1      1.0000 0.13812  0.01661  0.29850  Biso   1.000  Yb
  Hf1      1.0000 0.14038  0.22969  0.79329  Biso   1.000  Hf
  Hf2      1.0000 0.35996  0.26951  0.20852  Biso   1.000  Hf
  Hf3      1.0000 0.36118  0.47775  0.70707  Biso   1.000  Hf
  O1       1.0000 0.03339  0.17409  0.15534  Biso   1.000  O
  O2       1.0000 0.02939  0.08634  0.67261  Biso   1.000  O
  O3       1.0000 0.46475  0.41709  0.34144  Biso   1.000  O
  O4       1.0000 0.46568  0.33285  0.84167  Biso   1.000  O
  O5       1.0000 0.28107  0.13188  0.49090  Biso   1.000  O
  O6       1.0000 0.28098  0.12517  0.97505  Biso   1.000  O
  O7       1.0000 0.22409  0.37964  0.01869  Biso   1.000  O
  O8       1.0000 0.22275  0.37202  0.51783  Biso   1.000  O
  Hf4      1.0000 0.13955  0.52154  0.29098  Biso   1.000  Hf
  Hf5      1.0000 0.14036  0.72804  0.79208  Biso   1.000  Hf
  Hf6      1.0000 0.36274  0.77128  0.20779  Biso   1.000  Hf
  Hf7      1.0000 0.36178  0.97924  0.70980  Biso   1.000  Hf
  O9       1.0000 0.03407  0.66724  0.15702  Biso   1.000  O
  O10      1.0000 0.03381  0.58405  0.65526  Biso   1.000  O
  O11      1.0000 0.46590  0.91851  0.34069  Biso   1.000  O
  O12      1.0000 0.46838  0.83293  0.84249  Biso   1.000  O
  O13      1.0000 0.27638  0.62693  0.47952  Biso   1.000  O
  O14      1.0000 0.27633  0.62014  0.98050  Biso   1.000  O
  O15      1.0000 0.23017  0.87427  0.00998  Biso   1.000  O
  O16      1.0000 0.22976  0.86609  0.52221  Biso   1.000  O
  Hf8      1.0000 0.63843  0.02152  0.29201  Biso   1.000  Hf
  Hf9      1.0000 0.63789  0.22898  0.79160  Biso   1.000  Hf
  Hf10     1.0000 0.85950  0.27200  0.20598  Biso   1.000  Hf
  Hf11     1.0000 0.86089  0.47889  0.70662  Biso   1.000  Hf
  O17      1.0000 0.53546  0.16870  0.15948  Biso   1.000  O
  O18      1.0000 0.53722  0.08103  0.65943  Biso   1.000  O
  O19      1.0000 0.96510  0.41774  0.34063  Biso   1.000  O
  O20      1.0000 0.96549  0.33573  0.84105  Biso   1.000  O
  O21      1.0000 0.77626  0.12920  0.48048  Biso   1.000  O
  O22      1.0000 0.77480  0.12164  0.98118  Biso   1.000  O
  O23      1.0000 0.72323  0.37921  0.01731  Biso   1.000  O
  O24      1.0000 0.72368  0.37130  0.51815  Biso   1.000  O
  Hf12     1.0000 0.63763  0.52022  0.29098  Biso   1.000  Hf
  Hf13     1.0000 0.63810  0.72765  0.79040  Biso   1.000  Hf
  Hf14     1.0000 0.85862  0.76953  0.20649  Biso   1.000  Hf
  Hf15     1.0000 0.85817  0.97856  0.70975  Biso   1.000  Hf
  O25      1.0000 0.53574  0.66716  0.15789  Biso   1.000  O
  O26      1.0000 0.53444  0.58172  0.65719  Biso   1.000  O
  O27      1.0000 0.95651  0.91480  0.34653  Biso   1.000  O
  O28      1.0000 0.96659  0.83429  0.84264  Biso   1.000  O
  O29      1.0000 0.77534  0.62805  0.47851  Biso   1.000  O
  O30      1.0000 0.77570  0.62046  0.97834  Biso   1.000  O
  O31      1.0000 0.72405  0.87855  0.01816  Biso   1.000  O
  O32      1.0000 0.72019  0.87016  0.52001  Biso   1.000  O
