data_image0
_cell_length_a       10.0487
_cell_length_b       10.2539
_cell_length_c       10.5378
_cell_angle_alpha    90.0226
_cell_angle_beta     90.6548
_cell_angle_gamma    90.1379

_symmetry_space_group_name_H-M    "P 1"
_symmetry_int_tables_number       1

loop_
  _symmetry_equiv_pos_as_xyz
  'x, y, z'

loop_
  _atom_site_label
  _atom_site_occupancy
  _atom_site_fract_x
  _atom_site_fract_y
  _atom_site_fract_z
  _atom_site_thermal_displace_type
  _atom_site_B_iso_or_equiv
  _atom_site_type_symbol
  Hf1      1.0000 0.13974  0.02074  0.17335  Biso   1.000  Hf
  Hf2      1.0000 0.13884  0.22695  0.42627  Biso   1.000  Hf
  Hf3      1.0000 0.35050  0.27305  0.18947  Biso   1.000  Hf
  Hf4      1.0000 0.36152  0.47907  0.42570  Biso   1.000  Hf
  Hf5      1.0000 0.64084  0.01008  0.08054  Biso   1.000  Hf
  Hf6      1.0000 0.63820  0.22387  0.32929  Biso   1.000  Hf
  Hf7      1.0000 0.86668  0.27055  0.07686  Biso   1.000  Hf
  Hf8      1.0000 0.86000  0.47813  0.32611  Biso   1.000  Hf
  O1       1.0000 0.03532  0.16262  0.08293  Biso   1.000  O
  O2       1.0000 0.03213  0.08660  0.33249  Biso   1.000  O
  O3       1.0000 0.45469  0.43223  0.09716  Biso   1.000  O
  O4       1.0000 0.46625  0.33243  0.34027  Biso   1.000  O
  O5       1.0000 0.27263  0.12285  0.30202  Biso   1.000  O
  O6       1.0000 0.28079  0.12855  0.04773  Biso   1.000  O
  O7       1.0000 0.21698  0.37706  0.30518  Biso   1.000  O
  O8       1.0000 0.22012  0.37727  0.04952  Biso   1.000  O
  O9       1.0000 0.52224  0.14426  0.18397  Biso   1.000  O
  O10      1.0000 0.53161  0.08391  0.42193  Biso   1.000  O
  O11      1.0000 0.96635  0.41431  0.17039  Biso   1.000  O
  O12      1.0000 0.96882  0.33654  0.41785  Biso   1.000  O
  O13      1.0000 0.77658  0.12316  0.45184  Biso   1.000  O
  O14      1.0000 0.77838  0.12540  0.20327  Biso   1.000  O
  O15      1.0000 0.72427  0.37434  0.45103  Biso   1.000  O
  O16      1.0000 0.71414  0.37127  0.19628  Biso   1.000  O
  Hf9      1.0000 0.13973  0.02073  0.67468  Biso   1.000  Hf
  Hf10     1.0000 0.14211  0.22946  0.92410  Biso   1.000  Hf
  Hf11     1.0000 0.36220  0.27145  0.67495  Biso   1.000  Hf
  Hf12     1.0000 0.35978  0.48317  0.92501  Biso   1.000  Hf
  Hf13     1.0000 0.64103  0.01613  0.57461  Biso   1.000  Hf
  Hf14     1.0000 0.65262  0.22618  0.79995  Biso   1.000  Hf
  Hf15     1.0000 0.86546  0.27279  0.57308  Biso   1.000  Hf
  Hf16     1.0000 0.86426  0.47943  0.82903  Biso   1.000  Hf
  O17      1.0000 0.03300  0.16226  0.58246  Biso   1.000  O
  O18      1.0000 0.03391  0.08678  0.83351  Biso   1.000  O
  O19      1.0000 0.47009  0.41437  0.58557  Biso   1.000  O
  O20      1.0000 0.47247  0.33330  0.83691  Biso   1.000  O
  O21      1.0000 0.27749  0.12444  0.79741  Biso   1.000  O
  O22      1.0000 0.27714  0.12513  0.54942  Biso   1.000  O
  O23      1.0000 0.22582  0.37366  0.79930  Biso   1.000  O
  O24      1.0000 0.22550  0.37500  0.55073  Biso   1.000  O
  O25      1.0000 0.53119  0.15989  0.66126  Biso   1.000  O
  O26      1.0000 0.53385  0.08362  0.91614  Biso   1.000  O
  O27      1.0000 0.97072  0.41238  0.66975  Biso   1.000  O
  O28      1.0000 0.97091  0.33545  0.91915  Biso   1.000  O
  O29      1.0000 0.76965  0.12966  0.95170  Biso   1.000  O
  O30      1.0000 0.78652  0.11920  0.69458  Biso   1.000  O
  O31      1.0000 0.72898  0.37989  0.95070  Biso   1.000  O
  O32      1.0000 0.72918  0.37834  0.69784  Biso   1.000  O
  Hf17     1.0000 0.13919  0.52167  0.17410  Biso   1.000  Hf
  Hf18     1.0000 0.13818  0.72799  0.42346  Biso   1.000  Hf
  Hf19     1.0000 0.36001  0.77170  0.17476  Biso   1.000  Hf
  Hf20     1.0000 0.36127  0.97713  0.42558  Biso   1.000  Hf
  Hf21     1.0000 0.64037  0.53363  0.07707  Biso   1.000  Hf
  Hf22     1.0000 0.63915  0.72942  0.32965  Biso   1.000  Hf
  Hf23     1.0000 0.86491  0.77079  0.07862  Biso   1.000  Hf
  Hf24     1.0000 0.86315  0.97913  0.32824  Biso   1.000  Hf
  O33      1.0000 0.03354  0.66347  0.08309  Biso   1.000  O
  O34      1.0000 0.03009  0.58639  0.33367  Biso   1.000  O
  O35      1.0000 0.46808  0.90838  0.08026  Biso   1.000  O
  O36      1.0000 0.46871  0.83717  0.33391  Biso   1.000  O
  O37      1.0000 0.27457  0.62499  0.29762  Biso   1.000  O
  O38      1.0000 0.27548  0.62855  0.04614  Biso   1.000  O
  O39      1.0000 0.22401  0.87374  0.29801  Biso   1.000  O
  O40      1.0000 0.22328  0.87788  0.04785  Biso   1.000  O
  O41      1.0000 0.53328  0.66947  0.17001  Biso   1.000  O
  O42      1.0000 0.53190  0.58646  0.41789  Biso   1.000  O
  O43      1.0000 0.96929  0.91443  0.16872  Biso   1.000  O
  O44      1.0000 0.96900  0.83676  0.42025  Biso   1.000  O
  O45      1.0000 0.77706  0.62404  0.45392  Biso   1.000  O
  O46      1.0000 0.77800  0.62543  0.20511  Biso   1.000  O
  O47      1.0000 0.72586  0.87319  0.45542  Biso   1.000  O
  O48      1.0000 0.72866  0.87162  0.20685  Biso   1.000  O
  Hf25     1.0000 0.14033  0.52047  0.67388  Biso   1.000  Hf
  Hf26     1.0000 0.13956  0.73019  0.92285  Biso   1.000  Hf
  Hf27     1.0000 0.36215  0.77074  0.67369  Biso   1.000  Hf
  Hf28     1.0000 0.36318  0.97821  0.92327  Biso   1.000  Hf
  Hf29     1.0000 0.64002  0.52307  0.57617  Biso   1.000  Hf
  Hf30     1.0000 0.64061  0.72970  0.82616  Biso   1.000  Hf
  Hf31     1.0000 0.86437  0.77043  0.57975  Biso   1.000  Hf
  Hf32     1.0000 0.86325  0.97983  0.82988  Biso   1.000  Hf
  O49      1.0000 0.03385  0.66265  0.58346  Biso   1.000  O
  O50      1.0000 0.03501  0.58602  0.83373  Biso   1.000  O
  O51      1.0000 0.47000  0.90997  0.58237  Biso   1.000  O
  O52      1.0000 0.46950  0.83628  0.83164  Biso   1.000  O
  O53      1.0000 0.27709  0.62523  0.79646  Biso   1.000  O
  O54      1.0000 0.27651  0.62513  0.54689  Biso   1.000  O
  O55      1.0000 0.22528  0.87394  0.79758  Biso   1.000  O
  O56      1.0000 0.22434  0.87540  0.54829  Biso   1.000  O
  O57      1.0000 0.53341  0.66363  0.66752  Biso   1.000  O
  O58      1.0000 0.53220  0.58810  0.91795  Biso   1.000  O
  O59      1.0000 0.97037  0.91143  0.67169  Biso   1.000  O
  O60      1.0000 0.96949  0.83719  0.91975  Biso   1.000  O
  O61      1.0000 0.77896  0.62853  0.95135  Biso   1.000  O
  O62      1.0000 0.77822  0.62592  0.70351  Biso   1.000  O
  O63      1.0000 0.72654  0.87421  0.95525  Biso   1.000  O
  O64      1.0000 0.72631  0.87465  0.70566  Biso   1.000  O
  Yb1      1.0000 0.55999  0.26803  0.02305  Biso   1.000  Yb
