data_image0
_cell_length_a       5.10116
_cell_length_b       10.4098
_cell_length_c       10.1193
_cell_angle_alpha    90.03
_cell_angle_beta     90.3162
_cell_angle_gamma    93.6899

_symmetry_space_group_name_H-M    "P 1"
_symmetry_int_tables_number       1

loop_
  _symmetry_equiv_pos_as_xyz
  'x, y, z'

loop_
  _atom_site_label
  _atom_site_occupancy
  _atom_site_fract_x
  _atom_site_fract_y
  _atom_site_fract_z
  _atom_site_thermal_displace_type
  _atom_site_B_iso_or_equiv
  _atom_site_type_symbol
  Hf1      1.0000 0.27373  0.97404  0.08143  Biso   1.000  Hf
  Hf2      1.0000 0.22812  0.23442  0.38827  Biso   1.000  Hf
  Hf3      1.0000 0.67560  0.26759  0.11762  Biso   1.000  Hf
  Hf4      1.0000 0.74872  0.48401  0.37039  Biso   1.000  Hf
  O1       1.0000 0.89690  0.18649  0.26447  Biso   1.000  O
  O2       1.0000 0.03220  0.06856  0.46474  Biso   1.000  O
  O3       1.0000 0.94204  0.42906  0.19665  Biso   1.000  O
  O4       1.0000 0.94080  0.33456  0.47046  Biso   1.000  O
  O5       1.0000 0.41390  0.11338  0.22914  Biso   1.000  O
  O6       1.0000 0.52228  0.13366  0.48440  Biso   1.000  O
  O7       1.0000 0.46525  0.38729  0.49661  Biso   1.000  O
  O8       1.0000 0.44165  0.37192  0.24996  Biso   1.000  O
  Hf5      1.0000 0.27072  0.97877  0.58861  Biso   1.000  Hf
  Hf6      1.0000 0.21373  0.24362  0.84093  Biso   1.000  Hf
  Hf7      1.0000 0.70186  0.26618  0.61812  Biso   1.000  Hf
  Hf8      1.0000 0.74506  0.48291  0.87945  Biso   1.000  Hf
  O9       1.0000 0.93214  0.15932  0.72625  Biso   1.000  O
  O10      1.0000 0.01015  0.07852  0.97055  Biso   1.000  O
  O11      1.0000 0.97874  0.41023  0.72022  Biso   1.000  O
  O12      1.0000 0.90719  0.31970  0.95277  Biso   1.000  O
  O13      1.0000 0.43929  0.11170  0.72882  Biso   1.000  O
  O14      1.0000 0.48109  0.14007  0.97787  Biso   1.000  O
  O15      1.0000 0.43908  0.39399  0.99612  Biso   1.000  O
  O16      1.0000 0.48070  0.36771  0.74415  Biso   1.000  O
  Hf9      1.0000 0.27815  0.53156  0.12698  Biso   1.000  Hf
  Hf10     1.0000 0.31720  0.73450  0.37674  Biso   1.000  Hf
  Hf11     1.0000 0.77706  0.76901  0.12663  Biso   1.000  Hf
  Hf12     1.0000 0.71380  0.02003  0.33579  Biso   1.000  Hf
  O17      1.0000 0.08360  0.68095  0.21344  Biso   1.000  O
  O18      1.0000 0.08512  0.57217  0.45090  Biso   1.000  O
  O19      1.0000 0.96657  0.93221  0.21143  Biso   1.000  O
  O20      1.0000 0.06358  0.82074  0.49316  Biso   1.000  O
  O21      1.0000 0.56921  0.62151  0.24925  Biso   1.000  O
  O22      1.0000 0.56927  0.63430  0.49738  Biso   1.000  O
  O23      1.0000 0.55637  0.88579  0.48112  Biso   1.000  O
  O24      1.0000 0.48586  0.86485  0.23142  Biso   1.000  O
  Hf13     1.0000 0.27286  0.51379  0.62237  Biso   1.000  Hf
  Hf14     1.0000 0.30980  0.73030  0.86953  Biso   1.000  Hf
  Hf15     1.0000 0.77695  0.76285  0.62709  Biso   1.000  Hf
  Hf16     1.0000 0.72382  0.01691  0.83812  Biso   1.000  Hf
  O25      1.0000 0.07732  0.66616  0.70917  Biso   1.000  O
  O26      1.0000 0.07740  0.57435  0.95547  Biso   1.000  O
  O27      1.0000 0.97658  0.91852  0.72199  Biso   1.000  O
  O28      1.0000 0.06376  0.82189  0.98755  Biso   1.000  O
  O29      1.0000 0.55693  0.61065  0.74701  Biso   1.000  O
  O30      1.0000 0.56551  0.63947  0.99702  Biso   1.000  O
  O31      1.0000 0.56093  0.88500  0.97820  Biso   1.000  O
  O32      1.0000 0.48999  0.86007  0.73098  Biso   1.000  O
  Yb1      1.0000 0.17374  0.24819  0.10970  Biso   1.000  Yb
