data_image0
_cell_length_a       10.1541
_cell_length_b       10.2989
_cell_length_c       10.5367
_cell_angle_alpha    89.879
_cell_angle_beta     79.6259
_cell_angle_gamma    90.0611

_symmetry_space_group_name_H-M    "P 1"
_symmetry_int_tables_number       1

loop_
  _symmetry_equiv_pos_as_xyz
  'x, y, z'

loop_
  _atom_site_label
  _atom_site_occupancy
  _atom_site_fract_x
  _atom_site_fract_y
  _atom_site_fract_z
  _atom_site_thermal_displace_type
  _atom_site_B_iso_or_equiv
  _atom_site_type_symbol
  Hf1      1.0000 0.13516  0.02040  0.14594  Biso   1.000  Hf
  Hf2      1.0000 0.13380  0.22761  0.39491  Biso   1.000  Hf
  Hf3      1.0000 0.34419  0.27296  0.07886  Biso   1.000  Hf
  Hf4      1.0000 0.35911  0.48973  0.35631  Biso   1.000  Hf
  O1       1.0000 0.03384  0.16747  0.07607  Biso   1.000  O
  O2       1.0000 0.03107  0.08270  0.32803  Biso   1.000  O
  O3       1.0000 0.46307  0.41777  0.17048  Biso   1.000  O
  O4       1.0000 0.47781  0.35640  0.43797  Biso   1.000  O
  O5       1.0000 0.27264  0.12296  0.23439  Biso   1.000  O
  O6       1.0000 0.28867  0.12908  0.47760  Biso   1.000  O
  O7       1.0000 0.21097  0.38670  0.00087  Biso   1.000  O
  O8       1.0000 0.22986  0.36512  0.25710  Biso   1.000  O
  Hf5      1.0000 0.13910  0.02164  0.64449  Biso   1.000  Hf
  Hf6      1.0000 0.13282  0.22807  0.89011  Biso   1.000  Hf
  Hf7      1.0000 0.36161  0.27697  0.60439  Biso   1.000  Hf
  Hf8      1.0000 0.35845  0.48327  0.85118  Biso   1.000  Hf
  O9       1.0000 0.03998  0.16955  0.57958  Biso   1.000  O
  O10      1.0000 0.03244  0.08158  0.82665  Biso   1.000  O
  O11      1.0000 0.46605  0.41858  0.67684  Biso   1.000  O
  O12      1.0000 0.46499  0.33651  0.91631  Biso   1.000  O
  O13      1.0000 0.27499  0.12847  0.73578  Biso   1.000  O
  O14      1.0000 0.27063  0.11973  0.98320  Biso   1.000  O
  O15      1.0000 0.22249  0.38173  0.50819  Biso   1.000  O
  O16      1.0000 0.22283  0.37172  0.75664  Biso   1.000  O
  Hf9      1.0000 0.13736  0.52206  0.14754  Biso   1.000  Hf
  Hf10     1.0000 0.13474  0.72872  0.39699  Biso   1.000  Hf
  Hf11     1.0000 0.35907  0.77146  0.10299  Biso   1.000  Hf
  Hf12     1.0000 0.36039  0.96805  0.35283  Biso   1.000  Hf
  O17      1.0000 0.03351  0.66593  0.07972  Biso   1.000  O
  O18      1.0000 0.03341  0.58169  0.33005  Biso   1.000  O
  O19      1.0000 0.46531  0.91460  0.17268  Biso   1.000  O
  O20      1.0000 0.46397  0.82763  0.42431  Biso   1.000  O
  O21      1.0000 0.27416  0.62887  0.24107  Biso   1.000  O
  O22      1.0000 0.27220  0.62646  0.49334  Biso   1.000  O
  O23      1.0000 0.22204  0.87883  0.00909  Biso   1.000  O
  O24      1.0000 0.21941  0.86739  0.25824  Biso   1.000  O
  Hf13     1.0000 0.13732  0.52269  0.64601  Biso   1.000  Hf
  Hf14     1.0000 0.13691  0.72858  0.89719  Biso   1.000  Hf
  Hf15     1.0000 0.36115  0.77179  0.60532  Biso   1.000  Hf
  Hf16     1.0000 0.36012  0.97711  0.85234  Biso   1.000  Hf
  O25      1.0000 0.03128  0.66709  0.57946  Biso   1.000  O
  O26      1.0000 0.03353  0.58313  0.82963  Biso   1.000  O
  O27      1.0000 0.46550  0.91708  0.67216  Biso   1.000  O
  O28      1.0000 0.46464  0.83402  0.92204  Biso   1.000  O
  O29      1.0000 0.27497  0.62905  0.74087  Biso   1.000  O
  O30      1.0000 0.27582  0.62382  0.99129  Biso   1.000  O
  O31      1.0000 0.22267  0.88091  0.51050  Biso   1.000  O
  O32      1.0000 0.22248  0.87073  0.75966  Biso   1.000  O
  Hf17     1.0000 0.63982  0.01808  0.14859  Biso   1.000  Hf
  Hf18     1.0000 0.65203  0.22747  0.41317  Biso   1.000  Hf
  Hf19     1.0000 0.85962  0.27084  0.10707  Biso   1.000  Hf
  Hf20     1.0000 0.85938  0.47831  0.35548  Biso   1.000  Hf
  O33      1.0000 0.52953  0.16827  0.08210  Biso   1.000  O
  O34      1.0000 0.54785  0.06654  0.33948  Biso   1.000  O
  O35      1.0000 0.96480  0.41550  0.17412  Biso   1.000  O
  O36      1.0000 0.96299  0.33211  0.42350  Biso   1.000  O
  O37      1.0000 0.77879  0.12831  0.24300  Biso   1.000  O
  O38      1.0000 0.78674  0.11661  0.50043  Biso   1.000  O
  O39      1.0000 0.72191  0.37801  0.01322  Biso   1.000  O
  O40      1.0000 0.72039  0.36914  0.26355  Biso   1.000  O
  Hf21     1.0000 0.63908  0.02133  0.64939  Biso   1.000  Hf
  Hf22     1.0000 0.63796  0.22808  0.89924  Biso   1.000  Hf
  Hf23     1.0000 0.86292  0.27202  0.60983  Biso   1.000  Hf
  Hf24     1.0000 0.85944  0.47901  0.85657  Biso   1.000  Hf
  O41      1.0000 0.53655  0.16981  0.58499  Biso   1.000  O
  O42      1.0000 0.53250  0.08335  0.83117  Biso   1.000  O
  O43      1.0000 0.96552  0.41784  0.67408  Biso   1.000  O
  O44      1.0000 0.96082  0.33116  0.92105  Biso   1.000  O
  O45      1.0000 0.77563  0.12950  0.74597  Biso   1.000  O
  O46      1.0000 0.77493  0.12085  0.99385  Biso   1.000  O
  O47      1.0000 0.72816  0.38031  0.51686  Biso   1.000  O
  O48      1.0000 0.72339  0.37147  0.76416  Biso   1.000  O
  Hf25     1.0000 0.63636  0.52189  0.14692  Biso   1.000  Hf
  Hf26     1.0000 0.63940  0.72768  0.39794  Biso   1.000  Hf
  Hf27     1.0000 0.85994  0.77032  0.10568  Biso   1.000  Hf
  Hf28     1.0000 0.85753  0.97748  0.35552  Biso   1.000  Hf
  O49      1.0000 0.53263  0.66679  0.07792  Biso   1.000  O
  O50      1.0000 0.53364  0.58874  0.32537  Biso   1.000  O
  O51      1.0000 0.96310  0.91508  0.17348  Biso   1.000  O
  O52      1.0000 0.96352  0.83330  0.42329  Biso   1.000  O
  O53      1.0000 0.77675  0.62672  0.24145  Biso   1.000  O
  O54      1.0000 0.77543  0.62104  0.49161  Biso   1.000  O
  O55      1.0000 0.72269  0.87725  0.01124  Biso   1.000  O
  O56      1.0000 0.72301  0.86825  0.26024  Biso   1.000  O
  Hf29     1.0000 0.63850  0.52302  0.64911  Biso   1.000  Hf
  Hf30     1.0000 0.63746  0.72856  0.89790  Biso   1.000  Hf
  Hf31     1.0000 0.85986  0.77281  0.60589  Biso   1.000  Hf
  Hf32     1.0000 0.85928  0.97780  0.85618  Biso   1.000  Hf
  O57      1.0000 0.53323  0.66574  0.58016  Biso   1.000  O
  O58      1.0000 0.53255  0.58601  0.82933  Biso   1.000  O
  O59      1.0000 0.96497  0.91743  0.67306  Biso   1.000  O
  O60      1.0000 0.96449  0.83303  0.92340  Biso   1.000  O
  O61      1.0000 0.77535  0.62962  0.74225  Biso   1.000  O
  O62      1.0000 0.77472  0.62084  0.99175  Biso   1.000  O
  O63      1.0000 0.72181  0.87713  0.51234  Biso   1.000  O
  O64      1.0000 0.72300  0.87211  0.76199  Biso   1.000  O
  Yb1      1.0000 0.44278  0.23295  0.28290  Biso   1.000  Yb
