data_image0
_cell_length_a       10.1764
_cell_length_b       5.17415
_cell_length_c       10.6103
_cell_angle_alpha    89.7758
_cell_angle_beta     79.0267
_cell_angle_gamma    90.1425

_symmetry_space_group_name_H-M    "P 1"
_symmetry_int_tables_number       1

loop_
  _symmetry_equiv_pos_as_xyz
  'x, y, z'

loop_
  _atom_site_label
  _atom_site_occupancy
  _atom_site_fract_x
  _atom_site_fract_y
  _atom_site_fract_z
  _atom_site_thermal_displace_type
  _atom_site_B_iso_or_equiv
  _atom_site_type_symbol
  Hf1      1.0000 0.13420  0.04193  0.14800  Biso   1.000  Hf
  Hf2      1.0000 0.13201  0.45594  0.39659  Biso   1.000  Hf
  Hf3      1.0000 0.34284  0.54943  0.07752  Biso   1.000  Hf
  Hf4      1.0000 0.35644  0.95619  0.35662  Biso   1.000  Hf
  O1       1.0000 0.03276  0.33181  0.07707  Biso   1.000  O
  O2       1.0000 0.02981  0.16539  0.32895  Biso   1.000  O
  O3       1.0000 0.46315  0.83654  0.17203  Biso   1.000  O
  O4       1.0000 0.47537  0.69538  0.43904  Biso   1.000  O
  O5       1.0000 0.27122  0.24615  0.23787  Biso   1.000  O
  O6       1.0000 0.28276  0.26402  0.48489  Biso   1.000  O
  O7       1.0000 0.20878  0.77302  0.99978  Biso   1.000  O
  O8       1.0000 0.22572  0.72425  0.25443  Biso   1.000  O
  Hf5      1.0000 0.13793  0.04664  0.64476  Biso   1.000  Hf
  Hf6      1.0000 0.13131  0.45630  0.89224  Biso   1.000  Hf
  Hf7      1.0000 0.36077  0.55286  0.60642  Biso   1.000  Hf
  Hf8      1.0000 0.35708  0.96471  0.84928  Biso   1.000  Hf
  O9       1.0000 0.03538  0.33644  0.57994  Biso   1.000  O
  O10      1.0000 0.03079  0.16616  0.82719  Biso   1.000  O
  O11      1.0000 0.46691  0.83523  0.67699  Biso   1.000  O
  O12      1.0000 0.46509  0.67839  0.91742  Biso   1.000  O
  O13      1.0000 0.27380  0.25751  0.73790  Biso   1.000  O
  O14      1.0000 0.27096  0.24470  0.98544  Biso   1.000  O
  O15      1.0000 0.21907  0.76512  0.51007  Biso   1.000  O
  O16      1.0000 0.22191  0.74299  0.75661  Biso   1.000  O
  Hf9      1.0000 0.63864  0.03645  0.14959  Biso   1.000  Hf
  Hf10     1.0000 0.65041  0.45260  0.41470  Biso   1.000  Hf
  Hf11     1.0000 0.85863  0.53937  0.10834  Biso   1.000  Hf
  Hf12     1.0000 0.85668  0.95466  0.35674  Biso   1.000  Hf
  O17      1.0000 0.52784  0.33689  0.08029  Biso   1.000  O
  O18      1.0000 0.54660  0.14196  0.33819  Biso   1.000  O
  O19      1.0000 0.96298  0.82647  0.17641  Biso   1.000  O
  O20      1.0000 0.96243  0.66719  0.42561  Biso   1.000  O
  O21      1.0000 0.77934  0.25291  0.24423  Biso   1.000  O
  O22      1.0000 0.78440  0.23479  0.50097  Biso   1.000  O
  O23      1.0000 0.72109  0.75343  0.01440  Biso   1.000  O
  O24      1.0000 0.71949  0.73213  0.26353  Biso   1.000  O
  Hf13     1.0000 0.63906  0.04526  0.65278  Biso   1.000  Hf
  Hf14     1.0000 0.63689  0.45623  0.90086  Biso   1.000  Hf
  Hf15     1.0000 0.86202  0.54691  0.61081  Biso   1.000  Hf
  Hf16     1.0000 0.85793  0.95659  0.85826  Biso   1.000  Hf
  O25      1.0000 0.53417  0.33444  0.58594  Biso   1.000  O
  O26      1.0000 0.52997  0.17517  0.83094  Biso   1.000  O
  O27      1.0000 0.96544  0.83494  0.67597  Biso   1.000  O
  O28      1.0000 0.96050  0.66424  0.92339  Biso   1.000  O
  O29      1.0000 0.77471  0.26068  0.74742  Biso   1.000  O
  O30      1.0000 0.77390  0.24175  0.99512  Biso   1.000  O
  O31      1.0000 0.72580  0.75658  0.51848  Biso   1.000  O
  O32      1.0000 0.72276  0.74523  0.76589  Biso   1.000  O
  Yb1      1.0000 0.44360  0.46595  0.27901  Biso   1.000  Yb
