data_image0
_cell_length_a       10.1155
_cell_length_b       10.4353
_cell_length_c       5.1012
_cell_angle_alpha    90.418
_cell_angle_beta     90.1752
_cell_angle_gamma    93.6563

_symmetry_space_group_name_H-M    "P 1"
_symmetry_int_tables_number       1

loop_
  _symmetry_equiv_pos_as_xyz
  'x, y, z'

loop_
  _atom_site_label
  _atom_site_occupancy
  _atom_site_fract_x
  _atom_site_fract_y
  _atom_site_fract_z
  _atom_site_thermal_displace_type
  _atom_site_B_iso_or_equiv
  _atom_site_type_symbol
  Hf1      1.0000 0.13888  0.96907  0.16769  Biso   1.000  Hf
  Hf2      1.0000 0.11352  0.23727  0.72395  Biso   1.000  Hf
  Hf3      1.0000 0.37033  0.26883  0.22570  Biso   1.000  Hf
  Hf4      1.0000 0.37071  0.48460  0.74365  Biso   1.000  Hf
  O1       1.0000 0.94983  0.17226  0.50021  Biso   1.000  O
  O2       1.0000 0.01336  0.07316  0.94412  Biso   1.000  O
  O3       1.0000 0.47213  0.43174  0.40066  Biso   1.000  O
  O4       1.0000 0.46723  0.33244  0.90150  Biso   1.000  O
  O5       1.0000 0.21399  0.10681  0.45484  Biso   1.000  O
  O6       1.0000 0.25356  0.13814  0.96197  Biso   1.000  O
  O7       1.0000 0.22712  0.39066  0.98832  Biso   1.000  O
  O8       1.0000 0.23650  0.36406  0.48535  Biso   1.000  O
  Hf5      1.0000 0.13885  0.52665  0.24451  Biso   1.000  Hf
  Hf6      1.0000 0.15618  0.73207  0.74195  Biso   1.000  Hf
  Hf7      1.0000 0.39128  0.76487  0.25164  Biso   1.000  Hf
  Hf8      1.0000 0.35817  0.02074  0.67351  Biso   1.000  Hf
  O9       1.0000 0.03897  0.67370  0.41984  Biso   1.000  O
  O10      1.0000 0.04116  0.57138  0.90113  Biso   1.000  O
  O11      1.0000 0.48444  0.92713  0.43252  Biso   1.000  O
  O12      1.0000 0.53152  0.82557  0.97939  Biso   1.000  O
  O13      1.0000 0.28106  0.61672  0.49479  Biso   1.000  O
  O14      1.0000 0.28237  0.63810  0.99403  Biso   1.000  O
  O15      1.0000 0.28030  0.88366  0.94948  Biso   1.000  O
  O16      1.0000 0.24468  0.85995  0.45788  Biso   1.000  O
  Hf9      1.0000 0.63330  0.98060  0.17460  Biso   1.000  Hf
  Hf10     1.0000 0.61531  0.23250  0.75055  Biso   1.000  Hf
  Hf11     1.0000 0.82668  0.26342  0.24217  Biso   1.000  Hf
  Hf12     1.0000 0.87368  0.47940  0.74937  Biso   1.000  Hf
  O17      1.0000 0.46747  0.17459  0.49418  Biso   1.000  O
  O18      1.0000 0.50679  0.08048  0.94864  Biso   1.000  O
  O19      1.0000 0.97792  0.41699  0.40868  Biso   1.000  O
  O20      1.0000 0.95643  0.32281  0.92090  Biso   1.000  O
  O21      1.0000 0.71203  0.10947  0.46481  Biso   1.000  O
  O22      1.0000 0.75252  0.13138  0.96353  Biso   1.000  O
  O23      1.0000 0.72306  0.38790  0.99570  Biso   1.000  O
  O24      1.0000 0.72109  0.36752  0.50440  Biso   1.000  O
  Hf13     1.0000 0.63566  0.51963  0.24899  Biso   1.000  Hf
  Hf14     1.0000 0.65731  0.73110  0.75072  Biso   1.000  Hf
  Hf15     1.0000 0.88494  0.76455  0.25554  Biso   1.000  Hf
  Hf16     1.0000 0.86214  0.01421  0.67959  Biso   1.000  Hf
  O25      1.0000 0.54282  0.67707  0.42229  Biso   1.000  O
  O26      1.0000 0.53864  0.57592  0.90777  Biso   1.000  O
  O27      1.0000 0.98713  0.92373  0.43312  Biso   1.000  O
  O28      1.0000 0.02968  0.81868  0.97916  Biso   1.000  O
  O29      1.0000 0.78066  0.61316  0.49496  Biso   1.000  O
  O30      1.0000 0.78439  0.63438  0.99402  Biso   1.000  O
  O31      1.0000 0.77825  0.88437  0.96831  Biso   1.000  O
  O32      1.0000 0.74388  0.86233  0.47015  Biso   1.000  O
  Yb1      1.0000 0.09641  0.24551  0.21775  Biso   1.000  Yb
