data_image0
_cell_length_a       10.0473
_cell_length_b       10.2368
_cell_length_c       10.4628
_cell_angle_alpha    89.9779
_cell_angle_beta     89.9161
_cell_angle_gamma    90.006

_symmetry_space_group_name_H-M    "P 1"
_symmetry_int_tables_number       1

loop_
  _symmetry_equiv_pos_as_xyz
  'x, y, z'

loop_
  _atom_site_label
  _atom_site_occupancy
  _atom_site_fract_x
  _atom_site_fract_y
  _atom_site_fract_z
  _atom_site_thermal_displace_type
  _atom_site_B_iso_or_equiv
  _atom_site_type_symbol
  Yb1      1.0000 0.13851  0.01760  0.17213  Biso   1.000  Yb
  Hf1      1.0000 0.13967  0.22893  0.42189  Biso   1.000  Hf
  Hf2      1.0000 0.35985  0.26948  0.17126  Biso   1.000  Hf
  Hf3      1.0000 0.36116  0.47844  0.42124  Biso   1.000  Hf
  Hf4      1.0000 0.63879  0.02120  0.07868  Biso   1.000  Hf
  Hf5      1.0000 0.63816  0.22924  0.32821  Biso   1.000  Hf
  Hf6      1.0000 0.86048  0.27151  0.07741  Biso   1.000  Hf
  Hf7      1.0000 0.86120  0.47920  0.32829  Biso   1.000  Hf
  O1       1.0000 0.03223  0.17202  0.08128  Biso   1.000  O
  O2       1.0000 0.02820  0.08751  0.34040  Biso   1.000  O
  O3       1.0000 0.46665  0.41449  0.08337  Biso   1.000  O
  O4       1.0000 0.46749  0.33546  0.33348  Biso   1.000  O
  O5       1.0000 0.28065  0.12714  0.30088  Biso   1.000  O
  O6       1.0000 0.28254  0.13125  0.04002  Biso   1.000  O
  O7       1.0000 0.22303  0.37399  0.29501  Biso   1.000  O
  O8       1.0000 0.22267  0.37726  0.04521  Biso   1.000  O
  O9       1.0000 0.53360  0.16596  0.16614  Biso   1.000  O
  O10      1.0000 0.53383  0.08414  0.41635  Biso   1.000  O
  O11      1.0000 0.96635  0.41643  0.16591  Biso   1.000  O
  O12      1.0000 0.96751  0.33656  0.41718  Biso   1.000  O
  O13      1.0000 0.77519  0.12478  0.45562  Biso   1.000  O
  O14      1.0000 0.77635  0.12632  0.20520  Biso   1.000  O
  O15      1.0000 0.72357  0.37435  0.45441  Biso   1.000  O
  O16      1.0000 0.72349  0.37642  0.20473  Biso   1.000  O
  Hf8      1.0000 0.13944  0.02061  0.67188  Biso   1.000  Hf
  Hf9      1.0000 0.13975  0.22929  0.92199  Biso   1.000  Hf
  Hf10     1.0000 0.36117  0.27081  0.67174  Biso   1.000  Hf
  Hf11     1.0000 0.36108  0.47836  0.92196  Biso   1.000  Hf
  Hf12     1.0000 0.63850  0.02116  0.57870  Biso   1.000  Hf
  Hf13     1.0000 0.63856  0.22864  0.82825  Biso   1.000  Hf
  Hf14     1.0000 0.86064  0.27138  0.57786  Biso   1.000  Hf
  Hf15     1.0000 0.86050  0.47919  0.82771  Biso   1.000  Hf
  O17      1.0000 0.03243  0.16583  0.58508  Biso   1.000  O
  O18      1.0000 0.03270  0.08482  0.83387  Biso   1.000  O
  O19      1.0000 0.46701  0.41530  0.58362  Biso   1.000  O
  O20      1.0000 0.46697  0.33409  0.83352  Biso   1.000  O
  O21      1.0000 0.27575  0.12349  0.79399  Biso   1.000  O
  O22      1.0000 0.27582  0.12578  0.54659  Biso   1.000  O
  O23      1.0000 0.22413  0.37440  0.79502  Biso   1.000  O
  O24      1.0000 0.22399  0.37617  0.54547  Biso   1.000  O
  O25      1.0000 0.53312  0.16571  0.66594  Biso   1.000  O
  O26      1.0000 0.53504  0.08325  0.91514  Biso   1.000  O
  O27      1.0000 0.96748  0.41512  0.66622  Biso   1.000  O
  O28      1.0000 0.96696  0.33631  0.91498  Biso   1.000  O
  O29      1.0000 0.77686  0.12403  0.95483  Biso   1.000  O
  O30      1.0000 0.77626  0.12604  0.70503  Biso   1.000  O
  O31      1.0000 0.72301  0.37372  0.95395  Biso   1.000  O
  O32      1.0000 0.72384  0.37621  0.70413  Biso   1.000  O
  Hf16     1.0000 0.13910  0.52100  0.17156  Biso   1.000  Hf
  Hf17     1.0000 0.13967  0.72851  0.42187  Biso   1.000  Hf
  Hf18     1.0000 0.36247  0.77046  0.17091  Biso   1.000  Hf
  Hf19     1.0000 0.36135  0.97929  0.42149  Biso   1.000  Hf
  Hf20     1.0000 0.63775  0.52002  0.07814  Biso   1.000  Hf
  Hf21     1.0000 0.63873  0.72877  0.32833  Biso   1.000  Hf
  Hf22     1.0000 0.85878  0.76952  0.07797  Biso   1.000  Hf
  Hf23     1.0000 0.85944  0.97905  0.32893  Biso   1.000  Hf
  O33      1.0000 0.03235  0.66513  0.08306  Biso   1.000  O
  O34      1.0000 0.03249  0.58573  0.33340  Biso   1.000  O
  O35      1.0000 0.46822  0.91603  0.08400  Biso   1.000  O
  O36      1.0000 0.46903  0.83544  0.33334  Biso   1.000  O
  O37      1.0000 0.27680  0.62238  0.29510  Biso   1.000  O
  O38      1.0000 0.27605  0.62410  0.04572  Biso   1.000  O
  O39      1.0000 0.22866  0.86912  0.29794  Biso   1.000  O
  O40      1.0000 0.23111  0.86989  0.04077  Biso   1.000  O
  O41      1.0000 0.53338  0.66436  0.16646  Biso   1.000  O
  O42      1.0000 0.53259  0.58468  0.41652  Biso   1.000  O
  O43      1.0000 0.95887  0.91179  0.16781  Biso   1.000  O
  O44      1.0000 0.96792  0.83533  0.41700  Biso   1.000  O
  O45      1.0000 0.77621  0.62412  0.45471  Biso   1.000  O
  O46      1.0000 0.77590  0.62576  0.20457  Biso   1.000  O
  O47      1.0000 0.72415  0.87382  0.45526  Biso   1.000  O
  O48      1.0000 0.71924  0.87597  0.20517  Biso   1.000  O
  Hf24     1.0000 0.13927  0.52103  0.67192  Biso   1.000  Hf
  Hf25     1.0000 0.13999  0.72904  0.92181  Biso   1.000  Hf
  Hf26     1.0000 0.36116  0.77141  0.67162  Biso   1.000  Hf
  Hf27     1.0000 0.36155  0.97947  0.92181  Biso   1.000  Hf
  Hf28     1.0000 0.63829  0.52104  0.57802  Biso   1.000  Hf
  Hf29     1.0000 0.63799  0.72887  0.82794  Biso   1.000  Hf
  Hf30     1.0000 0.86109  0.77108  0.57828  Biso   1.000  Hf
  Hf31     1.0000 0.86085  0.97909  0.82866  Biso   1.000  Hf
  O49      1.0000 0.03254  0.66493  0.58384  Biso   1.000  O
  O50      1.0000 0.03207  0.58548  0.83280  Biso   1.000  O
  O51      1.0000 0.46719  0.91539  0.58383  Biso   1.000  O
  O52      1.0000 0.46721  0.83462  0.83296  Biso   1.000  O
  O53      1.0000 0.27615  0.62392  0.79539  Biso   1.000  O
  O54      1.0000 0.27613  0.62605  0.54539  Biso   1.000  O
  O55      1.0000 0.22363  0.87398  0.79410  Biso   1.000  O
  O56      1.0000 0.22376  0.87610  0.54554  Biso   1.000  O
  O57      1.0000 0.53272  0.66522  0.66618  Biso   1.000  O
  O58      1.0000 0.53223  0.58463  0.91640  Biso   1.000  O
  O59      1.0000 0.96719  0.91484  0.66701  Biso   1.000  O
  O60      1.0000 0.96792  0.83566  0.91728  Biso   1.000  O
  O61      1.0000 0.77503  0.62286  0.95390  Biso   1.000  O
  O62      1.0000 0.77586  0.62621  0.70418  Biso   1.000  O
  O63      1.0000 0.72379  0.87335  0.95447  Biso   1.000  O
  O64      1.0000 0.72395  0.87608  0.70484  Biso   1.000  O
