data_image0
_cell_length_a       5.03281
_cell_length_b       10.194
_cell_length_c       10.0904
_cell_angle_alpha    89.998
_cell_angle_beta     90.0018
_cell_angle_gamma    89.9946

_symmetry_space_group_name_H-M    "P 1"
_symmetry_int_tables_number       1

loop_
  _symmetry_equiv_pos_as_xyz
  'x, y, z'

loop_
  _atom_site_label
  _atom_site_occupancy
  _atom_site_fract_x
  _atom_site_fract_y
  _atom_site_fract_z
  _atom_site_thermal_displace_type
  _atom_site_B_iso_or_equiv
  _atom_site_type_symbol
  Yb1      1.0000 0.25214  0.00007  0.12513  Biso   1.000  Yb
  Zr1      1.0000 0.25215  0.00007  0.62512  Biso   1.000  Zr
  Zr2      1.0000 0.25211  0.50007  0.12513  Biso   1.000  Zr
  Zr3      1.0000 0.25213  0.50008  0.62512  Biso   1.000  Zr
  Zr4      1.0000 0.25038  0.25078  0.37542  Biso   1.000  Zr
  Zr5      1.0000 0.25393  0.25078  0.87486  Biso   1.000  Zr
  Zr6      1.0000 0.25392  0.74936  0.37542  Biso   1.000  Zr
  Zr7      1.0000 0.25037  0.74936  0.87488  Biso   1.000  Zr
  Zr8      1.0000 0.75215  0.25143  0.12514  Biso   1.000  Zr
  Zr9      1.0000 0.75215  0.24978  0.62514  Biso   1.000  Zr
  Zr10     1.0000 0.75214  0.74870  0.12515  Biso   1.000  Zr
  Zr11     1.0000 0.75214  0.75035  0.62515  Biso   1.000  Zr
  Zr12     1.0000 0.75214  0.00007  0.37523  Biso   1.000  Zr
  Zr13     1.0000 0.75214  0.00007  0.87502  Biso   1.000  Zr
  Zr14     1.0000 0.75212  0.50007  0.37498  Biso   1.000  Zr
  Zr15     1.0000 0.75211  0.50007  0.87528  Biso   1.000  Zr
  O1       1.0000 0.00560  0.14279  0.00026  Biso   1.000  O
  O2       1.0000 0.00963  0.14484  0.50455  Biso   1.000  O
  O3       1.0000 0.01296  0.63997  0.00397  Biso   1.000  O
  O4       1.0000 0.00693  0.64433  0.50354  Biso   1.000  O
  O5       1.0000 0.98953  0.11517  0.25582  Biso   1.000  O
  O6       1.0000 0.99818  0.10555  0.75150  Biso   1.000  O
  O7       1.0000 0.99413  0.60854  0.25189  Biso   1.000  O
  O8       1.0000 0.99986  0.60560  0.75263  Biso   1.000  O
  O9       1.0000 0.01298  0.36017  0.24630  Biso   1.000  O
  O10      1.0000 0.00694  0.35580  0.74673  Biso   1.000  O
  O11      1.0000 0.00559  0.85736  0.25000  Biso   1.000  O
  O12      1.0000 0.00963  0.85530  0.74572  Biso   1.000  O
  O13      1.0000 0.99415  0.39160  0.99838  Biso   1.000  O
  O14      1.0000 0.99987  0.39453  0.49764  Biso   1.000  O
  O15      1.0000 0.98953  0.88496  0.99446  Biso   1.000  O
  O16      1.0000 0.99816  0.89459  0.49878  Biso   1.000  O
  O17      1.0000 0.49869  0.14278  0.24999  Biso   1.000  O
  O18      1.0000 0.49468  0.14484  0.74571  Biso   1.000  O
  O19      1.0000 0.49131  0.63997  0.24631  Biso   1.000  O
  O20      1.0000 0.49735  0.64433  0.74674  Biso   1.000  O
  O21      1.0000 0.51477  0.11517  0.99446  Biso   1.000  O
  O22      1.0000 0.50613  0.10556  0.49877  Biso   1.000  O
  O23      1.0000 0.51015  0.60854  0.99839  Biso   1.000  O
  O24      1.0000 0.50443  0.60561  0.49766  Biso   1.000  O
  O25      1.0000 0.49134  0.36017  0.00394  Biso   1.000  O
  O26      1.0000 0.49738  0.35581  0.50352  Biso   1.000  O
  O27      1.0000 0.49869  0.85736  0.00027  Biso   1.000  O
  O28      1.0000 0.49466  0.85530  0.50456  Biso   1.000  O
  O29      1.0000 0.51017  0.39160  0.25188  Biso   1.000  O
  O30      1.0000 0.50444  0.39452  0.75261  Biso   1.000  O
  O31      1.0000 0.51475  0.88496  0.25582  Biso   1.000  O
  O32      1.0000 0.50614  0.89458  0.75150  Biso   1.000  O
