data_image0
_cell_length_a       10.263
_cell_length_b       5.21388
_cell_length_c       10.6676
_cell_angle_alpha    89.773
_cell_angle_beta     78.9389
_cell_angle_gamma    90.1321

_symmetry_space_group_name_H-M    "P 1"
_symmetry_int_tables_number       1

loop_
  _symmetry_equiv_pos_as_xyz
  'x, y, z'

loop_
  _atom_site_label
  _atom_site_occupancy
  _atom_site_fract_x
  _atom_site_fract_y
  _atom_site_fract_z
  _atom_site_thermal_displace_type
  _atom_site_B_iso_or_equiv
  _atom_site_type_symbol
  Zr1      1.0000 0.13450  0.04189  0.14706  Biso   1.000  Zr
  Zr2      1.0000 0.13126  0.45574  0.39619  Biso   1.000  Zr
  Zr3      1.0000 0.34238  0.54960  0.07635  Biso   1.000  Zr
  Zr4      1.0000 0.35567  0.95696  0.35695  Biso   1.000  Zr
  O1       1.0000 0.03243  0.33077  0.07689  Biso   1.000  O
  O2       1.0000 0.02981  0.16540  0.32874  Biso   1.000  O
  O3       1.0000 0.46520  0.83408  0.17383  Biso   1.000  O
  O4       1.0000 0.47496  0.69176  0.43718  Biso   1.000  O
  O5       1.0000 0.27137  0.24520  0.23736  Biso   1.000  O
  O6       1.0000 0.28179  0.26568  0.48431  Biso   1.000  O
  O7       1.0000 0.20821  0.77252  0.99885  Biso   1.000  O
  O8       1.0000 0.22810  0.72250  0.25478  Biso   1.000  O
  Zr5      1.0000 0.13760  0.04671  0.64412  Biso   1.000  Zr
  Zr6      1.0000 0.13130  0.45626  0.89146  Biso   1.000  Zr
  Zr7      1.0000 0.36073  0.55270  0.60646  Biso   1.000  Zr
  Zr8      1.0000 0.35673  0.96508  0.84889  Biso   1.000  Zr
  O9       1.0000 0.03450  0.33565  0.57989  Biso   1.000  O
  O10      1.0000 0.02999  0.16696  0.82678  Biso   1.000  O
  O11      1.0000 0.46761  0.83472  0.67655  Biso   1.000  O
  O12      1.0000 0.46568  0.68064  0.91774  Biso   1.000  O
  O13      1.0000 0.27285  0.25730  0.73722  Biso   1.000  O
  O14      1.0000 0.27023  0.24431  0.98502  Biso   1.000  O
  O15      1.0000 0.21985  0.76500  0.50997  Biso   1.000  O
  O16      1.0000 0.22284  0.74364  0.75586  Biso   1.000  O
  Zr9      1.0000 0.63923  0.03629  0.14976  Biso   1.000  Zr
  Zr10     1.0000 0.65113  0.45309  0.41424  Biso   1.000  Zr
  Zr11     1.0000 0.85897  0.53930  0.10891  Biso   1.000  Zr
  Zr12     1.0000 0.85725  0.95444  0.35724  Biso   1.000  Zr
  O17      1.0000 0.52771  0.33749  0.08167  Biso   1.000  O
  O18      1.0000 0.54500  0.14709  0.33761  Biso   1.000  O
  O19      1.0000 0.96417  0.82473  0.17700  Biso   1.000  O
  O20      1.0000 0.96281  0.66770  0.42623  Biso   1.000  O
  O21      1.0000 0.77902  0.25258  0.24487  Biso   1.000  O
  O22      1.0000 0.78359  0.23548  0.50130  Biso   1.000  O
  O23      1.0000 0.72211  0.75276  0.01476  Biso   1.000  O
  O24      1.0000 0.72091  0.73363  0.26409  Biso   1.000  O
  Zr13     1.0000 0.63899  0.04588  0.65301  Biso   1.000  Zr
  Zr14     1.0000 0.63685  0.45609  0.90146  Biso   1.000  Zr
  Zr15     1.0000 0.86175  0.54707  0.61200  Biso   1.000  Zr
  Zr16     1.0000 0.85801  0.95638  0.85904  Biso   1.000  Zr
  O25      1.0000 0.53406  0.33375  0.58530  Biso   1.000  O
  O26      1.0000 0.52876  0.17760  0.83060  Biso   1.000  O
  O27      1.0000 0.96593  0.83364  0.67629  Biso   1.000  O
  O28      1.0000 0.96095  0.66447  0.92364  Biso   1.000  O
  O29      1.0000 0.77373  0.26009  0.74811  Biso   1.000  O
  O30      1.0000 0.77351  0.24196  0.99563  Biso   1.000  O
  O31      1.0000 0.72653  0.75634  0.51876  Biso   1.000  O
  O32      1.0000 0.72339  0.74568  0.76650  Biso   1.000  O
  Yb1      1.0000 0.44138  0.46560  0.27853  Biso   1.000  Yb
