data_image0
_cell_length_a       10.1549
_cell_length_b       10.3607
_cell_length_c       5.13797
_cell_angle_alpha    92.6973
_cell_angle_beta     90.1549
_cell_angle_gamma    91.2041

_symmetry_space_group_name_H-M    "P 1"
_symmetry_int_tables_number       1

loop_
  _symmetry_equiv_pos_as_xyz
  'x, y, z'

loop_
  _atom_site_label
  _atom_site_occupancy
  _atom_site_fract_x
  _atom_site_fract_y
  _atom_site_fract_z
  _atom_site_thermal_displace_type
  _atom_site_B_iso_or_equiv
  _atom_site_type_symbol
  Zr1      1.0000 0.11208  0.96539  0.22670  Biso   1.000  Zr
  Zr2      1.0000 0.11795  0.24184  0.66792  Biso   1.000  Zr
  Zr3      1.0000 0.39770  0.25573  0.22579  Biso   1.000  Zr
  Zr4      1.0000 0.35720  0.49192  0.73499  Biso   1.000  Zr
  O1       1.0000 0.98369  0.12023  0.40554  Biso   1.000  O
  O2       1.0000 0.03741  0.06537  0.90217  Biso   1.000  O
  O3       1.0000 0.48429  0.42727  0.44009  Biso   1.000  O
  O4       1.0000 0.48744  0.36850  0.94867  Biso   1.000  O
  O5       1.0000 0.24310  0.11080  0.40588  Biso   1.000  O
  O6       1.0000 0.27975  0.17822  0.89823  Biso   1.000  O
  O7       1.0000 0.20366  0.41067  0.93177  Biso   1.000  O
  O8       1.0000 0.24653  0.36670  0.43656  Biso   1.000  O
  Zr5      1.0000 0.13854  0.52318  0.25807  Biso   1.000  Zr
  Zr6      1.0000 0.14792  0.75871  0.72259  Biso   1.000  Zr
  Zr7      1.0000 0.39205  0.77422  0.19705  Biso   1.000  Zr
  Zr8      1.0000 0.36946  0.02426  0.69323  Biso   1.000  Zr
  O9       1.0000 0.00938  0.62910  0.54029  Biso   1.000  O
  O10      1.0000 0.97623  0.56441  0.05291  Biso   1.000  O
  O11      1.0000 0.48932  0.93153  0.41510  Biso   1.000  O
  O12      1.0000 0.51684  0.86152  0.93070  Biso   1.000  O
  O13      1.0000 0.27006  0.62511  0.50384  Biso   1.000  O
  O14      1.0000 0.24536  0.65266  0.00497  Biso   1.000  O
  O15      1.0000 0.26394  0.90614  0.96114  Biso   1.000  O
  O16      1.0000 0.25249  0.86645  0.46188  Biso   1.000  O
  Zr9      1.0000 0.64174  0.98604  0.18073  Biso   1.000  Zr
  Zr10     1.0000 0.63009  0.24427  0.76372  Biso   1.000  Zr
  Zr11     1.0000 0.84144  0.25943  0.24734  Biso   1.000  Zr
  Zr12     1.0000 0.87843  0.48150  0.73782  Biso   1.000  Zr
  O17      1.0000 0.48485  0.17588  0.52676  Biso   1.000  O
  O18      1.0000 0.51159  0.11187  0.00127  Biso   1.000  O
  O19      1.0000 0.99602  0.38075  0.43105  Biso   1.000  O
  O20      1.0000 0.95560  0.30777  0.89918  Biso   1.000  O
  O21      1.0000 0.73366  0.11108  0.47307  Biso   1.000  O
  O22      1.0000 0.76036  0.12884  0.96733  Biso   1.000  O
  O23      1.0000 0.73573  0.38853  0.02177  Biso   1.000  O
  O24      1.0000 0.73928  0.35824  0.52891  Biso   1.000  O
  Zr13     1.0000 0.60760  0.52066  0.20077  Biso   1.000  Zr
  Zr14     1.0000 0.64641  0.74400  0.71877  Biso   1.000  Zr
  Zr15     1.0000 0.88528  0.72231  0.25659  Biso   1.000  Zr
  Zr16     1.0000 0.87159  0.00606  0.68671  Biso   1.000  Zr
  O25      1.0000 0.52783  0.68359  0.40802  Biso   1.000  O
  O26      1.0000 0.49630  0.61664  0.92644  Biso   1.000  O
  O27      1.0000 0.99959  0.87152  0.50549  Biso   1.000  O
  O28      1.0000 0.02309  0.80991  0.02292  Biso   1.000  O
  O29      1.0000 0.75870  0.59882  0.47524  Biso   1.000  O
  O30      1.0000 0.74924  0.63762  0.97290  Biso   1.000  O
  O31      1.0000 0.77060  0.88459  0.93733  Biso   1.000  O
  O32      1.0000 0.74909  0.85708  0.43971  Biso   1.000  O
  Yb1      1.0000 0.11667  0.24280  0.16038  Biso   1.000  Yb
