data_image0
_cell_length_a       10.1219
_cell_length_b       10.3078
_cell_length_c       10.5189
_cell_angle_alpha    89.9836
_cell_angle_beta     89.9176
_cell_angle_gamma    90.0019

_symmetry_space_group_name_H-M    "P 1"
_symmetry_int_tables_number       1

loop_
  _symmetry_equiv_pos_as_xyz
  'x, y, z'

loop_
  _atom_site_label
  _atom_site_occupancy
  _atom_site_fract_x
  _atom_site_fract_y
  _atom_site_fract_z
  _atom_site_thermal_displace_type
  _atom_site_B_iso_or_equiv
  _atom_site_type_symbol
  Yb1      1.0000 0.13856  0.01747  0.17232  Biso   1.000  Yb
  Zr1      1.0000 0.13936  0.02064  0.67160  Biso   1.000  Zr
  Zr2      1.0000 0.13908  0.52107  0.17134  Biso   1.000  Zr
  Zr3      1.0000 0.13922  0.52106  0.67169  Biso   1.000  Zr
  Zr4      1.0000 0.13952  0.22888  0.42149  Biso   1.000  Zr
  Zr5      1.0000 0.13976  0.22908  0.92192  Biso   1.000  Zr
  Zr6      1.0000 0.13962  0.72864  0.42151  Biso   1.000  Zr
  Zr7      1.0000 0.13995  0.72919  0.92168  Biso   1.000  Zr
  Zr8      1.0000 0.35973  0.26947  0.17103  Biso   1.000  Zr
  Zr9      1.0000 0.36113  0.27086  0.67148  Biso   1.000  Zr
  Zr10     1.0000 0.36237  0.77059  0.17066  Biso   1.000  Zr
  Zr11     1.0000 0.36120  0.77140  0.67138  Biso   1.000  Zr
  Zr12     1.0000 0.36112  0.47846  0.42100  Biso   1.000  Zr
  Zr13     1.0000 0.36111  0.47845  0.92172  Biso   1.000  Zr
  Zr14     1.0000 0.36133  0.97939  0.42120  Biso   1.000  Zr
  Zr15     1.0000 0.36135  0.97955  0.92166  Biso   1.000  Zr
  Zr16     1.0000 0.63877  0.02120  0.07886  Biso   1.000  Zr
  Zr17     1.0000 0.63854  0.02117  0.57892  Biso   1.000  Zr
  Zr18     1.0000 0.63792  0.51999  0.07845  Biso   1.000  Zr
  Zr19     1.0000 0.63834  0.52102  0.57837  Biso   1.000  Zr
  Zr20     1.0000 0.63821  0.22924  0.32839  Biso   1.000  Zr
  Zr21     1.0000 0.63860  0.22868  0.82857  Biso   1.000  Zr
  Zr22     1.0000 0.63868  0.72873  0.32859  Biso   1.000  Zr
  Zr23     1.0000 0.63806  0.72888  0.82830  Biso   1.000  Zr
  Zr24     1.0000 0.86102  0.27119  0.07775  Biso   1.000  Zr
  Zr25     1.0000 0.86064  0.27141  0.57811  Biso   1.000  Zr
  Zr26     1.0000 0.85904  0.76988  0.07843  Biso   1.000  Zr
  Zr27     1.0000 0.86111  0.77103  0.57850  Biso   1.000  Zr
  Zr28     1.0000 0.86123  0.47917  0.32853  Biso   1.000  Zr
  Zr29     1.0000 0.86068  0.47915  0.82815  Biso   1.000  Zr
  Zr30     1.0000 0.85945  0.97903  0.32900  Biso   1.000  Zr
  Zr31     1.0000 0.86089  0.97905  0.82885  Biso   1.000  Zr
  O1       1.0000 0.03165  0.17034  0.08062  Biso   1.000  O
  O2       1.0000 0.03165  0.16485  0.58404  Biso   1.000  O
  O3       1.0000 0.03176  0.66430  0.08241  Biso   1.000  O
  O4       1.0000 0.03191  0.66420  0.58305  Biso   1.000  O
  O5       1.0000 0.02795  0.08823  0.33878  Biso   1.000  O
  O6       1.0000 0.03190  0.08570  0.83290  Biso   1.000  O
  O7       1.0000 0.03181  0.58651  0.33271  Biso   1.000  O
  O8       1.0000 0.03140  0.58642  0.83214  Biso   1.000  O
  O9       1.0000 0.46738  0.41383  0.08282  Biso   1.000  O
  O10      1.0000 0.46770  0.41461  0.58302  Biso   1.000  O
  O11      1.0000 0.46890  0.91518  0.08329  Biso   1.000  O
  O12      1.0000 0.46791  0.91471  0.58321  Biso   1.000  O
  O13      1.0000 0.46803  0.33598  0.33294  Biso   1.000  O
  O14      1.0000 0.46770  0.33490  0.83291  Biso   1.000  O
  O15      1.0000 0.46953  0.83606  0.33274  Biso   1.000  O
  O16      1.0000 0.46786  0.83530  0.83249  Biso   1.000  O
  O17      1.0000 0.27942  0.12704  0.30044  Biso   1.000  O
  O18      1.0000 0.27487  0.12399  0.79415  Biso   1.000  O
  O19      1.0000 0.27585  0.62293  0.29514  Biso   1.000  O
  O20      1.0000 0.27526  0.62437  0.79539  Biso   1.000  O
  O21      1.0000 0.28110  0.13029  0.04069  Biso   1.000  O
  O22      1.0000 0.27499  0.12548  0.54652  Biso   1.000  O
  O23      1.0000 0.27526  0.62408  0.04560  Biso   1.000  O
  O24      1.0000 0.27527  0.62568  0.54538  Biso   1.000  O
  O25      1.0000 0.22398  0.37436  0.29507  Biso   1.000  O
  O26      1.0000 0.22505  0.37480  0.79510  Biso   1.000  O
  O27      1.0000 0.22903  0.87005  0.29748  Biso   1.000  O
  O28      1.0000 0.22463  0.87446  0.79422  Biso   1.000  O
  O29      1.0000 0.22372  0.37683  0.04527  Biso   1.000  O
  O30      1.0000 0.22486  0.37578  0.54547  Biso   1.000  O
  O31      1.0000 0.23098  0.87039  0.04129  Biso   1.000  O
  O32      1.0000 0.22473  0.87570  0.54547  Biso   1.000  O
  O33      1.0000 0.53284  0.16525  0.16666  Biso   1.000  O
  O34      1.0000 0.53240  0.16500  0.66654  Biso   1.000  O
  O35      1.0000 0.53256  0.66365  0.16709  Biso   1.000  O
  O36      1.0000 0.53203  0.66452  0.66683  Biso   1.000  O
  O37      1.0000 0.53310  0.08484  0.41688  Biso   1.000  O
  O38      1.0000 0.53409  0.08413  0.91579  Biso   1.000  O
  O39      1.0000 0.53191  0.58535  0.41713  Biso   1.000  O
  O40      1.0000 0.53162  0.58531  0.91704  Biso   1.000  O
  O41      1.0000 0.96729  0.41551  0.16675  Biso   1.000  O
  O42      1.0000 0.96822  0.41429  0.66699  Biso   1.000  O
  O43      1.0000 0.96024  0.91124  0.16820  Biso   1.000  O
  O44      1.0000 0.96794  0.91400  0.66762  Biso   1.000  O
  O45      1.0000 0.96811  0.33732  0.41784  Biso   1.000  O
  O46      1.0000 0.96786  0.33712  0.91587  Biso   1.000  O
  O47      1.0000 0.96853  0.83609  0.41756  Biso   1.000  O
  O48      1.0000 0.96858  0.83654  0.91790  Biso   1.000  O
  O49      1.0000 0.77589  0.12435  0.95476  Biso   1.000  O
  O50      1.0000 0.77444  0.12510  0.45549  Biso   1.000  O
  O51      1.0000 0.77422  0.62333  0.95402  Biso   1.000  O
  O52      1.0000 0.77528  0.62448  0.45474  Biso   1.000  O
  O53      1.0000 0.77532  0.12575  0.20513  Biso   1.000  O
  O54      1.0000 0.77532  0.12567  0.70497  Biso   1.000  O
  O55      1.0000 0.77497  0.62536  0.20459  Biso   1.000  O
  O56      1.0000 0.77498  0.62581  0.70426  Biso   1.000  O
  O57      1.0000 0.72408  0.37403  0.95409  Biso   1.000  O
  O58      1.0000 0.72439  0.37470  0.45445  Biso   1.000  O
  O59      1.0000 0.72464  0.87376  0.95447  Biso   1.000  O
  O60      1.0000 0.72497  0.87423  0.45522  Biso   1.000  O
  O61      1.0000 0.72455  0.37589  0.20473  Biso   1.000  O
  O62      1.0000 0.72473  0.37585  0.70423  Biso   1.000  O
  O63      1.0000 0.72044  0.87552  0.20513  Biso   1.000  O
  O64      1.0000 0.72483  0.87570  0.70482  Biso   1.000  O
