data_image0
_cell_length_a       10.065
_cell_length_b       5.21088
_cell_length_c       10.1066
_cell_angle_alpha    90.0642
_cell_angle_beta     90.1357
_cell_angle_gamma    89.9638

_symmetry_space_group_name_H-M    "P 1"
_symmetry_int_tables_number       1

loop_
  _symmetry_equiv_pos_as_xyz
  'x, y, z'

loop_
  _atom_site_label
  _atom_site_occupancy
  _atom_site_fract_x
  _atom_site_fract_y
  _atom_site_fract_z
  _atom_site_thermal_displace_type
  _atom_site_B_iso_or_equiv
  _atom_site_type_symbol
  Yb1      1.0000 0.13124  0.03066  0.12019  Biso   1.000  Yb
  Zr1      1.0000 0.13349  0.03246  0.62588  Biso   1.000  Zr
  Zr2      1.0000 0.63308  0.02942  0.12536  Biso   1.000  Zr
  Zr3      1.0000 0.63307  0.03099  0.62475  Biso   1.000  Zr
  Zr4      1.0000 0.13547  0.46975  0.37635  Biso   1.000  Zr
  Zr5      1.0000 0.13492  0.47125  0.87384  Biso   1.000  Zr
  Zr6      1.0000 0.63228  0.46749  0.37572  Biso   1.000  Zr
  Zr7      1.0000 0.63401  0.46691  0.87473  Biso   1.000  Zr
  Zr8      1.0000 0.36547  0.53023  0.12702  Biso   1.000  Zr
  Zr9      1.0000 0.36632  0.53182  0.62498  Biso   1.000  Zr
  Zr10     1.0000 0.86252  0.52986  0.12595  Biso   1.000  Zr
  Zr11     1.0000 0.86627  0.53063  0.62463  Biso   1.000  Zr
  Zr12     1.0000 0.36400  0.96969  0.37416  Biso   1.000  Zr
  Zr13     1.0000 0.36733  0.96738  0.87493  Biso   1.000  Zr
  Zr14     1.0000 0.86550  0.96780  0.37789  Biso   1.000  Zr
  Zr15     1.0000 0.86461  0.96632  0.87423  Biso   1.000  Zr
  O1       1.0000 0.03185  0.37537  0.19966  Biso   1.000  O
  O2       1.0000 0.03703  0.37208  0.69131  Biso   1.000  O
  O3       1.0000 0.53745  0.36681  0.19365  Biso   1.000  O
  O4       1.0000 0.53519  0.36616  0.69478  Biso   1.000  O
  O5       1.0000 0.03456  0.13302  0.44564  Biso   1.000  O
  O6       1.0000 0.03291  0.14296  0.93339  Biso   1.000  O
  O7       1.0000 0.53440  0.13229  0.44476  Biso   1.000  O
  O8       1.0000 0.53658  0.13126  0.94417  Biso   1.000  O
  O9       1.0000 0.46491  0.86695  0.19500  Biso   1.000  O
  O10      1.0000 0.46564  0.86596  0.69515  Biso   1.000  O
  O11      1.0000 0.95783  0.86047  0.19982  Biso   1.000  O
  O12      1.0000 0.96435  0.86748  0.69475  Biso   1.000  O
  O13      1.0000 0.46501  0.63318  0.44576  Biso   1.000  O
  O14      1.0000 0.46796  0.63345  0.94515  Biso   1.000  O
  O15      1.0000 0.96516  0.63402  0.44679  Biso   1.000  O
  O16      1.0000 0.96763  0.63932  0.94850  Biso   1.000  O
  O17      1.0000 0.27523  0.24330  0.25157  Biso   1.000  O
  O18      1.0000 0.27035  0.23495  0.74820  Biso   1.000  O
  O19      1.0000 0.76907  0.23076  0.24881  Biso   1.000  O
  O20      1.0000 0.76966  0.23288  0.74764  Biso   1.000  O
  O21      1.0000 0.26886  0.26568  0.50004  Biso   1.000  O
  O22      1.0000 0.27264  0.26686  0.99562  Biso   1.000  O
  O23      1.0000 0.76815  0.26683  0.49870  Biso   1.000  O
  O24      1.0000 0.76991  0.26339  0.99795  Biso   1.000  O
  O25      1.0000 0.23068  0.76760  0.49949  Biso   1.000  O
  O26      1.0000 0.23612  0.75686  0.99584  Biso   1.000  O
  O27      1.0000 0.73023  0.76550  0.49936  Biso   1.000  O
  O28      1.0000 0.73064  0.76350  0.99897  Biso   1.000  O
  O29      1.0000 0.23342  0.72872  0.25147  Biso   1.000  O
  O30      1.0000 0.23121  0.73589  0.74756  Biso   1.000  O
  O31      1.0000 0.72737  0.73235  0.24937  Biso   1.000  O
  O32      1.0000 0.73088  0.73266  0.74878  Biso   1.000  O
