data_image0
_cell_length_a       10.1418
_cell_length_b       5.18802
_cell_length_c       10.677
_cell_angle_alpha    89.9966
_cell_angle_beta     91.4439
_cell_angle_gamma    90.3699

_symmetry_space_group_name_H-M    "P 1"
_symmetry_int_tables_number       1

loop_
  _symmetry_equiv_pos_as_xyz
  'x, y, z'

loop_
  _atom_site_label
  _atom_site_occupancy
  _atom_site_fract_x
  _atom_site_fract_y
  _atom_site_fract_z
  _atom_site_thermal_displace_type
  _atom_site_B_iso_or_equiv
  _atom_site_type_symbol
  Zr1      1.0000 0.13768  0.04313  0.17533  Biso   1.000  Zr
  Zr2      1.0000 0.13874  0.45067  0.42743  Biso   1.000  Zr
  Zr3      1.0000 0.35001  0.54752  0.19134  Biso   1.000  Zr
  Zr4      1.0000 0.36129  0.95384  0.43007  Biso   1.000  Zr
  Zr5      1.0000 0.64686  0.05142  0.08156  Biso   1.000  Zr
  Zr6      1.0000 0.63943  0.45160  0.33107  Biso   1.000  Zr
  Zr7      1.0000 0.86656  0.53945  0.07809  Biso   1.000  Zr
  Zr8      1.0000 0.86129  0.95403  0.32643  Biso   1.000  Zr
  O1       1.0000 0.03314  0.31687  0.08082  Biso   1.000  O
  O2       1.0000 0.03038  0.17367  0.33340  Biso   1.000  O
  O3       1.0000 0.45652  0.85374  0.09649  Biso   1.000  O
  O4       1.0000 0.46812  0.66929  0.34075  Biso   1.000  O
  O5       1.0000 0.27142  0.24813  0.30312  Biso   1.000  O
  O6       1.0000 0.27803  0.26230  0.04847  Biso   1.000  O
  O7       1.0000 0.21968  0.75237  0.30733  Biso   1.000  O
  O8       1.0000 0.21950  0.75664  0.05339  Biso   1.000  O
  O9       1.0000 0.52432  0.31420  0.18184  Biso   1.000  O
  O10      1.0000 0.53046  0.16964  0.42118  Biso   1.000  O
  O11      1.0000 0.96813  0.82462  0.17321  Biso   1.000  O
  O12      1.0000 0.97216  0.67561  0.42263  Biso   1.000  O
  O13      1.0000 0.77625  0.24700  0.45127  Biso   1.000  O
  O14      1.0000 0.78377  0.24884  0.20630  Biso   1.000  O
  O15      1.0000 0.72772  0.74706  0.45229  Biso   1.000  O
  O16      1.0000 0.72051  0.73561  0.20099  Biso   1.000  O
  Zr9      1.0000 0.14168  0.04003  0.67653  Biso   1.000  Zr
  Zr10     1.0000 0.14122  0.46230  0.92531  Biso   1.000  Zr
  Zr11     1.0000 0.36285  0.54245  0.67763  Biso   1.000  Zr
  Zr12     1.0000 0.35938  0.96770  0.92835  Biso   1.000  Zr
  Zr13     1.0000 0.64306  0.03467  0.57142  Biso   1.000  Zr
  Zr14     1.0000 0.65374  0.45195  0.79631  Biso   1.000  Zr
  Zr15     1.0000 0.86971  0.54337  0.57492  Biso   1.000  Zr
  Zr16     1.0000 0.86698  0.96029  0.83087  Biso   1.000  Zr
  O17      1.0000 0.03424  0.31890  0.58230  Biso   1.000  O
  O18      1.0000 0.03495  0.17696  0.83268  Biso   1.000  O
  O19      1.0000 0.47429  0.81544  0.58361  Biso   1.000  O
  O20      1.0000 0.47596  0.66775  0.83400  Biso   1.000  O
  O21      1.0000 0.27634  0.25348  0.79888  Biso   1.000  O
  O22      1.0000 0.27685  0.24663  0.55072  Biso   1.000  O
  O23      1.0000 0.22760  0.74891  0.80254  Biso   1.000  O
  O24      1.0000 0.22743  0.74725  0.55420  Biso   1.000  O
  O25      1.0000 0.53040  0.31107  0.66290  Biso   1.000  O
  O26      1.0000 0.53093  0.17188  0.92082  Biso   1.000  O
  O27      1.0000 0.97497  0.81743  0.67499  Biso   1.000  O
  O28      1.0000 0.97172  0.67534  0.92237  Biso   1.000  O
  O29      1.0000 0.77066  0.26687  0.94617  Biso   1.000  O
  O30      1.0000 0.78692  0.23673  0.69302  Biso   1.000  O
  O31      1.0000 0.73048  0.76179  0.95350  Biso   1.000  O
  O32      1.0000 0.73397  0.75126  0.69854  Biso   1.000  O
  Yb1      1.0000 0.56038  0.54268  0.01790  Biso   1.000  Yb
