data_image0
_cell_length_a       10.0478
_cell_length_b       10.4264
_cell_length_c       10.0835
_cell_angle_alpha    90.0253
_cell_angle_beta     90.0748
_cell_angle_gamma    90.0004

_symmetry_space_group_name_H-M    "P 1"
_symmetry_int_tables_number       1

loop_
  _symmetry_equiv_pos_as_xyz
  'x, y, z'

loop_
  _atom_site_label
  _atom_site_occupancy
  _atom_site_fract_x
  _atom_site_fract_y
  _atom_site_fract_z
  _atom_site_thermal_displace_type
  _atom_site_B_iso_or_equiv
  _atom_site_type_symbol
  Yb1      1.0000 0.13094  0.01501  0.12028  Biso   1.000  Yb
  Zr1      1.0000 0.13356  0.01603  0.62635  Biso   1.000  Zr
  Zr2      1.0000 0.13468  0.51572  0.12568  Biso   1.000  Zr
  Zr3      1.0000 0.13380  0.51607  0.62564  Biso   1.000  Zr
  Zr4      1.0000 0.63354  0.01529  0.12537  Biso   1.000  Zr
  Zr5      1.0000 0.63324  0.01592  0.62486  Biso   1.000  Zr
  Zr6      1.0000 0.63348  0.51546  0.12606  Biso   1.000  Zr
  Zr7      1.0000 0.63375  0.51539  0.62585  Biso   1.000  Zr
  Zr8      1.0000 0.13483  0.23398  0.37630  Biso   1.000  Zr
  Zr9      1.0000 0.13400  0.23569  0.87386  Biso   1.000  Zr
  Zr10     1.0000 0.13434  0.73513  0.37600  Biso   1.000  Zr
  Zr11     1.0000 0.13484  0.73414  0.87606  Biso   1.000  Zr
  Zr12     1.0000 0.63303  0.23410  0.37511  Biso   1.000  Zr
  Zr13     1.0000 0.63391  0.23397  0.87529  Biso   1.000  Zr
  Zr14     1.0000 0.63296  0.73412  0.37650  Biso   1.000  Zr
  Zr15     1.0000 0.63429  0.73362  0.87540  Biso   1.000  Zr
  Zr16     1.0000 0.36519  0.26548  0.12713  Biso   1.000  Zr
  Zr17     1.0000 0.36629  0.26561  0.62547  Biso   1.000  Zr
  Zr18     1.0000 0.36642  0.76530  0.12595  Biso   1.000  Zr
  Zr19     1.0000 0.36625  0.76616  0.62542  Biso   1.000  Zr
  Zr20     1.0000 0.86397  0.26562  0.12577  Biso   1.000  Zr
  Zr21     1.0000 0.86613  0.26608  0.62489  Biso   1.000  Zr
  Zr22     1.0000 0.86473  0.76545  0.12656  Biso   1.000  Zr
  Zr23     1.0000 0.86625  0.76517  0.62558  Biso   1.000  Zr
  Zr24     1.0000 0.36560  0.48443  0.37587  Biso   1.000  Zr
  Zr25     1.0000 0.36636  0.48393  0.87571  Biso   1.000  Zr
  Zr26     1.0000 0.36439  0.98482  0.37409  Biso   1.000  Zr
  Zr27     1.0000 0.36712  0.98402  0.87526  Biso   1.000  Zr
  Zr28     1.0000 0.86615  0.48440  0.37648  Biso   1.000  Zr
  Zr29     1.0000 0.86613  0.48404  0.87599  Biso   1.000  Zr
  Zr30     1.0000 0.86548  0.98405  0.37720  Biso   1.000  Zr
  Zr31     1.0000 0.86480  0.98345  0.87446  Biso   1.000  Zr
  O1       1.0000 0.03217  0.18804  0.19915  Biso   1.000  O
  O2       1.0000 0.03734  0.18635  0.69023  Biso   1.000  O
  O3       1.0000 0.03504  0.68342  0.19518  Biso   1.000  O
  O4       1.0000 0.03550  0.68386  0.69544  Biso   1.000  O
  O5       1.0000 0.53739  0.18453  0.19251  Biso   1.000  O
  O6       1.0000 0.53559  0.18376  0.69442  Biso   1.000  O
  O7       1.0000 0.53572  0.68279  0.19551  Biso   1.000  O
  O8       1.0000 0.53549  0.68338  0.69478  Biso   1.000  O
  O9       1.0000 0.03499  0.06638  0.44516  Biso   1.000  O
  O10      1.0000 0.03444  0.07007  0.93193  Biso   1.000  O
  O11      1.0000 0.03528  0.56648  0.44534  Biso   1.000  O
  O12      1.0000 0.03518  0.56699  0.94501  Biso   1.000  O
  O13      1.0000 0.53494  0.06632  0.44412  Biso   1.000  O
  O14      1.0000 0.53714  0.06568  0.94338  Biso   1.000  O
  O15      1.0000 0.53497  0.56615  0.44526  Biso   1.000  O
  O16      1.0000 0.53543  0.56594  0.94515  Biso   1.000  O
  O17      1.0000 0.46448  0.43335  0.19534  Biso   1.000  O
  O18      1.0000 0.46501  0.43349  0.69491  Biso   1.000  O
  O19      1.0000 0.46461  0.93413  0.19403  Biso   1.000  O
  O20      1.0000 0.46492  0.93352  0.69479  Biso   1.000  O
  O21      1.0000 0.96435  0.43422  0.19473  Biso   1.000  O
  O22      1.0000 0.96490  0.43410  0.69557  Biso   1.000  O
  O23      1.0000 0.95677  0.93099  0.19967  Biso   1.000  O
  O24      1.0000 0.96369  0.93362  0.69385  Biso   1.000  O
  O25      1.0000 0.46424  0.31622  0.44452  Biso   1.000  O
  O26      1.0000 0.46466  0.31603  0.94419  Biso   1.000  O
  O27      1.0000 0.46492  0.81678  0.44569  Biso   1.000  O
  O28      1.0000 0.46732  0.81651  0.94523  Biso   1.000  O
  O29      1.0000 0.96462  0.31751  0.44520  Biso   1.000  O
  O30      1.0000 0.96488  0.31721  0.94569  Biso   1.000  O
  O31      1.0000 0.96475  0.81598  0.44621  Biso   1.000  O
  O32      1.0000 0.96721  0.81853  0.94775  Biso   1.000  O
  O33      1.0000 0.27510  0.12311  0.25221  Biso   1.000  O
  O34      1.0000 0.27036  0.11754  0.74862  Biso   1.000  O
  O35      1.0000 0.26947  0.61602  0.24907  Biso   1.000  O
  O36      1.0000 0.26985  0.61715  0.74910  Biso   1.000  O
  O37      1.0000 0.76873  0.11644  0.24925  Biso   1.000  O
  O38      1.0000 0.76963  0.11702  0.74822  Biso   1.000  O
  O39      1.0000 0.76958  0.61665  0.24923  Biso   1.000  O
  O40      1.0000 0.76978  0.61653  0.74898  Biso   1.000  O
  O41      1.0000 0.26920  0.13243  0.50039  Biso   1.000  O
  O42      1.0000 0.27258  0.13448  0.99606  Biso   1.000  O
  O43      1.0000 0.26942  0.63342  0.49913  Biso   1.000  O
  O44      1.0000 0.27012  0.63152  0.99929  Biso   1.000  O
  O45      1.0000 0.76846  0.13378  0.49896  Biso   1.000  O
  O46      1.0000 0.77055  0.13242  0.99855  Biso   1.000  O
  O47      1.0000 0.76920  0.63280  0.49921  Biso   1.000  O
  O48      1.0000 0.76948  0.63220  0.99888  Biso   1.000  O
  O49      1.0000 0.23088  0.38332  0.49930  Biso   1.000  O
  O50      1.0000 0.23062  0.38283  0.99912  Biso   1.000  O
  O51      1.0000 0.23008  0.88362  0.49953  Biso   1.000  O
  O52      1.0000 0.23603  0.87841  0.99600  Biso   1.000  O
  O53      1.0000 0.73019  0.38324  0.49906  Biso   1.000  O
  O54      1.0000 0.72992  0.38271  0.99908  Biso   1.000  O
  O55      1.0000 0.73026  0.88263  0.49975  Biso   1.000  O
  O56      1.0000 0.73085  0.88188  0.99934  Biso   1.000  O
  O57      1.0000 0.22898  0.36872  0.24932  Biso   1.000  O
  O58      1.0000 0.23116  0.36785  0.74842  Biso   1.000  O
  O59      1.0000 0.23468  0.86256  0.25155  Biso   1.000  O
  O60      1.0000 0.23039  0.86717  0.74844  Biso   1.000  O
  O61      1.0000 0.73031  0.36730  0.24942  Biso   1.000  O
  O62      1.0000 0.73085  0.36692  0.74918  Biso   1.000  O
  O63      1.0000 0.72703  0.86647  0.24956  Biso   1.000  O
  O64      1.0000 0.73052  0.86656  0.74909  Biso   1.000  O
