data_image0
_cell_length_a       10.0874
_cell_length_b       5.09059
_cell_length_c       10.0874
_cell_angle_alpha    90.0007
_cell_angle_beta     89.9996
_cell_angle_gamma    90.0006

_symmetry_space_group_name_H-M    "P 1"
_symmetry_int_tables_number       1

loop_
  _symmetry_equiv_pos_as_xyz
  'x, y, z'

loop_
  _atom_site_label
  _atom_site_occupancy
  _atom_site_fract_x
  _atom_site_fract_y
  _atom_site_fract_z
  _atom_site_thermal_displace_type
  _atom_site_B_iso_or_equiv
  _atom_site_type_symbol
  Yb1      1.0000 0.12496  0.00050  0.12496  Biso   1.000  Yb
  Zr1      1.0000 0.12496  0.00049  0.62496  Biso   1.000  Zr
  Zr2      1.0000 0.62496  0.00050  0.12496  Biso   1.000  Zr
  Zr3      1.0000 0.62497  0.00049  0.62496  Biso   1.000  Zr
  Zr4      1.0000 0.12496  0.50050  0.37543  Biso   1.000  Zr
  Zr5      1.0000 0.12496  0.50050  0.87449  Biso   1.000  Zr
  Zr6      1.0000 0.62496  0.50050  0.37506  Biso   1.000  Zr
  Zr7      1.0000 0.62496  0.50050  0.87487  Biso   1.000  Zr
  Zr8      1.0000 0.37543  0.50050  0.12496  Biso   1.000  Zr
  Zr9      1.0000 0.37507  0.50049  0.62497  Biso   1.000  Zr
  Zr10     1.0000 0.87449  0.50051  0.12496  Biso   1.000  Zr
  Zr11     1.0000 0.87486  0.50050  0.62497  Biso   1.000  Zr
  Zr12     1.0000 0.37501  0.99950  0.37501  Biso   1.000  Zr
  Zr13     1.0000 0.37501  0.00150  0.87492  Biso   1.000  Zr
  Zr14     1.0000 0.87492  0.00150  0.37500  Biso   1.000  Zr
  Zr15     1.0000 0.87492  0.99950  0.87492  Biso   1.000  Zr
  O1       1.0000 0.00005  0.28177  0.00005  Biso   1.000  O
  O2       1.0000 0.00267  0.28893  0.50481  Biso   1.000  O
  O3       1.0000 0.50481  0.28892  0.00267  Biso   1.000  O
  O4       1.0000 0.50180  0.29049  0.50180  Biso   1.000  O
  O5       1.0000 0.99393  0.23160  0.25599  Biso   1.000  O
  O6       1.0000 0.99901  0.21176  0.75229  Biso   1.000  O
  O7       1.0000 0.49764  0.21174  0.25091  Biso   1.000  O
  O8       1.0000 0.49900  0.21089  0.75092  Biso   1.000  O
  O9       1.0000 0.00005  0.71923  0.24988  Biso   1.000  O
  O10      1.0000 0.00268  0.71208  0.74512  Biso   1.000  O
  O11      1.0000 0.50481  0.71207  0.24725  Biso   1.000  O
  O12      1.0000 0.50181  0.71050  0.74812  Biso   1.000  O
  O13      1.0000 0.99393  0.76940  0.99393  Biso   1.000  O
  O14      1.0000 0.99901  0.78925  0.49763  Biso   1.000  O
  O15      1.0000 0.49764  0.78925  0.99902  Biso   1.000  O
  O16      1.0000 0.49900  0.79009  0.49900  Biso   1.000  O
  O17      1.0000 0.24988  0.28177  0.24988  Biso   1.000  O
  O18      1.0000 0.24725  0.28892  0.74512  Biso   1.000  O
  O19      1.0000 0.74512  0.28893  0.24725  Biso   1.000  O
  O20      1.0000 0.74811  0.29050  0.74811  Biso   1.000  O
  O21      1.0000 0.25599  0.23160  0.99393  Biso   1.000  O
  O22      1.0000 0.25091  0.21174  0.49764  Biso   1.000  O
  O23      1.0000 0.75229  0.21176  0.99901  Biso   1.000  O
  O24      1.0000 0.75092  0.21089  0.49900  Biso   1.000  O
  O25      1.0000 0.24988  0.71923  0.00005  Biso   1.000  O
  O26      1.0000 0.24725  0.71207  0.50481  Biso   1.000  O
  O27      1.0000 0.74512  0.71208  0.00267  Biso   1.000  O
  O28      1.0000 0.74812  0.71050  0.50181  Biso   1.000  O
  O29      1.0000 0.25600  0.76940  0.25600  Biso   1.000  O
  O30      1.0000 0.25091  0.78925  0.75229  Biso   1.000  O
  O31      1.0000 0.75229  0.78925  0.25091  Biso   1.000  O
  O32      1.0000 0.75093  0.79011  0.75093  Biso   1.000  O
