data_image0
_cell_length_a       5.11882
_cell_length_b       10.3556
_cell_length_c       10.5265
_cell_angle_alpha    90.0012
_cell_angle_beta     80.1932
_cell_angle_gamma    90.013

_symmetry_space_group_name_H-M    "P 1"
_symmetry_int_tables_number       1

loop_
  _symmetry_equiv_pos_as_xyz
  'x, y, z'

loop_
  _atom_site_label
  _atom_site_occupancy
  _atom_site_fract_x
  _atom_site_fract_y
  _atom_site_fract_z
  _atom_site_thermal_displace_type
  _atom_site_B_iso_or_equiv
  _atom_site_type_symbol
  Yb1      1.0000 0.27646  0.01729  0.14818  Biso   1.000  Yb
  Zr1      1.0000 0.27855  0.02118  0.64604  Biso   1.000  Zr
  Zr2      1.0000 0.27612  0.52022  0.14473  Biso   1.000  Zr
  Zr3      1.0000 0.27863  0.52143  0.64555  Biso   1.000  Zr
  Zr4      1.0000 0.27874  0.22943  0.39591  Biso   1.000  Zr
  Zr5      1.0000 0.27873  0.22878  0.89591  Biso   1.000  Zr
  Zr6      1.0000 0.27671  0.72679  0.39557  Biso   1.000  Zr
  Zr7      1.0000 0.28061  0.72935  0.89465  Biso   1.000  Zr
  Zr8      1.0000 0.71807  0.26936  0.10376  Biso   1.000  Zr
  Zr9      1.0000 0.72146  0.27144  0.60463  Biso   1.000  Zr
  Zr10     1.0000 0.71979  0.76933  0.10370  Biso   1.000  Zr
  Zr11     1.0000 0.72234  0.77193  0.60407  Biso   1.000  Zr
  Zr12     1.0000 0.72123  0.47803  0.35376  Biso   1.000  Zr
  Zr13     1.0000 0.72300  0.47848  0.85418  Biso   1.000  Zr
  Zr14     1.0000 0.71750  0.97897  0.35565  Biso   1.000  Zr
  Zr15     1.0000 0.72196  0.97931  0.85528  Biso   1.000  Zr
  O1       1.0000 0.06828  0.17416  0.07746  Biso   1.000  O
  O2       1.0000 0.06834  0.16822  0.58068  Biso   1.000  O
  O3       1.0000 0.06971  0.66722  0.07822  Biso   1.000  O
  O4       1.0000 0.06791  0.66682  0.57901  Biso   1.000  O
  O5       1.0000 0.06335  0.08418  0.33613  Biso   1.000  O
  O6       1.0000 0.07066  0.08242  0.82912  Biso   1.000  O
  O7       1.0000 0.06611  0.58270  0.32834  Biso   1.000  O
  O8       1.0000 0.06874  0.58353  0.82793  Biso   1.000  O
  O9       1.0000 0.92885  0.41741  0.17049  Biso   1.000  O
  O10      1.0000 0.93252  0.41727  0.67059  Biso   1.000  O
  O11      1.0000 0.91444  0.91659  0.17125  Biso   1.000  O
  O12      1.0000 0.93228  0.91701  0.67131  Biso   1.000  O
  O13      1.0000 0.93055  0.33342  0.42153  Biso   1.000  O
  O14      1.0000 0.93318  0.33478  0.91958  Biso   1.000  O
  O15      1.0000 0.93251  0.83306  0.42118  Biso   1.000  O
  O16      1.0000 0.93812  0.83431  0.92099  Biso   1.000  O
  O17      1.0000 0.55909  0.13193  0.24603  Biso   1.000  O
  O18      1.0000 0.55125  0.12865  0.73980  Biso   1.000  O
  O19      1.0000 0.54884  0.62627  0.23976  Biso   1.000  O
  O20      1.0000 0.55170  0.62912  0.73950  Biso   1.000  O
  O21      1.0000 0.54880  0.12130  0.49274  Biso   1.000  O
  O22      1.0000 0.56043  0.12497  0.98602  Biso   1.000  O
  O23      1.0000 0.55051  0.62114  0.49013  Biso   1.000  O
  O24      1.0000 0.55074  0.61978  0.98949  Biso   1.000  O
  O25      1.0000 0.44869  0.37927  0.00873  Biso   1.000  O
  O26      1.0000 0.44869  0.37879  0.50957  Biso   1.000  O
  O27      1.0000 0.45936  0.87385  0.00433  Biso   1.000  O
  O28      1.0000 0.44893  0.87843  0.50992  Biso   1.000  O
  O29      1.0000 0.44559  0.37191  0.25929  Biso   1.000  O
  O30      1.0000 0.45037  0.37194  0.75894  Biso   1.000  O
  O31      1.0000 0.45094  0.86640  0.26230  Biso   1.000  O
  O32      1.0000 0.45057  0.87184  0.75806  Biso   1.000  O
