data_image0
_cell_length_a       10.155
_cell_length_b       10.3002
_cell_length_c       5.26751
_cell_angle_alpha    89.9819
_cell_angle_beta     89.8456
_cell_angle_gamma    89.9987

_symmetry_space_group_name_H-M    "P 1"
_symmetry_int_tables_number       1

loop_
  _symmetry_equiv_pos_as_xyz
  'x, y, z'

loop_
  _atom_site_label
  _atom_site_occupancy
  _atom_site_fract_x
  _atom_site_fract_y
  _atom_site_fract_z
  _atom_site_thermal_displace_type
  _atom_site_B_iso_or_equiv
  _atom_site_type_symbol
  Yb1      1.0000 0.13813  0.01633  0.34596  Biso   1.000  Yb
  Zr1      1.0000 0.13918  0.52136  0.34386  Biso   1.000  Zr
  Zr2      1.0000 0.14060  0.22954  0.84390  Biso   1.000  Zr
  Zr3      1.0000 0.14003  0.72853  0.84450  Biso   1.000  Zr
  Zr4      1.0000 0.35975  0.26953  0.34310  Biso   1.000  Zr
  Zr5      1.0000 0.36255  0.77095  0.34235  Biso   1.000  Zr
  Zr6      1.0000 0.36113  0.47816  0.84335  Biso   1.000  Zr
  Zr7      1.0000 0.36169  0.97972  0.84360  Biso   1.000  Zr
  Zr8      1.0000 0.63855  0.02147  0.15752  Biso   1.000  Zr
  Zr9      1.0000 0.63759  0.52009  0.15582  Biso   1.000  Zr
  Zr10     1.0000 0.63795  0.22899  0.65602  Biso   1.000  Zr
  Zr11     1.0000 0.63815  0.72865  0.65596  Biso   1.000  Zr
  Zr12     1.0000 0.86035  0.27201  0.15376  Biso   1.000  Zr
  Zr13     1.0000 0.85914  0.76972  0.15627  Biso   1.000  Zr
  Zr14     1.0000 0.86121  0.47918  0.65564  Biso   1.000  Zr
  Zr15     1.0000 0.85889  0.97916  0.65786  Biso   1.000  Zr
  O1       1.0000 0.02822  0.16429  0.15250  Biso   1.000  O
  O2       1.0000 0.02986  0.66059  0.15894  Biso   1.000  O
  O3       1.0000 0.02535  0.09377  0.66753  Biso   1.000  O
  O4       1.0000 0.02964  0.59059  0.65810  Biso   1.000  O
  O5       1.0000 0.46816  0.41247  0.16349  Biso   1.000  O
  O6       1.0000 0.47011  0.91346  0.16430  Biso   1.000  O
  O7       1.0000 0.46883  0.33715  0.66354  Biso   1.000  O
  O8       1.0000 0.47084  0.83761  0.66192  Biso   1.000  O
  O9       1.0000 0.27850  0.12659  0.59954  Biso   1.000  O
  O10      1.0000 0.27522  0.62288  0.59155  Biso   1.000  O
  O11      1.0000 0.27993  0.13038  0.08502  Biso   1.000  O
  O12      1.0000 0.27463  0.62444  0.09235  Biso   1.000  O
  O13      1.0000 0.22495  0.37494  0.59076  Biso   1.000  O
  O14      1.0000 0.23006  0.87016  0.59440  Biso   1.000  O
  O15      1.0000 0.22435  0.37685  0.09200  Biso   1.000  O
  O16      1.0000 0.23159  0.87108  0.08428  Biso   1.000  O
  O17      1.0000 0.53201  0.16403  0.33508  Biso   1.000  O
  O18      1.0000 0.53163  0.66197  0.33665  Biso   1.000  O
  O19      1.0000 0.53378  0.08545  0.83420  Biso   1.000  O
  O20      1.0000 0.53055  0.58690  0.83701  Biso   1.000  O
  O21      1.0000 0.96964  0.41117  0.33986  Biso   1.000  O
  O22      1.0000 0.96280  0.90612  0.34630  Biso   1.000  O
  O23      1.0000 0.96994  0.34263  0.84059  Biso   1.000  O
  O24      1.0000 0.97103  0.84127  0.84397  Biso   1.000  O
  O25      1.0000 0.77421  0.12525  0.90983  Biso   1.000  O
  O26      1.0000 0.77379  0.62364  0.90718  Biso   1.000  O
  O27      1.0000 0.77467  0.12567  0.40934  Biso   1.000  O
  O28      1.0000 0.77426  0.62537  0.40725  Biso   1.000  O
  O29      1.0000 0.72445  0.37435  0.90686  Biso   1.000  O
  O30      1.0000 0.72555  0.87365  0.90912  Biso   1.000  O
  O31      1.0000 0.72514  0.37615  0.40759  Biso   1.000  O
  O32      1.0000 0.72142  0.87575  0.40946  Biso   1.000  O
