data_image0
_cell_length_a       10.2517
_cell_length_b       10.3517
_cell_length_c       5.2613
_cell_angle_alpha    90.0281
_cell_angle_beta     80.1825
_cell_angle_gamma    90.0141

_symmetry_space_group_name_H-M    "P 1"
_symmetry_int_tables_number       1

loop_
  _symmetry_equiv_pos_as_xyz
  'x, y, z'

loop_
  _atom_site_label
  _atom_site_occupancy
  _atom_site_fract_x
  _atom_site_fract_y
  _atom_site_fract_z
  _atom_site_thermal_displace_type
  _atom_site_B_iso_or_equiv
  _atom_site_type_symbol
  Yb1      1.0000 0.13816  0.01631  0.29864  Biso   1.000  Yb
  Zr1      1.0000 0.13947  0.52169  0.29039  Biso   1.000  Zr
  Zr2      1.0000 0.63824  0.02160  0.29094  Biso   1.000  Zr
  Zr3      1.0000 0.63776  0.52018  0.29010  Biso   1.000  Zr
  Zr4      1.0000 0.14051  0.22952  0.79243  Biso   1.000  Zr
  Zr5      1.0000 0.14021  0.72823  0.79133  Biso   1.000  Zr
  Zr6      1.0000 0.63790  0.22902  0.79059  Biso   1.000  Zr
  Zr7      1.0000 0.63804  0.72767  0.78953  Biso   1.000  Zr
  Zr8      1.0000 0.35992  0.26961  0.20958  Biso   1.000  Zr
  Zr9      1.0000 0.36274  0.77137  0.20881  Biso   1.000  Zr
  Zr10     1.0000 0.85996  0.27173  0.20679  Biso   1.000  Zr
  Zr11     1.0000 0.85871  0.76982  0.20759  Biso   1.000  Zr
  Zr12     1.0000 0.36128  0.47789  0.70815  Biso   1.000  Zr
  Zr13     1.0000 0.36167  0.97942  0.71097  Biso   1.000  Zr
  Zr14     1.0000 0.86112  0.47877  0.70772  Biso   1.000  Zr
  Zr15     1.0000 0.85807  0.97855  0.71024  Biso   1.000  Zr
  O1       1.0000 0.03221  0.17095  0.15168  Biso   1.000  O
  O2       1.0000 0.03324  0.66604  0.15517  Biso   1.000  O
  O3       1.0000 0.53479  0.16811  0.15880  Biso   1.000  O
  O4       1.0000 0.53497  0.66649  0.15721  Biso   1.000  O
  O5       1.0000 0.02875  0.08800  0.66720  Biso   1.000  O
  O6       1.0000 0.03296  0.58545  0.65368  Biso   1.000  O
  O7       1.0000 0.53637  0.08175  0.65888  Biso   1.000  O
  O8       1.0000 0.53386  0.58228  0.65654  Biso   1.000  O
  O9       1.0000 0.46551  0.41648  0.34242  Biso   1.000  O
  O10      1.0000 0.46653  0.91778  0.34201  Biso   1.000  O
  O11      1.0000 0.96643  0.41606  0.34285  Biso   1.000  O
  O12      1.0000 0.95825  0.91365  0.34733  Biso   1.000  O
  O13      1.0000 0.46617  0.33339  0.84264  Biso   1.000  O
  O14      1.0000 0.46872  0.83342  0.84340  Biso   1.000  O
  O15      1.0000 0.96671  0.33710  0.84328  Biso   1.000  O
  O16      1.0000 0.96741  0.83582  0.84414  Biso   1.000  O
  O17      1.0000 0.27972  0.13114  0.49037  Biso   1.000  O
  O18      1.0000 0.27556  0.62696  0.47989  Biso   1.000  O
  O19      1.0000 0.77526  0.12881  0.48003  Biso   1.000  O
  O20      1.0000 0.77458  0.62781  0.47841  Biso   1.000  O
  O21      1.0000 0.27994  0.12525  0.97597  Biso   1.000  O
  O22      1.0000 0.27555  0.62069  0.98061  Biso   1.000  O
  O23      1.0000 0.77408  0.12180  0.98053  Biso   1.000  O
  O24      1.0000 0.77489  0.62080  0.97836  Biso   1.000  O
  O25      1.0000 0.22480  0.37934  0.01911  Biso   1.000  O
  O26      1.0000 0.23043  0.87479  0.01125  Biso   1.000  O
  O27      1.0000 0.72421  0.37871  0.01760  Biso   1.000  O
  O28      1.0000 0.72464  0.87826  0.01824  Biso   1.000  O
  O29      1.0000 0.22388  0.37227  0.51821  Biso   1.000  O
  O30      1.0000 0.22980  0.86708  0.52210  Biso   1.000  O
  O31      1.0000 0.72466  0.37158  0.51829  Biso   1.000  O
  O32      1.0000 0.72136  0.87055  0.52001  Biso   1.000  O
