data_image0
_cell_length_a       5.12327
_cell_length_b       10.3935
_cell_length_c       10.1747
_cell_angle_alpha    91.0108
_cell_angle_beta     90.5385
_cell_angle_gamma    92.1945

_symmetry_space_group_name_H-M    "P 1"
_symmetry_int_tables_number       1

loop_
  _symmetry_equiv_pos_as_xyz
  'x, y, z'

loop_
  _atom_site_label
  _atom_site_occupancy
  _atom_site_fract_x
  _atom_site_fract_y
  _atom_site_fract_z
  _atom_site_thermal_displace_type
  _atom_site_B_iso_or_equiv
  _atom_site_type_symbol
  Zr1      1.0000 0.25432  0.97084  0.08770  Biso   1.000  Zr
  Zr2      1.0000 0.24185  0.24027  0.38492  Biso   1.000  Zr
  Zr3      1.0000 0.68233  0.25211  0.10687  Biso   1.000  Zr
  Zr4      1.0000 0.75326  0.48515  0.36226  Biso   1.000  Zr
  O1       1.0000 0.90726  0.18411  0.26488  Biso   1.000  O
  O2       1.0000 0.00974  0.09110  0.48561  Biso   1.000  O
  O3       1.0000 0.94951  0.42482  0.19340  Biso   1.000  O
  O4       1.0000 0.97135  0.34826  0.47514  Biso   1.000  O
  O5       1.0000 0.41990  0.11306  0.22833  Biso   1.000  O
  O6       1.0000 0.51138  0.13533  0.48334  Biso   1.000  O
  O7       1.0000 0.48991  0.38669  0.48802  Biso   1.000  O
  O8       1.0000 0.45039  0.36957  0.24186  Biso   1.000  O
  Zr5      1.0000 0.25605  0.98414  0.59770  Biso   1.000  Zr
  Zr6      1.0000 0.23947  0.25924  0.83072  Biso   1.000  Zr
  Zr7      1.0000 0.74284  0.25337  0.60993  Biso   1.000  Zr
  Zr8      1.0000 0.75014  0.48195  0.87497  Biso   1.000  Zr
  O9       1.0000 0.95098  0.15285  0.74058  Biso   1.000  O
  O10      1.0000 0.93978  0.07791  0.01084  Biso   1.000  O
  O11      1.0000 0.01732  0.40449  0.72330  Biso   1.000  O
  O12      1.0000 0.91412  0.31816  0.94859  Biso   1.000  O
  O13      1.0000 0.46401  0.11378  0.72668  Biso   1.000  O
  O14      1.0000 0.43653  0.13139  0.97268  Biso   1.000  O
  O15      1.0000 0.44060  0.38718  0.98674  Biso   1.000  O
  O16      1.0000 0.51889  0.36571  0.73188  Biso   1.000  O
  Zr9      1.0000 0.28254  0.52967  0.12280  Biso   1.000  Zr
  Zr10     1.0000 0.30451  0.74148  0.37447  Biso   1.000  Zr
  Zr11     1.0000 0.76794  0.76623  0.12462  Biso   1.000  Zr
  Zr12     1.0000 0.71774  0.02054  0.34004  Biso   1.000  Zr
  O17      1.0000 0.08152  0.67852  0.20921  Biso   1.000  O
  O18      1.0000 0.07967  0.58109  0.44657  Biso   1.000  O
  O19      1.0000 0.97547  0.92073  0.22789  Biso   1.000  O
  O20      1.0000 0.04831  0.83199  0.49311  Biso   1.000  O
  O21      1.0000 0.56614  0.62247  0.24560  Biso   1.000  O
  O22      1.0000 0.55940  0.63808  0.49269  Biso   1.000  O
  O23      1.0000 0.53936  0.89060  0.48349  Biso   1.000  O
  O24      1.0000 0.48852  0.86664  0.23190  Biso   1.000  O
  Zr13     1.0000 0.27703  0.51165  0.61046  Biso   1.000  Zr
  Zr14     1.0000 0.29949  0.72958  0.86536  Biso   1.000  Zr
  Zr15     1.0000 0.76853  0.76334  0.62505  Biso   1.000  Zr
  Zr16     1.0000 0.72036  0.01468  0.84972  Biso   1.000  Zr
  O25      1.0000 0.06919  0.66247  0.70479  Biso   1.000  O
  O26      1.0000 0.07548  0.57524  0.95287  Biso   1.000  O
  O27      1.0000 0.97655  0.91342  0.73086  Biso   1.000  O
  O28      1.0000 0.04414  0.82513  0.98535  Biso   1.000  O
  O29      1.0000 0.55051  0.60936  0.74210  Biso   1.000  O
  O30      1.0000 0.56153  0.63485  0.99278  Biso   1.000  O
  O31      1.0000 0.53868  0.87932  0.97986  Biso   1.000  O
  O32      1.0000 0.48620  0.86055  0.73244  Biso   1.000  O
  Yb1      1.0000 0.17717  0.24999  0.10681  Biso   1.000  Yb
