data_image0
_cell_length_a       10.2129
_cell_length_b       10.3539
_cell_length_c       10.5082
_cell_angle_alpha    90.0079
_cell_angle_beta     80.3021
_cell_angle_gamma    90.0058

_symmetry_space_group_name_H-M    "P 1"
_symmetry_int_tables_number       1

loop_
  _symmetry_equiv_pos_as_xyz
  'x, y, z'

loop_
  _atom_site_label
  _atom_site_occupancy
  _atom_site_fract_x
  _atom_site_fract_y
  _atom_site_fract_z
  _atom_site_thermal_displace_type
  _atom_site_B_iso_or_equiv
  _atom_site_type_symbol
  Yb1      1.0000 0.13848  0.01718  0.14826  Biso   1.000  Yb
  Zr1      1.0000 0.13960  0.02090  0.64568  Biso   1.000  Zr
  Zr2      1.0000 0.13916  0.52146  0.14490  Biso   1.000  Zr
  Zr3      1.0000 0.13955  0.52137  0.64578  Biso   1.000  Zr
  Zr4      1.0000 0.63854  0.02119  0.14520  Biso   1.000  Zr
  Zr5      1.0000 0.63855  0.02152  0.64566  Biso   1.000  Zr
  Zr6      1.0000 0.63782  0.52009  0.14520  Biso   1.000  Zr
  Zr7      1.0000 0.63861  0.52136  0.64511  Biso   1.000  Zr
  Zr8      1.0000 0.13980  0.22898  0.39574  Biso   1.000  Zr
  Zr9      1.0000 0.13969  0.22867  0.89615  Biso   1.000  Zr
  Zr10     1.0000 0.13962  0.72783  0.39545  Biso   1.000  Zr
  Zr11     1.0000 0.14013  0.72950  0.89546  Biso   1.000  Zr
  Zr12     1.0000 0.63822  0.22888  0.39529  Biso   1.000  Zr
  Zr13     1.0000 0.63856  0.22885  0.89536  Biso   1.000  Zr
  Zr14     1.0000 0.63761  0.72784  0.39539  Biso   1.000  Zr
  Zr15     1.0000 0.63916  0.72863  0.89461  Biso   1.000  Zr
  Zr16     1.0000 0.35972  0.26940  0.10470  Biso   1.000  Zr
  Zr17     1.0000 0.36105  0.27113  0.60497  Biso   1.000  Zr
  Zr18     1.0000 0.36253  0.77102  0.10415  Biso   1.000  Zr
  Zr19     1.0000 0.36123  0.77181  0.60469  Biso   1.000  Zr
  Zr20     1.0000 0.86062  0.27109  0.10374  Biso   1.000  Zr
  Zr21     1.0000 0.86062  0.27163  0.60420  Biso   1.000  Zr
  Zr22     1.0000 0.85862  0.76984  0.10438  Biso   1.000  Zr
  Zr23     1.0000 0.86104  0.77139  0.60394  Biso   1.000  Zr
  Zr24     1.0000 0.36071  0.47797  0.35404  Biso   1.000  Zr
  Zr25     1.0000 0.36177  0.47832  0.85482  Biso   1.000  Zr
  Zr26     1.0000 0.36118  0.97909  0.35489  Biso   1.000  Zr
  Zr27     1.0000 0.36127  0.97926  0.85533  Biso   1.000  Zr
  Zr28     1.0000 0.86101  0.47878  0.35435  Biso   1.000  Zr
  Zr29     1.0000 0.86087  0.47886  0.85407  Biso   1.000  Zr
  Zr30     1.0000 0.85862  0.97855  0.35493  Biso   1.000  Zr
  Zr31     1.0000 0.86088  0.97881  0.85459  Biso   1.000  Zr
  O1       1.0000 0.03467  0.17505  0.07825  Biso   1.000  O
  O2       1.0000 0.03452  0.16864  0.58074  Biso   1.000  O
  O3       1.0000 0.03479  0.66889  0.07961  Biso   1.000  O
  O4       1.0000 0.03467  0.66797  0.57973  Biso   1.000  O
  O5       1.0000 0.53575  0.16908  0.08001  Biso   1.000  O
  O6       1.0000 0.53512  0.16905  0.58036  Biso   1.000  O
  O7       1.0000 0.53596  0.66814  0.07944  Biso   1.000  O
  O8       1.0000 0.53495  0.66858  0.58014  Biso   1.000  O
  O9       1.0000 0.03075  0.08428  0.33613  Biso   1.000  O
  O10      1.0000 0.03469  0.08177  0.82999  Biso   1.000  O
  O11      1.0000 0.03443  0.58240  0.32922  Biso   1.000  O
  O12      1.0000 0.03463  0.58240  0.82933  Biso   1.000  O
  O13      1.0000 0.53608  0.08043  0.33065  Biso   1.000  O
  O14      1.0000 0.53638  0.08098  0.82983  Biso   1.000  O
  O15      1.0000 0.53440  0.58059  0.32983  Biso   1.000  O
  O16      1.0000 0.53550  0.58140  0.82942  Biso   1.000  O
  O17      1.0000 0.46438  0.41775  0.17025  Biso   1.000  O
  O18      1.0000 0.46498  0.41874  0.66995  Biso   1.000  O
  O19      1.0000 0.46520  0.91929  0.16980  Biso   1.000  O
  O20      1.0000 0.46499  0.91882  0.67020  Biso   1.000  O
  O21      1.0000 0.96443  0.41936  0.16961  Biso   1.000  O
  O22      1.0000 0.96562  0.41811  0.67004  Biso   1.000  O
  O23      1.0000 0.95620  0.91725  0.17084  Biso   1.000  O
  O24      1.0000 0.96545  0.91791  0.67040  Biso   1.000  O
  O25      1.0000 0.46427  0.33071  0.42018  Biso   1.000  O
  O26      1.0000 0.46593  0.33230  0.92015  Biso   1.000  O
  O27      1.0000 0.46464  0.83091  0.42078  Biso   1.000  O
  O28      1.0000 0.46807  0.83243  0.91994  Biso   1.000  O
  O29      1.0000 0.96527  0.33327  0.42087  Biso   1.000  O
  O30      1.0000 0.96499  0.33282  0.91881  Biso   1.000  O
  O31      1.0000 0.96568  0.83232  0.41979  Biso   1.000  O
  O32      1.0000 0.96537  0.83217  0.92039  Biso   1.000  O
  O33      1.0000 0.28026  0.13176  0.24597  Biso   1.000  O
  O34      1.0000 0.27542  0.12869  0.74021  Biso   1.000  O
  O35      1.0000 0.27592  0.62707  0.24012  Biso   1.000  O
  O36      1.0000 0.27579  0.62919  0.74068  Biso   1.000  O
  O37      1.0000 0.77521  0.12880  0.24060  Biso   1.000  O
  O38      1.0000 0.77613  0.12889  0.74017  Biso   1.000  O
  O39      1.0000 0.77461  0.62791  0.24026  Biso   1.000  O
  O40      1.0000 0.77599  0.62882  0.73946  Biso   1.000  O
  O41      1.0000 0.27534  0.12085  0.49253  Biso   1.000  O
  O42      1.0000 0.28067  0.12486  0.98643  Biso   1.000  O
  O43      1.0000 0.27559  0.62086  0.49071  Biso   1.000  O
  O44      1.0000 0.27607  0.62050  0.99042  Biso   1.000  O
  O45      1.0000 0.77472  0.12164  0.49079  Biso   1.000  O
  O46      1.0000 0.77573  0.12122  0.99016  Biso   1.000  O
  O47      1.0000 0.77556  0.62138  0.49008  Biso   1.000  O
  O48      1.0000 0.77535  0.62045  0.98968  Biso   1.000  O
  O49      1.0000 0.22457  0.37948  0.00925  Biso   1.000  O
  O50      1.0000 0.22431  0.37876  0.50977  Biso   1.000  O
  O51      1.0000 0.22976  0.87437  0.00476  Biso   1.000  O
  O52      1.0000 0.22415  0.87865  0.50993  Biso   1.000  O
  O53      1.0000 0.72405  0.37885  0.00880  Biso   1.000  O
  O54      1.0000 0.72398  0.37898  0.50916  Biso   1.000  O
  O55      1.0000 0.72421  0.87862  0.00886  Biso   1.000  O
  O56      1.0000 0.72427  0.87874  0.50937  Biso   1.000  O
  O57      1.0000 0.22290  0.37170  0.25913  Biso   1.000  O
  O58      1.0000 0.22470  0.37170  0.75952  Biso   1.000  O
  O59      1.0000 0.22894  0.86671  0.26142  Biso   1.000  O
  O60      1.0000 0.22426  0.87171  0.75865  Biso   1.000  O
  O61      1.0000 0.72408  0.37109  0.25949  Biso   1.000  O
  O62      1.0000 0.72456  0.37132  0.75880  Biso   1.000  O
  O63      1.0000 0.72018  0.87017  0.26036  Biso   1.000  O
  O64      1.0000 0.72512  0.87118  0.75876  Biso   1.000  O
