data_image0
_cell_length_a       9.95436
_cell_length_b       10.3501
_cell_length_c       10.0066
_cell_angle_alpha    90.1248
_cell_angle_beta     89.718
_cell_angle_gamma    90.0539

_symmetry_space_group_name_H-M    "P 1"
_symmetry_int_tables_number       1

loop_
  _symmetry_equiv_pos_as_xyz
  'x, y, z'

loop_
  _atom_site_label
  _atom_site_occupancy
  _atom_site_fract_x
  _atom_site_fract_y
  _atom_site_fract_z
  _atom_site_thermal_displace_type
  _atom_site_B_iso_or_equiv
  _atom_site_type_symbol
  Zn1      1.0000 0.11857  0.02168  0.10571  Biso   1.000  Zn
  Hf1      1.0000 0.13431  0.01785  0.63066  Biso   1.000  Hf
  Hf2      1.0000 0.13556  0.51577  0.12678  Biso   1.000  Hf
  Hf3      1.0000 0.13452  0.51713  0.62680  Biso   1.000  Hf
  Hf4      1.0000 0.63489  0.01645  0.12511  Biso   1.000  Hf
  Hf5      1.0000 0.63187  0.01540  0.62316  Biso   1.000  Hf
  Hf6      1.0000 0.63426  0.51655  0.12724  Biso   1.000  Hf
  Hf7      1.0000 0.63386  0.51678  0.62611  Biso   1.000  Hf
  Hf8      1.0000 0.13685  0.22936  0.37421  Biso   1.000  Hf
  Hf9      1.0000 0.13275  0.23430  0.87680  Biso   1.000  Hf
  Hf10     1.0000 0.13674  0.73410  0.37732  Biso   1.000  Hf
  Hf11     1.0000 0.13429  0.73462  0.87942  Biso   1.000  Hf
  Hf12     1.0000 0.63371  0.23286  0.37524  Biso   1.000  Hf
  Hf13     1.0000 0.63337  0.23269  0.87488  Biso   1.000  Hf
  Hf14     1.0000 0.63460  0.73488  0.37585  Biso   1.000  Hf
  Hf15     1.0000 0.63299  0.73381  0.87631  Biso   1.000  Hf
  Hf16     1.0000 0.36408  0.26437  0.12865  Biso   1.000  Hf
  Hf17     1.0000 0.36561  0.26707  0.62702  Biso   1.000  Hf
  Hf18     1.0000 0.36392  0.76690  0.12877  Biso   1.000  Hf
  Hf19     1.0000 0.36580  0.76837  0.62858  Biso   1.000  Hf
  Hf20     1.0000 0.86463  0.26492  0.12522  Biso   1.000  Hf
  Hf21     1.0000 0.86551  0.26628  0.62394  Biso   1.000  Hf
  Hf22     1.0000 0.86929  0.76758  0.12362  Biso   1.000  Hf
  Hf23     1.0000 0.86637  0.76621  0.62437  Biso   1.000  Hf
  Hf24     1.0000 0.36576  0.48307  0.37710  Biso   1.000  Hf
  Hf25     1.0000 0.36516  0.48374  0.87678  Biso   1.000  Hf
  Hf26     1.0000 0.36170  0.98292  0.37426  Biso   1.000  Hf
  Hf27     1.0000 0.36193  0.98332  0.88203  Biso   1.000  Hf
  Hf28     1.0000 0.86607  0.48360  0.37618  Biso   1.000  Hf
  Hf29     1.0000 0.86519  0.48407  0.87580  Biso   1.000  Hf
  Hf30     1.0000 0.87043  0.98460  0.37341  Biso   1.000  Hf
  Hf31     1.0000 0.86353  0.98302  0.87222  Biso   1.000  Hf
  O1       1.0000 0.03631  0.18283  0.19312  Biso   1.000  O
  O2       1.0000 0.03819  0.18890  0.69040  Biso   1.000  O
  O3       1.0000 0.03676  0.68323  0.19501  Biso   1.000  O
  O4       1.0000 0.03654  0.68546  0.69494  Biso   1.000  O
  O5       1.0000 0.53969  0.18623  0.19137  Biso   1.000  O
  O6       1.0000 0.53683  0.18504  0.69260  Biso   1.000  O
  O7       1.0000 0.53663  0.68419  0.19617  Biso   1.000  O
  O8       1.0000 0.53525  0.68364  0.69583  Biso   1.000  O
  O9       1.0000 0.03740  0.06533  0.44717  Biso   1.000  O
  O10      1.0000 0.03493  0.06632  0.92287  Biso   1.000  O
  O11      1.0000 0.03634  0.56438  0.44565  Biso   1.000  O
  O12      1.0000 0.03545  0.56590  0.94555  Biso   1.000  O
  O13      1.0000 0.53574  0.06555  0.44274  Biso   1.000  O
  O14      1.0000 0.53517  0.06568  0.94492  Biso   1.000  O
  O15      1.0000 0.53676  0.56603  0.44431  Biso   1.000  O
  O16      1.0000 0.53599  0.56497  0.94559  Biso   1.000  O
  O17      1.0000 0.46408  0.43316  0.19539  Biso   1.000  O
  O18      1.0000 0.46332  0.43489  0.69483  Biso   1.000  O
  O19      1.0000 0.46827  0.93298  0.19636  Biso   1.000  O
  O20      1.0000 0.46290  0.93519  0.69788  Biso   1.000  O
  O21      1.0000 0.96495  0.43128  0.19467  Biso   1.000  O
  O22      1.0000 0.96288  0.43526  0.69376  Biso   1.000  O
  O23      1.0000 0.96665  0.93653  0.19059  Biso   1.000  O
  O24      1.0000 0.96106  0.93490  0.68923  Biso   1.000  O
  O25      1.0000 0.46430  0.31589  0.44534  Biso   1.000  O
  O26      1.0000 0.46114  0.31360  0.94221  Biso   1.000  O
  O27      1.0000 0.46696  0.81724  0.45009  Biso   1.000  O
  O28      1.0000 0.46110  0.81562  0.94493  Biso   1.000  O
  O29      1.0000 0.96404  0.31507  0.44163  Biso   1.000  O
  O30      1.0000 0.96274  0.31704  0.94462  Biso   1.000  O
  O31      1.0000 0.96414  0.81489  0.44207  Biso   1.000  O
  O32      1.0000 0.96075  0.81499  0.94049  Biso   1.000  O
  O33      1.0000 0.28071  0.12519  0.25612  Biso   1.000  O
  O34      1.0000 0.27320  0.12023  0.75324  Biso   1.000  O
  O35      1.0000 0.27076  0.61412  0.25051  Biso   1.000  O
  O36      1.0000 0.27015  0.61897  0.75173  Biso   1.000  O
  O37      1.0000 0.77100  0.11725  0.24863  Biso   1.000  O
  O38      1.0000 0.76929  0.11733  0.74694  Biso   1.000  O
  O39      1.0000 0.77240  0.61701  0.24899  Biso   1.000  O
  O40      1.0000 0.77000  0.61774  0.74968  Biso   1.000  O
  O41      1.0000 0.27051  0.13064  0.50392  Biso   1.000  O
  O42      1.0000 0.26708  0.13090  0.00326  Biso   1.000  O
  O43      1.0000 0.27203  0.63231  0.50128  Biso   1.000  O
  O44      1.0000 0.27064  0.63163  0.00135  Biso   1.000  O
  O45      1.0000 0.77087  0.13300  0.49756  Biso   1.000  O
  O46      1.0000 0.77133  0.13177  0.99747  Biso   1.000  O
  O47      1.0000 0.76992  0.63276  0.49931  Biso   1.000  O
  O48      1.0000 0.77010  0.63236  0.99971  Biso   1.000  O
  O49      1.0000 0.22940  0.38127  0.50032  Biso   1.000  O
  O50      1.0000 0.22951  0.38173  0.00078  Biso   1.000  O
  O51      1.0000 0.22794  0.88226  0.50532  Biso   1.000  O
  O52      1.0000 0.22601  0.88183  0.00714  Biso   1.000  O
  O53      1.0000 0.72966  0.38276  0.49962  Biso   1.000  O
  O54      1.0000 0.72793  0.38172  0.99966  Biso   1.000  O
  O55      1.0000 0.73157  0.88354  0.49734  Biso   1.000  O
  O56      1.0000 0.72720  0.88130  0.99850  Biso   1.000  O
  O57      1.0000 0.22752  0.36890  0.25035  Biso   1.000  O
  O58      1.0000 0.22838  0.36946  0.75042  Biso   1.000  O
  O59      1.0000 0.24043  0.85881  0.25975  Biso   1.000  O
  O60      1.0000 0.22811  0.86963  0.75442  Biso   1.000  O
  O61      1.0000 0.72983  0.36786  0.24983  Biso   1.000  O
  O62      1.0000 0.72902  0.36773  0.74951  Biso   1.000  O
  O63      1.0000 0.73386  0.86716  0.24785  Biso   1.000  O
  O64      1.0000 0.72753  0.86647  0.74738  Biso   1.000  O
