data_image0
_cell_length_a       10.2346
_cell_length_b       10.2953
_cell_length_c       5.27433
_cell_angle_alpha    90.3056
_cell_angle_beta     78.9312
_cell_angle_gamma    89.9796

_symmetry_space_group_name_H-M    "P 1"
_symmetry_int_tables_number       1

loop_
  _symmetry_equiv_pos_as_xyz
  'x, y, z'

loop_
  _atom_site_label
  _atom_site_occupancy
  _atom_site_fract_x
  _atom_site_fract_y
  _atom_site_fract_z
  _atom_site_thermal_displace_type
  _atom_site_B_iso_or_equiv
  _atom_site_type_symbol
  Hf1      1.0000 0.13185  0.02096  0.28212  Biso   1.000  Hf
  Hf2      1.0000 0.14119  0.23148  0.77751  Biso   1.000  Hf
  Hf3      1.0000 0.35670  0.27497  0.22099  Biso   1.000  Hf
  Hf4      1.0000 0.35824  0.47621  0.69725  Biso   1.000  Hf
  O1       1.0000 0.03623  0.16733  0.14638  Biso   1.000  O
  O2       1.0000 0.02974  0.08533  0.65055  Biso   1.000  O
  O3       1.0000 0.46303  0.42992  0.33449  Biso   1.000  O
  O4       1.0000 0.48533  0.34891  0.87970  Biso   1.000  O
  O5       1.0000 0.26465  0.11425  0.46101  Biso   1.000  O
  O6       1.0000 0.27986  0.12083  0.96496  Biso   1.000  O
  O7       1.0000 0.22340  0.37925  0.00993  Biso   1.000  O
  O8       1.0000 0.20434  0.37810  0.50169  Biso   1.000  O
  Hf5      1.0000 0.13795  0.52313  0.28361  Biso   1.000  Hf
  Hf6      1.0000 0.13528  0.72524  0.79216  Biso   1.000  Hf
  Hf7      1.0000 0.35978  0.76947  0.20859  Biso   1.000  Hf
  Hf8      1.0000 0.35468  0.96644  0.70732  Biso   1.000  Hf
  O9       1.0000 0.02841  0.66535  0.15111  Biso   1.000  O
  O10      1.0000 0.03030  0.58770  0.64918  Biso   1.000  O
  O11      1.0000 0.46625  0.91426  0.35035  Biso   1.000  O
  O12      1.0000 0.46437  0.83362  0.84793  Biso   1.000  O
  O13      1.0000 0.27435  0.62641  0.47939  Biso   1.000  O
  O14      1.0000 0.27353  0.62262  0.97874  Biso   1.000  O
  O15      1.0000 0.22145  0.87635  0.01875  Biso   1.000  O
  O16      1.0000 0.22179  0.86584  0.51850  Biso   1.000  O
  Hf9      1.0000 0.63968  0.02021  0.30084  Biso   1.000  Hf
  Hf10     1.0000 0.65325  0.23176  0.81951  Biso   1.000  Hf
  Hf11     1.0000 0.86489  0.27288  0.21725  Biso   1.000  Hf
  Hf12     1.0000 0.86268  0.47944  0.71066  Biso   1.000  Hf
  O17      1.0000 0.53441  0.16650  0.17198  Biso   1.000  O
  O18      1.0000 0.53301  0.08487  0.67245  Biso   1.000  O
  O19      1.0000 0.96322  0.41975  0.34253  Biso   1.000  O
  O20      1.0000 0.96478  0.33470  0.84485  Biso   1.000  O
  O21      1.0000 0.77526  0.12934  0.49299  Biso   1.000  O
  O22      1.0000 0.77921  0.11943  0.99578  Biso   1.000  O
  O23      1.0000 0.72868  0.37795  0.03597  Biso   1.000  O
  O24      1.0000 0.72447  0.37183  0.53302  Biso   1.000  O
  Hf13     1.0000 0.63685  0.52470  0.29873  Biso   1.000  Hf
  Hf14     1.0000 0.63717  0.72747  0.79523  Biso   1.000  Hf
  Hf15     1.0000 0.85797  0.77118  0.20915  Biso   1.000  Hf
  Hf16     1.0000 0.86173  0.97694  0.71147  Biso   1.000  Hf
  O25      1.0000 0.53425  0.67006  0.15977  Biso   1.000  O
  O26      1.0000 0.53148  0.58597  0.65915  Biso   1.000  O
  O27      1.0000 0.96197  0.91335  0.34878  Biso   1.000  O
  O28      1.0000 0.96522  0.83532  0.84814  Biso   1.000  O
  O29      1.0000 0.77429  0.63047  0.48381  Biso   1.000  O
  O30      1.0000 0.77323  0.62147  0.98200  Biso   1.000  O
  O31      1.0000 0.72238  0.87920  0.02440  Biso   1.000  O
  O32      1.0000 0.72067  0.87308  0.52629  Biso   1.000  O
  Zn1      1.0000 0.41786  0.22814  0.65300  Biso   1.000  Zn
