data_image0
_cell_length_a       10.1699
_cell_length_b       10.2811
_cell_length_c       10.5017
_cell_angle_alpha    90.1739
_cell_angle_beta     79.6426
_cell_angle_gamma    90.0215

_symmetry_space_group_name_H-M    "P 1"
_symmetry_int_tables_number       1

loop_
  _symmetry_equiv_pos_as_xyz
  'x, y, z'

loop_
  _atom_site_label
  _atom_site_occupancy
  _atom_site_fract_x
  _atom_site_fract_y
  _atom_site_fract_z
  _atom_site_thermal_displace_type
  _atom_site_B_iso_or_equiv
  _atom_site_type_symbol
  Hf1      1.0000 0.13208  0.02084  0.14184  Biso   1.000  Hf
  Hf2      1.0000 0.14274  0.23029  0.39038  Biso   1.000  Hf
  Hf3      1.0000 0.35321  0.27285  0.10392  Biso   1.000  Hf
  Hf4      1.0000 0.35891  0.47519  0.34571  Biso   1.000  Hf
  O1       1.0000 0.03104  0.16806  0.07691  Biso   1.000  O
  O2       1.0000 0.03167  0.08293  0.32821  Biso   1.000  O
  O3       1.0000 0.45927  0.43241  0.15818  Biso   1.000  O
  O4       1.0000 0.48719  0.34944  0.43985  Biso   1.000  O
  O5       1.0000 0.26586  0.11375  0.23320  Biso   1.000  O
  O6       1.0000 0.28383  0.11962  0.48621  Biso   1.000  O
  O7       1.0000 0.21906  0.38165  0.00507  Biso   1.000  O
  O8       1.0000 0.20243  0.37687  0.25141  Biso   1.000  O
  Hf5      1.0000 0.13908  0.02161  0.64525  Biso   1.000  Hf
  Hf6      1.0000 0.13698  0.22971  0.89458  Biso   1.000  Hf
  Hf7      1.0000 0.36371  0.27410  0.60943  Biso   1.000  Hf
  Hf8      1.0000 0.36083  0.47896  0.85659  Biso   1.000  Hf
  O9       1.0000 0.04087  0.16825  0.57655  Biso   1.000  O
  O10      1.0000 0.03408  0.08337  0.82703  Biso   1.000  O
  O11      1.0000 0.46797  0.41525  0.67926  Biso   1.000  O
  O12      1.0000 0.46347  0.33226  0.92259  Biso   1.000  O
  O13      1.0000 0.27617  0.12885  0.73885  Biso   1.000  O
  O14      1.0000 0.27236  0.12287  0.98707  Biso   1.000  O
  O15      1.0000 0.22881  0.37627  0.50912  Biso   1.000  O
  O16      1.0000 0.22459  0.37203  0.75889  Biso   1.000  O
  Hf9      1.0000 0.13593  0.52329  0.14257  Biso   1.000  Hf
  Hf10     1.0000 0.13739  0.72432  0.39631  Biso   1.000  Hf
  Hf11     1.0000 0.36010  0.77124  0.10373  Biso   1.000  Hf
  Hf12     1.0000 0.35542  0.96699  0.35415  Biso   1.000  Hf
  O17      1.0000 0.03132  0.67008  0.07684  Biso   1.000  O
  O18      1.0000 0.03109  0.58535  0.32642  Biso   1.000  O
  O19      1.0000 0.46532  0.91679  0.17409  Biso   1.000  O
  O20      1.0000 0.46446  0.83105  0.42270  Biso   1.000  O
  O21      1.0000 0.27426  0.62726  0.23981  Biso   1.000  O
  O22      1.0000 0.27456  0.61925  0.48962  Biso   1.000  O
  O23      1.0000 0.22326  0.87910  0.00915  Biso   1.000  O
  O24      1.0000 0.22143  0.86555  0.25968  Biso   1.000  O
  Hf13     1.0000 0.14080  0.52149  0.64515  Biso   1.000  Hf
  Hf14     1.0000 0.13686  0.72939  0.89584  Biso   1.000  Hf
  Hf15     1.0000 0.36096  0.76981  0.60500  Biso   1.000  Hf
  Hf16     1.0000 0.36009  0.97868  0.85429  Biso   1.000  Hf
  O25      1.0000 0.03276  0.66469  0.57901  Biso   1.000  O
  O26      1.0000 0.03475  0.58329  0.82823  Biso   1.000  O
  O27      1.0000 0.46556  0.91550  0.67255  Biso   1.000  O
  O28      1.0000 0.46468  0.83441  0.92224  Biso   1.000  O
  O29      1.0000 0.27646  0.62821  0.74037  Biso   1.000  O
  O30      1.0000 0.27528  0.62395  0.99030  Biso   1.000  O
  O31      1.0000 0.22196  0.87658  0.51008  Biso   1.000  O
  O32      1.0000 0.22332  0.87137  0.75933  Biso   1.000  O
  Hf17     1.0000 0.63942  0.02149  0.14704  Biso   1.000  Hf
  Hf18     1.0000 0.65546  0.23041  0.40721  Biso   1.000  Hf
  Hf19     1.0000 0.85844  0.27289  0.10535  Biso   1.000  Hf
  Hf20     1.0000 0.86252  0.47877  0.35392  Biso   1.000  Hf
  O33      1.0000 0.53187  0.16848  0.08379  Biso   1.000  O
  O34      1.0000 0.53397  0.08513  0.33425  Biso   1.000  O
  O35      1.0000 0.95942  0.42170  0.16829  Biso   1.000  O
  O36      1.0000 0.96618  0.33314  0.42164  Biso   1.000  O
  O37      1.0000 0.77560  0.12873  0.24409  Biso   1.000  O
  O38      1.0000 0.78208  0.11846  0.49575  Biso   1.000  O
  O39      1.0000 0.72197  0.37926  0.01226  Biso   1.000  O
  O40      1.0000 0.72197  0.37094  0.26322  Biso   1.000  O
  Hf21     1.0000 0.63898  0.02011  0.64946  Biso   1.000  Hf
  Hf22     1.0000 0.63643  0.22966  0.89910  Biso   1.000  Hf
  Hf23     1.0000 0.86747  0.27125  0.60786  Biso   1.000  Hf
  Hf24     1.0000 0.86101  0.47902  0.85559  Biso   1.000  Hf
  O41      1.0000 0.53730  0.16560  0.58141  Biso   1.000  O
  O42      1.0000 0.53394  0.08233  0.83126  Biso   1.000  O
  O43      1.0000 0.96813  0.41689  0.67322  Biso   1.000  O
  O44      1.0000 0.96270  0.33244  0.92124  Biso   1.000  O
  O45      1.0000 0.77612  0.12956  0.74317  Biso   1.000  O
  O46      1.0000 0.77384  0.12165  0.99291  Biso   1.000  O
  O47      1.0000 0.73064  0.37751  0.51555  Biso   1.000  O
  O48      1.0000 0.72516  0.37165  0.76295  Biso   1.000  O
  Hf25     1.0000 0.63606  0.52383  0.14607  Biso   1.000  Hf
  Hf26     1.0000 0.63805  0.72597  0.39653  Biso   1.000  Hf
  Hf27     1.0000 0.85766  0.77116  0.10423  Biso   1.000  Hf
  Hf28     1.0000 0.86223  0.97573  0.35549  Biso   1.000  Hf
  O49      1.0000 0.53642  0.67360  0.07973  Biso   1.000  O
  O50      1.0000 0.53208  0.58347  0.32738  Biso   1.000  O
  O51      1.0000 0.96094  0.91495  0.17320  Biso   1.000  O
  O52      1.0000 0.96524  0.83160  0.42290  Biso   1.000  O
  O53      1.0000 0.77472  0.63013  0.24136  Biso   1.000  O
  O54      1.0000 0.77478  0.62021  0.49087  Biso   1.000  O
  O55      1.0000 0.72290  0.88059  0.01046  Biso   1.000  O
  O56      1.0000 0.71978  0.87221  0.26176  Biso   1.000  O
  Hf29     1.0000 0.63935  0.52196  0.64876  Biso   1.000  Hf
  Hf30     1.0000 0.63776  0.72993  0.89687  Biso   1.000  Hf
  Hf31     1.0000 0.86126  0.77146  0.60461  Biso   1.000  Hf
  Hf32     1.0000 0.86069  0.97959  0.85459  Biso   1.000  Hf
  O57      1.0000 0.53335  0.66475  0.57952  Biso   1.000  O
  O58      1.0000 0.53431  0.58434  0.83079  Biso   1.000  O
  O59      1.0000 0.96533  0.91778  0.67118  Biso   1.000  O
  O60      1.0000 0.96419  0.83451  0.92126  Biso   1.000  O
  O61      1.0000 0.77599  0.62901  0.74074  Biso   1.000  O
  O62      1.0000 0.77482  0.62198  0.99030  Biso   1.000  O
  O63      1.0000 0.72278  0.87755  0.51141  Biso   1.000  O
  O64      1.0000 0.72435  0.87167  0.76112  Biso   1.000  O
  Zn1      1.0000 0.42137  0.22980  0.31977  Biso   1.000  Zn
