data_image0
_cell_length_a       10.0586
_cell_length_b       5.09118
_cell_length_c       10.4438
_cell_angle_alpha    89.9625
_cell_angle_beta     90.2404
_cell_angle_gamma    89.6947

_symmetry_space_group_name_H-M    "P 1"
_symmetry_int_tables_number       1

loop_
  _symmetry_equiv_pos_as_xyz
  'x, y, z'

loop_
  _atom_site_label
  _atom_site_occupancy
  _atom_site_fract_x
  _atom_site_fract_y
  _atom_site_fract_z
  _atom_site_thermal_displace_type
  _atom_site_B_iso_or_equiv
  _atom_site_type_symbol
  Zn1      1.0000 0.12746  0.02176  0.17938  Biso   1.000  Zn
  Hf1      1.0000 0.14001  0.04051  0.67148  Biso   1.000  Hf
  Hf2      1.0000 0.14073  0.45974  0.41784  Biso   1.000  Hf
  Hf3      1.0000 0.14408  0.45762  0.92593  Biso   1.000  Hf
  Hf4      1.0000 0.35436  0.54327  0.17051  Biso   1.000  Hf
  Hf5      1.0000 0.36087  0.54373  0.67189  Biso   1.000  Hf
  Hf6      1.0000 0.35753  0.96196  0.41870  Biso   1.000  Hf
  Hf7      1.0000 0.35913  0.96145  0.92470  Biso   1.000  Hf
  Hf8      1.0000 0.63960  0.03961  0.07776  Biso   1.000  Hf
  Hf9      1.0000 0.63721  0.04171  0.57794  Biso   1.000  Hf
  Hf10     1.0000 0.63674  0.45888  0.32673  Biso   1.000  Hf
  Hf11     1.0000 0.63973  0.45875  0.82873  Biso   1.000  Hf
  Hf12     1.0000 0.86638  0.53368  0.07974  Biso   1.000  Hf
  Hf13     1.0000 0.85941  0.54026  0.57788  Biso   1.000  Hf
  Hf14     1.0000 0.85900  0.95722  0.32853  Biso   1.000  Hf
  Hf15     1.0000 0.86244  0.95628  0.82934  Biso   1.000  Hf
  O1       1.0000 0.03854  0.32094  0.08421  Biso   1.000  O
  O2       1.0000 0.02987  0.32030  0.57956  Biso   1.000  O
  O3       1.0000 0.02831  0.17421  0.33906  Biso   1.000  O
  O4       1.0000 0.03174  0.17756  0.83094  Biso   1.000  O
  O5       1.0000 0.46990  0.82556  0.08285  Biso   1.000  O
  O6       1.0000 0.46604  0.83256  0.58346  Biso   1.000  O
  O7       1.0000 0.46712  0.67484  0.33304  Biso   1.000  O
  O8       1.0000 0.46896  0.67242  0.83299  Biso   1.000  O
  O9       1.0000 0.27655  0.25165  0.29573  Biso   1.000  O
  O10      1.0000 0.27541  0.24602  0.79202  Biso   1.000  O
  O11      1.0000 0.29276  0.27902  0.03411  Biso   1.000  O
  O12      1.0000 0.27520  0.25451  0.54477  Biso   1.000  O
  O13      1.0000 0.22284  0.74833  0.29616  Biso   1.000  O
  O14      1.0000 0.22516  0.74808  0.79590  Biso   1.000  O
  O15      1.0000 0.22363  0.76557  0.04589  Biso   1.000  O
  O16      1.0000 0.22307  0.75274  0.54520  Biso   1.000  O
  O17      1.0000 0.53219  0.32911  0.16570  Biso   1.000  O
  O18      1.0000 0.53313  0.33274  0.66551  Biso   1.000  O
  O19      1.0000 0.53112  0.17070  0.41530  Biso   1.000  O
  O20      1.0000 0.53545  0.16673  0.91447  Biso   1.000  O
  O21      1.0000 0.96219  0.82342  0.17033  Biso   1.000  O
  O22      1.0000 0.96956  0.82072  0.66926  Biso   1.000  O
  O23      1.0000 0.96693  0.67380  0.41891  Biso   1.000  O
  O24      1.0000 0.97028  0.67222  0.91999  Biso   1.000  O
  O25      1.0000 0.77769  0.24442  0.95458  Biso   1.000  O
  O26      1.0000 0.77354  0.24933  0.45476  Biso   1.000  O
  O27      1.0000 0.77550  0.25051  0.20446  Biso   1.000  O
  O28      1.0000 0.77623  0.25064  0.70451  Biso   1.000  O
  O29      1.0000 0.72643  0.74412  0.95479  Biso   1.000  O
  O30      1.0000 0.72275  0.74821  0.45484  Biso   1.000  O
  O31      1.0000 0.72243  0.75005  0.20496  Biso   1.000  O
  O32      1.0000 0.72482  0.75252  0.70464  Biso   1.000  O
