data_image0
_cell_length_a       10.0371
_cell_length_b       10.2129
_cell_length_c       10.4481
_cell_angle_alpha    89.9237
_cell_angle_beta     90.1741
_cell_angle_gamma    89.9136

_symmetry_space_group_name_H-M    "P 1"
_symmetry_int_tables_number       1

loop_
  _symmetry_equiv_pos_as_xyz
  'x, y, z'

loop_
  _atom_site_label
  _atom_site_occupancy
  _atom_site_fract_x
  _atom_site_fract_y
  _atom_site_fract_z
  _atom_site_thermal_displace_type
  _atom_site_B_iso_or_equiv
  _atom_site_type_symbol
  Zn1      1.0000 0.12706  0.01353  0.18203  Biso   1.000  Zn
  Hf1      1.0000 0.13931  0.02051  0.67013  Biso   1.000  Hf
  Hf2      1.0000 0.14018  0.52169  0.17164  Biso   1.000  Hf
  Hf3      1.0000 0.13958  0.52100  0.67279  Biso   1.000  Hf
  Hf4      1.0000 0.13976  0.22904  0.41894  Biso   1.000  Hf
  Hf5      1.0000 0.14226  0.22511  0.92492  Biso   1.000  Hf
  Hf6      1.0000 0.13947  0.72986  0.42046  Biso   1.000  Hf
  Hf7      1.0000 0.14154  0.73174  0.92275  Biso   1.000  Hf
  Hf8      1.0000 0.35693  0.26674  0.17050  Biso   1.000  Hf
  Hf9      1.0000 0.36035  0.27093  0.67185  Biso   1.000  Hf
  Hf10     1.0000 0.35797  0.77479  0.17036  Biso   1.000  Hf
  Hf11     1.0000 0.36098  0.77167  0.67131  Biso   1.000  Hf
  Hf12     1.0000 0.36047  0.47884  0.42129  Biso   1.000  Hf
  Hf13     1.0000 0.36048  0.47809  0.92277  Biso   1.000  Hf
  Hf14     1.0000 0.35732  0.98043  0.41823  Biso   1.000  Hf
  Hf15     1.0000 0.35957  0.98024  0.92344  Biso   1.000  Hf
  Hf16     1.0000 0.63998  0.02142  0.07794  Biso   1.000  Hf
  Hf17     1.0000 0.63717  0.02086  0.57762  Biso   1.000  Hf
  Hf18     1.0000 0.63859  0.51965  0.07854  Biso   1.000  Hf
  Hf19     1.0000 0.63880  0.52105  0.57848  Biso   1.000  Hf
  Hf20     1.0000 0.63812  0.22955  0.32765  Biso   1.000  Hf
  Hf21     1.0000 0.63986  0.22928  0.82876  Biso   1.000  Hf
  Hf22     1.0000 0.63760  0.72931  0.32700  Biso   1.000  Hf
  Hf23     1.0000 0.63880  0.72907  0.82856  Biso   1.000  Hf
  Hf24     1.0000 0.86665  0.26731  0.07985  Biso   1.000  Hf
  Hf25     1.0000 0.85980  0.27136  0.57783  Biso   1.000  Hf
  Hf26     1.0000 0.86164  0.77155  0.07835  Biso   1.000  Hf
  Hf27     1.0000 0.86044  0.77027  0.57849  Biso   1.000  Hf
  Hf28     1.0000 0.86065  0.47968  0.32825  Biso   1.000  Hf
  Hf29     1.0000 0.86224  0.47822  0.82999  Biso   1.000  Hf
  Hf30     1.0000 0.86027  0.97901  0.32909  Biso   1.000  Hf
  Hf31     1.0000 0.86080  0.97921  0.82800  Biso   1.000  Hf
  O1       1.0000 0.03896  0.16324  0.08622  Biso   1.000  O
  O2       1.0000 0.03206  0.16593  0.58388  Biso   1.000  O
  O3       1.0000 0.03316  0.66587  0.08378  Biso   1.000  O
  O4       1.0000 0.03258  0.66481  0.58467  Biso   1.000  O
  O5       1.0000 0.02865  0.08410  0.34621  Biso   1.000  O
  O6       1.0000 0.03252  0.08529  0.83215  Biso   1.000  O
  O7       1.0000 0.03236  0.58565  0.33362  Biso   1.000  O
  O8       1.0000 0.03341  0.58457  0.83496  Biso   1.000  O
  O9       1.0000 0.46732  0.41317  0.08366  Biso   1.000  O
  O10      1.0000 0.46730  0.41527  0.58378  Biso   1.000  O
  O11      1.0000 0.47065  0.91403  0.08247  Biso   1.000  O
  O12      1.0000 0.46613  0.91508  0.58229  Biso   1.000  O
  O13      1.0000 0.46697  0.33523  0.33409  Biso   1.000  O
  O14      1.0000 0.46852  0.33547  0.83304  Biso   1.000  O
  O15      1.0000 0.46743  0.83741  0.33196  Biso   1.000  O
  O16      1.0000 0.46783  0.83544  0.83262  Biso   1.000  O
  O17      1.0000 0.27564  0.12488  0.29553  Biso   1.000  O
  O18      1.0000 0.27553  0.12234  0.79147  Biso   1.000  O
  O19      1.0000 0.27658  0.62386  0.29504  Biso   1.000  O
  O20      1.0000 0.27663  0.62418  0.79570  Biso   1.000  O
  O21      1.0000 0.29168  0.13652  0.03415  Biso   1.000  O
  O22      1.0000 0.27565  0.12675  0.54407  Biso   1.000  O
  O23      1.0000 0.27671  0.62591  0.04570  Biso   1.000  O
  O24      1.0000 0.27605  0.62641  0.54539  Biso   1.000  O
  O25      1.0000 0.22294  0.37471  0.29546  Biso   1.000  O
  O26      1.0000 0.22489  0.37332  0.79615  Biso   1.000  O
  O27      1.0000 0.22321  0.87200  0.29515  Biso   1.000  O
  O28      1.0000 0.22350  0.87388  0.79337  Biso   1.000  O
  O29      1.0000 0.22170  0.37890  0.04597  Biso   1.000  O
  O30      1.0000 0.22348  0.37645  0.54557  Biso   1.000  O
  O31      1.0000 0.22817  0.87531  0.04187  Biso   1.000  O
  O32      1.0000 0.22289  0.87661  0.54437  Biso   1.000  O
  O33      1.0000 0.53358  0.16521  0.16600  Biso   1.000  O
  O34      1.0000 0.53265  0.16564  0.66584  Biso   1.000  O
  O35      1.0000 0.53120  0.66409  0.16628  Biso   1.000  O
  O36      1.0000 0.53273  0.66502  0.66631  Biso   1.000  O
  O37      1.0000 0.53144  0.08498  0.41532  Biso   1.000  O
  O38      1.0000 0.53592  0.08345  0.91441  Biso   1.000  O
  O39      1.0000 0.53174  0.58582  0.41661  Biso   1.000  O
  O40      1.0000 0.53240  0.58466  0.91647  Biso   1.000  O
  O41      1.0000 0.96786  0.41566  0.16664  Biso   1.000  O
  O42      1.0000 0.96801  0.41398  0.66754  Biso   1.000  O
  O43      1.0000 0.96107  0.91571  0.16738  Biso   1.000  O
  O44      1.0000 0.96664  0.91539  0.66537  Biso   1.000  O
  O45      1.0000 0.96671  0.33642  0.41674  Biso   1.000  O
  O46      1.0000 0.96940  0.33390  0.91795  Biso   1.000  O
  O47      1.0000 0.96588  0.83298  0.41649  Biso   1.000  O
  O48      1.0000 0.96760  0.83480  0.91546  Biso   1.000  O
  O49      1.0000 0.77859  0.12346  0.95492  Biso   1.000  O
  O50      1.0000 0.77393  0.12500  0.45540  Biso   1.000  O
  O51      1.0000 0.77597  0.62303  0.95481  Biso   1.000  O
  O52      1.0000 0.77547  0.62403  0.45468  Biso   1.000  O
  O53      1.0000 0.77654  0.12602  0.20538  Biso   1.000  O
  O54      1.0000 0.77599  0.12622  0.70456  Biso   1.000  O
  O55      1.0000 0.77575  0.62638  0.20439  Biso   1.000  O
  O56      1.0000 0.77644  0.62556  0.70511  Biso   1.000  O
  O57      1.0000 0.72546  0.37280  0.95536  Biso   1.000  O
  O58      1.0000 0.72311  0.37493  0.45481  Biso   1.000  O
  O59      1.0000 0.72461  0.87368  0.95408  Biso   1.000  O
  O60      1.0000 0.72293  0.87394  0.45474  Biso   1.000  O
  O61      1.0000 0.72509  0.37568  0.20512  Biso   1.000  O
  O62      1.0000 0.72447  0.37631  0.70480  Biso   1.000  O
  O63      1.0000 0.72150  0.87575  0.20445  Biso   1.000  O
  O64      1.0000 0.72358  0.87585  0.70448  Biso   1.000  O
