data_image0
_cell_length_a       10.057
_cell_length_b       10.3314
_cell_length_c       5.10135
_cell_angle_alpha    90.5413
_cell_angle_beta     89.4765
_cell_angle_gamma    90.4867

_symmetry_space_group_name_H-M    "P 1"
_symmetry_int_tables_number       1

loop_
  _symmetry_equiv_pos_as_xyz
  'x, y, z'

loop_
  _atom_site_label
  _atom_site_occupancy
  _atom_site_fract_x
  _atom_site_fract_y
  _atom_site_fract_z
  _atom_site_thermal_displace_type
  _atom_site_B_iso_or_equiv
  _atom_site_type_symbol
  Hf1      1.0000 0.14808  0.96466  0.30448  Biso   1.000  Hf
  Hf2      1.0000 0.11693  0.25309  0.60015  Biso   1.000  Hf
  Hf3      1.0000 0.38294  0.23880  0.22790  Biso   1.000  Hf
  Hf4      1.0000 0.39896  0.00617  0.74914  Biso   1.000  Hf
  O1       1.0000 0.99565  0.16366  0.88803  Biso   1.000  O
  O2       1.0000 0.99147  0.09436  0.43288  Biso   1.000  O
  O3       1.0000 0.96651  0.37055  0.48101  Biso   1.000  O
  O4       1.0000 0.98913  0.41064  0.99190  Biso   1.000  O
  O5       1.0000 0.25836  0.11594  0.53122  Biso   1.000  O
  O6       1.0000 0.27423  0.06415  0.05031  Biso   1.000  O
  O7       1.0000 0.26632  0.30898  0.88295  Biso   1.000  O
  O8       1.0000 0.24523  0.39688  0.43152  Biso   1.000  O
  Hf5      1.0000 0.09766  0.51276  0.26401  Biso   1.000  Hf
  Hf6      1.0000 0.13168  0.73510  0.78628  Biso   1.000  Hf
  Hf7      1.0000 0.39125  0.75065  0.31865  Biso   1.000  Hf
  Hf8      1.0000 0.35677  0.48313  0.73311  Biso   1.000  Hf
  O9       1.0000 0.99048  0.65821  0.05140  Biso   1.000  O
  O10      1.0000 0.00538  0.60662  0.56006  Biso   1.000  O
  O11      1.0000 0.01044  0.84810  0.52830  Biso   1.000  O
  O12      1.0000 0.00932  0.90721  0.02036  Biso   1.000  O
  O13      1.0000 0.25219  0.63558  0.50196  Biso   1.000  O
  O14      1.0000 0.22171  0.56781  0.96634  Biso   1.000  O
  O15      1.0000 0.23730  0.81161  0.10036  Biso   1.000  O
  O16      1.0000 0.26286  0.87572  0.58946  Biso   1.000  O
  Hf9      1.0000 0.64256  0.01940  0.22416  Biso   1.000  Hf
  Hf10     1.0000 0.63167  0.26560  0.72612  Biso   1.000  Hf
  Hf11     1.0000 0.88349  0.25229  0.18814  Biso   1.000  Hf
  Hf12     1.0000 0.89581  0.99667  0.74966  Biso   1.000  Hf
  O17      1.0000 0.51210  0.14757  0.97014  Biso   1.000  O
  O18      1.0000 0.50252  0.10644  0.46744  Biso   1.000  O
  O19      1.0000 0.48802  0.35107  0.49378  Biso   1.000  O
  O20      1.0000 0.48711  0.39349  0.00276  Biso   1.000  O
  O21      1.0000 0.73815  0.18360  0.43536  Biso   1.000  O
  O22      1.0000 0.75855  0.11381  0.94927  Biso   1.000  O
  O23      1.0000 0.73912  0.36474  0.02236  Biso   1.000  O
  O24      1.0000 0.71764  0.43426  0.55657  Biso   1.000  O
  Hf13     1.0000 0.60472  0.49584  0.25223  Biso   1.000  Hf
  Hf14     1.0000 0.61337  0.74511  0.80929  Biso   1.000  Hf
  Hf15     1.0000 0.86406  0.77111  0.27200  Biso   1.000  Hf
  Hf16     1.0000 0.86027  0.51892  0.77580  Biso   1.000  Hf
  O25      1.0000 0.48599  0.63997  0.04331  Biso   1.000  O
  O26      1.0000 0.50341  0.60609  0.54117  Biso   1.000  O
  O27      1.0000 0.51613  0.85943  0.54760  Biso   1.000  O
  O28      1.0000 0.50009  0.89362  0.04290  Biso   1.000  O
  O29      1.0000 0.76439  0.68330  0.57002  Biso   1.000  O
  O30      1.0000 0.73841  0.61662  0.05886  Biso   1.000  O
  O31      1.0000 0.75406  0.86589  0.98391  Biso   1.000  O
  O32      1.0000 0.77228  0.93207  0.45873  Biso   1.000  O
  Zn1      1.0000 0.14120  0.21384  0.10161  Biso   1.000  Zn
