data_image0
_cell_length_a       10.2053
_cell_length_b       10.3546
_cell_length_c       10.2053
_cell_angle_alpha    95.8757
_cell_angle_beta     83.0963
_cell_angle_gamma    95.8763

_symmetry_space_group_name_H-M    "P 1"
_symmetry_int_tables_number       1

loop_
  _symmetry_equiv_pos_as_xyz
  'x, y, z'

loop_
  _atom_site_label
  _atom_site_occupancy
  _atom_site_fract_x
  _atom_site_fract_y
  _atom_site_fract_z
  _atom_site_thermal_displace_type
  _atom_site_B_iso_or_equiv
  _atom_site_type_symbol
  Hf1      1.0000 0.15999  0.97936  0.15997  Biso   1.000  Hf
  Hf2      1.0000 0.09434  0.26455  0.33209  Biso   1.000  Hf
  Hf3      1.0000 0.33214  0.26456  0.09432  Biso   1.000  Hf
  Hf4      1.0000 0.40221  0.99003  0.40219  Biso   1.000  Hf
  O1       1.0000 0.96934  0.16512  0.96931  Biso   1.000  O
  O2       1.0000 0.00218  0.08216  0.24353  Biso   1.000  O
  O3       1.0000 0.95429  0.35183  0.22822  Biso   1.000  O
  O4       1.0000 0.97460  0.40511  0.97457  Biso   1.000  O
  O5       1.0000 0.25381  0.15109  0.25379  Biso   1.000  O
  O6       1.0000 0.24355  0.08217  0.00215  Biso   1.000  O
  O7       1.0000 0.22823  0.35182  0.95427  Biso   1.000  O
  O8       1.0000 0.23243  0.41445  0.23240  Biso   1.000  O
  Hf5      1.0000 0.15148  0.98743  0.65237  Biso   1.000  Hf
  Hf6      1.0000 0.08472  0.26741  0.82141  Biso   1.000  Hf
  Hf7      1.0000 0.33573  0.26234  0.58444  Biso   1.000  Hf
  Hf8      1.0000 0.40090  0.98834  0.90298  Biso   1.000  Hf
  O9       1.0000 0.98740  0.16360  0.48204  Biso   1.000  O
  O10      1.0000 0.99774  0.08598  0.74382  Biso   1.000  O
  O11      1.0000 0.96787  0.35138  0.71483  Biso   1.000  O
  O12      1.0000 0.97670  0.40792  0.47408  Biso   1.000  O
  O13      1.0000 0.23616  0.16474  0.73696  Biso   1.000  O
  O14      1.0000 0.25020  0.08541  0.50233  Biso   1.000  O
  O15      1.0000 0.22266  0.35051  0.47054  Biso   1.000  O
  O16      1.0000 0.22441  0.40858  0.72091  Biso   1.000  O
  Hf9      1.0000 0.10786  0.48876  0.10784  Biso   1.000  Hf
  Hf10     1.0000 0.13158  0.75262  0.38165  Biso   1.000  Hf
  Hf11     1.0000 0.38167  0.75262  0.13156  Biso   1.000  Hf
  Hf12     1.0000 0.36176  0.49997  0.36175  Biso   1.000  Hf
  O17      1.0000 0.03758  0.65795  0.03756  Biso   1.000  O
  O18      1.0000 0.03489  0.58959  0.28119  Biso   1.000  O
  O19      1.0000 0.01944  0.84234  0.26571  Biso   1.000  O
  O20      1.0000 0.01632  0.90295  0.01629  Biso   1.000  O
  O21      1.0000 0.29219  0.66127  0.29216  Biso   1.000  O
  O22      1.0000 0.28122  0.58959  0.03486  Biso   1.000  O
  O23      1.0000 0.26573  0.84234  0.01941  Biso   1.000  O
  O24      1.0000 0.27081  0.89431  0.27078  Biso   1.000  O
  Hf13     1.0000 0.10509  0.49640  0.60396  Biso   1.000  Hf
  Hf14     1.0000 0.12846  0.75566  0.88163  Biso   1.000  Hf
  Hf15     1.0000 0.37951  0.75694  0.63148  Biso   1.000  Hf
  Hf16     1.0000 0.35497  0.49613  0.85620  Biso   1.000  Hf
  O25      1.0000 0.03617  0.66039  0.53842  Biso   1.000  O
  O26      1.0000 0.03139  0.59096  0.78101  Biso   1.000  O
  O27      1.0000 0.01330  0.84319  0.76562  Biso   1.000  O
  O28      1.0000 0.01651  0.90061  0.51575  Biso   1.000  O
  O29      1.0000 0.28769  0.66192  0.79058  Biso   1.000  O
  O30      1.0000 0.27996  0.59334  0.53414  Biso   1.000  O
  O31      1.0000 0.26502  0.84421  0.51871  Biso   1.000  O
  O32      1.0000 0.26424  0.90191  0.76972  Biso   1.000  O
  Hf17     1.0000 0.65240  0.98743  0.15147  Biso   1.000  Hf
  Hf18     1.0000 0.58446  0.26234  0.33572  Biso   1.000  Hf
  Hf19     1.0000 0.82144  0.26740  0.08471  Biso   1.000  Hf
  Hf20     1.0000 0.90300  0.98834  0.40088  Biso   1.000  Hf
  O33      1.0000 0.48207  0.16359  0.98739  Biso   1.000  O
  O34      1.0000 0.50236  0.08541  0.25019  Biso   1.000  O
  O35      1.0000 0.47056  0.35051  0.22265  Biso   1.000  O
  O36      1.0000 0.47410  0.40792  0.97669  Biso   1.000  O
  O37      1.0000 0.73698  0.16473  0.23615  Biso   1.000  O
  O38      1.0000 0.74385  0.08597  0.99773  Biso   1.000  O
  O39      1.0000 0.71486  0.35138  0.96786  Biso   1.000  O
  O40      1.0000 0.72094  0.40858  0.22440  Biso   1.000  O
  Hf21     1.0000 0.65000  0.99076  0.64998  Biso   1.000  Hf
  Hf22     1.0000 0.58012  0.26235  0.83487  Biso   1.000  Hf
  Hf23     1.0000 0.83488  0.26235  0.58009  Biso   1.000  Hf
  Hf24     1.0000 0.89646  0.98201  0.89644  Biso   1.000  Hf
  O41      1.0000 0.48860  0.16465  0.48859  Biso   1.000  O
  O42      1.0000 0.49608  0.08660  0.74875  Biso   1.000  O
  O43      1.0000 0.46796  0.35030  0.72046  Biso   1.000  O
  O44      1.0000 0.47766  0.40738  0.47766  Biso   1.000  O
  O45      1.0000 0.73441  0.16609  0.73439  Biso   1.000  O
  O46      1.0000 0.74876  0.08660  0.49606  Biso   1.000  O
  O47      1.0000 0.72047  0.35030  0.46796  Biso   1.000  O
  O48      1.0000 0.72515  0.40826  0.72514  Biso   1.000  O
  Hf25     1.0000 0.60399  0.49640  0.10508  Biso   1.000  Hf
  Hf26     1.0000 0.63150  0.75693  0.37950  Biso   1.000  Hf
  Hf27     1.0000 0.88165  0.75566  0.12845  Biso   1.000  Hf
  Hf28     1.0000 0.85622  0.49613  0.35496  Biso   1.000  Hf
  O49      1.0000 0.53845  0.66040  0.03618  Biso   1.000  O
  O50      1.0000 0.53417  0.59333  0.27997  Biso   1.000  O
  O51      1.0000 0.51873  0.84420  0.26501  Biso   1.000  O
  O52      1.0000 0.51577  0.90061  0.01650  Biso   1.000  O
  O53      1.0000 0.79060  0.66193  0.28768  Biso   1.000  O
  O54      1.0000 0.78104  0.59095  0.03138  Biso   1.000  O
  O55      1.0000 0.76564  0.84319  0.01329  Biso   1.000  O
  O56      1.0000 0.76974  0.90190  0.26422  Biso   1.000  O
  Hf29     1.0000 0.60747  0.49651  0.60746  Biso   1.000  Hf
  Hf30     1.0000 0.62812  0.75617  0.87875  Biso   1.000  Hf
  Hf31     1.0000 0.87876  0.75617  0.62810  Biso   1.000  Hf
  Hf32     1.0000 0.85590  0.49779  0.85588  Biso   1.000  Hf
  O57      1.0000 0.53595  0.66078  0.53595  Biso   1.000  O
  O58      1.0000 0.53200  0.59265  0.78030  Biso   1.000  O
  O59      1.0000 0.51455  0.84618  0.76574  Biso   1.000  O
  O60      1.0000 0.51611  0.90243  0.51610  Biso   1.000  O
  O61      1.0000 0.78809  0.66200  0.78808  Biso   1.000  O
  O62      1.0000 0.78030  0.59266  0.53198  Biso   1.000  O
  O63      1.0000 0.76575  0.84618  0.51455  Biso   1.000  O
  O64      1.0000 0.76379  0.90107  0.76378  Biso   1.000  O
  Zn1      1.0000 0.08777  0.20280  0.08767  Biso   1.000  Zn
