data_image0
_cell_length_a       10.2226
_cell_length_b       5.14928
_cell_length_c       10.5354
_cell_angle_alpha    90.1431
_cell_angle_beta     79.0737
_cell_angle_gamma    89.9738

_symmetry_space_group_name_H-M    "P 1"
_symmetry_int_tables_number       1

loop_
  _symmetry_equiv_pos_as_xyz
  'x, y, z'

loop_
  _atom_site_label
  _atom_site_occupancy
  _atom_site_fract_x
  _atom_site_fract_y
  _atom_site_fract_z
  _atom_site_thermal_displace_type
  _atom_site_B_iso_or_equiv
  _atom_site_type_symbol
  Hf1      1.0000 0.13057  0.04322  0.13942  Biso   1.000  Hf
  Hf2      1.0000 0.14033  0.45425  0.39118  Biso   1.000  Hf
  Hf3      1.0000 0.35298  0.54493  0.10408  Biso   1.000  Hf
  Hf4      1.0000 0.35247  0.92270  0.34488  Biso   1.000  Hf
  O1       1.0000 0.02809  0.33924  0.07481  Biso   1.000  O
  O2       1.0000 0.02818  0.17348  0.32556  Biso   1.000  O
  O3       1.0000 0.46229  0.85617  0.16368  Biso   1.000  O
  O4       1.0000 0.48362  0.69366  0.43917  Biso   1.000  O
  O5       1.0000 0.26402  0.22606  0.23281  Biso   1.000  O
  O6       1.0000 0.28061  0.23479  0.48599  Biso   1.000  O
  O7       1.0000 0.21982  0.76235  0.00461  Biso   1.000  O
  O8       1.0000 0.20072  0.74571  0.25031  Biso   1.000  O
  Hf5      1.0000 0.14097  0.04437  0.64415  Biso   1.000  Hf
  Hf6      1.0000 0.13547  0.46080  0.89475  Biso   1.000  Hf
  Hf7      1.0000 0.36348  0.54749  0.61040  Biso   1.000  Hf
  Hf8      1.0000 0.35996  0.95922  0.85642  Biso   1.000  Hf
  O9       1.0000 0.03707  0.32985  0.57597  Biso   1.000  O
  O10      1.0000 0.03357  0.17083  0.82575  Biso   1.000  O
  O11      1.0000 0.46870  0.82807  0.68001  Biso   1.000  O
  O12      1.0000 0.46391  0.67095  0.92457  Biso   1.000  O
  O13      1.0000 0.27596  0.25771  0.73905  Biso   1.000  O
  O14      1.0000 0.27167  0.25044  0.98750  Biso   1.000  O
  O15      1.0000 0.22538  0.74714  0.51054  Biso   1.000  O
  O16      1.0000 0.22473  0.74630  0.75889  Biso   1.000  O
  Hf9      1.0000 0.63819  0.04633  0.14731  Biso   1.000  Hf
  Hf10     1.0000 0.65293  0.45983  0.40722  Biso   1.000  Hf
  Hf11     1.0000 0.85633  0.54550  0.10538  Biso   1.000  Hf
  Hf12     1.0000 0.86343  0.95504  0.35524  Biso   1.000  Hf
  O17      1.0000 0.53267  0.34442  0.08402  Biso   1.000  O
  O18      1.0000 0.53366  0.16678  0.33357  Biso   1.000  O
  O19      1.0000 0.95664  0.83786  0.17084  Biso   1.000  O
  O20      1.0000 0.96612  0.66763  0.42374  Biso   1.000  O
  O21      1.0000 0.77406  0.26131  0.24474  Biso   1.000  O
  O22      1.0000 0.77973  0.23799  0.49587  Biso   1.000  O
  O23      1.0000 0.72200  0.76132  0.01273  Biso   1.000  O
  O24      1.0000 0.71956  0.74549  0.26469  Biso   1.000  O
  Hf13     1.0000 0.63963  0.04344  0.65207  Biso   1.000  Hf
  Hf14     1.0000 0.63556  0.46210  0.90018  Biso   1.000  Hf
  Hf15     1.0000 0.86678  0.54421  0.60792  Biso   1.000  Hf
  Hf16     1.0000 0.86091  0.96071  0.85561  Biso   1.000  Hf
  O25      1.0000 0.53547  0.32807  0.58206  Biso   1.000  O
  O26      1.0000 0.53309  0.17079  0.83247  Biso   1.000  O
  O27      1.0000 0.96841  0.83364  0.67345  Biso   1.000  O
  O28      1.0000 0.96299  0.67124  0.92185  Biso   1.000  O
  O29      1.0000 0.77552  0.26033  0.74350  Biso   1.000  O
  O30      1.0000 0.77268  0.24528  0.99284  Biso   1.000  O
  O31      1.0000 0.72857  0.75394  0.51631  Biso   1.000  O
  O32      1.0000 0.72576  0.74566  0.76409  Biso   1.000  O
  Zn1      1.0000 0.41608  0.44131  0.32282  Biso   1.000  Zn
