data_image0
_cell_length_a       10.0763
_cell_length_b       10.2836
_cell_length_c       5.26284
_cell_angle_alpha    89.8353
_cell_angle_beta     91.4309
_cell_angle_gamma    89.9504

_symmetry_space_group_name_H-M    "P 1"
_symmetry_int_tables_number       1

loop_
  _symmetry_equiv_pos_as_xyz
  'x, y, z'

loop_
  _atom_site_label
  _atom_site_occupancy
  _atom_site_fract_x
  _atom_site_fract_y
  _atom_site_fract_z
  _atom_site_thermal_displace_type
  _atom_site_B_iso_or_equiv
  _atom_site_type_symbol
  Hf1      1.0000 0.13881  0.02002  0.34770  Biso   1.000  Hf
  Hf2      1.0000 0.13539  0.22640  0.85529  Biso   1.000  Hf
  Hf3      1.0000 0.34853  0.26857  0.37598  Biso   1.000  Hf
  Hf4      1.0000 0.36028  0.48101  0.85047  Biso   1.000  Hf
  Hf5      1.0000 0.64269  0.02292  0.14709  Biso   1.000  Hf
  Hf6      1.0000 0.64395  0.22521  0.66981  Biso   1.000  Hf
  Hf7      1.0000 0.85703  0.26858  0.14754  Biso   1.000  Hf
  Hf8      1.0000 0.86676  0.48055  0.64794  Biso   1.000  Hf
  O1       1.0000 0.03365  0.16565  0.17270  Biso   1.000  O
  O2       1.0000 0.03679  0.08116  0.66877  Biso   1.000  O
  O3       1.0000 0.46930  0.41492  0.18081  Biso   1.000  O
  O4       1.0000 0.46770  0.33478  0.68308  Biso   1.000  O
  O5       1.0000 0.27275  0.12463  0.60554  Biso   1.000  O
  O6       1.0000 0.27704  0.12430  0.10240  Biso   1.000  O
  O7       1.0000 0.22110  0.37467  0.60603  Biso   1.000  O
  O8       1.0000 0.22553  0.37592  0.10436  Biso   1.000  O
  O9       1.0000 0.51582  0.15121  0.37410  Biso   1.000  O
  O10      1.0000 0.53494  0.07105  0.82282  Biso   1.000  O
  O11      1.0000 0.96558  0.41453  0.33048  Biso   1.000  O
  O12      1.0000 0.96939  0.33376  0.83148  Biso   1.000  O
  O13      1.0000 0.79391  0.11639  0.89443  Biso   1.000  O
  O14      1.0000 0.77774  0.12511  0.40821  Biso   1.000  O
  O15      1.0000 0.73740  0.39126  0.89209  Biso   1.000  O
  O16      1.0000 0.71912  0.37691  0.40125  Biso   1.000  O
  Hf9      1.0000 0.13729  0.52087  0.34295  Biso   1.000  Hf
  Hf10     1.0000 0.14050  0.72934  0.84441  Biso   1.000  Hf
  Hf11     1.0000 0.36239  0.77145  0.34795  Biso   1.000  Hf
  Hf12     1.0000 0.36283  0.97585  0.85243  Biso   1.000  Hf
  Hf13     1.0000 0.64573  0.53292  0.15166  Biso   1.000  Hf
  Hf14     1.0000 0.64033  0.73192  0.65436  Biso   1.000  Hf
  Hf15     1.0000 0.86461  0.77357  0.15406  Biso   1.000  Hf
  Hf16     1.0000 0.86411  0.97707  0.65228  Biso   1.000  Hf
  O17      1.0000 0.03500  0.66486  0.16497  Biso   1.000  O
  O18      1.0000 0.03646  0.58491  0.66622  Biso   1.000  O
  O19      1.0000 0.46991  0.91218  0.17014  Biso   1.000  O
  O20      1.0000 0.46718  0.83146  0.67064  Biso   1.000  O
  O21      1.0000 0.27712  0.62272  0.59115  Biso   1.000  O
  O22      1.0000 0.27708  0.62432  0.09310  Biso   1.000  O
  O23      1.0000 0.22575  0.87288  0.59498  Biso   1.000  O
  O24      1.0000 0.22434  0.87427  0.09645  Biso   1.000  O
  O25      1.0000 0.53385  0.66456  0.33556  Biso   1.000  O
  O26      1.0000 0.53180  0.58750  0.83817  Biso   1.000  O
  O27      1.0000 0.96991  0.91546  0.32908  Biso   1.000  O
  O28      1.0000 0.96941  0.83286  0.83201  Biso   1.000  O
  O29      1.0000 0.77757  0.63074  0.90389  Biso   1.000  O
  O30      1.0000 0.77986  0.62877  0.40433  Biso   1.000  O
  O31      1.0000 0.72627  0.87565  0.90968  Biso   1.000  O
  O32      1.0000 0.72685  0.87435  0.40798  Biso   1.000  O
  Zn1      1.0000 0.58149  0.27031  0.12175  Biso   1.000  Zn
