data_image0
_cell_length_a       10.0702
_cell_length_b       5.14364
_cell_length_c       10.515
_cell_angle_alpha    89.8984
_cell_angle_beta     91.3489
_cell_angle_gamma    89.957

_symmetry_space_group_name_H-M    "P 1"
_symmetry_int_tables_number       1

loop_
  _symmetry_equiv_pos_as_xyz
  'x, y, z'

loop_
  _atom_site_label
  _atom_site_occupancy
  _atom_site_fract_x
  _atom_site_fract_y
  _atom_site_fract_z
  _atom_site_thermal_displace_type
  _atom_site_B_iso_or_equiv
  _atom_site_type_symbol
  Hf1      1.0000 0.13232  0.04142  0.17256  Biso   1.000  Hf
  Hf2      1.0000 0.13446  0.45383  0.42582  Biso   1.000  Hf
  Hf3      1.0000 0.34641  0.53980  0.18506  Biso   1.000  Hf
  Hf4      1.0000 0.36097  0.95594  0.42787  Biso   1.000  Hf
  Hf5      1.0000 0.64785  0.07510  0.06824  Biso   1.000  Hf
  Hf6      1.0000 0.63710  0.45453  0.33489  Biso   1.000  Hf
  Hf7      1.0000 0.85872  0.54309  0.07388  Biso   1.000  Hf
  Hf8      1.0000 0.85838  0.95504  0.32774  Biso   1.000  Hf
  O1       1.0000 0.03503  0.33545  0.08528  Biso   1.000  O
  O2       1.0000 0.02994  0.16413  0.33528  Biso   1.000  O
  O3       1.0000 0.46727  0.83247  0.08878  Biso   1.000  O
  O4       1.0000 0.46469  0.67177  0.33757  Biso   1.000  O
  O5       1.0000 0.26874  0.24807  0.30000  Biso   1.000  O
  O6       1.0000 0.27754  0.24875  0.04810  Biso   1.000  O
  O7       1.0000 0.21842  0.74858  0.30139  Biso   1.000  O
  O8       1.0000 0.22354  0.75254  0.05101  Biso   1.000  O
  O9       1.0000 0.51586  0.30680  0.18490  Biso   1.000  O
  O10      1.0000 0.53006  0.17350  0.42403  Biso   1.000  O
  O11      1.0000 0.96169  0.83406  0.16646  Biso   1.000  O
  O12      1.0000 0.96408  0.66378  0.41600  Biso   1.000  O
  O13      1.0000 0.77517  0.24396  0.45487  Biso   1.000  O
  O14      1.0000 0.77593  0.25996  0.20731  Biso   1.000  O
  O15      1.0000 0.72289  0.74674  0.45563  Biso   1.000  O
  O16      1.0000 0.71768  0.75500  0.20408  Biso   1.000  O
  Hf9      1.0000 0.14337  0.03864  0.67236  Biso   1.000  Hf
  Hf10     1.0000 0.14134  0.45753  0.92354  Biso   1.000  Hf
  Hf11     1.0000 0.36579  0.53692  0.67606  Biso   1.000  Hf
  Hf12     1.0000 0.36136  0.95769  0.92278  Biso   1.000  Hf
  Hf13     1.0000 0.64070  0.04006  0.58079  Biso   1.000  Hf
  Hf14     1.0000 0.64759  0.45589  0.82704  Biso   1.000  Hf
  Hf15     1.0000 0.86297  0.54013  0.57871  Biso   1.000  Hf
  Hf16     1.0000 0.87147  0.95912  0.82409  Biso   1.000  Hf
  O17      1.0000 0.03435  0.32726  0.58501  Biso   1.000  O
  O18      1.0000 0.04365  0.16428  0.83358  Biso   1.000  O
  O19      1.0000 0.46932  0.82759  0.58780  Biso   1.000  O
  O20      1.0000 0.47025  0.65890  0.83985  Biso   1.000  O
  O21      1.0000 0.28150  0.24607  0.79677  Biso   1.000  O
  O22      1.0000 0.27657  0.24803  0.54826  Biso   1.000  O
  O23      1.0000 0.22838  0.74510  0.79833  Biso   1.000  O
  O24      1.0000 0.22635  0.74682  0.54863  Biso   1.000  O
  O25      1.0000 0.53617  0.32808  0.66824  Biso   1.000  O
  O26      1.0000 0.53640  0.14416  0.90652  Biso   1.000  O
  O27      1.0000 0.97310  0.82671  0.66300  Biso   1.000  O
  O28      1.0000 0.97380  0.66741  0.91560  Biso   1.000  O
  O29      1.0000 0.79724  0.24781  0.94375  Biso   1.000  O
  O30      1.0000 0.78146  0.24761  0.70055  Biso   1.000  O
  O31      1.0000 0.74052  0.78307  0.94839  Biso   1.000  O
  O32      1.0000 0.72916  0.74657  0.70362  Biso   1.000  O
  Zn1      1.0000 0.58130  0.55487  0.05527  Biso   1.000  Zn
