data_image0
_cell_length_a       10.0459
_cell_length_b       10.2571
_cell_length_c       10.488
_cell_angle_alpha    89.8827
_cell_angle_beta     90.7039
_cell_angle_gamma    89.9961

_symmetry_space_group_name_H-M    "P 1"
_symmetry_int_tables_number       1

loop_
  _symmetry_equiv_pos_as_xyz
  'x, y, z'

loop_
  _atom_site_label
  _atom_site_occupancy
  _atom_site_fract_x
  _atom_site_fract_y
  _atom_site_fract_z
  _atom_site_thermal_displace_type
  _atom_site_B_iso_or_equiv
  _atom_site_type_symbol
  Hf1      1.0000 0.13643  0.02106  0.17233  Biso   1.000  Hf
  Hf2      1.0000 0.13514  0.22778  0.42661  Biso   1.000  Hf
  Hf3      1.0000 0.34542  0.26977  0.18429  Biso   1.000  Hf
  Hf4      1.0000 0.36124  0.48014  0.42450  Biso   1.000  Hf
  Hf5      1.0000 0.64143  0.02382  0.07047  Biso   1.000  Hf
  Hf6      1.0000 0.63621  0.22633  0.33479  Biso   1.000  Hf
  Hf7      1.0000 0.85696  0.26885  0.07326  Biso   1.000  Hf
  Hf8      1.0000 0.86039  0.47734  0.32765  Biso   1.000  Hf
  O1       1.0000 0.03438  0.16742  0.08505  Biso   1.000  O
  O2       1.0000 0.03095  0.08402  0.33517  Biso   1.000  O
  O3       1.0000 0.46785  0.41412  0.08865  Biso   1.000  O
  O4       1.0000 0.46380  0.33555  0.33638  Biso   1.000  O
  O5       1.0000 0.26952  0.12465  0.30073  Biso   1.000  O
  O6       1.0000 0.27749  0.12578  0.04750  Biso   1.000  O
  O7       1.0000 0.21744  0.37479  0.30033  Biso   1.000  O
  O8       1.0000 0.22378  0.37729  0.04885  Biso   1.000  O
  O9       1.0000 0.51326  0.15048  0.18655  Biso   1.000  O
  O10      1.0000 0.53055  0.08631  0.42413  Biso   1.000  O
  O11      1.0000 0.96208  0.41540  0.16600  Biso   1.000  O
  O12      1.0000 0.96484  0.33394  0.41767  Biso   1.000  O
  O13      1.0000 0.77522  0.12334  0.45609  Biso   1.000  O
  O14      1.0000 0.77233  0.12797  0.20758  Biso   1.000  O
  O15      1.0000 0.72253  0.37342  0.45458  Biso   1.000  O
  O16      1.0000 0.71581  0.37769  0.20353  Biso   1.000  O
  Hf9      1.0000 0.14134  0.02028  0.67265  Biso   1.000  Hf
  Hf10     1.0000 0.13898  0.22776  0.92245  Biso   1.000  Hf
  Hf11     1.0000 0.36470  0.27013  0.67505  Biso   1.000  Hf
  Hf12     1.0000 0.36051  0.47970  0.92236  Biso   1.000  Hf
  Hf13     1.0000 0.63965  0.02047  0.58137  Biso   1.000  Hf
  Hf14     1.0000 0.64706  0.22704  0.82760  Biso   1.000  Hf
  Hf15     1.0000 0.86123  0.27096  0.57965  Biso   1.000  Hf
  Hf16     1.0000 0.86737  0.48228  0.82533  Biso   1.000  Hf
  O17      1.0000 0.03312  0.16516  0.58612  Biso   1.000  O
  O18      1.0000 0.03935  0.08088  0.83371  Biso   1.000  O
  O19      1.0000 0.46835  0.41593  0.58580  Biso   1.000  O
  O20      1.0000 0.47100  0.33377  0.83886  Biso   1.000  O
  O21      1.0000 0.27951  0.12400  0.79652  Biso   1.000  O
  O22      1.0000 0.27670  0.12512  0.54796  Biso   1.000  O
  O23      1.0000 0.22687  0.37368  0.79766  Biso   1.000  O
  O24      1.0000 0.22537  0.37516  0.54811  Biso   1.000  O
  O25      1.0000 0.53563  0.16604  0.66745  Biso   1.000  O
  O26      1.0000 0.53832  0.06873  0.90218  Biso   1.000  O
  O27      1.0000 0.96998  0.41537  0.66528  Biso   1.000  O
  O28      1.0000 0.97060  0.33335  0.91384  Biso   1.000  O
  O29      1.0000 0.79577  0.11657  0.94670  Biso   1.000  O
  O30      1.0000 0.78087  0.12367  0.70217  Biso   1.000  O
  O31      1.0000 0.73826  0.39170  0.94876  Biso   1.000  O
  O32      1.0000 0.72689  0.37536  0.70335  Biso   1.000  O
  Hf17     1.0000 0.13466  0.52172  0.17168  Biso   1.000  Hf
  Hf18     1.0000 0.13784  0.72850  0.42108  Biso   1.000  Hf
  Hf19     1.0000 0.36130  0.77335  0.17270  Biso   1.000  Hf
  Hf20     1.0000 0.36100  0.97770  0.42493  Biso   1.000  Hf
  Hf21     1.0000 0.64487  0.53265  0.07733  Biso   1.000  Hf
  Hf22     1.0000 0.63945  0.73082  0.32886  Biso   1.000  Hf
  Hf23     1.0000 0.86280  0.77443  0.07858  Biso   1.000  Hf
  Hf24     1.0000 0.85939  0.97975  0.32858  Biso   1.000  Hf
  O33      1.0000 0.03413  0.66693  0.08420  Biso   1.000  O
  O34      1.0000 0.03150  0.58325  0.33381  Biso   1.000  O
  O35      1.0000 0.46887  0.91436  0.08247  Biso   1.000  O
  O36      1.0000 0.46791  0.83650  0.33429  Biso   1.000  O
  O37      1.0000 0.27458  0.62394  0.29509  Biso   1.000  O
  O38      1.0000 0.27746  0.62527  0.04591  Biso   1.000  O
  O39      1.0000 0.22400  0.87430  0.29632  Biso   1.000  O
  O40      1.0000 0.22340  0.87610  0.04725  Biso   1.000  O
  O41      1.0000 0.53290  0.66628  0.16769  Biso   1.000  O
  O42      1.0000 0.53223  0.58638  0.41731  Biso   1.000  O
  O43      1.0000 0.96598  0.91849  0.16645  Biso   1.000  O
  O44      1.0000 0.96581  0.83267  0.41430  Biso   1.000  O
  O45      1.0000 0.77642  0.62315  0.45364  Biso   1.000  O
  O46      1.0000 0.77824  0.62880  0.20435  Biso   1.000  O
  O47      1.0000 0.72380  0.87461  0.45566  Biso   1.000  O
  O48      1.0000 0.72475  0.87656  0.20480  Biso   1.000  O
  Hf25     1.0000 0.14135  0.52027  0.67141  Biso   1.000  Hf
  Hf26     1.0000 0.14164  0.72969  0.92257  Biso   1.000  Hf
  Hf27     1.0000 0.36243  0.76946  0.67248  Biso   1.000  Hf
  Hf28     1.0000 0.36327  0.97736  0.92178  Biso   1.000  Hf
  Hf29     1.0000 0.63985  0.52113  0.57817  Biso   1.000  Hf
  Hf30     1.0000 0.63958  0.72978  0.82741  Biso   1.000  Hf
  Hf31     1.0000 0.86304  0.77042  0.57735  Biso   1.000  Hf
  Hf32     1.0000 0.86606  0.97582  0.82638  Biso   1.000  Hf
  O49      1.0000 0.03444  0.66437  0.58283  Biso   1.000  O
  O50      1.0000 0.03836  0.58534  0.83378  Biso   1.000  O
  O51      1.0000 0.46796  0.91363  0.58562  Biso   1.000  O
  O52      1.0000 0.46583  0.82906  0.83485  Biso   1.000  O
  O53      1.0000 0.27904  0.62266  0.79543  Biso   1.000  O
  O54      1.0000 0.27632  0.62546  0.54558  Biso   1.000  O
  O55      1.0000 0.22533  0.87251  0.79562  Biso   1.000  O
  O56      1.0000 0.22452  0.87486  0.54539  Biso   1.000  O
  O57      1.0000 0.53394  0.66392  0.66680  Biso   1.000  O
  O58      1.0000 0.53309  0.58541  0.91875  Biso   1.000  O
  O59      1.0000 0.97040  0.91371  0.66361  Biso   1.000  O
  O60      1.0000 0.97023  0.83379  0.91748  Biso   1.000  O
  O61      1.0000 0.77809  0.63110  0.95370  Biso   1.000  O
  O62      1.0000 0.77785  0.62624  0.70345  Biso   1.000  O
  O63      1.0000 0.72606  0.87468  0.95460  Biso   1.000  O
  O64      1.0000 0.72580  0.87392  0.70469  Biso   1.000  O
  Zn1      1.0000 0.57858  0.26881  0.05464  Biso   1.000  Zn
