data_image0
_cell_length_a       10.1292
_cell_length_b       10.2646
_cell_length_c       5.24338
_cell_angle_alpha    89.9283
_cell_angle_beta     90.4775
_cell_angle_gamma    89.6675

_symmetry_space_group_name_H-M    "P 1"
_symmetry_int_tables_number       1

loop_
  _symmetry_equiv_pos_as_xyz
  'x, y, z'

loop_
  _atom_site_label
  _atom_site_occupancy
  _atom_site_fract_x
  _atom_site_fract_y
  _atom_site_fract_z
  _atom_site_thermal_displace_type
  _atom_site_B_iso_or_equiv
  _atom_site_type_symbol
  Zn1      1.0000 0.12599  0.01077  0.36655  Biso   1.000  Zn
  Zr1      1.0000 0.13994  0.52237  0.34543  Biso   1.000  Zr
  Zr2      1.0000 0.14408  0.22697  0.84155  Biso   1.000  Zr
  Zr3      1.0000 0.13988  0.73283  0.84420  Biso   1.000  Zr
  Zr4      1.0000 0.35764  0.26867  0.33998  Biso   1.000  Zr
  Zr5      1.0000 0.35802  0.77579  0.33848  Biso   1.000  Zr
  Zr6      1.0000 0.36029  0.47927  0.84448  Biso   1.000  Zr
  Zr7      1.0000 0.35699  0.98166  0.83854  Biso   1.000  Zr
  Zr8      1.0000 0.63790  0.02137  0.15499  Biso   1.000  Zr
  Zr9      1.0000 0.63923  0.51980  0.15804  Biso   1.000  Zr
  Zr10     1.0000 0.63919  0.22981  0.65691  Biso   1.000  Zr
  Zr11     1.0000 0.63723  0.72874  0.65552  Biso   1.000  Zr
  Zr12     1.0000 0.86576  0.26683  0.16110  Biso   1.000  Zr
  Zr13     1.0000 0.86061  0.77081  0.15962  Biso   1.000  Zr
  Zr14     1.0000 0.86270  0.47816  0.66162  Biso   1.000  Zr
  Zr15     1.0000 0.85811  0.97846  0.65911  Biso   1.000  Zr
  O1       1.0000 0.03870  0.15357  0.16146  Biso   1.000  O
  O2       1.0000 0.03123  0.66301  0.16516  Biso   1.000  O
  O3       1.0000 0.02655  0.08844  0.68085  Biso   1.000  O
  O4       1.0000 0.03118  0.58795  0.66597  Biso   1.000  O
  O5       1.0000 0.46825  0.41390  0.16651  Biso   1.000  O
  O6       1.0000 0.46954  0.91394  0.16142  Biso   1.000  O
  O7       1.0000 0.46905  0.33668  0.66560  Biso   1.000  O
  O8       1.0000 0.46696  0.83716  0.66214  Biso   1.000  O
  O9       1.0000 0.27095  0.12219  0.57466  Biso   1.000  O
  O10      1.0000 0.27498  0.62579  0.59127  Biso   1.000  O
  O11      1.0000 0.29410  0.14044  0.05754  Biso   1.000  O
  O12      1.0000 0.27515  0.62747  0.09143  Biso   1.000  O
  O13      1.0000 0.22598  0.37507  0.59330  Biso   1.000  O
  O14      1.0000 0.22229  0.87437  0.58519  Biso   1.000  O
  O15      1.0000 0.22244  0.37984  0.09283  Biso   1.000  O
  O16      1.0000 0.22675  0.87890  0.08303  Biso   1.000  O
  O17      1.0000 0.53322  0.16585  0.33085  Biso   1.000  O
  O18      1.0000 0.53066  0.66386  0.33217  Biso   1.000  O
  O19      1.0000 0.53433  0.08377  0.82574  Biso   1.000  O
  O20      1.0000 0.53130  0.58555  0.83345  Biso   1.000  O
  O21      1.0000 0.97188  0.40893  0.34414  Biso   1.000  O
  O22      1.0000 0.96224  0.91265  0.33976  Biso   1.000  O
  O23      1.0000 0.97117  0.33743  0.84607  Biso   1.000  O
  O24      1.0000 0.96684  0.83629  0.83806  Biso   1.000  O
  O25      1.0000 0.77541  0.12438  0.91162  Biso   1.000  O
  O26      1.0000 0.77429  0.62325  0.91019  Biso   1.000  O
  O27      1.0000 0.77538  0.12532  0.41001  Biso   1.000  O
  O28      1.0000 0.77490  0.62483  0.41068  Biso   1.000  O
  O29      1.0000 0.72713  0.37321  0.91256  Biso   1.000  O
  O30      1.0000 0.72382  0.87339  0.90928  Biso   1.000  O
  O31      1.0000 0.72793  0.37498  0.41074  Biso   1.000  O
  O32      1.0000 0.72183  0.87530  0.41016  Biso   1.000  O
