data_image0
_cell_length_a       5.03724
_cell_length_b       10.1755
_cell_length_c       10.1078
_cell_angle_alpha    90.0059
_cell_angle_beta     89.9993
_cell_angle_gamma    89.9993

_symmetry_space_group_name_H-M    "P 1"
_symmetry_int_tables_number       1

loop_
  _symmetry_equiv_pos_as_xyz
  'x, y, z'

loop_
  _atom_site_label
  _atom_site_occupancy
  _atom_site_fract_x
  _atom_site_fract_y
  _atom_site_fract_z
  _atom_site_thermal_displace_type
  _atom_site_B_iso_or_equiv
  _atom_site_type_symbol
  Zn1      1.0000 0.25158  0.00037  0.12491  Biso   1.000  Zn
  Zr1      1.0000 0.25148  0.00033  0.62491  Biso   1.000  Zr
  Zr2      1.0000 0.25148  0.50033  0.12493  Biso   1.000  Zr
  Zr3      1.0000 0.25145  0.50035  0.62493  Biso   1.000  Zr
  Zr4      1.0000 0.25885  0.24801  0.37668  Biso   1.000  Zr
  Zr5      1.0000 0.24412  0.24806  0.87315  Biso   1.000  Zr
  Zr6      1.0000 0.24410  0.75262  0.37667  Biso   1.000  Zr
  Zr7      1.0000 0.25881  0.75268  0.87319  Biso   1.000  Zr
  Zr8      1.0000 0.75138  0.25016  0.12490  Biso   1.000  Zr
  Zr9      1.0000 0.75149  0.24725  0.62491  Biso   1.000  Zr
  Zr10     1.0000 0.75135  0.75051  0.12494  Biso   1.000  Zr
  Zr11     1.0000 0.75146  0.75344  0.62493  Biso   1.000  Zr
  Zr12     1.0000 0.75145  0.00031  0.37190  Biso   1.000  Zr
  Zr13     1.0000 0.75151  0.00036  0.87793  Biso   1.000  Zr
  Zr14     1.0000 0.75144  0.50032  0.37957  Biso   1.000  Zr
  Zr15     1.0000 0.75144  0.50037  0.87029  Biso   1.000  Zr
  O1       1.0000 0.95379  0.15607  0.98021  Biso   1.000  O
  O2       1.0000 0.99131  0.14567  0.49129  Biso   1.000  O
  O3       1.0000 0.00905  0.65317  0.00022  Biso   1.000  O
  O4       1.0000 0.99598  0.64460  0.49957  Biso   1.000  O
  O5       1.0000 0.02856  0.09546  0.24281  Biso   1.000  O
  O6       1.0000 0.00524  0.10578  0.74194  Biso   1.000  O
  O7       1.0000 0.99642  0.59855  0.24866  Biso   1.000  O
  O8       1.0000 0.00622  0.60600  0.74958  Biso   1.000  O
  O9       1.0000 0.00911  0.34748  0.24961  Biso   1.000  O
  O10      1.0000 0.99598  0.35610  0.75026  Biso   1.000  O
  O11      1.0000 0.95372  0.84460  0.26964  Biso   1.000  O
  O12      1.0000 0.99134  0.85502  0.75853  Biso   1.000  O
  O13      1.0000 0.99640  0.40212  0.00118  Biso   1.000  O
  O14      1.0000 0.00626  0.39470  0.50026  Biso   1.000  O
  O15      1.0000 0.02866  0.90519  0.00702  Biso   1.000  O
  O16      1.0000 0.00517  0.89492  0.50790  Biso   1.000  O
  O17      1.0000 0.54919  0.15601  0.26962  Biso   1.000  O
  O18      1.0000 0.51168  0.14570  0.75854  Biso   1.000  O
  O19      1.0000 0.49383  0.65308  0.24964  Biso   1.000  O
  O20      1.0000 0.50694  0.64463  0.75028  Biso   1.000  O
  O21      1.0000 0.47440  0.09557  0.00702  Biso   1.000  O
  O22      1.0000 0.49774  0.10576  0.50790  Biso   1.000  O
  O23      1.0000 0.50643  0.59863  0.00119  Biso   1.000  O
  O24      1.0000 0.49670  0.60597  0.50028  Biso   1.000  O
  O25      1.0000 0.49381  0.34759  0.00021  Biso   1.000  O
  O26      1.0000 0.50699  0.35607  0.49956  Biso   1.000  O
  O27      1.0000 0.54926  0.84466  0.98020  Biso   1.000  O
  O28      1.0000 0.51161  0.85499  0.49130  Biso   1.000  O
  O29      1.0000 0.50649  0.40205  0.24865  Biso   1.000  O
  O30      1.0000 0.49669  0.39472  0.74957  Biso   1.000  O
  O31      1.0000 0.47433  0.90509  0.24280  Biso   1.000  O
  O32      1.0000 0.49778  0.89494  0.74194  Biso   1.000  O
