data_image0
_cell_length_a       10.2033
_cell_length_b       5.15714
_cell_length_c       10.5014
_cell_angle_alpha    90.3337
_cell_angle_beta     80.3377
_cell_angle_gamma    89.7646

_symmetry_space_group_name_H-M    "P 1"
_symmetry_int_tables_number       1

loop_
  _symmetry_equiv_pos_as_xyz
  'x, y, z'

loop_
  _atom_site_label
  _atom_site_occupancy
  _atom_site_fract_x
  _atom_site_fract_y
  _atom_site_fract_z
  _atom_site_thermal_displace_type
  _atom_site_B_iso_or_equiv
  _atom_site_type_symbol
  Zn1      1.0000 0.12809  0.02429  0.15665  Biso   1.000  Zn
  Zr1      1.0000 0.13965  0.04082  0.64424  Biso   1.000  Zr
  Zr2      1.0000 0.63873  0.04175  0.14494  Biso   1.000  Zr
  Zr3      1.0000 0.63810  0.04329  0.64631  Biso   1.000  Zr
  Zr4      1.0000 0.14018  0.45150  0.39119  Biso   1.000  Zr
  Zr5      1.0000 0.14066  0.45960  0.89732  Biso   1.000  Zr
  Zr6      1.0000 0.63825  0.45708  0.39492  Biso   1.000  Zr
  Zr7      1.0000 0.63889  0.46188  0.89733  Biso   1.000  Zr
  Zr8      1.0000 0.35435  0.54109  0.10501  Biso   1.000  Zr
  Zr9      1.0000 0.36031  0.54472  0.60470  Biso   1.000  Zr
  Zr10     1.0000 0.86760  0.53485  0.10457  Biso   1.000  Zr
  Zr11     1.0000 0.85972  0.54068  0.60441  Biso   1.000  Zr
  Zr12     1.0000 0.35800  0.95500  0.35101  Biso   1.000  Zr
  Zr13     1.0000 0.35922  0.96750  0.85736  Biso   1.000  Zr
  Zr14     1.0000 0.85954  0.95438  0.35546  Biso   1.000  Zr
  Zr15     1.0000 0.86153  0.95794  0.85535  Biso   1.000  Zr
  O1       1.0000 0.04169  0.33841  0.07974  Biso   1.000  O
  O2       1.0000 0.03238  0.32663  0.57601  Biso   1.000  O
  O3       1.0000 0.53385  0.33408  0.07866  Biso   1.000  O
  O4       1.0000 0.53355  0.33437  0.57847  Biso   1.000  O
  O5       1.0000 0.03476  0.15251  0.33414  Biso   1.000  O
  O6       1.0000 0.03353  0.17113  0.82716  Biso   1.000  O
  O7       1.0000 0.53204  0.16831  0.32748  Biso   1.000  O
  O8       1.0000 0.53608  0.16950  0.82873  Biso   1.000  O
  O9       1.0000 0.46884  0.82708  0.17151  Biso   1.000  O
  O10      1.0000 0.46538  0.83576  0.67203  Biso   1.000  O
  O11      1.0000 0.96161  0.83981  0.17136  Biso   1.000  O
  O12      1.0000 0.96652  0.82931  0.67151  Biso   1.000  O
  O13      1.0000 0.46627  0.66927  0.42206  Biso   1.000  O
  O14      1.0000 0.46673  0.67676  0.92276  Biso   1.000  O
  O15      1.0000 0.96364  0.65718  0.41960  Biso   1.000  O
  O16      1.0000 0.96598  0.66766  0.92218  Biso   1.000  O
  O17      1.0000 0.27167  0.24074  0.23514  Biso   1.000  O
  O18      1.0000 0.27423  0.25733  0.73622  Biso   1.000  O
  O19      1.0000 0.77518  0.25515  0.24121  Biso   1.000  O
  O20      1.0000 0.77606  0.25874  0.74074  Biso   1.000  O
  O21      1.0000 0.27596  0.24321  0.48785  Biso   1.000  O
  O22      1.0000 0.29033  0.27791  0.97526  Biso   1.000  O
  O23      1.0000 0.77405  0.24138  0.49111  Biso   1.000  O
  O24      1.0000 0.77616  0.24332  0.99073  Biso   1.000  O
  O25      1.0000 0.22477  0.78402  0.01383  Biso   1.000  O
  O26      1.0000 0.22321  0.75513  0.50965  Biso   1.000  O
  O27      1.0000 0.72627  0.75670  0.00996  Biso   1.000  O
  O28      1.0000 0.72336  0.75568  0.51059  Biso   1.000  O
  O29      1.0000 0.22841  0.72483  0.26235  Biso   1.000  O
  O30      1.0000 0.22491  0.74567  0.76079  Biso   1.000  O
  O31      1.0000 0.72530  0.74113  0.26028  Biso   1.000  O
  O32      1.0000 0.72449  0.74494  0.76011  Biso   1.000  O
