data_image0
_cell_length_a       10.1102
_cell_length_b       10.2864
_cell_length_c       10.5034
_cell_angle_alpha    89.9222
_cell_angle_beta     90.2191
_cell_angle_gamma    89.9181

_symmetry_space_group_name_H-M    "P 1"
_symmetry_int_tables_number       1

loop_
  _symmetry_equiv_pos_as_xyz
  'x, y, z'

loop_
  _atom_site_label
  _atom_site_occupancy
  _atom_site_fract_x
  _atom_site_fract_y
  _atom_site_fract_z
  _atom_site_thermal_displace_type
  _atom_site_B_iso_or_equiv
  _atom_site_type_symbol
  Zn1      1.0000 0.12655  0.01451  0.18459  Biso   1.000  Zn
  Zr1      1.0000 0.13925  0.02050  0.66961  Biso   1.000  Zr
  Zr2      1.0000 0.14008  0.52171  0.17123  Biso   1.000  Zr
  Zr3      1.0000 0.13947  0.52100  0.67245  Biso   1.000  Zr
  Zr4      1.0000 0.13923  0.22937  0.41856  Biso   1.000  Zr
  Zr5      1.0000 0.14232  0.22480  0.92471  Biso   1.000  Zr
  Zr6      1.0000 0.13911  0.72987  0.41998  Biso   1.000  Zr
  Zr7      1.0000 0.14175  0.73188  0.92233  Biso   1.000  Zr
  Zr8      1.0000 0.35684  0.26697  0.16992  Biso   1.000  Zr
  Zr9      1.0000 0.36028  0.27097  0.67151  Biso   1.000  Zr
  Zr10     1.0000 0.35784  0.77488  0.16991  Biso   1.000  Zr
  Zr11     1.0000 0.36104  0.77156  0.67085  Biso   1.000  Zr
  Zr12     1.0000 0.36040  0.47892  0.42099  Biso   1.000  Zr
  Zr13     1.0000 0.36061  0.47818  0.92238  Biso   1.000  Zr
  Zr14     1.0000 0.35716  0.98025  0.41784  Biso   1.000  Zr
  Zr15     1.0000 0.35958  0.98010  0.92306  Biso   1.000  Zr
  Zr16     1.0000 0.64012  0.02138  0.07812  Biso   1.000  Zr
  Zr17     1.0000 0.63692  0.02090  0.57795  Biso   1.000  Zr
  Zr18     1.0000 0.63904  0.51978  0.07880  Biso   1.000  Zr
  Zr19     1.0000 0.63874  0.52104  0.57889  Biso   1.000  Zr
  Zr20     1.0000 0.63803  0.22965  0.32780  Biso   1.000  Zr
  Zr21     1.0000 0.63993  0.22940  0.82920  Biso   1.000  Zr
  Zr22     1.0000 0.63752  0.72923  0.32714  Biso   1.000  Zr
  Zr23     1.0000 0.63903  0.72917  0.82895  Biso   1.000  Zr
  Zr24     1.0000 0.86733  0.26699  0.08039  Biso   1.000  Zr
  Zr25     1.0000 0.85953  0.27142  0.57825  Biso   1.000  Zr
  Zr26     1.0000 0.86251  0.77210  0.07891  Biso   1.000  Zr
  Zr27     1.0000 0.86031  0.77015  0.57882  Biso   1.000  Zr
  Zr28     1.0000 0.86056  0.47971  0.32861  Biso   1.000  Zr
  Zr29     1.0000 0.86252  0.47819  0.83053  Biso   1.000  Zr
  Zr30     1.0000 0.85973  0.97901  0.32969  Biso   1.000  Zr
  Zr31     1.0000 0.86087  0.97931  0.82825  Biso   1.000  Zr
  O1       1.0000 0.03911  0.16212  0.08643  Biso   1.000  O
  O2       1.0000 0.03141  0.16553  0.58349  Biso   1.000  O
  O3       1.0000 0.03293  0.66549  0.08328  Biso   1.000  O
  O4       1.0000 0.03191  0.66421  0.58416  Biso   1.000  O
  O5       1.0000 0.02816  0.08394  0.34704  Biso   1.000  O
  O6       1.0000 0.03195  0.08591  0.83136  Biso   1.000  O
  O7       1.0000 0.03180  0.58606  0.33305  Biso   1.000  O
  O8       1.0000 0.03300  0.58501  0.83450  Biso   1.000  O
  O9       1.0000 0.46814  0.41264  0.08302  Biso   1.000  O
  O10      1.0000 0.46777  0.41478  0.58325  Biso   1.000  O
  O11      1.0000 0.47150  0.91314  0.08175  Biso   1.000  O
  O12      1.0000 0.46655  0.91457  0.58166  Biso   1.000  O
  O13      1.0000 0.46707  0.33535  0.33362  Biso   1.000  O
  O14      1.0000 0.46926  0.33619  0.83244  Biso   1.000  O
  O15      1.0000 0.46758  0.83781  0.33138  Biso   1.000  O
  O16      1.0000 0.46860  0.83600  0.83197  Biso   1.000  O
  O17      1.0000 0.27313  0.12421  0.29399  Biso   1.000  O
  O18      1.0000 0.27473  0.12272  0.79123  Biso   1.000  O
  O19      1.0000 0.27558  0.62435  0.29489  Biso   1.000  O
  O20      1.0000 0.27591  0.62456  0.79549  Biso   1.000  O
  O21      1.0000 0.29117  0.13613  0.03399  Biso   1.000  O
  O22      1.0000 0.27479  0.12654  0.54340  Biso   1.000  O
  O23      1.0000 0.27602  0.62564  0.04543  Biso   1.000  O
  O24      1.0000 0.27509  0.62603  0.54520  Biso   1.000  O
  O25      1.0000 0.22377  0.37490  0.29536  Biso   1.000  O
  O26      1.0000 0.22582  0.37366  0.79608  Biso   1.000  O
  O27      1.0000 0.22318  0.87259  0.29456  Biso   1.000  O
  O28      1.0000 0.22450  0.87425  0.79309  Biso   1.000  O
  O29      1.0000 0.22275  0.37858  0.04594  Biso   1.000  O
  O30      1.0000 0.22417  0.37613  0.54546  Biso   1.000  O
  O31      1.0000 0.22893  0.87508  0.04151  Biso   1.000  O
  O32      1.0000 0.22367  0.87621  0.54407  Biso   1.000  O
  O33      1.0000 0.53297  0.16458  0.16626  Biso   1.000  O
  O34      1.0000 0.53197  0.16517  0.66624  Biso   1.000  O
  O35      1.0000 0.53055  0.66337  0.16673  Biso   1.000  O
  O36      1.0000 0.53224  0.66451  0.66675  Biso   1.000  O
  O37      1.0000 0.53047  0.08561  0.41557  Biso   1.000  O
  O38      1.0000 0.53538  0.08418  0.91489  Biso   1.000  O
  O39      1.0000 0.53108  0.58631  0.41699  Biso   1.000  O
  O40      1.0000 0.53210  0.58522  0.91689  Biso   1.000  O
  O41      1.0000 0.96855  0.41501  0.16724  Biso   1.000  O
  O42      1.0000 0.96855  0.41322  0.66826  Biso   1.000  O
  O43      1.0000 0.96298  0.91590  0.16801  Biso   1.000  O
  O44      1.0000 0.96724  0.91484  0.66574  Biso   1.000  O
  O45      1.0000 0.96688  0.33701  0.41735  Biso   1.000  O
  O46      1.0000 0.97024  0.33424  0.91879  Biso   1.000  O
  O47      1.0000 0.96598  0.83325  0.41691  Biso   1.000  O
  O48      1.0000 0.96834  0.83545  0.91582  Biso   1.000  O
  O49      1.0000 0.77790  0.12382  0.95503  Biso   1.000  O
  O50      1.0000 0.77285  0.12526  0.45545  Biso   1.000  O
  O51      1.0000 0.77549  0.62368  0.95512  Biso   1.000  O
  O52      1.0000 0.77444  0.62437  0.45475  Biso   1.000  O
  O53      1.0000 0.77573  0.12557  0.20549  Biso   1.000  O
  O54      1.0000 0.77501  0.12589  0.70464  Biso   1.000  O
  O55      1.0000 0.77501  0.62611  0.20452  Biso   1.000  O
  O56      1.0000 0.77566  0.62519  0.70532  Biso   1.000  O
  O57      1.0000 0.72664  0.37321  0.95555  Biso   1.000  O
  O58      1.0000 0.72368  0.37525  0.45497  Biso   1.000  O
  O59      1.0000 0.72575  0.87417  0.95423  Biso   1.000  O
  O60      1.0000 0.72341  0.87429  0.45486  Biso   1.000  O
  O61      1.0000 0.72608  0.37521  0.20522  Biso   1.000  O
  O62      1.0000 0.72528  0.37599  0.70500  Biso   1.000  O
  O63      1.0000 0.72296  0.87537  0.20456  Biso   1.000  O
  O64      1.0000 0.72443  0.87555  0.70454  Biso   1.000  O
