data_image0
_cell_length_a       10.1582
_cell_length_b       5.19208
_cell_length_c       10.1582
_cell_angle_alpha    90.9426
_cell_angle_beta     87.1912
_cell_angle_gamma    90.9429

_symmetry_space_group_name_H-M    "P 1"
_symmetry_int_tables_number       1

loop_
  _symmetry_equiv_pos_as_xyz
  'x, y, z'

loop_
  _atom_site_label
  _atom_site_occupancy
  _atom_site_fract_x
  _atom_site_fract_y
  _atom_site_fract_z
  _atom_site_thermal_displace_type
  _atom_site_B_iso_or_equiv
  _atom_site_type_symbol
  Zr1      1.0000 0.12747  0.87609  0.12747  Biso   1.000  Zr
  Zr2      1.0000 0.13042  0.50100  0.37123  Biso   1.000  Zr
  Zr3      1.0000 0.37125  0.50099  0.13043  Biso   1.000  Zr
  Zr4      1.0000 0.38417  0.01031  0.38415  Biso   1.000  Zr
  O1       1.0000 0.98766  0.31484  0.98764  Biso   1.000  O
  O2       1.0000 0.03978  0.16048  0.25602  Biso   1.000  O
  O3       1.0000 0.98109  0.68658  0.25713  Biso   1.000  O
  O4       1.0000 0.98906  0.80334  0.98906  Biso   1.000  O
  O5       1.0000 0.29692  0.32297  0.29693  Biso   1.000  O
  O6       1.0000 0.25603  0.16046  0.03979  Biso   1.000  O
  O7       1.0000 0.25713  0.68656  0.98109  Biso   1.000  O
  O8       1.0000 0.26119  0.80760  0.26120  Biso   1.000  O
  Zr5      1.0000 0.11624  0.99310  0.61597  Biso   1.000  Zr
  Zr6      1.0000 0.10893  0.52948  0.85050  Biso   1.000  Zr
  Zr7      1.0000 0.37034  0.50469  0.62555  Biso   1.000  Zr
  Zr8      1.0000 0.36578  0.00370  0.87813  Biso   1.000  Zr
  O9       1.0000 0.00210  0.29089  0.49684  Biso   1.000  O
  O10      1.0000 0.00385  0.22334  0.74576  Biso   1.000  O
  O11      1.0000 0.98628  0.72392  0.73857  Biso   1.000  O
  O12      1.0000 0.00200  0.79333  0.49174  Biso   1.000  O
  O13      1.0000 0.26051  0.31535  0.77732  Biso   1.000  O
  O14      1.0000 0.26127  0.19833  0.52685  Biso   1.000  O
  O15      1.0000 0.24969  0.70067  0.50561  Biso   1.000  O
  O16      1.0000 0.23554  0.81573  0.74918  Biso   1.000  O
  Zr9      1.0000 0.61597  0.99310  0.11624  Biso   1.000  Zr
  Zr10     1.0000 0.62556  0.50471  0.37034  Biso   1.000  Zr
  Zr11     1.0000 0.85051  0.52946  0.10894  Biso   1.000  Zr
  Zr12     1.0000 0.87813  0.00370  0.36578  Biso   1.000  Zr
  O17      1.0000 0.49685  0.29090  0.00209  Biso   1.000  O
  O18      1.0000 0.52684  0.19839  0.26125  Biso   1.000  O
  O19      1.0000 0.50560  0.70071  0.24971  Biso   1.000  O
  O20      1.0000 0.49174  0.79334  0.00200  Biso   1.000  O
  O21      1.0000 0.77732  0.31535  0.26051  Biso   1.000  O
  O22      1.0000 0.74578  0.22330  0.00386  Biso   1.000  O
  O23      1.0000 0.73856  0.72389  0.98629  Biso   1.000  O
  O24      1.0000 0.74917  0.81572  0.23555  Biso   1.000  O
  Zr13     1.0000 0.62340  0.00851  0.62340  Biso   1.000  Zr
  Zr14     1.0000 0.60937  0.50735  0.86804  Biso   1.000  Zr
  Zr15     1.0000 0.86805  0.50732  0.60937  Biso   1.000  Zr
  Zr16     1.0000 0.86630  0.02089  0.86630  Biso   1.000  Zr
  O25      1.0000 0.50578  0.30318  0.50577  Biso   1.000  O
  O26      1.0000 0.50380  0.20965  0.75399  Biso   1.000  O
  O27      1.0000 0.48761  0.71244  0.75534  Biso   1.000  O
  O28      1.0000 0.50426  0.79609  0.50427  Biso   1.000  O
  O29      1.0000 0.75401  0.31233  0.75401  Biso   1.000  O
  O30      1.0000 0.75400  0.20963  0.50381  Biso   1.000  O
  O31      1.0000 0.75534  0.71244  0.48762  Biso   1.000  O
  O32      1.0000 0.74208  0.81112  0.74210  Biso   1.000  O
  Zn1      1.0000 0.11658  0.37833  0.11656  Biso   1.000  Zn
