data_image0
_cell_length_a       10.2478
_cell_length_b       10.3553
_cell_length_c       10.5609
_cell_angle_alpha    90.1635
_cell_angle_beta     79.62
_cell_angle_gamma    90.035

_symmetry_space_group_name_H-M    "P 1"
_symmetry_int_tables_number       1

loop_
  _symmetry_equiv_pos_as_xyz
  'x, y, z'

loop_
  _atom_site_label
  _atom_site_occupancy
  _atom_site_fract_x
  _atom_site_fract_y
  _atom_site_fract_z
  _atom_site_thermal_displace_type
  _atom_site_B_iso_or_equiv
  _atom_site_type_symbol
  Zr1      1.0000 0.13264  0.02107  0.14167  Biso   1.000  Zr
  Zr2      1.0000 0.14225  0.23047  0.39022  Biso   1.000  Zr
  Zr3      1.0000 0.35279  0.27279  0.10321  Biso   1.000  Zr
  Zr4      1.0000 0.35835  0.47557  0.34607  Biso   1.000  Zr
  O1       1.0000 0.03033  0.16732  0.07620  Biso   1.000  O
  O2       1.0000 0.03129  0.08350  0.32763  Biso   1.000  O
  O3       1.0000 0.46035  0.43035  0.16048  Biso   1.000  O
  O4       1.0000 0.48654  0.34747  0.43793  Biso   1.000  O
  O5       1.0000 0.26630  0.11380  0.23363  Biso   1.000  O
  O6       1.0000 0.28387  0.12042  0.48536  Biso   1.000  O
  O7       1.0000 0.21961  0.38153  0.00434  Biso   1.000  O
  O8       1.0000 0.20306  0.37719  0.25106  Biso   1.000  O
  Zr5      1.0000 0.13900  0.02174  0.64455  Biso   1.000  Zr
  Zr6      1.0000 0.13665  0.22967  0.89381  Biso   1.000  Zr
  Zr7      1.0000 0.36382  0.27383  0.60968  Biso   1.000  Zr
  Zr8      1.0000 0.36069  0.47911  0.85630  Biso   1.000  Zr
  O9       1.0000 0.04027  0.16783  0.57627  Biso   1.000  O
  O10      1.0000 0.03332  0.08404  0.82632  Biso   1.000  O
  O11      1.0000 0.46860  0.41477  0.67876  Biso   1.000  O
  O12      1.0000 0.46423  0.33340  0.92280  Biso   1.000  O
  O13      1.0000 0.27534  0.12864  0.73851  Biso   1.000  O
  O14      1.0000 0.27159  0.12317  0.98663  Biso   1.000  O
  O15      1.0000 0.22961  0.37622  0.50898  Biso   1.000  O
  O16      1.0000 0.22528  0.37225  0.75850  Biso   1.000  O
  Zr9      1.0000 0.13611  0.52326  0.14198  Biso   1.000  Zr
  Zr10     1.0000 0.13715  0.72430  0.39585  Biso   1.000  Zr
  Zr11     1.0000 0.36007  0.77110  0.10370  Biso   1.000  Zr
  Zr12     1.0000 0.35564  0.96644  0.35433  Biso   1.000  Zr
  O17      1.0000 0.03070  0.66931  0.07619  Biso   1.000  O
  O18      1.0000 0.03051  0.58597  0.32584  Biso   1.000  O
  O19      1.0000 0.46609  0.91561  0.17456  Biso   1.000  O
  O20      1.0000 0.46532  0.83201  0.42337  Biso   1.000  O
  O21      1.0000 0.27351  0.62720  0.23947  Biso   1.000  O
  O22      1.0000 0.27360  0.61995  0.48967  Biso   1.000  O
  O23      1.0000 0.22405  0.87893  0.00897  Biso   1.000  O
  O24      1.0000 0.22223  0.86578  0.25948  Biso   1.000  O
  Zr13     1.0000 0.14067  0.52145  0.64448  Biso   1.000  Zr
  Zr14     1.0000 0.13671  0.72944  0.89523  Biso   1.000  Zr
  Zr15     1.0000 0.36099  0.76997  0.60543  Biso   1.000  Zr
  Zr16     1.0000 0.36011  0.97864  0.85459  Biso   1.000  Zr
  O25      1.0000 0.03181  0.66385  0.57838  Biso   1.000  O
  O26      1.0000 0.03397  0.58407  0.82762  Biso   1.000  O
  O27      1.0000 0.46628  0.91497  0.67308  Biso   1.000  O
  O28      1.0000 0.46547  0.83517  0.92263  Biso   1.000  O
  O29      1.0000 0.27556  0.62808  0.74008  Biso   1.000  O
  O30      1.0000 0.27448  0.62410  0.98983  Biso   1.000  O
  O31      1.0000 0.22264  0.87646  0.51005  Biso   1.000  O
  O32      1.0000 0.22405  0.87170  0.75920  Biso   1.000  O
  Zr17     1.0000 0.63923  0.02169  0.14661  Biso   1.000  Zr
  Zr18     1.0000 0.65536  0.23012  0.40650  Biso   1.000  Zr
  Zr19     1.0000 0.85866  0.27288  0.10582  Biso   1.000  Zr
  Zr20     1.0000 0.86252  0.47876  0.35445  Biso   1.000  Zr
  O33      1.0000 0.53117  0.16838  0.08421  Biso   1.000  O
  O34      1.0000 0.53260  0.08651  0.33307  Biso   1.000  O
  O35      1.0000 0.96005  0.42085  0.16880  Biso   1.000  O
  O36      1.0000 0.96665  0.33416  0.42228  Biso   1.000  O
  O37      1.0000 0.77497  0.12825  0.24409  Biso   1.000  O
  O38      1.0000 0.78149  0.11888  0.49574  Biso   1.000  O
  O39      1.0000 0.72273  0.37907  0.01245  Biso   1.000  O
  O40      1.0000 0.72293  0.37103  0.26349  Biso   1.000  O
  Zr21     1.0000 0.63910  0.02025  0.64916  Biso   1.000  Zr
  Zr22     1.0000 0.63643  0.22978  0.89890  Biso   1.000  Zr
  Zr23     1.0000 0.86714  0.27146  0.60847  Biso   1.000  Zr
  Zr24     1.0000 0.86090  0.47916  0.85622  Biso   1.000  Zr
  O41      1.0000 0.53697  0.16501  0.58102  Biso   1.000  O
  O42      1.0000 0.53321  0.08318  0.83109  Biso   1.000  O
  O43      1.0000 0.96862  0.41619  0.67364  Biso   1.000  O
  O44      1.0000 0.96325  0.33317  0.92148  Biso   1.000  O
  O45      1.0000 0.77531  0.12943  0.74336  Biso   1.000  O
  O46      1.0000 0.77289  0.12189  0.99291  Biso   1.000  O
  O47      1.0000 0.73078  0.37721  0.51545  Biso   1.000  O
  O48      1.0000 0.72577  0.37203  0.76309  Biso   1.000  O
  Zr25     1.0000 0.63603  0.52354  0.14628  Biso   1.000  Zr
  Zr26     1.0000 0.63824  0.72599  0.39623  Biso   1.000  Zr
  Zr27     1.0000 0.85786  0.77131  0.10474  Biso   1.000  Zr
  Zr28     1.0000 0.86247  0.97576  0.35578  Biso   1.000  Zr
  O49      1.0000 0.53509  0.67195  0.07891  Biso   1.000  O
  O50      1.0000 0.53164  0.58420  0.32748  Biso   1.000  O
  O51      1.0000 0.96227  0.91423  0.17363  Biso   1.000  O
  O52      1.0000 0.96588  0.83231  0.42342  Biso   1.000  O
  O53      1.0000 0.77408  0.62991  0.24138  Biso   1.000  O
  O54      1.0000 0.77411  0.62048  0.49099  Biso   1.000  O
  O55      1.0000 0.72354  0.88019  0.01067  Biso   1.000  O
  O56      1.0000 0.72087  0.87250  0.26177  Biso   1.000  O
  Zr29     1.0000 0.63939  0.52216  0.64821  Biso   1.000  Zr
  Zr30     1.0000 0.63769  0.72971  0.89656  Biso   1.000  Zr
  Zr31     1.0000 0.86127  0.77158  0.60513  Biso   1.000  Zr
  Zr32     1.0000 0.86063  0.97954  0.85510  Biso   1.000  Zr
  O57      1.0000 0.53275  0.66436  0.57919  Biso   1.000  O
  O58      1.0000 0.53347  0.58517  0.82984  Biso   1.000  O
  O59      1.0000 0.96604  0.91716  0.67159  Biso   1.000  O
  O60      1.0000 0.96487  0.83538  0.92169  Biso   1.000  O
  O61      1.0000 0.77518  0.62884  0.74085  Biso   1.000  O
  O62      1.0000 0.77400  0.62228  0.99051  Biso   1.000  O
  O63      1.0000 0.72368  0.87746  0.51158  Biso   1.000  O
  O64      1.0000 0.72509  0.87199  0.76129  Biso   1.000  O
  Zn1      1.0000 0.41915  0.22897  0.32072  Biso   1.000  Zn
