data_image0
_cell_length_a       10.1502
_cell_length_b       10.3576
_cell_length_c       5.29265
_cell_angle_alpha    89.8377
_cell_angle_beta     91.4774
_cell_angle_gamma    89.9809

_symmetry_space_group_name_H-M    "P 1"
_symmetry_int_tables_number       1

loop_
  _symmetry_equiv_pos_as_xyz
  'x, y, z'

loop_
  _atom_site_label
  _atom_site_occupancy
  _atom_site_fract_x
  _atom_site_fract_y
  _atom_site_fract_z
  _atom_site_thermal_displace_type
  _atom_site_B_iso_or_equiv
  _atom_site_type_symbol
  Zr1      1.0000 0.13893  0.02005  0.34765  Biso   1.000  Zr
  Zr2      1.0000 0.13537  0.22641  0.85510  Biso   1.000  Zr
  Zr3      1.0000 0.34860  0.26875  0.37608  Biso   1.000  Zr
  Zr4      1.0000 0.36005  0.48080  0.85082  Biso   1.000  Zr
  Zr5      1.0000 0.64320  0.02260  0.14613  Biso   1.000  Zr
  Zr6      1.0000 0.64434  0.22546  0.66761  Biso   1.000  Zr
  Zr7      1.0000 0.85745  0.26856  0.14828  Biso   1.000  Zr
  Zr8      1.0000 0.86636  0.48029  0.64883  Biso   1.000  Zr
  O1       1.0000 0.03313  0.16480  0.17176  Biso   1.000  O
  O2       1.0000 0.03617  0.08184  0.66801  Biso   1.000  O
  O3       1.0000 0.47045  0.41364  0.17906  Biso   1.000  O
  O4       1.0000 0.46776  0.33469  0.68437  Biso   1.000  O
  O5       1.0000 0.27216  0.12506  0.60549  Biso   1.000  O
  O6       1.0000 0.27605  0.12403  0.10292  Biso   1.000  O
  O7       1.0000 0.22174  0.37515  0.60652  Biso   1.000  O
  O8       1.0000 0.22615  0.37571  0.10542  Biso   1.000  O
  O9       1.0000 0.51611  0.15246  0.37083  Biso   1.000  O
  O10      1.0000 0.53408  0.07252  0.82490  Biso   1.000  O
  O11      1.0000 0.96581  0.41426  0.33242  Biso   1.000  O
  O12      1.0000 0.96988  0.33427  0.83329  Biso   1.000  O
  O13      1.0000 0.79300  0.11711  0.89266  Biso   1.000  O
  O14      1.0000 0.77745  0.12442  0.40644  Biso   1.000  O
  O15      1.0000 0.73680  0.39043  0.89182  Biso   1.000  O
  O16      1.0000 0.71903  0.37621  0.39880  Biso   1.000  O
  Zr9      1.0000 0.13719  0.52101  0.34291  Biso   1.000  Zr
  Zr10     1.0000 0.14048  0.72922  0.84417  Biso   1.000  Zr
  Zr11     1.0000 0.36224  0.77169  0.34836  Biso   1.000  Zr
  Zr12     1.0000 0.36289  0.97608  0.85324  Biso   1.000  Zr
  Zr13     1.0000 0.64537  0.53340  0.15164  Biso   1.000  Zr
  Zr14     1.0000 0.64045  0.73190  0.65405  Biso   1.000  Zr
  Zr15     1.0000 0.86484  0.77350  0.15464  Biso   1.000  Zr
  Zr16     1.0000 0.86397  0.97702  0.65275  Biso   1.000  Zr
  O17      1.0000 0.03441  0.66418  0.16451  Biso   1.000  O
  O18      1.0000 0.03553  0.58518  0.66595  Biso   1.000  O
  O19      1.0000 0.47050  0.91150  0.16905  Biso   1.000  O
  O20      1.0000 0.46840  0.83248  0.66900  Biso   1.000  O
  O21      1.0000 0.27606  0.62329  0.59196  Biso   1.000  O
  O22      1.0000 0.27622  0.62396  0.09361  Biso   1.000  O
  O23      1.0000 0.22676  0.87341  0.59600  Biso   1.000  O
  O24      1.0000 0.22509  0.87382  0.09716  Biso   1.000  O
  O25      1.0000 0.53305  0.66370  0.33703  Biso   1.000  O
  O26      1.0000 0.53100  0.58819  0.83948  Biso   1.000  O
  O27      1.0000 0.97068  0.91463  0.33046  Biso   1.000  O
  O28      1.0000 0.97016  0.83331  0.83316  Biso   1.000  O
  O29      1.0000 0.77668  0.63074  0.90403  Biso   1.000  O
  O30      1.0000 0.77904  0.62828  0.40448  Biso   1.000  O
  O31      1.0000 0.72731  0.87563  0.90894  Biso   1.000  O
  O32      1.0000 0.72793  0.87379  0.40743  Biso   1.000  O
  Zn1      1.0000 0.58239  0.27072  0.12135  Biso   1.000  Zn
