data_image0
_cell_length_a       10.04
_cell_length_b       5.19224
_cell_length_c       10.0862
_cell_angle_alpha    90.4567
_cell_angle_beta     89.4572
_cell_angle_gamma    90.1047

_symmetry_space_group_name_H-M    "P 1"
_symmetry_int_tables_number       1

loop_
  _symmetry_equiv_pos_as_xyz
  'x, y, z'

loop_
  _atom_site_label
  _atom_site_occupancy
  _atom_site_fract_x
  _atom_site_fract_y
  _atom_site_fract_z
  _atom_site_thermal_displace_type
  _atom_site_B_iso_or_equiv
  _atom_site_type_symbol
  Zn1      1.0000 0.12377  0.04852  0.11151  Biso   1.000  Zn
  Zr1      1.0000 0.13487  0.03541  0.62864  Biso   1.000  Zr
  Zr2      1.0000 0.63435  0.03090  0.12535  Biso   1.000  Zr
  Zr3      1.0000 0.63086  0.02941  0.62256  Biso   1.000  Zr
  Zr4      1.0000 0.13671  0.46026  0.37387  Biso   1.000  Zr
  Zr5      1.0000 0.13339  0.47662  0.88011  Biso   1.000  Zr
  Zr6      1.0000 0.63491  0.46969  0.37533  Biso   1.000  Zr
  Zr7      1.0000 0.63154  0.46931  0.87393  Biso   1.000  Zr
  Zr8      1.0000 0.36290  0.52467  0.12782  Biso   1.000  Zr
  Zr9      1.0000 0.36524  0.53621  0.62805  Biso   1.000  Zr
  Zr10     1.0000 0.86713  0.53212  0.12104  Biso   1.000  Zr
  Zr11     1.0000 0.86557  0.53045  0.62257  Biso   1.000  Zr
  Zr12     1.0000 0.36192  0.96594  0.37303  Biso   1.000  Zr
  Zr13     1.0000 0.36067  0.97388  0.88150  Biso   1.000  Zr
  Zr14     1.0000 0.87080  0.96894  0.37269  Biso   1.000  Zr
  Zr15     1.0000 0.86385  0.97199  0.87168  Biso   1.000  Zr
  O1       1.0000 0.03462  0.36495  0.19315  Biso   1.000  O
  O2       1.0000 0.03470  0.37390  0.69588  Biso   1.000  O
  O3       1.0000 0.53418  0.36408  0.19871  Biso   1.000  O
  O4       1.0000 0.53392  0.36723  0.69526  Biso   1.000  O
  O5       1.0000 0.03452  0.12998  0.45062  Biso   1.000  O
  O6       1.0000 0.03255  0.13868  0.93373  Biso   1.000  O
  O7       1.0000 0.53433  0.13462  0.44432  Biso   1.000  O
  O8       1.0000 0.53297  0.13661  0.94772  Biso   1.000  O
  O9       1.0000 0.47114  0.85945  0.19780  Biso   1.000  O
  O10      1.0000 0.46381  0.86956  0.69941  Biso   1.000  O
  O11      1.0000 0.97624  0.85615  0.19639  Biso   1.000  O
  O12      1.0000 0.96350  0.86807  0.69164  Biso   1.000  O
  O13      1.0000 0.46984  0.63849  0.45236  Biso   1.000  O
  O14      1.0000 0.46103  0.63614  0.94475  Biso   1.000  O
  O15      1.0000 0.96531  0.62808  0.44182  Biso   1.000  O
  O16      1.0000 0.96096  0.63800  0.94183  Biso   1.000  O
  O17      1.0000 0.26661  0.21537  0.24590  Biso   1.000  O
  O18      1.0000 0.26984  0.24064  0.75012  Biso   1.000  O
  O19      1.0000 0.77164  0.23035  0.24591  Biso   1.000  O
  O20      1.0000 0.76704  0.23352  0.74558  Biso   1.000  O
  O21      1.0000 0.27104  0.26594  0.49913  Biso   1.000  O
  O22      1.0000 0.26907  0.27538  0.99637  Biso   1.000  O
  O23      1.0000 0.76868  0.26783  0.49618  Biso   1.000  O
  O24      1.0000 0.76804  0.26788  0.99594  Biso   1.000  O
  O25      1.0000 0.22979  0.76521  0.50408  Biso   1.000  O
  O26      1.0000 0.22668  0.77542  0.00938  Biso   1.000  O
  O27      1.0000 0.73346  0.76922  0.49622  Biso   1.000  O
  O28      1.0000 0.72816  0.76618  0.99665  Biso   1.000  O
  O29      1.0000 0.24570  0.70402  0.26142  Biso   1.000  O
  O30      1.0000 0.22888  0.74072  0.75399  Biso   1.000  O
  O31      1.0000 0.73468  0.73166  0.24626  Biso   1.000  O
  O32      1.0000 0.72869  0.73284  0.74594  Biso   1.000  O
