data_image0
_cell_length_a       5.07132
_cell_length_b       10.443
_cell_length_c       10.1378
_cell_angle_alpha    89.1973
_cell_angle_beta     89.8506
_cell_angle_gamma    90.4118

_symmetry_space_group_name_H-M    "P 1"
_symmetry_int_tables_number       1

loop_
  _symmetry_equiv_pos_as_xyz
  'x, y, z'

loop_
  _atom_site_label
  _atom_site_occupancy
  _atom_site_fract_x
  _atom_site_fract_y
  _atom_site_fract_z
  _atom_site_thermal_displace_type
  _atom_site_B_iso_or_equiv
  _atom_site_type_symbol
  Zr1      1.0000 0.27275  0.00515  0.10761  Biso   1.000  Zr
  Zr2      1.0000 0.25599  0.23126  0.39469  Biso   1.000  Zr
  Zr3      1.0000 0.64874  0.25844  0.12479  Biso   1.000  Zr
  Zr4      1.0000 0.74170  0.48540  0.37458  Biso   1.000  Zr
  O1       1.0000 0.93956  0.17677  0.25304  Biso   1.000  O
  O2       1.0000 0.06796  0.06674  0.46340  Biso   1.000  O
  O3       1.0000 0.92416  0.42612  0.18783  Biso   1.000  O
  O4       1.0000 0.94760  0.33048  0.46165  Biso   1.000  O
  O5       1.0000 0.46538  0.11056  0.25270  Biso   1.000  O
  O6       1.0000 0.55032  0.13801  0.49915  Biso   1.000  O
  O7       1.0000 0.47600  0.38587  0.50048  Biso   1.000  O
  O8       1.0000 0.42667  0.37089  0.25543  Biso   1.000  O
  Zr5      1.0000 0.28628  0.01287  0.62746  Biso   1.000  Zr
  Zr6      1.0000 0.27699  0.23002  0.87194  Biso   1.000  Zr
  Zr7      1.0000 0.74428  0.26693  0.63039  Biso   1.000  Zr
  Zr8      1.0000 0.74376  0.48478  0.87572  Biso   1.000  Zr
  O9       1.0000 0.08136  0.18197  0.69468  Biso   1.000  O
  O10      1.0000 0.09884  0.05598  0.92811  Biso   1.000  O
  O11      1.0000 0.94847  0.43172  0.70507  Biso   1.000  O
  O12      1.0000 0.92340  0.31100  0.94735  Biso   1.000  O
  O13      1.0000 0.55144  0.11505  0.74732  Biso   1.000  O
  O14      1.0000 0.57953  0.11772  0.99137  Biso   1.000  O
  O15      1.0000 0.46135  0.39301  0.99446  Biso   1.000  O
  O16      1.0000 0.47511  0.36563  0.74869  Biso   1.000  O
  Zr9      1.0000 0.26727  0.52827  0.12591  Biso   1.000  Zr
  Zr10     1.0000 0.27850  0.74057  0.37573  Biso   1.000  Zr
  Zr11     1.0000 0.73815  0.76483  0.12338  Biso   1.000  Zr
  Zr12     1.0000 0.75079  0.99880  0.36184  Biso   1.000  Zr
  O17      1.0000 0.07422  0.68497  0.19821  Biso   1.000  O
  O18      1.0000 0.06993  0.57225  0.44531  Biso   1.000  O
  O19      1.0000 0.93187  0.93647  0.18580  Biso   1.000  O
  O20      1.0000 0.94042  0.82362  0.43749  Biso   1.000  O
  O21      1.0000 0.54710  0.61790  0.24738  Biso   1.000  O
  O22      1.0000 0.54344  0.63514  0.49544  Biso   1.000  O
  O23      1.0000 0.47693  0.88931  0.49303  Biso   1.000  O
  O24      1.0000 0.47285  0.86497  0.24253  Biso   1.000  O
  Zr13     1.0000 0.27519  0.51400  0.62407  Biso   1.000  Zr
  Zr14     1.0000 0.27612  0.73304  0.86879  Biso   1.000  Zr
  Zr15     1.0000 0.74832  0.76644  0.61607  Biso   1.000  Zr
  Zr16     1.0000 0.75181  0.97820  0.86878  Biso   1.000  Zr
  O25      1.0000 0.07752  0.68144  0.69193  Biso   1.000  O
  O26      1.0000 0.07124  0.57066  0.94881  Biso   1.000  O
  O27      1.0000 0.95158  0.92642  0.69447  Biso   1.000  O
  O28      1.0000 0.94957  0.81521  0.94805  Biso   1.000  O
  O29      1.0000 0.54434  0.61372  0.74600  Biso   1.000  O
  O30      1.0000 0.54061  0.63539  0.99717  Biso   1.000  O
  O31      1.0000 0.47645  0.87674  0.99217  Biso   1.000  O
  O32      1.0000 0.48332  0.86276  0.74331  Biso   1.000  O
  Zn1      1.0000 0.14274  0.26559  0.11819  Biso   1.000  Zn
