data_image0
_cell_length_a       10.208
_cell_length_b       10.3239
_cell_length_c       10.5045
_cell_angle_alpha    90.1062
_cell_angle_beta     80.3026
_cell_angle_gamma    89.8991

_symmetry_space_group_name_H-M    "P 1"
_symmetry_int_tables_number       1

loop_
  _symmetry_equiv_pos_as_xyz
  'x, y, z'

loop_
  _atom_site_label
  _atom_site_occupancy
  _atom_site_fract_x
  _atom_site_fract_y
  _atom_site_fract_z
  _atom_site_thermal_displace_type
  _atom_site_B_iso_or_equiv
  _atom_site_type_symbol
  Zn1      1.0000 0.12770  0.01223  0.15458  Biso   1.000  Zn
  Zr1      1.0000 0.13874  0.02093  0.64371  Biso   1.000  Zr
  Zr2      1.0000 0.13998  0.52176  0.14467  Biso   1.000  Zr
  Zr3      1.0000 0.14009  0.52135  0.64626  Biso   1.000  Zr
  Zr4      1.0000 0.63910  0.02192  0.14563  Biso   1.000  Zr
  Zr5      1.0000 0.63876  0.02163  0.64577  Biso   1.000  Zr
  Zr6      1.0000 0.63829  0.51957  0.14497  Biso   1.000  Zr
  Zr7      1.0000 0.63888  0.52141  0.64581  Biso   1.000  Zr
  Zr8      1.0000 0.13976  0.22736  0.39100  Biso   1.000  Zr
  Zr9      1.0000 0.14080  0.22553  0.89752  Biso   1.000  Zr
  Zr10     1.0000 0.13979  0.72791  0.39500  Biso   1.000  Zr
  Zr11     1.0000 0.14063  0.73274  0.89666  Biso   1.000  Zr
  Zr12     1.0000 0.63896  0.22871  0.39484  Biso   1.000  Zr
  Zr13     1.0000 0.63984  0.23027  0.89625  Biso   1.000  Zr
  Zr14     1.0000 0.63804  0.72892  0.39530  Biso   1.000  Zr
  Zr15     1.0000 0.63789  0.72916  0.89653  Biso   1.000  Zr
  Zr16     1.0000 0.35692  0.26633  0.10365  Biso   1.000  Zr
  Zr17     1.0000 0.35991  0.27127  0.60409  Biso   1.000  Zr
  Zr18     1.0000 0.35759  0.77465  0.10565  Biso   1.000  Zr
  Zr19     1.0000 0.36101  0.77254  0.60491  Biso   1.000  Zr
  Zr20     1.0000 0.86708  0.26733  0.10441  Biso   1.000  Zr
  Zr21     1.0000 0.86034  0.27169  0.60389  Biso   1.000  Zr
  Zr22     1.0000 0.86083  0.77178  0.10500  Biso   1.000  Zr
  Zr23     1.0000 0.86056  0.77024  0.60501  Biso   1.000  Zr
  Zr24     1.0000 0.36057  0.47801  0.35351  Biso   1.000  Zr
  Zr25     1.0000 0.36062  0.47906  0.85515  Biso   1.000  Zr
  Zr26     1.0000 0.35720  0.97897  0.35151  Biso   1.000  Zr
  Zr27     1.0000 0.35989  0.98219  0.85671  Biso   1.000  Zr
  Zr28     1.0000 0.86056  0.47879  0.35416  Biso   1.000  Zr
  Zr29     1.0000 0.86239  0.47851  0.85572  Biso   1.000  Zr
  Zr30     1.0000 0.86066  0.97775  0.35509  Biso   1.000  Zr
  Zr31     1.0000 0.86030  0.97912  0.85451  Biso   1.000  Zr
  O1       1.0000 0.03956  0.16637  0.07923  Biso   1.000  O
  O2       1.0000 0.03333  0.16625  0.57631  Biso   1.000  O
  O3       1.0000 0.03467  0.66855  0.07959  Biso   1.000  O
  O4       1.0000 0.03438  0.66695  0.58081  Biso   1.000  O
  O5       1.0000 0.53509  0.16760  0.07881  Biso   1.000  O
  O6       1.0000 0.53368  0.16727  0.57878  Biso   1.000  O
  O7       1.0000 0.53313  0.66654  0.07899  Biso   1.000  O
  O8       1.0000 0.53407  0.66743  0.57907  Biso   1.000  O
  O9       1.0000 0.03344  0.07899  0.33659  Biso   1.000  O
  O10      1.0000 0.03312  0.08373  0.82655  Biso   1.000  O
  O11      1.0000 0.03454  0.58186  0.32916  Biso   1.000  O
  O12      1.0000 0.03529  0.58356  0.83052  Biso   1.000  O
  O13      1.0000 0.53231  0.08430  0.32811  Biso   1.000  O
  O14      1.0000 0.53714  0.08297  0.82898  Biso   1.000  O
  O15      1.0000 0.53396  0.58224  0.32903  Biso   1.000  O
  O16      1.0000 0.53355  0.58437  0.82834  Biso   1.000  O
  O17      1.0000 0.46590  0.41473  0.17132  Biso   1.000  O
  O18      1.0000 0.46578  0.41716  0.67106  Biso   1.000  O
  O19      1.0000 0.46784  0.91606  0.17132  Biso   1.000  O
  O20      1.0000 0.46584  0.91779  0.67144  Biso   1.000  O
  O21      1.0000 0.96620  0.41833  0.17024  Biso   1.000  O
  O22      1.0000 0.96691  0.41635  0.67133  Biso   1.000  O
  O23      1.0000 0.96088  0.91746  0.17250  Biso   1.000  O
  O24      1.0000 0.96484  0.91723  0.67036  Biso   1.000  O
  O25      1.0000 0.46599  0.33348  0.42151  Biso   1.000  O
  O26      1.0000 0.46892  0.33688  0.92171  Biso   1.000  O
  O27      1.0000 0.46536  0.83373  0.42132  Biso   1.000  O
  O28      1.0000 0.46497  0.83437  0.92180  Biso   1.000  O
  O29      1.0000 0.96482  0.33226  0.41961  Biso   1.000  O
  O30      1.0000 0.96740  0.33286  0.92158  Biso   1.000  O
  O31      1.0000 0.96450  0.82983  0.42112  Biso   1.000  O
  O32      1.0000 0.96492  0.83298  0.92076  Biso   1.000  O
  O33      1.0000 0.27381  0.12547  0.23862  Biso   1.000  O
  O34      1.0000 0.27441  0.12739  0.73650  Biso   1.000  O
  O35      1.0000 0.27615  0.62598  0.23978  Biso   1.000  O
  O36      1.0000 0.27584  0.62997  0.74094  Biso   1.000  O
  O37      1.0000 0.77513  0.12773  0.24131  Biso   1.000  O
  O38      1.0000 0.77666  0.12949  0.74007  Biso   1.000  O
  O39      1.0000 0.77502  0.62837  0.24035  Biso   1.000  O
  O40      1.0000 0.77544  0.62848  0.74106  Biso   1.000  O
  O41      1.0000 0.27524  0.12223  0.48849  Biso   1.000  O
  O42      1.0000 0.28960  0.13292  0.97729  Biso   1.000  O
  O43      1.0000 0.27606  0.62114  0.49082  Biso   1.000  O
  O44      1.0000 0.27565  0.62373  0.99044  Biso   1.000  O
  O45      1.0000 0.77460  0.12171  0.49088  Biso   1.000  O
  O46      1.0000 0.77647  0.12129  0.99059  Biso   1.000  O
  O47      1.0000 0.77497  0.62104  0.49080  Biso   1.000  O
  O48      1.0000 0.77499  0.62135  0.99053  Biso   1.000  O
  O49      1.0000 0.22486  0.38124  0.00895  Biso   1.000  O
  O50      1.0000 0.22371  0.37852  0.50861  Biso   1.000  O
  O51      1.0000 0.22476  0.88419  0.01073  Biso   1.000  O
  O52      1.0000 0.22379  0.87846  0.51002  Biso   1.000  O
  O53      1.0000 0.72683  0.37816  0.00973  Biso   1.000  O
  O54      1.0000 0.72395  0.37877  0.50982  Biso   1.000  O
  O55      1.0000 0.72400  0.87876  0.00958  Biso   1.000  O
  O56      1.0000 0.72395  0.87820  0.51000  Biso   1.000  O
  O57      1.0000 0.22406  0.37045  0.25821  Biso   1.000  O
  O58      1.0000 0.22546  0.37119  0.75953  Biso   1.000  O
  O59      1.0000 0.22688  0.86538  0.26226  Biso   1.000  O
  O60      1.0000 0.22405  0.87281  0.75940  Biso   1.000  O
  O61      1.0000 0.72551  0.37065  0.25978  Biso   1.000  O
  O62      1.0000 0.72529  0.37234  0.75948  Biso   1.000  O
  O63      1.0000 0.72270  0.87105  0.26019  Biso   1.000  O
  O64      1.0000 0.72415  0.87143  0.75991  Biso   1.000  O
