data_image0
_cell_length_a       10.1066
_cell_length_b       5.14305
_cell_length_c       10.4395
_cell_angle_alpha    90.011
_cell_angle_beta     80.4022
_cell_angle_gamma    90.0142

_symmetry_space_group_name_H-M    "P 1"
_symmetry_int_tables_number       1

loop_
  _symmetry_equiv_pos_as_xyz
  'x, y, z'

loop_
  _atom_site_label
  _atom_site_occupancy
  _atom_site_fract_x
  _atom_site_fract_y
  _atom_site_fract_z
  _atom_site_thermal_displace_type
  _atom_site_B_iso_or_equiv
  _atom_site_type_symbol
  Zr1      1.0000 0.13860  0.04271  0.14533  Biso   1.000  Zr
  Hf1      1.0000 0.13898  0.45697  0.39605  Biso   1.000  Hf
  Hf2      1.0000 0.36142  0.54236  0.10415  Biso   1.000  Hf
  Hf3      1.0000 0.36108  0.95689  0.35424  Biso   1.000  Hf
  O1       1.0000 0.03619  0.34288  0.08078  Biso   1.000  O
  O2       1.0000 0.03567  0.16029  0.33171  Biso   1.000  O
  O3       1.0000 0.46369  0.84033  0.16911  Biso   1.000  O
  O4       1.0000 0.46367  0.65957  0.41927  Biso   1.000  O
  O5       1.0000 0.27719  0.25868  0.24110  Biso   1.000  O
  O6       1.0000 0.27666  0.24128  0.49077  Biso   1.000  O
  O7       1.0000 0.22412  0.75682  0.00864  Biso   1.000  O
  O8       1.0000 0.22392  0.74010  0.25968  Biso   1.000  O
  Hf4      1.0000 0.13890  0.04277  0.64585  Biso   1.000  Hf
  Hf5      1.0000 0.13887  0.45760  0.89551  Biso   1.000  Hf
  Hf6      1.0000 0.36111  0.54265  0.60415  Biso   1.000  Hf
  Hf7      1.0000 0.36139  0.95699  0.85398  Biso   1.000  Hf
  O9       1.0000 0.03640  0.34080  0.58129  Biso   1.000  O
  O10      1.0000 0.03643  0.15924  0.83115  Biso   1.000  O
  O11      1.0000 0.46382  0.84001  0.66917  Biso   1.000  O
  O12      1.0000 0.46434  0.66042  0.91921  Biso   1.000  O
  O13      1.0000 0.27670  0.25843  0.74052  Biso   1.000  O
  O14      1.0000 0.27728  0.24228  0.98992  Biso   1.000  O
  O15      1.0000 0.22328  0.75841  0.50948  Biso   1.000  O
  O16      1.0000 0.22331  0.74166  0.75922  Biso   1.000  O
  Hf8      1.0000 0.63878  0.04258  0.14590  Biso   1.000  Hf
  Hf9      1.0000 0.63871  0.45700  0.39590  Biso   1.000  Hf
  Hf10     1.0000 0.86034  0.54261  0.10408  Biso   1.000  Hf
  Hf11     1.0000 0.86085  0.95702  0.35443  Biso   1.000  Hf
  O17      1.0000 0.53648  0.34012  0.08076  Biso   1.000  O
  O18      1.0000 0.53630  0.15949  0.33086  Biso   1.000  O
  O19      1.0000 0.96247  0.84059  0.16942  Biso   1.000  O
  O20      1.0000 0.96377  0.65989  0.41919  Biso   1.000  O
  O21      1.0000 0.77664  0.25835  0.24065  Biso   1.000  O
  O22      1.0000 0.77655  0.24164  0.49072  Biso   1.000  O
  O23      1.0000 0.72321  0.75860  0.00928  Biso   1.000  O
  O24      1.0000 0.72269  0.74128  0.25946  Biso   1.000  O
  Hf12     1.0000 0.63894  0.04284  0.64579  Biso   1.000  Hf
  Hf13     1.0000 0.63897  0.45723  0.89567  Biso   1.000  Hf
  Hf14     1.0000 0.86121  0.54287  0.60414  Biso   1.000  Hf
  Hf15     1.0000 0.86112  0.95728  0.85407  Biso   1.000  Hf
  O25      1.0000 0.53618  0.34000  0.58086  Biso   1.000  O
  O26      1.0000 0.53640  0.15994  0.83067  Biso   1.000  O
  O27      1.0000 0.96363  0.84069  0.66908  Biso   1.000  O
  O28      1.0000 0.96354  0.65988  0.91898  Biso   1.000  O
  O29      1.0000 0.77681  0.25849  0.74057  Biso   1.000  O
  O30      1.0000 0.77676  0.24156  0.99061  Biso   1.000  O
  O31      1.0000 0.72326  0.75837  0.50938  Biso   1.000  O
  O32      1.0000 0.72337  0.74153  0.75926  Biso   1.000  O
