data_image0
_cell_length_a       10.1065
_cell_length_b       5.16806
_cell_length_c       10.5386
_cell_angle_alpha    90.0752
_cell_angle_beta     91.3158
_cell_angle_gamma    89.4226

_symmetry_space_group_name_H-M    "P 1"
_symmetry_int_tables_number       1

loop_
  _symmetry_equiv_pos_as_xyz
  'x, y, z'

loop_
  _atom_site_label
  _atom_site_occupancy
  _atom_site_fract_x
  _atom_site_fract_y
  _atom_site_fract_z
  _atom_site_thermal_displace_type
  _atom_site_B_iso_or_equiv
  _atom_site_type_symbol
  Hf1      1.0000 0.14030  0.04000  0.17512  Biso   1.000  Hf
  Hf2      1.0000 0.13662  0.45661  0.42496  Biso   1.000  Hf
  Hf3      1.0000 0.35183  0.52972  0.18215  Biso   1.000  Hf
  Hf4      1.0000 0.36116  0.95325  0.42754  Biso   1.000  Hf
  Hf5      1.0000 0.63880  0.02522  0.07932  Biso   1.000  Hf
  Hf6      1.0000 0.63320  0.45096  0.33260  Biso   1.000  Hf
  Hf7      1.0000 0.87945  0.55494  0.07239  Biso   1.000  Hf
  Hf8      1.0000 0.86039  0.96283  0.32587  Biso   1.000  Hf
  O1       1.0000 0.03758  0.32009  0.07849  Biso   1.000  O
  O2       1.0000 0.02676  0.18460  0.32965  Biso   1.000  O
  O3       1.0000 0.46456  0.81810  0.09237  Biso   1.000  O
  O4       1.0000 0.46551  0.67158  0.33486  Biso   1.000  O
  O5       1.0000 0.26906  0.24659  0.30259  Biso   1.000  O
  O6       1.0000 0.27475  0.24021  0.04936  Biso   1.000  O
  O7       1.0000 0.21963  0.74804  0.30211  Biso   1.000  O
  O8       1.0000 0.22361  0.74663  0.04839  Biso   1.000  O
  O9       1.0000 0.50988  0.27056  0.19058  Biso   1.000  O
  O10      1.0000 0.52728  0.17345  0.42725  Biso   1.000  O
  O11      1.0000 0.97014  0.83843  0.17081  Biso   1.000  O
  O12      1.0000 0.96777  0.68227  0.41902  Biso   1.000  O
  O13      1.0000 0.77605  0.24645  0.45132  Biso   1.000  O
  O14      1.0000 0.76152  0.27071  0.19607  Biso   1.000  O
  O15      1.0000 0.72494  0.75022  0.45434  Biso   1.000  O
  O16      1.0000 0.72720  0.74950  0.20532  Biso   1.000  O
  Hf9      1.0000 0.13993  0.04214  0.67366  Biso   1.000  Hf
  Hf10     1.0000 0.14540  0.45668  0.92212  Biso   1.000  Hf
  Hf11     1.0000 0.36300  0.54113  0.67595  Biso   1.000  Hf
  Hf12     1.0000 0.36294  0.95794  0.92642  Biso   1.000  Hf
  Hf13     1.0000 0.64040  0.03814  0.57514  Biso   1.000  Hf
  Hf14     1.0000 0.64807  0.46177  0.80922  Biso   1.000  Hf
  Hf15     1.0000 0.86494  0.54699  0.57489  Biso   1.000  Hf
  Hf16     1.0000 0.86600  0.96719  0.82681  Biso   1.000  Hf
  O17      1.0000 0.03306  0.32646  0.58099  Biso   1.000  O
  O18      1.0000 0.03545  0.17770  0.83081  Biso   1.000  O
  O19      1.0000 0.47213  0.81425  0.58391  Biso   1.000  O
  O20      1.0000 0.47626  0.68038  0.83613  Biso   1.000  O
  O21      1.0000 0.27843  0.24772  0.79836  Biso   1.000  O
  O22      1.0000 0.27520  0.24982  0.54979  Biso   1.000  O
  O23      1.0000 0.22964  0.74817  0.79834  Biso   1.000  O
  O24      1.0000 0.22603  0.75027  0.54986  Biso   1.000  O
  O25      1.0000 0.52875  0.31081  0.67056  Biso   1.000  O
  O26      1.0000 0.52584  0.19379  0.93051  Biso   1.000  O
  O27      1.0000 0.97152  0.82744  0.66870  Biso   1.000  O
  O28      1.0000 0.97781  0.67977  0.91510  Biso   1.000  O
  O29      1.0000 0.77020  0.26907  0.95083  Biso   1.000  O
  O30      1.0000 0.78230  0.24713  0.69567  Biso   1.000  O
  O31      1.0000 0.73582  0.76796  0.94858  Biso   1.000  O
  O32      1.0000 0.73144  0.75277  0.70090  Biso   1.000  O
  Zr1      1.0000 0.61028  0.51418  0.05953  Biso   1.000  Zr
