data_image0
_cell_length_a       10.0803
_cell_length_b       5.2173
_cell_length_c       10.1172
_cell_angle_alpha    90.042
_cell_angle_beta     90.3389
_cell_angle_gamma    89.6094

_symmetry_space_group_name_H-M    "P 1"
_symmetry_int_tables_number       1

loop_
  _symmetry_equiv_pos_as_xyz
  'x, y, z'

loop_
  _atom_site_label
  _atom_site_occupancy
  _atom_site_fract_x
  _atom_site_fract_y
  _atom_site_fract_z
  _atom_site_thermal_displace_type
  _atom_site_B_iso_or_equiv
  _atom_site_type_symbol
  Hf1      1.0000 0.12877  0.00780  0.12435  Biso   1.000  Hf
  Hf2      1.0000 0.12694  0.46331  0.38309  Biso   1.000  Hf
  Hf3      1.0000 0.38388  0.54044  0.11299  Biso   1.000  Hf
  Hf4      1.0000 0.36407  0.97823  0.36925  Biso   1.000  Hf
  O1       1.0000 0.99294  0.27397  0.23639  Biso   1.000  O
  O2       1.0000 0.03206  0.13475  0.46355  Biso   1.000  O
  O3       1.0000 0.46607  0.87414  0.19457  Biso   1.000  O
  O4       1.0000 0.46998  0.65208  0.44494  Biso   1.000  O
  O5       1.0000 0.25313  0.23897  0.24158  Biso   1.000  O
  O6       1.0000 0.27248  0.27078  0.49421  Biso   1.000  O
  O7       1.0000 0.23445  0.77437  0.49428  Biso   1.000  O
  O8       1.0000 0.24062  0.72635  0.24635  Biso   1.000  O
  Hf5      1.0000 0.13605  0.02400  0.62441  Biso   1.000  Hf
  Hf6      1.0000 0.13478  0.48230  0.84881  Biso   1.000  Hf
  Hf7      1.0000 0.37465  0.53925  0.61561  Biso   1.000  Hf
  Hf8      1.0000 0.36749  0.98111  0.87085  Biso   1.000  Hf
  O9       1.0000 0.02608  0.34252  0.69633  Biso   1.000  O
  O10      1.0000 0.02429  0.17411  0.96499  Biso   1.000  O
  O11      1.0000 0.47251  0.87346  0.69524  Biso   1.000  O
  O12      1.0000 0.47476  0.65645  0.94168  Biso   1.000  O
  O13      1.0000 0.26942  0.23660  0.74054  Biso   1.000  O
  O14      1.0000 0.26623  0.28046  0.98927  Biso   1.000  O
  O15      1.0000 0.23526  0.77513  0.99008  Biso   1.000  O
  O16      1.0000 0.24448  0.73676  0.74079  Biso   1.000  O
  Hf9      1.0000 0.62953  0.02809  0.12161  Biso   1.000  Hf
  Hf10     1.0000 0.63343  0.47000  0.37601  Biso   1.000  Hf
  Hf11     1.0000 0.84805  0.51102  0.12736  Biso   1.000  Hf
  Hf12     1.0000 0.87755  0.97601  0.36705  Biso   1.000  Hf
  O17      1.0000 0.53251  0.36129  0.20205  Biso   1.000  O
  O18      1.0000 0.53077  0.14615  0.44829  Biso   1.000  O
  O19      1.0000 0.98068  0.78641  0.21349  Biso   1.000  O
  O20      1.0000 0.97050  0.65024  0.46213  Biso   1.000  O
  O21      1.0000 0.75416  0.21612  0.24899  Biso   1.000  O
  O22      1.0000 0.77035  0.27868  0.49644  Biso   1.000  O
  O23      1.0000 0.73632  0.78010  0.49687  Biso   1.000  O
  O24      1.0000 0.72928  0.73077  0.24906  Biso   1.000  O
  Hf13     1.0000 0.63654  0.03479  0.62018  Biso   1.000  Hf
  Hf14     1.0000 0.63616  0.47055  0.86886  Biso   1.000  Hf
  Hf15     1.0000 0.86486  0.53534  0.62415  Biso   1.000  Hf
  Hf16     1.0000 0.87059  0.96887  0.87930  Biso   1.000  Hf
  O25      1.0000 0.53798  0.37292  0.69404  Biso   1.000  O
  O26      1.0000 0.52861  0.15630  0.94838  Biso   1.000  O
  O27      1.0000 0.98362  0.84051  0.71778  Biso   1.000  O
  O28      1.0000 0.97346  0.65885  0.96158  Biso   1.000  O
  O29      1.0000 0.77071  0.22926  0.74726  Biso   1.000  O
  O30      1.0000 0.76399  0.26013  0.99504  Biso   1.000  O
  O31      1.0000 0.73058  0.76468  0.99752  Biso   1.000  O
  O32      1.0000 0.73711  0.73630  0.74859  Biso   1.000  O
  Zr1      1.0000 0.11654  0.50158  0.11054  Biso   1.000  Zr
