data_image0
_cell_length_a       10.084
_cell_length_b       10.2362
_cell_length_c       10.527
_cell_angle_alpha    90.0282
_cell_angle_beta     90.6798
_cell_angle_gamma    89.7122

_symmetry_space_group_name_H-M    "P 1"
_symmetry_int_tables_number       1

loop_
  _symmetry_equiv_pos_as_xyz
  'x, y, z'

loop_
  _atom_site_label
  _atom_site_occupancy
  _atom_site_fract_x
  _atom_site_fract_y
  _atom_site_fract_z
  _atom_site_thermal_displace_type
  _atom_site_B_iso_or_equiv
  _atom_site_type_symbol
  Hf1      1.0000 0.13761  0.01957  0.17313  Biso   1.000  Hf
  Hf2      1.0000 0.13736  0.22872  0.42417  Biso   1.000  Hf
  Hf3      1.0000 0.35429  0.26544  0.17944  Biso   1.000  Hf
  Hf4      1.0000 0.36119  0.47762  0.42483  Biso   1.000  Hf
  Hf5      1.0000 0.63377  0.00016  0.08086  Biso   1.000  Hf
  Hf6      1.0000 0.63243  0.22550  0.33160  Biso   1.000  Hf
  Hf7      1.0000 0.87706  0.27804  0.07234  Biso   1.000  Hf
  Hf8      1.0000 0.86067  0.47943  0.32573  Biso   1.000  Hf
  O1       1.0000 0.03462  0.15883  0.07735  Biso   1.000  O
  O2       1.0000 0.02639  0.09182  0.32810  Biso   1.000  O
  O3       1.0000 0.46805  0.41866  0.09443  Biso   1.000  O
  O4       1.0000 0.46490  0.33495  0.33423  Biso   1.000  O
  O5       1.0000 0.26793  0.12357  0.30088  Biso   1.000  O
  O6       1.0000 0.27342  0.12129  0.04796  Biso   1.000  O
  O7       1.0000 0.22071  0.37519  0.30042  Biso   1.000  O
  O8       1.0000 0.22523  0.37456  0.04699  Biso   1.000  O
  O9       1.0000 0.50739  0.12819  0.19000  Biso   1.000  O
  O10      1.0000 0.52789  0.08879  0.42892  Biso   1.000  O
  O11      1.0000 0.97314  0.41565  0.17226  Biso   1.000  O
  O12      1.0000 0.96882  0.33940  0.41900  Biso   1.000  O
  O13      1.0000 0.77578  0.12256  0.45165  Biso   1.000  O
  O14      1.0000 0.75754  0.13527  0.19465  Biso   1.000  O
  O15      1.0000 0.72442  0.37477  0.45220  Biso   1.000  O
  O16      1.0000 0.72362  0.38199  0.19880  Biso   1.000  O
  Hf9      1.0000 0.13807  0.02089  0.67320  Biso   1.000  Hf
  Hf10     1.0000 0.14428  0.22773  0.92160  Biso   1.000  Hf
  Hf11     1.0000 0.36225  0.27056  0.67445  Biso   1.000  Hf
  Hf12     1.0000 0.36282  0.47898  0.92491  Biso   1.000  Hf
  Hf13     1.0000 0.63946  0.01814  0.57709  Biso   1.000  Hf
  Hf14     1.0000 0.64626  0.22968  0.81102  Biso   1.000  Hf
  Hf15     1.0000 0.86352  0.27236  0.57372  Biso   1.000  Hf
  Hf16     1.0000 0.86519  0.48111  0.82541  Biso   1.000  Hf
  O17      1.0000 0.03161  0.16139  0.57987  Biso   1.000  O
  O18      1.0000 0.03239  0.08867  0.83079  Biso   1.000  O
  O19      1.0000 0.47088  0.41017  0.58318  Biso   1.000  O
  O20      1.0000 0.47417  0.33818  0.83658  Biso   1.000  O
  O21      1.0000 0.27619  0.12419  0.79634  Biso   1.000  O
  O22      1.0000 0.27551  0.12594  0.54864  Biso   1.000  O
  O23      1.0000 0.22888  0.37445  0.79718  Biso   1.000  O
  O24      1.0000 0.22557  0.37552  0.54843  Biso   1.000  O
  O25      1.0000 0.52777  0.15496  0.67125  Biso   1.000  O
  O26      1.0000 0.52575  0.09641  0.93090  Biso   1.000  O
  O27      1.0000 0.97109  0.41302  0.66751  Biso   1.000  O
  O28      1.0000 0.97780  0.34058  0.91558  Biso   1.000  O
  O29      1.0000 0.76720  0.12918  0.95243  Biso   1.000  O
  O30      1.0000 0.78105  0.12301  0.69696  Biso   1.000  O
  O31      1.0000 0.73351  0.38315  0.94764  Biso   1.000  O
  O32      1.0000 0.72902  0.37675  0.69858  Biso   1.000  O
  Hf17     1.0000 0.14167  0.52143  0.17467  Biso   1.000  Hf
  Hf18     1.0000 0.13718  0.72906  0.42342  Biso   1.000  Hf
  Hf19     1.0000 0.35872  0.76877  0.17542  Biso   1.000  Hf
  Hf20     1.0000 0.36135  0.97823  0.42486  Biso   1.000  Hf
  Hf21     1.0000 0.64271  0.53324  0.07673  Biso   1.000  Hf
  Hf22     1.0000 0.63840  0.72882  0.33004  Biso   1.000  Hf
  Hf23     1.0000 0.86617  0.77087  0.07797  Biso   1.000  Hf
  Hf24     1.0000 0.86096  0.98092  0.32745  Biso   1.000  Hf
  O33      1.0000 0.03480  0.66317  0.08147  Biso   1.000  O
  O34      1.0000 0.03105  0.58956  0.33179  Biso   1.000  O
  O35      1.0000 0.46627  0.89640  0.07350  Biso   1.000  O
  O36      1.0000 0.46945  0.84066  0.33003  Biso   1.000  O
  O37      1.0000 0.27547  0.62381  0.29881  Biso   1.000  O
  O38      1.0000 0.27699  0.62442  0.04753  Biso   1.000  O
  O39      1.0000 0.22317  0.87299  0.29801  Biso   1.000  O
  O40      1.0000 0.22261  0.87517  0.04779  Biso   1.000  O
  O41      1.0000 0.53165  0.66414  0.17349  Biso   1.000  O
  O42      1.0000 0.53013  0.58778  0.42023  Biso   1.000  O
  O43      1.0000 0.96667  0.91560  0.16845  Biso   1.000  O
  O44      1.0000 0.96730  0.84089  0.41985  Biso   1.000  O
  O45      1.0000 0.77611  0.62403  0.45383  Biso   1.000  O
  O46      1.0000 0.77899  0.62969  0.20427  Biso   1.000  O
  O47      1.0000 0.72424  0.87392  0.45584  Biso   1.000  O
  O48      1.0000 0.72880  0.87171  0.20865  Biso   1.000  O
  Hf25     1.0000 0.14017  0.52153  0.67288  Biso   1.000  Hf
  Hf26     1.0000 0.14022  0.72968  0.92268  Biso   1.000  Hf
  Hf27     1.0000 0.36227  0.77119  0.67338  Biso   1.000  Hf
  Hf28     1.0000 0.36211  0.97842  0.92376  Biso   1.000  Hf
  Hf29     1.0000 0.63948  0.52159  0.57590  Biso   1.000  Hf
  Hf30     1.0000 0.63997  0.72906  0.82575  Biso   1.000  Hf
  Hf31     1.0000 0.86262  0.77223  0.57905  Biso   1.000  Hf
  Hf32     1.0000 0.86232  0.98169  0.82978  Biso   1.000  Hf
  O49      1.0000 0.03257  0.66394  0.58175  Biso   1.000  O
  O50      1.0000 0.03438  0.58889  0.83048  Biso   1.000  O
  O51      1.0000 0.47034  0.90705  0.57950  Biso   1.000  O
  O52      1.0000 0.47239  0.84247  0.82707  Biso   1.000  O
  O53      1.0000 0.27820  0.62367  0.79795  Biso   1.000  O
  O54      1.0000 0.27528  0.62544  0.54725  Biso   1.000  O
  O55      1.0000 0.22552  0.87348  0.79714  Biso   1.000  O
  O56      1.0000 0.22445  0.87649  0.54750  Biso   1.000  O
  O57      1.0000 0.53154  0.66021  0.67016  Biso   1.000  O
  O58      1.0000 0.53123  0.59019  0.92013  Biso   1.000  O
  O59      1.0000 0.96879  0.91270  0.67088  Biso   1.000  O
  O60      1.0000 0.97043  0.83895  0.91926  Biso   1.000  O
  O61      1.0000 0.77979  0.62920  0.95106  Biso   1.000  O
  O62      1.0000 0.77669  0.62635  0.70228  Biso   1.000  O
  O63      1.0000 0.72696  0.87295  0.95444  Biso   1.000  O
  O64      1.0000 0.72641  0.87525  0.70641  Biso   1.000  O
  Zr1      1.0000 0.60940  0.25745  0.06155  Biso   1.000  Zr
