data_image0
_cell_length_a       10.0217
_cell_length_b       10.2375
_cell_length_c       10.4482
_cell_angle_alpha    90.0004
_cell_angle_beta     89.9998
_cell_angle_gamma    90.0056

_symmetry_space_group_name_H-M    "P 1"
_symmetry_int_tables_number       1

loop_
  _symmetry_equiv_pos_as_xyz
  'x, y, z'

loop_
  _atom_site_label
  _atom_site_occupancy
  _atom_site_fract_x
  _atom_site_fract_y
  _atom_site_fract_z
  _atom_site_thermal_displace_type
  _atom_site_B_iso_or_equiv
  _atom_site_type_symbol
  Zr1      1.0000 0.13859  0.02110  0.17087  Biso   1.000  Zr
  Hf1      1.0000 0.13881  0.22896  0.42154  Biso   1.000  Hf
  Hf2      1.0000 0.36129  0.27114  0.17136  Biso   1.000  Hf
  Hf3      1.0000 0.36125  0.47889  0.42132  Biso   1.000  Hf
  Hf4      1.0000 0.63878  0.02104  0.07873  Biso   1.000  Hf
  Hf5      1.0000 0.63871  0.22892  0.32870  Biso   1.000  Hf
  Hf6      1.0000 0.86082  0.27139  0.07852  Biso   1.000  Hf
  Hf7      1.0000 0.86126  0.47891  0.32867  Biso   1.000  Hf
  O1       1.0000 0.03335  0.16743  0.08424  Biso   1.000  O
  O2       1.0000 0.03295  0.08391  0.33516  Biso   1.000  O
  O3       1.0000 0.46643  0.41639  0.08436  Biso   1.000  O
  O4       1.0000 0.46656  0.33373  0.33435  Biso   1.000  O
  O5       1.0000 0.27694  0.12420  0.29533  Biso   1.000  O
  O6       1.0000 0.27717  0.12680  0.04410  Biso   1.000  O
  O7       1.0000 0.22338  0.37379  0.29477  Biso   1.000  O
  O8       1.0000 0.22333  0.37623  0.04477  Biso   1.000  O
  O9       1.0000 0.53355  0.16642  0.16559  Biso   1.000  O
  O10      1.0000 0.53356  0.08359  0.41564  Biso   1.000  O
  O11      1.0000 0.96626  0.41659  0.16548  Biso   1.000  O
  O12      1.0000 0.96648  0.33366  0.41564  Biso   1.000  O
  O13      1.0000 0.77642  0.12386  0.45537  Biso   1.000  O
  O14      1.0000 0.77659  0.12625  0.20529  Biso   1.000  O
  O15      1.0000 0.72344  0.37382  0.45516  Biso   1.000  O
  O16      1.0000 0.72330  0.37625  0.20519  Biso   1.000  O
  Hf8      1.0000 0.13879  0.02104  0.67141  Biso   1.000  Hf
  Hf9      1.0000 0.13874  0.22926  0.92108  Biso   1.000  Hf
  Hf10     1.0000 0.36127  0.27101  0.67132  Biso   1.000  Hf
  Hf11     1.0000 0.36122  0.47891  0.92134  Biso   1.000  Hf
  Hf12     1.0000 0.63876  0.02107  0.57873  Biso   1.000  Hf
  Hf13     1.0000 0.63874  0.22889  0.82862  Biso   1.000  Hf
  Hf14     1.0000 0.86125  0.27108  0.57865  Biso   1.000  Hf
  Hf15     1.0000 0.86116  0.47897  0.82848  Biso   1.000  Hf
  O17      1.0000 0.03363  0.16664  0.58480  Biso   1.000  O
  O18      1.0000 0.03367  0.08343  0.83475  Biso   1.000  O
  O19      1.0000 0.46649  0.41634  0.58437  Biso   1.000  O
  O20      1.0000 0.46643  0.33352  0.83441  Biso   1.000  O
  O21      1.0000 0.27654  0.12380  0.79465  Biso   1.000  O
  O22      1.0000 0.27655  0.12611  0.54489  Biso   1.000  O
  O23      1.0000 0.22343  0.37385  0.79472  Biso   1.000  O
  O24      1.0000 0.22348  0.37620  0.54481  Biso   1.000  O
  O25      1.0000 0.53354  0.16638  0.66558  Biso   1.000  O
  O26      1.0000 0.53379  0.08342  0.91546  Biso   1.000  O
  O27      1.0000 0.96638  0.41657  0.66543  Biso   1.000  O
  O28      1.0000 0.96625  0.33370  0.91530  Biso   1.000  O
  O29      1.0000 0.77664  0.12384  0.95528  Biso   1.000  O
  O30      1.0000 0.77658  0.12618  0.70529  Biso   1.000  O
  O31      1.0000 0.72326  0.37387  0.95511  Biso   1.000  O
  O32      1.0000 0.72342  0.37616  0.70513  Biso   1.000  O
  Hf16     1.0000 0.13872  0.52104  0.17134  Biso   1.000  Hf
  Hf17     1.0000 0.13881  0.72882  0.42139  Biso   1.000  Hf
  Hf18     1.0000 0.36147  0.77084  0.17137  Biso   1.000  Hf
  Hf19     1.0000 0.36131  0.97880  0.42143  Biso   1.000  Hf
  Hf20     1.0000 0.63866  0.52103  0.07862  Biso   1.000  Hf
  Hf21     1.0000 0.63882  0.72892  0.32869  Biso   1.000  Hf
  Hf22     1.0000 0.86091  0.77076  0.07854  Biso   1.000  Hf
  Hf23     1.0000 0.86101  0.97891  0.32888  Biso   1.000  Hf
  O33      1.0000 0.03354  0.66655  0.08447  Biso   1.000  O
  O34      1.0000 0.03354  0.58358  0.33446  Biso   1.000  O
  O35      1.0000 0.46652  0.91651  0.08448  Biso   1.000  O
  O36      1.0000 0.46679  0.83365  0.33438  Biso   1.000  O
  O37      1.0000 0.27663  0.62358  0.29476  Biso   1.000  O
  O38      1.0000 0.27648  0.62586  0.04484  Biso   1.000  O
  O39      1.0000 0.22408  0.87313  0.29524  Biso   1.000  O
  O40      1.0000 0.22450  0.87529  0.04419  Biso   1.000  O
  O41      1.0000 0.53362  0.66629  0.16560  Biso   1.000  O
  O42      1.0000 0.53353  0.58360  0.41560  Biso   1.000  O
  O43      1.0000 0.96561  0.91622  0.16591  Biso   1.000  O
  O44      1.0000 0.96651  0.83360  0.41562  Biso   1.000  O
  O45      1.0000 0.77660  0.62382  0.45520  Biso   1.000  O
  O46      1.0000 0.77655  0.62614  0.20517  Biso   1.000  O
  O47      1.0000 0.72347  0.87380  0.45529  Biso   1.000  O
  O48      1.0000 0.72307  0.87613  0.20521  Biso   1.000  O
  Hf24     1.0000 0.13873  0.52108  0.67130  Biso   1.000  Hf
  Hf25     1.0000 0.13878  0.72877  0.92128  Biso   1.000  Hf
  Hf26     1.0000 0.36119  0.77104  0.67133  Biso   1.000  Hf
  Hf27     1.0000 0.36144  0.97888  0.92119  Biso   1.000  Hf
  Hf28     1.0000 0.63873  0.52106  0.57857  Biso   1.000  Hf
  Hf29     1.0000 0.63871  0.72891  0.82853  Biso   1.000  Hf
  Hf30     1.0000 0.86130  0.77109  0.57867  Biso   1.000  Hf
  Hf31     1.0000 0.86126  0.97893  0.82872  Biso   1.000  Hf
  O49      1.0000 0.03357  0.66649  0.58453  Biso   1.000  O
  O50      1.0000 0.03350  0.58352  0.83437  Biso   1.000  O
  O51      1.0000 0.46650  0.91633  0.58441  Biso   1.000  O
  O52      1.0000 0.46654  0.83360  0.83426  Biso   1.000  O
  O53      1.0000 0.27656  0.62377  0.79477  Biso   1.000  O
  O54      1.0000 0.27655  0.62616  0.54477  Biso   1.000  O
  O55      1.0000 0.22344  0.87376  0.79469  Biso   1.000  O
  O56      1.0000 0.22342  0.87619  0.54489  Biso   1.000  O
  O57      1.0000 0.53349  0.66633  0.66557  Biso   1.000  O
  O58      1.0000 0.53347  0.58363  0.91560  Biso   1.000  O
  O59      1.0000 0.96641  0.91648  0.66564  Biso   1.000  O
  O60      1.0000 0.96654  0.83365  0.91575  Biso   1.000  O
  O61      1.0000 0.77647  0.62375  0.95514  Biso   1.000  O
  O62      1.0000 0.77651  0.62623  0.70514  Biso   1.000  O
  O63      1.0000 0.72345  0.87376  0.95519  Biso   1.000  O
  O64      1.0000 0.72346  0.87618  0.70523  Biso   1.000  O
