data_image0
_cell_length_a       10.0646
_cell_length_b       10.2849
_cell_length_c       5.30675
_cell_angle_alpha    89.8006
_cell_angle_beta     91.477
_cell_angle_gamma    89.9914

_symmetry_space_group_name_H-M    "P 1"
_symmetry_int_tables_number       1

loop_
  _symmetry_equiv_pos_as_xyz
  'x, y, z'

loop_
  _atom_site_label
  _atom_site_occupancy
  _atom_site_fract_x
  _atom_site_fract_y
  _atom_site_fract_z
  _atom_site_thermal_displace_type
  _atom_site_B_iso_or_equiv
  _atom_site_type_symbol
  Hf1      1.0000 0.13914  0.02022  0.35555  Biso   1.000  Hf
  Hf2      1.0000 0.14419  0.22760  0.85792  Biso   1.000  Hf
  Hf3      1.0000 0.35555  0.27076  0.36809  Biso   1.000  Hf
  Hf4      1.0000 0.36238  0.47592  0.86538  Biso   1.000  Hf
  Hf5      1.0000 0.64240  0.00496  0.15193  Biso   1.000  Hf
  Hf6      1.0000 0.65042  0.22253  0.60381  Biso   1.000  Hf
  Hf7      1.0000 0.87030  0.27301  0.13845  Biso   1.000  Hf
  Hf8      1.0000 0.86521  0.48132  0.64969  Biso   1.000  Hf
  O1       1.0000 0.03131  0.15767  0.16175  Biso   1.000  O
  O2       1.0000 0.03213  0.08983  0.66635  Biso   1.000  O
  O3       1.0000 0.46285  0.43403  0.20816  Biso   1.000  O
  O4       1.0000 0.48131  0.33265  0.68052  Biso   1.000  O
  O5       1.0000 0.27459  0.12402  0.60687  Biso   1.000  O
  O6       1.0000 0.27171  0.11918  0.11014  Biso   1.000  O
  O7       1.0000 0.22481  0.37493  0.61537  Biso   1.000  O
  O8       1.0000 0.21803  0.37539  0.11431  Biso   1.000  O
  O9       1.0000 0.52096  0.14058  0.34749  Biso   1.000  O
  O10      1.0000 0.52681  0.08939  0.84782  Biso   1.000  O
  O11      1.0000 0.96705  0.41358  0.34492  Biso   1.000  O
  O12      1.0000 0.97427  0.33869  0.83909  Biso   1.000  O
  O13      1.0000 0.76364  0.13161  0.89907  Biso   1.000  O
  O14      1.0000 0.78518  0.11593  0.38843  Biso   1.000  O
  O15      1.0000 0.72828  0.38370  0.87677  Biso   1.000  O
  O16      1.0000 0.71432  0.36890  0.35622  Biso   1.000  O
  Hf9      1.0000 0.14240  0.52002  0.35591  Biso   1.000  Hf
  Hf10     1.0000 0.14099  0.72762  0.85316  Biso   1.000  Hf
  Hf11     1.0000 0.36023  0.77067  0.35707  Biso   1.000  Hf
  Hf12     1.0000 0.36030  0.97686  0.85716  Biso   1.000  Hf
  Hf13     1.0000 0.63980  0.53761  0.14943  Biso   1.000  Hf
  Hf14     1.0000 0.63999  0.73073  0.65623  Biso   1.000  Hf
  Hf15     1.0000 0.86833  0.76967  0.15977  Biso   1.000  Hf
  Hf16     1.0000 0.86603  0.97943  0.65755  Biso   1.000  Hf
  O17      1.0000 0.03501  0.66071  0.16936  Biso   1.000  O
  O18      1.0000 0.03305  0.58747  0.67091  Biso   1.000  O
  O19      1.0000 0.47044  0.90337  0.15914  Biso   1.000  O
  O20      1.0000 0.47142  0.84185  0.66482  Biso   1.000  O
  O21      1.0000 0.27647  0.62416  0.60184  Biso   1.000  O
  O22      1.0000 0.27648  0.62437  0.09943  Biso   1.000  O
  O23      1.0000 0.22502  0.87292  0.60495  Biso   1.000  O
  O24      1.0000 0.22405  0.87388  0.10556  Biso   1.000  O
  O25      1.0000 0.53370  0.67022  0.34408  Biso   1.000  O
  O26      1.0000 0.52971  0.59054  0.83904  Biso   1.000  O
  O27      1.0000 0.97158  0.90954  0.35111  Biso   1.000  O
  O28      1.0000 0.97243  0.83898  0.84921  Biso   1.000  O
  O29      1.0000 0.78044  0.63128  0.90413  Biso   1.000  O
  O30      1.0000 0.77924  0.62517  0.40909  Biso   1.000  O
  O31      1.0000 0.72946  0.87599  0.90888  Biso   1.000  O
  O32      1.0000 0.73001  0.87028  0.41393  Biso   1.000  O
  Zr1      1.0000 0.57540  0.27059  0.05469  Biso   1.000  Zr
