data_image0
_cell_length_a       10.1043
_cell_length_b       10.2836
_cell_length_c       10.4381
_cell_angle_alpha    90.0054
_cell_angle_beta     80.4004
_cell_angle_gamma    90.0068

_symmetry_space_group_name_H-M    "P 1"
_symmetry_int_tables_number       1

loop_
  _symmetry_equiv_pos_as_xyz
  'x, y, z'

loop_
  _atom_site_label
  _atom_site_occupancy
  _atom_site_fract_x
  _atom_site_fract_y
  _atom_site_fract_z
  _atom_site_thermal_displace_type
  _atom_site_B_iso_or_equiv
  _atom_site_type_symbol
  Zr1      1.0000 0.13867  0.02140  0.14539  Biso   1.000  Zr
  Hf1      1.0000 0.13895  0.22865  0.39600  Biso   1.000  Hf
  Hf2      1.0000 0.36116  0.27143  0.10413  Biso   1.000  Hf
  Hf3      1.0000 0.36102  0.47853  0.35414  Biso   1.000  Hf
  O1       1.0000 0.03619  0.17127  0.08073  Biso   1.000  O
  O2       1.0000 0.03573  0.08012  0.33175  Biso   1.000  O
  O3       1.0000 0.46368  0.42009  0.16919  Biso   1.000  O
  O4       1.0000 0.46364  0.32978  0.41911  Biso   1.000  O
  O5       1.0000 0.27720  0.12970  0.24120  Biso   1.000  O
  O6       1.0000 0.27669  0.12068  0.49078  Biso   1.000  O
  O7       1.0000 0.22326  0.37923  0.00927  Biso   1.000  O
  O8       1.0000 0.22308  0.37083  0.25929  Biso   1.000  O
  Hf4      1.0000 0.13892  0.02138  0.64587  Biso   1.000  Hf
  Hf5      1.0000 0.13886  0.22892  0.89559  Biso   1.000  Hf
  Hf6      1.0000 0.36113  0.27134  0.60414  Biso   1.000  Hf
  Hf7      1.0000 0.36120  0.47861  0.85414  Biso   1.000  Hf
  O9       1.0000 0.03641  0.17038  0.58122  Biso   1.000  O
  O10      1.0000 0.03646  0.07968  0.83119  Biso   1.000  O
  O11      1.0000 0.46372  0.42010  0.66914  Biso   1.000  O
  O12      1.0000 0.46387  0.33005  0.91918  Biso   1.000  O
  O13      1.0000 0.27673  0.12925  0.74055  Biso   1.000  O
  O14      1.0000 0.27729  0.12130  0.98995  Biso   1.000  O
  O15      1.0000 0.22326  0.37922  0.50935  Biso   1.000  O
  O16      1.0000 0.22328  0.37085  0.75927  Biso   1.000  O
  Hf8      1.0000 0.13883  0.52135  0.14577  Biso   1.000  Hf
  Hf9      1.0000 0.13893  0.72844  0.39588  Biso   1.000  Hf
  Hf10     1.0000 0.36137  0.77114  0.10419  Biso   1.000  Hf
  Hf11     1.0000 0.36117  0.97853  0.35427  Biso   1.000  Hf
  O17      1.0000 0.03633  0.67033  0.08092  Biso   1.000  O
  O18      1.0000 0.03626  0.57984  0.33085  Biso   1.000  O
  O19      1.0000 0.46368  0.92025  0.16905  Biso   1.000  O
  O20      1.0000 0.46371  0.82983  0.41928  Biso   1.000  O
  O21      1.0000 0.27676  0.62887  0.24055  Biso   1.000  O
  O22      1.0000 0.27673  0.62073  0.49063  Biso   1.000  O
  O23      1.0000 0.22409  0.87840  0.00872  Biso   1.000  O
  O24      1.0000 0.22407  0.86999  0.25974  Biso   1.000  O
  Hf12     1.0000 0.13887  0.52139  0.64580  Biso   1.000  Hf
  Hf13     1.0000 0.13890  0.72848  0.89575  Biso   1.000  Hf
  Hf14     1.0000 0.36108  0.77138  0.60418  Biso   1.000  Hf
  Hf15     1.0000 0.36129  0.97850  0.85402  Biso   1.000  Hf
  O25      1.0000 0.03633  0.67020  0.58095  Biso   1.000  O
  O26      1.0000 0.03629  0.57976  0.83084  Biso   1.000  O
  O27      1.0000 0.46377  0.92008  0.66916  Biso   1.000  O
  O28      1.0000 0.46415  0.82999  0.91915  Biso   1.000  O
  O29      1.0000 0.27673  0.62920  0.74062  Biso   1.000  O
  O30      1.0000 0.27675  0.62062  0.99061  Biso   1.000  O
  O31      1.0000 0.22325  0.87921  0.50949  Biso   1.000  O
  O32      1.0000 0.22327  0.87075  0.75930  Biso   1.000  O
  Hf16     1.0000 0.63888  0.02135  0.14585  Biso   1.000  Hf
  Hf17     1.0000 0.63882  0.22859  0.39586  Biso   1.000  Hf
  Hf18     1.0000 0.86069  0.27167  0.10413  Biso   1.000  Hf
  Hf19     1.0000 0.86112  0.47857  0.35421  Biso   1.000  Hf
  O33      1.0000 0.53633  0.17014  0.08082  Biso   1.000  O
  O34      1.0000 0.53643  0.07973  0.33090  Biso   1.000  O
  O35      1.0000 0.96345  0.42036  0.16905  Biso   1.000  O
  O36      1.0000 0.96371  0.32991  0.41920  Biso   1.000  O
  O37      1.0000 0.77677  0.12928  0.24064  Biso   1.000  O
  O38      1.0000 0.77659  0.12081  0.49076  Biso   1.000  O
  O39      1.0000 0.72312  0.37932  0.00931  Biso   1.000  O
  O40      1.0000 0.72312  0.37080  0.25939  Biso   1.000  O
  Hf20     1.0000 0.63894  0.02143  0.64585  Biso   1.000  Hf
  Hf21     1.0000 0.63889  0.22859  0.89580  Biso   1.000  Hf
  Hf22     1.0000 0.86114  0.27140  0.60418  Biso   1.000  Hf
  Hf23     1.0000 0.86105  0.47865  0.85403  Biso   1.000  Hf
  O41      1.0000 0.53625  0.17010  0.58086  Biso   1.000  O
  O42      1.0000 0.53638  0.07990  0.83076  Biso   1.000  O
  O43      1.0000 0.96362  0.42031  0.66902  Biso   1.000  O
  O44      1.0000 0.96347  0.32990  0.91887  Biso   1.000  O
  O45      1.0000 0.77682  0.12922  0.74067  Biso   1.000  O
  O46      1.0000 0.77675  0.12080  0.99065  Biso   1.000  O
  O47      1.0000 0.72324  0.37921  0.50933  Biso   1.000  O
  O48      1.0000 0.72325  0.37075  0.75929  Biso   1.000  O
  Hf24     1.0000 0.63879  0.52133  0.14588  Biso   1.000  Hf
  Hf25     1.0000 0.63879  0.72852  0.39587  Biso   1.000  Hf
  Hf26     1.0000 0.86075  0.77103  0.10412  Biso   1.000  Hf
  Hf27     1.0000 0.86084  0.97855  0.35439  Biso   1.000  Hf
  O49      1.0000 0.53648  0.67009  0.08081  Biso   1.000  O
  O50      1.0000 0.53618  0.57984  0.33084  Biso   1.000  O
  O51      1.0000 0.96270  0.92011  0.16948  Biso   1.000  O
  O52      1.0000 0.96374  0.82985  0.41911  Biso   1.000  O
  O53      1.0000 0.77664  0.62911  0.24066  Biso   1.000  O
  O54      1.0000 0.77673  0.62078  0.49061  Biso   1.000  O
  O55      1.0000 0.72333  0.87921  0.00933  Biso   1.000  O
  O56      1.0000 0.72281  0.87062  0.25943  Biso   1.000  O
  Hf28     1.0000 0.63888  0.52138  0.64577  Biso   1.000  Hf
  Hf29     1.0000 0.63898  0.72864  0.89570  Biso   1.000  Hf
  Hf30     1.0000 0.86118  0.77142  0.60414  Biso   1.000  Hf
  Hf31     1.0000 0.86117  0.97860  0.85420  Biso   1.000  Hf
  O57      1.0000 0.53625  0.67008  0.58087  Biso   1.000  O
  O58      1.0000 0.53635  0.57990  0.83079  Biso   1.000  O
  O59      1.0000 0.96368  0.92022  0.66917  Biso   1.000  O
  O60      1.0000 0.96374  0.82986  0.91923  Biso   1.000  O
  O61      1.0000 0.77675  0.62925  0.74055  Biso   1.000  O
  O62      1.0000 0.77677  0.62075  0.99061  Biso   1.000  O
  O63      1.0000 0.72326  0.87920  0.50940  Biso   1.000  O
  O64      1.0000 0.72335  0.87079  0.75932  Biso   1.000  O
