data_image0
_cell_length_a       5.05312
_cell_length_b       10.2862
_cell_length_c       10.4397
_cell_angle_alpha    90.0107
_cell_angle_beta     80.4045
_cell_angle_gamma    90.0139

_symmetry_space_group_name_H-M    "P 1"
_symmetry_int_tables_number       1

loop_
  _symmetry_equiv_pos_as_xyz
  'x, y, z'

loop_
  _atom_site_label
  _atom_site_occupancy
  _atom_site_fract_x
  _atom_site_fract_y
  _atom_site_fract_z
  _atom_site_thermal_displace_type
  _atom_site_B_iso_or_equiv
  _atom_site_type_symbol
  Zr1      1.0000 0.27731  0.02135  0.14540  Biso   1.000  Zr
  Hf1      1.0000 0.27776  0.22863  0.39603  Biso   1.000  Hf
  Hf2      1.0000 0.72148  0.27171  0.10410  Biso   1.000  Hf
  Hf3      1.0000 0.72205  0.47849  0.35418  Biso   1.000  Hf
  O1       1.0000 0.07238  0.17124  0.08067  Biso   1.000  O
  O2       1.0000 0.07169  0.08004  0.33176  Biso   1.000  O
  O3       1.0000 0.92690  0.42027  0.16913  Biso   1.000  O
  O4       1.0000 0.92734  0.32987  0.41920  Biso   1.000  O
  O5       1.0000 0.55443  0.12977  0.24119  Biso   1.000  O
  O6       1.0000 0.55306  0.12072  0.49089  Biso   1.000  O
  O7       1.0000 0.44628  0.37933  0.00923  Biso   1.000  O
  O8       1.0000 0.44591  0.37085  0.25934  Biso   1.000  O
  Hf4      1.0000 0.27794  0.02142  0.64589  Biso   1.000  Hf
  Hf5      1.0000 0.27771  0.22891  0.89556  Biso   1.000  Hf
  Hf6      1.0000 0.72234  0.27135  0.60414  Biso   1.000  Hf
  Hf7      1.0000 0.72229  0.47865  0.85401  Biso   1.000  Hf
  O9       1.0000 0.07268  0.17030  0.58120  Biso   1.000  O
  O10      1.0000 0.07304  0.07976  0.83106  Biso   1.000  O
  O11      1.0000 0.92733  0.42022  0.66904  Biso   1.000  O
  O12      1.0000 0.92733  0.33013  0.91894  Biso   1.000  O
  O13      1.0000 0.55359  0.12924  0.74056  Biso   1.000  O
  O14      1.0000 0.55456  0.12132  0.98995  Biso   1.000  O
  O15      1.0000 0.44652  0.37921  0.50934  Biso   1.000  O
  O16      1.0000 0.44656  0.37083  0.75922  Biso   1.000  O
  Hf8      1.0000 0.27746  0.52129  0.14582  Biso   1.000  Hf
  Hf9      1.0000 0.27764  0.72836  0.39592  Biso   1.000  Hf
  Hf10     1.0000 0.72202  0.77077  0.10415  Biso   1.000  Hf
  Hf11     1.0000 0.72180  0.97847  0.35450  Biso   1.000  Hf
  O17      1.0000 0.07297  0.67025  0.08084  Biso   1.000  O
  O18      1.0000 0.07226  0.57986  0.33080  Biso   1.000  O
  O19      1.0000 0.92539  0.92019  0.16941  Biso   1.000  O
  O20      1.0000 0.92755  0.82986  0.41927  Biso   1.000  O
  O21      1.0000 0.55328  0.62876  0.24055  Biso   1.000  O
  O22      1.0000 0.55340  0.62073  0.49059  Biso   1.000  O
  O23      1.0000 0.44834  0.87838  0.00870  Biso   1.000  O
  O24      1.0000 0.44727  0.86983  0.25982  Biso   1.000  O
  Hf12     1.0000 0.27772  0.52138  0.64575  Biso   1.000  Hf
  Hf13     1.0000 0.27798  0.72851  0.89562  Biso   1.000  Hf
  Hf14     1.0000 0.72231  0.77141  0.60414  Biso   1.000  Hf
  Hf15     1.0000 0.72271  0.97850  0.85405  Biso   1.000  Hf
  O25      1.0000 0.07252  0.67009  0.58093  Biso   1.000  O
  O26      1.0000 0.07263  0.57984  0.83075  Biso   1.000  O
  O27      1.0000 0.92754  0.92012  0.66922  Biso   1.000  O
  O28      1.0000 0.92844  0.83003  0.91927  Biso   1.000  O
  O29      1.0000 0.55347  0.62923  0.74051  Biso   1.000  O
  O30      1.0000 0.55355  0.62059  0.99057  Biso   1.000  O
  O31      1.0000 0.44653  0.87919  0.50953  Biso   1.000  O
  O32      1.0000 0.44676  0.87077  0.75927  Biso   1.000  O
