data_image0
_cell_length_a       10.0586
_cell_length_b       10.2118
_cell_length_c       10.0586
_cell_angle_alpha    90
_cell_angle_beta     90
_cell_angle_gamma    90

_symmetry_space_group_name_H-M    "P 1"
_symmetry_int_tables_number       1

loop_
  _symmetry_equiv_pos_as_xyz
  'x, y, z'

loop_
  _atom_site_label
  _atom_site_occupancy
  _atom_site_fract_x
  _atom_site_fract_y
  _atom_site_fract_z
  _atom_site_thermal_displace_type
  _atom_site_B_iso_or_equiv
  _atom_site_type_symbol
  Hf1      1.0000 0.12491  0.98165  0.12491  Biso   1.000  Hf
  Hf2      1.0000 0.12491  0.25005  0.39214  Biso   1.000  Hf
  Hf3      1.0000 0.39214  0.25006  0.12491  Biso   1.000  Hf
  Hf4      1.0000 0.37352  0.00407  0.37352  Biso   1.000  Hf
  O1       1.0000 0.98961  0.14608  0.98961  Biso   1.000  O
  O2       1.0000 0.00416  0.10523  0.24566  Biso   1.000  O
  O3       1.0000 0.98961  0.35403  0.26021  Biso   1.000  O
  O4       1.0000 0.00416  0.39487  0.00416  Biso   1.000  O
  O5       1.0000 0.26021  0.14607  0.26021  Biso   1.000  O
  O6       1.0000 0.24566  0.10523  0.00416  Biso   1.000  O
  O7       1.0000 0.26021  0.35403  0.98961  Biso   1.000  O
  O8       1.0000 0.24566  0.39487  0.24566  Biso   1.000  O
  Hf5      1.0000 0.12491  0.99465  0.62491  Biso   1.000  Hf
  Hf6      1.0000 0.12491  0.25005  0.85767  Biso   1.000  Hf
  Hf7      1.0000 0.37785  0.25006  0.62491  Biso   1.000  Hf
  Hf8      1.0000 0.37261  0.00385  0.87721  Biso   1.000  Hf
  O9       1.0000 0.99239  0.14348  0.49957  Biso   1.000  O
  O10      1.0000 0.00311  0.10346  0.74561  Biso   1.000  O
  O11      1.0000 0.99239  0.35663  0.75024  Biso   1.000  O
  O12      1.0000 0.00311  0.39665  0.50420  Biso   1.000  O
  O13      1.0000 0.25743  0.14348  0.75024  Biso   1.000  O
  O14      1.0000 0.24671  0.10346  0.50420  Biso   1.000  O
  O15      1.0000 0.25742  0.35662  0.49957  Biso   1.000  O
  O16      1.0000 0.24670  0.39665  0.74561  Biso   1.000  O
  Hf9      1.0000 0.12491  0.51845  0.12491  Biso   1.000  Hf
  Hf10     1.0000 0.12491  0.75006  0.37799  Biso   1.000  Hf
  Hf11     1.0000 0.37799  0.75005  0.12491  Biso   1.000  Hf
  Hf12     1.0000 0.37261  0.49626  0.37261  Biso   1.000  Hf
  O17      1.0000 0.00023  0.64725  0.00023  Biso   1.000  O
  O18      1.0000 0.99686  0.60823  0.25296  Biso   1.000  O
  O19      1.0000 0.00023  0.85286  0.24959  Biso   1.000  O
  O20      1.0000 0.99687  0.89188  0.99687  Biso   1.000  O
  O21      1.0000 0.24958  0.64724  0.24959  Biso   1.000  O
  O22      1.0000 0.25295  0.60822  0.99686  Biso   1.000  O
  O23      1.0000 0.24959  0.85286  0.00024  Biso   1.000  O
  O24      1.0000 0.25296  0.89188  0.25296  Biso   1.000  O
  Hf13     1.0000 0.12491  0.50546  0.62491  Biso   1.000  Hf
  Hf14     1.0000 0.12491  0.75005  0.87183  Biso   1.000  Hf
  Hf15     1.0000 0.37657  0.75005  0.62491  Biso   1.000  Hf
  Hf16     1.0000 0.37352  0.49604  0.87630  Biso   1.000  Hf
  O25      1.0000 0.99923  0.64662  0.50214  Biso   1.000  O
  O26      1.0000 0.00178  0.60402  0.75277  Biso   1.000  O
  O27      1.0000 0.99923  0.85349  0.74768  Biso   1.000  O
  O28      1.0000 0.00178  0.89609  0.49705  Biso   1.000  O
  O29      1.0000 0.25059  0.64662  0.74768  Biso   1.000  O
  O30      1.0000 0.24804  0.60402  0.49704  Biso   1.000  O
  O31      1.0000 0.25059  0.85349  0.50215  Biso   1.000  O
  O32      1.0000 0.24804  0.89608  0.75278  Biso   1.000  O
  Hf17     1.0000 0.62491  0.99465  0.12491  Biso   1.000  Hf
  Hf18     1.0000 0.62491  0.25005  0.37785  Biso   1.000  Hf
  Hf19     1.0000 0.85768  0.25006  0.12491  Biso   1.000  Hf
  Hf20     1.0000 0.87721  0.00385  0.37261  Biso   1.000  Hf
  O33      1.0000 0.49957  0.14348  0.99239  Biso   1.000  O
  O34      1.0000 0.50420  0.10346  0.24671  Biso   1.000  O
  O35      1.0000 0.49957  0.35663  0.25742  Biso   1.000  O
  O36      1.0000 0.50420  0.39665  0.00311  Biso   1.000  O
  O37      1.0000 0.75024  0.14348  0.25742  Biso   1.000  O
  O38      1.0000 0.74561  0.10346  0.00311  Biso   1.000  O
  O39      1.0000 0.75024  0.35663  0.99239  Biso   1.000  O
  O40      1.0000 0.74561  0.39665  0.24671  Biso   1.000  O
  Hf21     1.0000 0.62491  0.99718  0.62491  Biso   1.000  Hf
  Hf22     1.0000 0.62491  0.25005  0.87196  Biso   1.000  Hf
  Hf23     1.0000 0.87196  0.25005  0.62491  Biso   1.000  Hf
  Hf24     1.0000 0.87630  0.00406  0.87630  Biso   1.000  Hf
  O41      1.0000 0.49589  0.14797  0.49589  Biso   1.000  O
  O42      1.0000 0.50269  0.10195  0.74713  Biso   1.000  O
  O43      1.0000 0.49590  0.35214  0.75392  Biso   1.000  O
  O44      1.0000 0.50269  0.39815  0.50269  Biso   1.000  O
  O45      1.0000 0.75392  0.14797  0.75392  Biso   1.000  O
  O46      1.0000 0.74713  0.10195  0.50269  Biso   1.000  O
  O47      1.0000 0.75392  0.35214  0.49589  Biso   1.000  O
  O48      1.0000 0.74713  0.39816  0.74713  Biso   1.000  O
  Hf25     1.0000 0.62491  0.50546  0.12491  Biso   1.000  Hf
  Hf26     1.0000 0.62491  0.75005  0.37656  Biso   1.000  Hf
  Hf27     1.0000 0.87183  0.75005  0.12491  Biso   1.000  Hf
  Hf28     1.0000 0.87630  0.49604  0.37352  Biso   1.000  Hf
  O49      1.0000 0.50214  0.64662  0.99923  Biso   1.000  O
  O50      1.0000 0.49704  0.60402  0.24804  Biso   1.000  O
  O51      1.0000 0.50214  0.85349  0.25058  Biso   1.000  O
  O52      1.0000 0.49705  0.89608  0.00178  Biso   1.000  O
  O53      1.0000 0.74768  0.64662  0.25059  Biso   1.000  O
  O54      1.0000 0.75277  0.60402  0.00178  Biso   1.000  O
  O55      1.0000 0.74768  0.85349  0.99923  Biso   1.000  O
  O56      1.0000 0.75277  0.89609  0.24804  Biso   1.000  O
  Hf29     1.0000 0.62491  0.50293  0.62491  Biso   1.000  Hf
  Hf30     1.0000 0.62491  0.75005  0.87325  Biso   1.000  Hf
  Hf31     1.0000 0.87325  0.75005  0.62491  Biso   1.000  Hf
  Hf32     1.0000 0.87720  0.49626  0.87720  Biso   1.000  Hf
  O57      1.0000 0.49862  0.64777  0.49862  Biso   1.000  O
  O58      1.0000 0.50026  0.60214  0.74956  Biso   1.000  O
  O59      1.0000 0.49862  0.85234  0.75120  Biso   1.000  O
  O60      1.0000 0.50026  0.89797  0.50026  Biso   1.000  O
  O61      1.0000 0.75120  0.64777  0.75120  Biso   1.000  O
  O62      1.0000 0.74955  0.60214  0.50026  Biso   1.000  O
  O63      1.0000 0.75120  0.85234  0.49862  Biso   1.000  O
  O64      1.0000 0.74956  0.89797  0.74956  Biso   1.000  O
  Zr1      1.0000 0.12491  0.25005  0.12491  Biso   1.000  Zr
