data_image0
_cell_length_a       5.13817
_cell_length_b       10.1418
_cell_length_c       10.1418
_cell_angle_alpha    89.9995
_cell_angle_beta     90.0002
_cell_angle_gamma    89.9995

_symmetry_space_group_name_H-M    "P 1"
_symmetry_int_tables_number       1

loop_
  _symmetry_equiv_pos_as_xyz
  'x, y, z'

loop_
  _atom_site_label
  _atom_site_occupancy
  _atom_site_fract_x
  _atom_site_fract_y
  _atom_site_fract_z
  _atom_site_thermal_displace_type
  _atom_site_B_iso_or_equiv
  _atom_site_type_symbol
  Zr1      1.0000 0.25037  0.98207  0.10669  Biso   1.000  Zr
  Zr2      1.0000 0.25036  0.24998  0.37460  Biso   1.000  Zr
  Zr3      1.0000 0.75036  0.24998  0.10669  Biso   1.000  Zr
  Zr4      1.0000 0.74917  0.49672  0.35343  Biso   1.000  Zr
  O1       1.0000 0.98478  0.12693  0.22972  Biso   1.000  O
  O2       1.0000 0.02878  0.11507  0.48079  Biso   1.000  O
  O3       1.0000 0.02126  0.37980  0.23652  Biso   1.000  O
  O4       1.0000 0.96736  0.36932  0.48495  Biso   1.000  O
  O5       1.0000 0.47945  0.12016  0.23652  Biso   1.000  O
  O6       1.0000 0.53337  0.13064  0.48495  Biso   1.000  O
  O7       1.0000 0.47195  0.38489  0.48079  Biso   1.000  O
  O8       1.0000 0.51594  0.37303  0.22972  Biso   1.000  O
  Zr5      1.0000 0.25036  0.99589  0.60669  Biso   1.000  Zr
  Zr6      1.0000 0.25038  0.24998  0.83878  Biso   1.000  Zr
  Zr7      1.0000 0.75036  0.24997  0.60669  Biso   1.000  Zr
  Zr8      1.0000 0.75156  0.49673  0.85994  Biso   1.000  Zr
  O9       1.0000 0.96738  0.13065  0.72843  Biso   1.000  O
  O10      1.0000 0.02126  0.12016  0.97686  Biso   1.000  O
  O11      1.0000 0.02880  0.38491  0.73260  Biso   1.000  O
  O12      1.0000 0.98478  0.37303  0.98366  Biso   1.000  O
  O13      1.0000 0.47197  0.11507  0.73259  Biso   1.000  O
  O14      1.0000 0.51593  0.12694  0.98365  Biso   1.000  O
  O15      1.0000 0.47945  0.37981  0.97686  Biso   1.000  O
  O16      1.0000 0.53339  0.36931  0.72844  Biso   1.000  O
  Zr9      1.0000 0.25036  0.51789  0.10668  Biso   1.000  Zr
  Zr10     1.0000 0.25037  0.74997  0.36079  Biso   1.000  Zr
  Zr11     1.0000 0.75037  0.74997  0.10669  Biso   1.000  Zr
  Zr12     1.0000 0.75155  0.00323  0.35343  Biso   1.000  Zr
  O17      1.0000 0.96735  0.62822  0.22602  Biso   1.000  O
  O18      1.0000 0.03836  0.61669  0.47340  Biso   1.000  O
  O19      1.0000 0.02879  0.87587  0.24161  Biso   1.000  O
  O20      1.0000 0.96417  0.86955  0.48714  Biso   1.000  O
  O21      1.0000 0.47195  0.62409  0.24160  Biso   1.000  O
  O22      1.0000 0.53656  0.63042  0.48713  Biso   1.000  O
  O23      1.0000 0.46237  0.88327  0.47339  Biso   1.000  O
  O24      1.0000 0.53339  0.87174  0.22601  Biso   1.000  O
  Zr13     1.0000 0.25036  0.50408  0.60669  Biso   1.000  Zr
  Zr14     1.0000 0.25037  0.74998  0.85260  Biso   1.000  Zr
  Zr15     1.0000 0.75035  0.74999  0.60669  Biso   1.000  Zr
  Zr16     1.0000 0.74919  0.00324  0.85994  Biso   1.000  Zr
  O25      1.0000 0.96418  0.63044  0.72624  Biso   1.000  O
  O26      1.0000 0.02877  0.62409  0.97177  Biso   1.000  O
  O27      1.0000 0.03836  0.88328  0.73999  Biso   1.000  O
  O28      1.0000 0.96738  0.87173  0.98736  Biso   1.000  O
  O29      1.0000 0.46237  0.61668  0.73999  Biso   1.000  O
  O30      1.0000 0.53336  0.62824  0.98736  Biso   1.000  O
  O31      1.0000 0.47196  0.87588  0.97176  Biso   1.000  O
  O32      1.0000 0.53655  0.86954  0.72624  Biso   1.000  O
  Zr17     1.0000 0.25036  0.24998  0.10669  Biso   1.000  Zr
