data_image0
_cell_length_a       10.1418
_cell_length_b       10.1418
_cell_length_c       5.13816
_cell_angle_alpha    89.9999
_cell_angle_beta     89.9996
_cell_angle_gamma    90.0002

_symmetry_space_group_name_H-M    "P 1"
_symmetry_int_tables_number       1

loop_
  _symmetry_equiv_pos_as_xyz
  'x, y, z'

loop_
  _atom_site_label
  _atom_site_occupancy
  _atom_site_fract_x
  _atom_site_fract_y
  _atom_site_fract_z
  _atom_site_thermal_displace_type
  _atom_site_B_iso_or_equiv
  _atom_site_type_symbol
  Zr1      1.0000 0.12518  0.98207  0.21341  Biso   1.000  Zr
  Zr2      1.0000 0.12518  0.24998  0.71340  Biso   1.000  Zr
  Zr3      1.0000 0.39309  0.24998  0.21338  Biso   1.000  Zr
  Zr4      1.0000 0.37192  0.49672  0.71220  Biso   1.000  Zr
  O1       1.0000 0.00215  0.12693  0.47897  Biso   1.000  O
  O2       1.0000 0.99535  0.12015  0.98430  Biso   1.000  O
  O3       1.0000 0.49928  0.38489  0.43498  Biso   1.000  O
  O4       1.0000 0.50343  0.36932  0.93038  Biso   1.000  O
  O5       1.0000 0.25501  0.12015  0.44248  Biso   1.000  O
  O6       1.0000 0.24823  0.12694  0.94782  Biso   1.000  O
  O7       1.0000 0.25501  0.37981  0.98430  Biso   1.000  O
  O8       1.0000 0.24822  0.37302  0.47897  Biso   1.000  O
  Zr5      1.0000 0.12518  0.51788  0.21338  Biso   1.000  Zr
  Zr6      1.0000 0.12518  0.74998  0.71339  Biso   1.000  Zr
  Zr7      1.0000 0.37927  0.74998  0.21339  Biso   1.000  Zr
  Zr8      1.0000 0.37193  0.00324  0.71458  Biso   1.000  Zr
  O9       1.0000 0.00585  0.62823  0.49639  Biso   1.000  O
  O10      1.0000 0.99026  0.62407  0.99180  Biso   1.000  O
  O11      1.0000 0.49188  0.88327  0.42539  Biso   1.000  O
  O12      1.0000 0.50563  0.86955  0.92719  Biso   1.000  O
  O13      1.0000 0.26010  0.62408  0.43498  Biso   1.000  O
  O14      1.0000 0.24451  0.62823  0.93039  Biso   1.000  O
  O15      1.0000 0.26011  0.87588  0.99181  Biso   1.000  O
  O16      1.0000 0.24451  0.87172  0.49641  Biso   1.000  O
  Zr9      1.0000 0.62519  0.99589  0.21339  Biso   1.000  Zr
  Zr10     1.0000 0.62517  0.24997  0.71341  Biso   1.000  Zr
  Zr11     1.0000 0.85727  0.24999  0.21340  Biso   1.000  Zr
  Zr12     1.0000 0.87843  0.49673  0.71457  Biso   1.000  Zr
  O17      1.0000 0.50344  0.13065  0.49637  Biso   1.000  O
  O18      1.0000 0.49929  0.11507  0.99178  Biso   1.000  O
  O19      1.0000 0.99535  0.37980  0.44250  Biso   1.000  O
  O20      1.0000 0.00214  0.37301  0.94782  Biso   1.000  O
  O21      1.0000 0.75109  0.11505  0.43499  Biso   1.000  O
  O22      1.0000 0.74693  0.13065  0.93040  Biso   1.000  O
  O23      1.0000 0.75108  0.38490  0.99181  Biso   1.000  O
  O24      1.0000 0.74693  0.36930  0.49640  Biso   1.000  O
  Zr13     1.0000 0.62517  0.50407  0.21339  Biso   1.000  Zr
  Zr14     1.0000 0.62517  0.74998  0.71338  Biso   1.000  Zr
  Zr15     1.0000 0.87108  0.74998  0.21338  Biso   1.000  Zr
  Zr16     1.0000 0.87843  0.00323  0.71220  Biso   1.000  Zr
  O25      1.0000 0.50563  0.63042  0.49958  Biso   1.000  O
  O26      1.0000 0.49189  0.61669  0.00138  Biso   1.000  O
  O27      1.0000 0.99026  0.87587  0.43499  Biso   1.000  O
  O28      1.0000 0.00586  0.87172  0.93040  Biso   1.000  O
  O29      1.0000 0.75848  0.61668  0.42538  Biso   1.000  O
  O30      1.0000 0.74474  0.63043  0.92718  Biso   1.000  O
  O31      1.0000 0.75849  0.88328  0.00137  Biso   1.000  O
  O32      1.0000 0.74473  0.86953  0.49957  Biso   1.000  O
  Zr17     1.0000 0.12518  0.24997  0.21340  Biso   1.000  Zr
