data_image0
_cell_length_a       10.349
_cell_length_b       5.20455
_cell_length_c       10.6302
_cell_angle_alpha    89.5172
_cell_angle_beta     79.0838
_cell_angle_gamma    89.4392

_symmetry_space_group_name_H-M    "P 1"
_symmetry_int_tables_number       1

loop_
  _symmetry_equiv_pos_as_xyz
  'x, y, z'

loop_
  _atom_site_label
  _atom_site_occupancy
  _atom_site_fract_x
  _atom_site_fract_y
  _atom_site_fract_z
  _atom_site_thermal_displace_type
  _atom_site_B_iso_or_equiv
  _atom_site_type_symbol
  Zr1      1.0000 0.13575  0.03620  0.14403  Biso   1.000  Zr
  Zr2      1.0000 0.11850  0.44373  0.39698  Biso   1.000  Zr
  Zr3      1.0000 0.35323  0.53996  0.08856  Biso   1.000  Zr
  Zr4      1.0000 0.36136  0.97468  0.35382  Biso   1.000  Zr
  O1       1.0000 0.02911  0.31388  0.06883  Biso   1.000  O
  O2       1.0000 0.02271  0.17268  0.31726  Biso   1.000  O
  O3       1.0000 0.47652  0.79252  0.18928  Biso   1.000  O
  O4       1.0000 0.49021  0.72816  0.44272  Biso   1.000  O
  O5       1.0000 0.26851  0.24183  0.23453  Biso   1.000  O
  O6       1.0000 0.26782  0.24512  0.49042  Biso   1.000  O
  O7       1.0000 0.21924  0.76116  0.00167  Biso   1.000  O
  O8       1.0000 0.23228  0.72704  0.25568  Biso   1.000  O
  Zr5      1.0000 0.13907  0.03894  0.64355  Biso   1.000  Zr
  Zr6      1.0000 0.13466  0.45360  0.89088  Biso   1.000  Zr
  Zr7      1.0000 0.36733  0.55078  0.60934  Biso   1.000  Zr
  Zr8      1.0000 0.35978  0.96228  0.85207  Biso   1.000  Zr
  O9       1.0000 0.02411  0.31620  0.57652  Biso   1.000  O
  O10      1.0000 0.03022  0.17515  0.82003  Biso   1.000  O
  O11      1.0000 0.47223  0.82491  0.68452  Biso   1.000  O
  O12      1.0000 0.47232  0.69373  0.92846  Biso   1.000  O
  O13      1.0000 0.27216  0.25417  0.73914  Biso   1.000  O
  O14      1.0000 0.27060  0.24692  0.98565  Biso   1.000  O
  O15      1.0000 0.23948  0.73497  0.49831  Biso   1.000  O
  O16      1.0000 0.22426  0.74809  0.75642  Biso   1.000  O
  Zr9      1.0000 0.63791  0.03965  0.14764  Biso   1.000  Zr
  Zr10     1.0000 0.64924  0.46987  0.40271  Biso   1.000  Zr
  Zr11     1.0000 0.86195  0.54146  0.10560  Biso   1.000  Zr
  Zr12     1.0000 0.85748  0.95869  0.35541  Biso   1.000  Zr
  O17      1.0000 0.52528  0.31075  0.07641  Biso   1.000  O
  O18      1.0000 0.53430  0.19083  0.32946  Biso   1.000  O
  O19      1.0000 0.97015  0.80993  0.17702  Biso   1.000  O
  O20      1.0000 0.96359  0.68786  0.43091  Biso   1.000  O
  O21      1.0000 0.77385  0.25653  0.23912  Biso   1.000  O
  O22      1.0000 0.77832  0.24476  0.49424  Biso   1.000  O
  O23      1.0000 0.72536  0.75510  0.01421  Biso   1.000  O
  O24      1.0000 0.72892  0.74869  0.26247  Biso   1.000  O
  Zr13     1.0000 0.63792  0.04874  0.64942  Biso   1.000  Zr
  Zr14     1.0000 0.63698  0.45592  0.89961  Biso   1.000  Zr
  Zr15     1.0000 0.85959  0.54802  0.61103  Biso   1.000  Zr
  Zr16     1.0000 0.86098  0.95698  0.85587  Biso   1.000  Zr
  O25      1.0000 0.53264  0.32249  0.57448  Biso   1.000  O
  O26      1.0000 0.52728  0.19114  0.82520  Biso   1.000  O
  O27      1.0000 0.97061  0.82039  0.67684  Biso   1.000  O
  O28      1.0000 0.96606  0.67368  0.92487  Biso   1.000  O
  O29      1.0000 0.77127  0.25789  0.74389  Biso   1.000  O
  O30      1.0000 0.77177  0.24176  0.99146  Biso   1.000  O
  O31      1.0000 0.72632  0.75849  0.51703  Biso   1.000  O
  O32      1.0000 0.72681  0.74694  0.76565  Biso   1.000  O
  Zr17     1.0000 0.38529  0.48691  0.33574  Biso   1.000  Zr
