data_image0
_cell_length_a       10.1467
_cell_length_b       10.3513
_cell_length_c       5.34184
_cell_angle_alpha    89.8356
_cell_angle_beta     91.4846
_cell_angle_gamma    90.0146

_symmetry_space_group_name_H-M    "P 1"
_symmetry_int_tables_number       1

loop_
  _symmetry_equiv_pos_as_xyz
  'x, y, z'

loop_
  _atom_site_label
  _atom_site_occupancy
  _atom_site_fract_x
  _atom_site_fract_y
  _atom_site_fract_z
  _atom_site_thermal_displace_type
  _atom_site_B_iso_or_equiv
  _atom_site_type_symbol
  Zr1      1.0000 0.13911  0.02012  0.35491  Biso   1.000  Zr
  Zr2      1.0000 0.14359  0.22747  0.85734  Biso   1.000  Zr
  Zr3      1.0000 0.35532  0.27029  0.37079  Biso   1.000  Zr
  Zr4      1.0000 0.36128  0.47753  0.86453  Biso   1.000  Zr
  Zr5      1.0000 0.64260  0.00463  0.15128  Biso   1.000  Zr
  Zr6      1.0000 0.65058  0.22231  0.60382  Biso   1.000  Zr
  Zr7      1.0000 0.87133  0.27304  0.13911  Biso   1.000  Zr
  Zr8      1.0000 0.86467  0.48109  0.64894  Biso   1.000  Zr
  O1       1.0000 0.03052  0.15540  0.15778  Biso   1.000  O
  O2       1.0000 0.03054  0.09144  0.66246  Biso   1.000  O
  O3       1.0000 0.46413  0.43031  0.20405  Biso   1.000  O
  O4       1.0000 0.48011  0.33140  0.68792  Biso   1.000  O
  O5       1.0000 0.27320  0.12407  0.60751  Biso   1.000  O
  O6       1.0000 0.27147  0.12010  0.10982  Biso   1.000  O
  O7       1.0000 0.22525  0.37570  0.61614  Biso   1.000  O
  O8       1.0000 0.21961  0.37459  0.11392  Biso   1.000  O
  O9       1.0000 0.52098  0.14249  0.34393  Biso   1.000  O
  O10      1.0000 0.52477  0.09128  0.85078  Biso   1.000  O
  O11      1.0000 0.96842  0.41264  0.34792  Biso   1.000  O
  O12      1.0000 0.97528  0.34022  0.84209  Biso   1.000  O
  O13      1.0000 0.76005  0.13364  0.90404  Biso   1.000  O
  O14      1.0000 0.78480  0.11490  0.38906  Biso   1.000  O
  O15      1.0000 0.72800  0.38315  0.87643  Biso   1.000  O
  O16      1.0000 0.71481  0.36824  0.35375  Biso   1.000  O
  Zr9      1.0000 0.14232  0.52027  0.35543  Biso   1.000  Zr
  Zr10     1.0000 0.14049  0.72782  0.85281  Biso   1.000  Zr
  Zr11     1.0000 0.36072  0.77117  0.35768  Biso   1.000  Zr
  Zr12     1.0000 0.36044  0.97691  0.85766  Biso   1.000  Zr
  Zr13     1.0000 0.64017  0.53761  0.14832  Biso   1.000  Zr
  Zr14     1.0000 0.64036  0.73062  0.65532  Biso   1.000  Zr
  Zr15     1.0000 0.86843  0.76974  0.15953  Biso   1.000  Zr
  Zr16     1.0000 0.86593  0.97949  0.65686  Biso   1.000  Zr
  O17      1.0000 0.03403  0.65944  0.16667  Biso   1.000  O
  O18      1.0000 0.03211  0.58871  0.66823  Biso   1.000  O
  O19      1.0000 0.47123  0.90230  0.15704  Biso   1.000  O
  O20      1.0000 0.47276  0.84319  0.66255  Biso   1.000  O
  O21      1.0000 0.27549  0.62469  0.60260  Biso   1.000  O
  O22      1.0000 0.27559  0.62418  0.10042  Biso   1.000  O
  O23      1.0000 0.22612  0.87338  0.60540  Biso   1.000  O
  O24      1.0000 0.22516  0.87382  0.10605  Biso   1.000  O
  O25      1.0000 0.53240  0.66841  0.34691  Biso   1.000  O
  O26      1.0000 0.52893  0.59121  0.84060  Biso   1.000  O
  O27      1.0000 0.97287  0.90784  0.35418  Biso   1.000  O
  O28      1.0000 0.97378  0.84059  0.85188  Biso   1.000  O
  O29      1.0000 0.77996  0.63161  0.90274  Biso   1.000  O
  O30      1.0000 0.77859  0.62479  0.40853  Biso   1.000  O
  O31      1.0000 0.73085  0.87645  0.90770  Biso   1.000  O
  O32      1.0000 0.73115  0.86949  0.41267  Biso   1.000  O
  Zr17     1.0000 0.57844  0.27040  0.05445  Biso   1.000  Zr
