data_image0
_cell_length_a       10.1418
_cell_length_b       5.13818
_cell_length_c       10.1418
_cell_angle_alpha    89.9999
_cell_angle_beta     90.0007
_cell_angle_gamma    89.9995

_symmetry_space_group_name_H-M    "P 1"
_symmetry_int_tables_number       1

loop_
  _symmetry_equiv_pos_as_xyz
  'x, y, z'

loop_
  _atom_site_label
  _atom_site_occupancy
  _atom_site_fract_x
  _atom_site_fract_y
  _atom_site_fract_z
  _atom_site_thermal_displace_type
  _atom_site_B_iso_or_equiv
  _atom_site_type_symbol
  Zr1      1.0000 0.12516  0.00001  0.10666  Biso   1.000  Zr
  Zr2      1.0000 0.12516  0.50002  0.37456  Biso   1.000  Zr
  Zr3      1.0000 0.39306  0.50002  0.10666  Biso   1.000  Zr
  Zr4      1.0000 0.37190  0.00120  0.35341  Biso   1.000  Zr
  O1       1.0000 0.99534  0.27091  0.23648  Biso   1.000  O
  O2       1.0000 0.00582  0.21701  0.48491  Biso   1.000  O
  O3       1.0000 0.50340  0.78304  0.22599  Biso   1.000  O
  O4       1.0000 0.49186  0.71200  0.47336  Biso   1.000  O
  O5       1.0000 0.24820  0.23444  0.22969  Biso   1.000  O
  O6       1.0000 0.26007  0.27844  0.48076  Biso   1.000  O
  O7       1.0000 0.24448  0.78304  0.48489  Biso   1.000  O
  O8       1.0000 0.25498  0.72911  0.23647  Biso   1.000  O
  Zr5      1.0000 0.12514  0.99999  0.60666  Biso   1.000  Zr
  Zr6      1.0000 0.12515  0.49998  0.83874  Biso   1.000  Zr
  Zr7      1.0000 0.37925  0.50000  0.60665  Biso   1.000  Zr
  Zr8      1.0000 0.37189  0.99880  0.85991  Biso   1.000  Zr
  O9       1.0000 0.99024  0.27838  0.73254  Biso   1.000  O
  O10      1.0000 0.00211  0.23444  0.98361  Biso   1.000  O
  O11      1.0000 0.50559  0.78624  0.72622  Biso   1.000  O
  O12      1.0000 0.49927  0.72160  0.97175  Biso   1.000  O
  O13      1.0000 0.24448  0.21697  0.72840  Biso   1.000  O
  O14      1.0000 0.25498  0.27092  0.97683  Biso   1.000  O
  O15      1.0000 0.24820  0.76559  0.98361  Biso   1.000  O
  O16      1.0000 0.26006  0.72157  0.73254  Biso   1.000  O
  Zr9      1.0000 0.62515  0.00001  0.10665  Biso   1.000  Zr
  Zr10     1.0000 0.62516  0.50002  0.36074  Biso   1.000  Zr
  Zr11     1.0000 0.85724  0.50001  0.10665  Biso   1.000  Zr
  Zr12     1.0000 0.87842  0.99883  0.35340  Biso   1.000  Zr
  O17      1.0000 0.49927  0.27844  0.24157  Biso   1.000  O
  O18      1.0000 0.50559  0.21380  0.48710  Biso   1.000  O
  O19      1.0000 0.00211  0.76558  0.22969  Biso   1.000  O
  O20      1.0000 0.99024  0.72160  0.48076  Biso   1.000  O
  O21      1.0000 0.74691  0.21700  0.22598  Biso   1.000  O
  O22      1.0000 0.75845  0.28802  0.47336  Biso   1.000  O
  O23      1.0000 0.74472  0.78622  0.48710  Biso   1.000  O
  O24      1.0000 0.75104  0.72160  0.24157  Biso   1.000  O
  Zr13     1.0000 0.62516  0.00000  0.60665  Biso   1.000  Zr
  Zr14     1.0000 0.62515  0.50001  0.85255  Biso   1.000  Zr
  Zr15     1.0000 0.87106  0.50001  0.60666  Biso   1.000  Zr
  Zr16     1.0000 0.87841  0.00118  0.85992  Biso   1.000  Zr
  O25      1.0000 0.49185  0.28803  0.73995  Biso   1.000  O
  O26      1.0000 0.50340  0.21700  0.98732  Biso   1.000  O
  O27      1.0000 0.00581  0.78298  0.72840  Biso   1.000  O
  O28      1.0000 0.99533  0.72911  0.97682  Biso   1.000  O
  O29      1.0000 0.74471  0.21383  0.72621  Biso   1.000  O
  O30      1.0000 0.75104  0.27842  0.97174  Biso   1.000  O
  O31      1.0000 0.74691  0.78302  0.98733  Biso   1.000  O
  O32      1.0000 0.75844  0.71203  0.73994  Biso   1.000  O
  Zr17     1.0000 0.12515  0.50001  0.10665  Biso   1.000  Zr
