data_image0
_cell_length_a       10.1418
_cell_length_b       5.13818
_cell_length_c       10.1418
_cell_angle_alpha    90
_cell_angle_beta     90
_cell_angle_gamma    90

_symmetry_space_group_name_H-M    "P 1"
_symmetry_int_tables_number       1

loop_
  _symmetry_equiv_pos_as_xyz
  'x, y, z'

loop_
  _atom_site_label
  _atom_site_occupancy
  _atom_site_fract_x
  _atom_site_fract_y
  _atom_site_fract_z
  _atom_site_thermal_displace_type
  _atom_site_B_iso_or_equiv
  _atom_site_type_symbol
  Zr1      1.0000 0.12540  0.00015  0.12540  Biso   1.000  Zr
  Zr2      1.0000 0.12540  0.50015  0.39330  Biso   1.000  Zr
  Zr3      1.0000 0.39331  0.50015  0.12540  Biso   1.000  Zr
  Zr4      1.0000 0.37214  0.99896  0.37214  Biso   1.000  Zr
  O1       1.0000 0.99557  0.27106  0.99557  Biso   1.000  O
  O2       1.0000 0.00235  0.23458  0.24844  Biso   1.000  O
  O3       1.0000 0.99557  0.72924  0.25522  Biso   1.000  O
  O4       1.0000 0.00235  0.76573  0.00236  Biso   1.000  O
  O5       1.0000 0.25522  0.27106  0.25522  Biso   1.000  O
  O6       1.0000 0.24844  0.23458  0.00236  Biso   1.000  O
  O7       1.0000 0.25522  0.72924  0.99557  Biso   1.000  O
  O8       1.0000 0.24844  0.76573  0.24844  Biso   1.000  O
  Zr5      1.0000 0.12540  0.00015  0.62540  Biso   1.000  Zr
  Zr6      1.0000 0.12540  0.50015  0.85749  Biso   1.000  Zr
  Zr7      1.0000 0.37949  0.50015  0.62540  Biso   1.000  Zr
  Zr8      1.0000 0.37214  0.00134  0.87865  Biso   1.000  Zr
  O9       1.0000 0.99048  0.27857  0.49950  Biso   1.000  O
  O10      1.0000 0.00606  0.21714  0.74715  Biso   1.000  O
  O11      1.0000 0.99048  0.72174  0.75129  Biso   1.000  O
  O12      1.0000 0.00606  0.78316  0.50365  Biso   1.000  O
  O13      1.0000 0.26031  0.27856  0.75129  Biso   1.000  O
  O14      1.0000 0.24473  0.21714  0.50365  Biso   1.000  O
  O15      1.0000 0.26031  0.72174  0.49950  Biso   1.000  O
  O16      1.0000 0.24473  0.78316  0.74714  Biso   1.000  O
  Zr9      1.0000 0.62540  0.00015  0.12540  Biso   1.000  Zr
  Zr10     1.0000 0.62540  0.50015  0.37949  Biso   1.000  Zr
  Zr11     1.0000 0.85749  0.50015  0.12540  Biso   1.000  Zr
  Zr12     1.0000 0.87865  0.00134  0.37214  Biso   1.000  Zr
  O17      1.0000 0.49951  0.27857  0.99048  Biso   1.000  O
  O18      1.0000 0.50364  0.21714  0.24473  Biso   1.000  O
  O19      1.0000 0.49951  0.72174  0.26031  Biso   1.000  O
  O20      1.0000 0.50364  0.78316  0.00607  Biso   1.000  O
  O21      1.0000 0.75129  0.27856  0.26031  Biso   1.000  O
  O22      1.0000 0.74715  0.21714  0.00607  Biso   1.000  O
  O23      1.0000 0.75128  0.72174  0.99048  Biso   1.000  O
  O24      1.0000 0.74715  0.78316  0.24473  Biso   1.000  O
  Zr13     1.0000 0.62540  0.00015  0.62540  Biso   1.000  Zr
  Zr14     1.0000 0.62540  0.50015  0.87130  Biso   1.000  Zr
  Zr15     1.0000 0.87130  0.50015  0.62540  Biso   1.000  Zr
  Zr16     1.0000 0.87865  0.99896  0.87865  Biso   1.000  Zr
  O25      1.0000 0.49211  0.28815  0.49210  Biso   1.000  O
  O26      1.0000 0.50583  0.21394  0.74495  Biso   1.000  O
  O27      1.0000 0.49211  0.71215  0.75869  Biso   1.000  O
  O28      1.0000 0.50583  0.78636  0.50584  Biso   1.000  O
  O29      1.0000 0.75869  0.28815  0.75869  Biso   1.000  O
  O30      1.0000 0.74496  0.21394  0.50584  Biso   1.000  O
  O31      1.0000 0.75869  0.71215  0.49210  Biso   1.000  O
  O32      1.0000 0.74496  0.78635  0.74495  Biso   1.000  O
  Zr17     1.0000 0.12540  0.50015  0.12540  Biso   1.000  Zr
