data_image0
_cell_length_a       10.1665
_cell_length_b       10.2947
_cell_length_c       10.5969
_cell_angle_alpha    90.0327
_cell_angle_beta     90.6416
_cell_angle_gamma    89.7416

_symmetry_space_group_name_H-M    "P 1"
_symmetry_int_tables_number       1

loop_
  _symmetry_equiv_pos_as_xyz
  'x, y, z'

loop_
  _atom_site_label
  _atom_site_occupancy
  _atom_site_fract_x
  _atom_site_fract_y
  _atom_site_fract_z
  _atom_site_thermal_displace_type
  _atom_site_B_iso_or_equiv
  _atom_site_type_symbol
  Zr1      1.0000 0.13761  0.01950  0.17270  Biso   1.000  Zr
  Zr2      1.0000 0.13696  0.22855  0.42409  Biso   1.000  Zr
  Zr3      1.0000 0.35324  0.26578  0.17949  Biso   1.000  Zr
  Zr4      1.0000 0.36133  0.47771  0.42484  Biso   1.000  Zr
  Zr5      1.0000 0.63413  0.99926  0.08097  Biso   1.000  Zr
  Zr6      1.0000 0.63274  0.22606  0.33240  Biso   1.000  Zr
  Zr7      1.0000 0.87831  0.27750  0.07334  Biso   1.000  Zr
  Zr8      1.0000 0.86078  0.47931  0.32605  Biso   1.000  Zr
  O1       1.0000 0.03359  0.15521  0.07423  Biso   1.000  O
  O2       1.0000 0.02461  0.09456  0.32543  Biso   1.000  O
  O3       1.0000 0.47042  0.41331  0.08999  Biso   1.000  O
  O4       1.0000 0.46634  0.33798  0.33131  Biso   1.000  O
  O5       1.0000 0.26689  0.12382  0.30065  Biso   1.000  O
  O6       1.0000 0.27302  0.12192  0.04773  Biso   1.000  O
  O7       1.0000 0.22183  0.37555  0.30048  Biso   1.000  O
  O8       1.0000 0.22626  0.37449  0.04681  Biso   1.000  O
  O9       1.0000 0.50743  0.13065  0.18986  Biso   1.000  O
  O10      1.0000 0.52640  0.09077  0.43062  Biso   1.000  O
  O11      1.0000 0.97502  0.41356  0.17504  Biso   1.000  O
  O12      1.0000 0.97026  0.34175  0.42140  Biso   1.000  O
  O13      1.0000 0.77484  0.12279  0.45176  Biso   1.000  O
  O14      1.0000 0.75606  0.13507  0.19448  Biso   1.000  O
  O15      1.0000 0.72590  0.37543  0.45272  Biso   1.000  O
  O16      1.0000 0.72434  0.38092  0.19913  Biso   1.000  O
  Zr9      1.0000 0.13794  0.02092  0.67292  Biso   1.000  Zr
  Zr10     1.0000 0.14410  0.22771  0.92098  Biso   1.000  Zr
  Zr11     1.0000 0.36207  0.27067  0.67382  Biso   1.000  Zr
  Zr12     1.0000 0.36252  0.47897  0.92393  Biso   1.000  Zr
  Zr13     1.0000 0.63925  0.01821  0.57697  Biso   1.000  Zr
  Zr14     1.0000 0.64517  0.22988  0.81131  Biso   1.000  Zr
  Zr15     1.0000 0.86348  0.27249  0.57424  Biso   1.000  Zr
  Zr16     1.0000 0.86507  0.48057  0.82609  Biso   1.000  Zr
  O17      1.0000 0.03003  0.15912  0.57763  Biso   1.000  O
  O18      1.0000 0.03060  0.09122  0.82825  Biso   1.000  O
  O19      1.0000 0.47236  0.40778  0.58069  Biso   1.000  O
  O20      1.0000 0.47401  0.34065  0.83318  Biso   1.000  O
  O21      1.0000 0.27484  0.12450  0.79611  Biso   1.000  O
  O22      1.0000 0.27408  0.12541  0.54832  Biso   1.000  O
  O23      1.0000 0.22941  0.37495  0.79680  Biso   1.000  O
  O24      1.0000 0.22658  0.37529  0.54834  Biso   1.000  O
  O25      1.0000 0.52598  0.15226  0.67329  Biso   1.000  O
  O26      1.0000 0.52325  0.10092  0.93492  Biso   1.000  O
  O27      1.0000 0.97237  0.41096  0.66974  Biso   1.000  O
  O28      1.0000 0.97964  0.34316  0.91782  Biso   1.000  O
  O29      1.0000 0.76467  0.12941  0.95339  Biso   1.000  O
  O30      1.0000 0.77958  0.12279  0.69714  Biso   1.000  O
  O31      1.0000 0.73310  0.38162  0.94886  Biso   1.000  O
  O32      1.0000 0.73009  0.37677  0.69883  Biso   1.000  O
  Zr17     1.0000 0.14138  0.52196  0.17454  Biso   1.000  Zr
  Zr18     1.0000 0.13716  0.72907  0.42329  Biso   1.000  Zr
  Zr19     1.0000 0.35912  0.76893  0.17517  Biso   1.000  Zr
  Zr20     1.0000 0.36158  0.97790  0.42458  Biso   1.000  Zr
  Zr21     1.0000 0.64290  0.53276  0.07674  Biso   1.000  Zr
  Zr22     1.0000 0.63849  0.72866  0.32998  Biso   1.000  Zr
  Zr23     1.0000 0.86657  0.77085  0.07812  Biso   1.000  Zr
  Zr24     1.0000 0.86123  0.98089  0.32779  Biso   1.000  Zr
  O33      1.0000 0.03343  0.66091  0.07917  Biso   1.000  O
  O34      1.0000 0.02973  0.59207  0.32998  Biso   1.000  O
  O35      1.0000 0.46749  0.89420  0.07112  Biso   1.000  O
  O36      1.0000 0.47138  0.84328  0.32709  Biso   1.000  O
  O37      1.0000 0.27450  0.62417  0.29876  Biso   1.000  O
  O38      1.0000 0.27606  0.62416  0.04751  Biso   1.000  O
  O39      1.0000 0.22469  0.87327  0.29817  Biso   1.000  O
  O40      1.0000 0.22403  0.87512  0.04775  Biso   1.000  O
  O41      1.0000 0.53020  0.66103  0.17557  Biso   1.000  O
  O42      1.0000 0.52882  0.59031  0.42264  Biso   1.000  O
  O43      1.0000 0.96881  0.91265  0.17083  Biso   1.000  O
  O44      1.0000 0.96894  0.84338  0.42198  Biso   1.000  O
  O45      1.0000 0.77497  0.62455  0.45371  Biso   1.000  O
  O46      1.0000 0.77784  0.62902  0.20419  Biso   1.000  O
  O47      1.0000 0.72545  0.87425  0.45562  Biso   1.000  O
  O48      1.0000 0.73068  0.87116  0.20860  Biso   1.000  O
  Zr25     1.0000 0.13971  0.52179  0.67265  Biso   1.000  Zr
  Zr26     1.0000 0.14025  0.72974  0.92233  Biso   1.000  Zr
  Zr27     1.0000 0.36248  0.77153  0.67331  Biso   1.000  Zr
  Zr28     1.0000 0.36273  0.97889  0.92369  Biso   1.000  Zr
  Zr29     1.0000 0.63952  0.52187  0.57622  Biso   1.000  Zr
  Zr30     1.0000 0.63992  0.72884  0.82579  Biso   1.000  Zr
  Zr31     1.0000 0.86263  0.77248  0.57927  Biso   1.000  Zr
  Zr32     1.0000 0.86225  0.98181  0.82992  Biso   1.000  Zr
  O49      1.0000 0.03103  0.66208  0.57976  Biso   1.000  O
  O50      1.0000 0.03264  0.59129  0.82837  Biso   1.000  O
  O51      1.0000 0.47188  0.90414  0.57656  Biso   1.000  O
  O52      1.0000 0.47413  0.84532  0.82470  Biso   1.000  O
  O53      1.0000 0.27688  0.62412  0.79796  Biso   1.000  O
  O54      1.0000 0.27409  0.62523  0.54740  Biso   1.000  O
  O55      1.0000 0.22685  0.87403  0.79727  Biso   1.000  O
  O56      1.0000 0.22570  0.87611  0.54773  Biso   1.000  O
  O57      1.0000 0.53003  0.65796  0.67256  Biso   1.000  O
  O58      1.0000 0.52988  0.59213  0.92197  Biso   1.000  O
  O59      1.0000 0.97003  0.91070  0.67294  Biso   1.000  O
  O60      1.0000 0.97199  0.84132  0.92119  Biso   1.000  O
  O61      1.0000 0.77869  0.62878  0.95103  Biso   1.000  O
  O62      1.0000 0.77558  0.62614  0.70230  Biso   1.000  O
  O63      1.0000 0.72846  0.87264  0.95436  Biso   1.000  O
  O64      1.0000 0.72737  0.87509  0.70620  Biso   1.000  O
  Zr33     1.0000 0.61277  0.25575  0.06373  Biso   1.000  Zr
