data_image0
_cell_length_a       10.368
_cell_length_b       5.176
_cell_length_c       10.5097
_cell_angle_alpha    89.5865
_cell_angle_beta     82.3739
_cell_angle_gamma    90.5405

_symmetry_space_group_name_H-M    "P 1"
_symmetry_int_tables_number       1

loop_
  _symmetry_equiv_pos_as_xyz
  'x, y, z'

loop_
  _atom_site_label
  _atom_site_occupancy
  _atom_site_fract_x
  _atom_site_fract_y
  _atom_site_fract_z
  _atom_site_thermal_displace_type
  _atom_site_B_iso_or_equiv
  _atom_site_type_symbol
  La1      1.0000 0.12685  0.02291  0.13077  Biso   1.000  La
  Hf1      1.0000 0.14506  0.03520  0.63975  Biso   1.000  Hf
  Hf2      1.0000 0.62466  0.04480  0.15276  Biso   1.000  Hf
  Hf3      1.0000 0.64532  0.04025  0.64831  Biso   1.000  Hf
  Hf4      1.0000 0.13489  0.45415  0.39523  Biso   1.000  Hf
  Hf5      1.0000 0.17570  0.45169  0.87300  Biso   1.000  Hf
  Hf6      1.0000 0.63014  0.45437  0.40437  Biso   1.000  Hf
  Hf7      1.0000 0.63692  0.46601  0.89484  Biso   1.000  Hf
  Hf8      1.0000 0.36308  0.53400  0.10516  Biso   1.000  Hf
  Hf9      1.0000 0.36986  0.54563  0.59563  Biso   1.000  Hf
  Hf10     1.0000 0.82430  0.54830  0.12700  Biso   1.000  Hf
  Hf11     1.0000 0.86511  0.54585  0.60478  Biso   1.000  Hf
  Hf12     1.0000 0.35468  0.95975  0.35169  Biso   1.000  Hf
  Hf13     1.0000 0.37534  0.95520  0.84724  Biso   1.000  Hf
  Hf14     1.0000 0.85494  0.96480  0.36025  Biso   1.000  Hf
  La2      1.0000 0.87315  0.97709  0.86922  Biso   1.000  La
  Hf15     1.0000 0.01749  0.41797  0.05170  Biso   1.000  Hf
  Hf16     1.0000 0.03469  0.32253  0.57942  Biso   1.000  Hf
  Hf17     1.0000 0.52783  0.33279  0.08004  Biso   1.000  Hf
  Hf18     1.0000 0.53707  0.33445  0.58061  Biso   1.000  Hf
  Hf19     1.0000 0.01820  0.19190  0.32714  Biso   1.000  Hf
  Hf20     1.0000 0.07850  0.13423  0.83197  Biso   1.000  Hf
  Hf21     1.0000 0.52665  0.16551  0.33148  Biso   1.000  Hf
  Hf22     1.0000 0.54372  0.16132  0.82823  Biso   1.000  Hf
  Hf23     1.0000 0.45628  0.83868  0.17177  Biso   1.000  Hf
  Hf24     1.0000 0.47335  0.83449  0.66852  Biso   1.000  Hf
  Hf25     1.0000 0.92150  0.86577  0.16803  Biso   1.000  Hf
  Hf26     1.0000 0.98180  0.80810  0.67286  Biso   1.000  Hf
  Hf27     1.0000 0.46294  0.66556  0.41939  Biso   1.000  Hf
  Hf28     1.0000 0.47217  0.66721  0.91996  Biso   1.000  Hf
  Hf29     1.0000 0.96531  0.67747  0.42058  Biso   1.000  Hf
  Hf30     1.0000 0.98251  0.58203  0.94830  Biso   1.000  Hf
  Hf31     1.0000 0.27471  0.26007  0.24239  Biso   1.000  Hf
  Hf32     1.0000 0.29485  0.25553  0.72663  Biso   1.000  Hf
  Hf33     1.0000 0.75900  0.26239  0.25361  Biso   1.000  Hf
  Hf34     1.0000 0.77545  0.27400  0.74066  Biso   1.000  Hf
  Hf35     1.0000 0.27166  0.24171  0.48706  Biso   1.000  Hf
  Hf36     1.0000 0.29090  0.24550  0.97624  Biso   1.000  Hf
  Hf37     1.0000 0.77309  0.24216  0.49496  Biso   1.000  Hf
  Hf38     1.0000 0.75789  0.26580  0.00800  Biso   1.000  Hf
  Hf39     1.0000 0.24211  0.73420  0.99199  Biso   1.000  Hf
  Hf40     1.0000 0.22691  0.75784  0.50504  Biso   1.000  Hf
  Hf41     1.0000 0.70910  0.75450  0.02377  Biso   1.000  Hf
  Hf42     1.0000 0.72834  0.75828  0.51294  Biso   1.000  Hf
  Hf43     1.0000 0.22455  0.72599  0.25934  Biso   1.000  Hf
  Hf44     1.0000 0.24100  0.73761  0.74639  Biso   1.000  Hf
  Hf45     1.0000 0.70515  0.74447  0.27337  Biso   1.000  Hf
  Hf46     1.0000 0.72529  0.73993  0.75761  Biso   1.000  Hf
