data_image0
_cell_length_a       10.1456
_cell_length_b       10.4255
_cell_length_c       5.21371
_cell_angle_alpha    89.7102
_cell_angle_beta     90.5006
_cell_angle_gamma    90.1276

_symmetry_space_group_name_H-M    "P 1"
_symmetry_int_tables_number       1

loop_
  _symmetry_equiv_pos_as_xyz
  'x, y, z'

loop_
  _atom_site_label
  _atom_site_occupancy
  _atom_site_fract_x
  _atom_site_fract_y
  _atom_site_fract_z
  _atom_site_thermal_displace_type
  _atom_site_B_iso_or_equiv
  _atom_site_type_symbol
  La1      1.0000 0.13080  0.01101  0.30266  Biso   1.000  La
  Hf1      1.0000 0.13794  0.52025  0.34226  Biso   1.000  Hf
  Hf2      1.0000 0.14070  0.23919  0.84560  Biso   1.000  Hf
  Hf3      1.0000 0.14437  0.72254  0.83686  Biso   1.000  Hf
  Hf4      1.0000 0.36003  0.27060  0.33986  Biso   1.000  Hf
  Hf5      1.0000 0.36447  0.76645  0.33588  Biso   1.000  Hf
  Hf6      1.0000 0.36170  0.47937  0.84092  Biso   1.000  Hf
  Hf7      1.0000 0.36181  0.98059  0.82889  Biso   1.000  Hf
  Hf8      1.0000 0.63819  0.01941  0.17111  Biso   1.000  Hf
  Hf9      1.0000 0.63830  0.52063  0.15908  Biso   1.000  Hf
  Hf10     1.0000 0.63553  0.23355  0.66412  Biso   1.000  Hf
  Hf11     1.0000 0.63997  0.72940  0.66014  Biso   1.000  Hf
  Hf12     1.0000 0.85563  0.27745  0.16314  Biso   1.000  Hf
  Hf13     1.0000 0.85930  0.76082  0.15440  Biso   1.000  Hf
  Hf14     1.0000 0.86206  0.47975  0.65774  Biso   1.000  Hf
  La2      1.0000 0.86920  0.98899  0.69734  Biso   1.000  La
  Hf15     1.0000 0.03652  0.20348  0.19661  Biso   1.000  Hf
  Hf16     1.0000 0.04366  0.68357  0.20457  Biso   1.000  Hf
  Hf17     1.0000 0.07829  0.05888  0.77561  Biso   1.000  Hf
  Hf18     1.0000 0.04262  0.56361  0.69421  Biso   1.000  Hf
  Hf19     1.0000 0.47003  0.41231  0.16306  Biso   1.000  Hf
  Hf20     1.0000 0.46592  0.91836  0.16883  Biso   1.000  Hf
  Hf21     1.0000 0.46680  0.33817  0.66541  Biso   1.000  Hf
  Hf22     1.0000 0.47209  0.83793  0.65808  Biso   1.000  Hf
  Hf23     1.0000 0.28277  0.12910  0.58720  Biso   1.000  Hf
  Hf24     1.0000 0.27858  0.61972  0.58640  Biso   1.000  Hf
  Hf25     1.0000 0.28870  0.13597  0.07226  Biso   1.000  Hf
  Hf26     1.0000 0.27541  0.61810  0.09133  Biso   1.000  Hf
  Hf27     1.0000 0.22469  0.37459  0.58472  Biso   1.000  Hf
  Hf28     1.0000 0.23219  0.85961  0.58102  Biso   1.000  Hf
  Hf29     1.0000 0.22513  0.37959  0.08784  Biso   1.000  Hf
  Hf30     1.0000 0.24268  0.85994  0.05949  Biso   1.000  Hf
  Hf31     1.0000 0.52791  0.16207  0.34192  Biso   1.000  Hf
  Hf32     1.0000 0.53320  0.66183  0.33459  Biso   1.000  Hf
  Hf33     1.0000 0.53408  0.08164  0.83117  Biso   1.000  Hf
  Hf34     1.0000 0.52996  0.58769  0.83694  Biso   1.000  Hf
  Hf35     1.0000 0.95738  0.43639  0.30579  Biso   1.000  Hf
  Hf36     1.0000 0.92171  0.94112  0.22439  Biso   1.000  Hf
  Hf37     1.0000 0.95634  0.31643  0.79543  Biso   1.000  Hf
  Hf38     1.0000 0.96348  0.79652  0.80339  Biso   1.000  Hf
  Hf39     1.0000 0.75732  0.14006  0.94051  Biso   1.000  Hf
  Hf40     1.0000 0.77487  0.62041  0.91217  Biso   1.000  Hf
  Hf41     1.0000 0.76781  0.14039  0.41898  Biso   1.000  Hf
  Hf42     1.0000 0.77531  0.62541  0.41527  Biso   1.000  Hf
  Hf43     1.0000 0.72459  0.38190  0.90867  Biso   1.000  Hf
  Hf44     1.0000 0.71129  0.86403  0.92774  Biso   1.000  Hf
  Hf45     1.0000 0.72142  0.38028  0.41360  Biso   1.000  Hf
  Hf46     1.0000 0.71723  0.87090  0.41280  Biso   1.000  Hf
