data_image0
_cell_length_a       10.1755
_cell_length_b       5.22411
_cell_length_c       10.1432
_cell_angle_alpha    90.3266
_cell_angle_beta     90.7783
_cell_angle_gamma    89.9059

_symmetry_space_group_name_H-M    "P 1"
_symmetry_int_tables_number       1

loop_
  _symmetry_equiv_pos_as_xyz
  'x, y, z'

loop_
  _atom_site_label
  _atom_site_occupancy
  _atom_site_fract_x
  _atom_site_fract_y
  _atom_site_fract_z
  _atom_site_thermal_displace_type
  _atom_site_B_iso_or_equiv
  _atom_site_type_symbol
  La1      1.0000 0.12161  0.00321  0.11306  Biso   1.000  La
  Hf1      1.0000 0.13202  0.03131  0.62891  Biso   1.000  Hf
  Hf2      1.0000 0.63691  0.03482  0.12476  Biso   1.000  Hf
  Hf3      1.0000 0.62946  0.03663  0.62924  Biso   1.000  Hf
  La2      1.0000 0.12164  0.48390  0.37792  Biso   1.000  La
  Hf4      1.0000 0.13730  0.47567  0.86894  Biso   1.000  Hf
  Hf5      1.0000 0.63210  0.46595  0.37829  Biso   1.000  Hf
  Hf6      1.0000 0.63554  0.46712  0.87626  Biso   1.000  Hf
  Hf7      1.0000 0.37288  0.52283  0.12355  Biso   1.000  Hf
  Hf8      1.0000 0.36652  0.53713  0.62443  Biso   1.000  Hf
  Hf9      1.0000 0.85576  0.53493  0.12793  Biso   1.000  Hf
  Hf10     1.0000 0.85969  0.53036  0.63018  Biso   1.000  Hf
  Hf11     1.0000 0.36866  0.97261  0.37475  Biso   1.000  Hf
  Hf12     1.0000 0.37151  0.96824  0.87310  Biso   1.000  Hf
  Hf13     1.0000 0.85157  0.96393  0.38650  Biso   1.000  Hf
  Hf14     1.0000 0.86472  0.96513  0.87094  Biso   1.000  Hf
  Hf15     1.0000 0.02729  0.38350  0.17282  Biso   1.000  Hf
  Hf16     1.0000 0.03957  0.38281  0.67631  Biso   1.000  Hf
  Hf17     1.0000 0.54215  0.36541  0.19405  Biso   1.000  Hf
  Hf18     1.0000 0.53431  0.36960  0.69879  Biso   1.000  Hf
  Hf19     1.0000 0.02943  0.08040  0.45065  Biso   1.000  Hf
  Hf20     1.0000 0.03228  0.15569  0.90585  Biso   1.000  Hf
  Hf21     1.0000 0.53663  0.13390  0.44709  Biso   1.000  Hf
  Hf22     1.0000 0.53787  0.13740  0.94620  Biso   1.000  Hf
  Hf23     1.0000 0.47654  0.86216  0.19637  Biso   1.000  Hf
  Hf24     1.0000 0.46663  0.86731  0.69846  Biso   1.000  Hf
  Hf25     1.0000 0.94264  0.84968  0.21666  Biso   1.000  Hf
  Hf26     1.0000 0.96091  0.86262  0.69315  Biso   1.000  Hf
  Hf27     1.0000 0.46684  0.63036  0.44783  Biso   1.000  Hf
  Hf28     1.0000 0.47720  0.64240  0.94701  Biso   1.000  Hf
  Hf29     1.0000 0.92191  0.61179  0.44583  Biso   1.000  Hf
  Hf30     1.0000 0.97586  0.66362  0.95471  Biso   1.000  Hf
  Hf31     1.0000 0.29040  0.23693  0.24654  Biso   1.000  Hf
  Hf32     1.0000 0.27187  0.24108  0.74792  Biso   1.000  Hf
  Hf33     1.0000 0.76929  0.23812  0.25270  Biso   1.000  Hf
  Hf34     1.0000 0.76858  0.23576  0.74976  Biso   1.000  Hf
  Hf35     1.0000 0.27897  0.25836  0.50545  Biso   1.000  Hf
  Hf36     1.0000 0.27675  0.26554  0.98857  Biso   1.000  Hf
  Hf37     1.0000 0.76183  0.25992  0.50558  Biso   1.000  Hf
  Hf38     1.0000 0.77286  0.26333  0.99774  Biso   1.000  Hf
  Hf39     1.0000 0.24408  0.79027  0.50771  Biso   1.000  Hf
  Hf40     1.0000 0.24899  0.74162  0.98639  Biso   1.000  Hf
  Hf41     1.0000 0.71405  0.76183  0.50715  Biso   1.000  Hf
  Hf42     1.0000 0.73424  0.76578  0.00074  Biso   1.000  Hf
  Hf43     1.0000 0.25565  0.72890  0.24789  Biso   1.000  Hf
  Hf44     1.0000 0.23036  0.74026  0.74595  Biso   1.000  Hf
  Hf45     1.0000 0.71753  0.74021  0.25316  Biso   1.000  Hf
  Hf46     1.0000 0.72949  0.73641  0.75363  Biso   1.000  Hf
