data_image0
_cell_length_a       10.2183
_cell_length_b       10.3785
_cell_length_c       5.25262
_cell_angle_alpha    89.9959
_cell_angle_beta     82.0388
_cell_angle_gamma    89.9786

_symmetry_space_group_name_H-M    "P 1"
_symmetry_int_tables_number       1

loop_
  _symmetry_equiv_pos_as_xyz
  'x, y, z'

loop_
  _atom_site_label
  _atom_site_occupancy
  _atom_site_fract_x
  _atom_site_fract_y
  _atom_site_fract_z
  _atom_site_thermal_displace_type
  _atom_site_B_iso_or_equiv
  _atom_site_type_symbol
  La1      1.0000 0.11485  0.00632  0.26266  Biso   1.000  La
  Hf1      1.0000 0.14085  0.51716  0.27261  Biso   1.000  Hf
  Hf2      1.0000 0.64000  0.02319  0.29253  Biso   1.000  Hf
  Hf3      1.0000 0.63459  0.51668  0.29323  Biso   1.000  Hf
  Hf4      1.0000 0.14087  0.23276  0.77256  Biso   1.000  Hf
  La2      1.0000 0.11492  0.74359  0.76268  Biso   1.000  La
  Hf5      1.0000 0.63469  0.23317  0.79318  Biso   1.000  Hf
  Hf6      1.0000 0.64000  0.72667  0.79249  Biso   1.000  Hf
  Hf7      1.0000 0.35738  0.26724  0.19830  Biso   1.000  Hf
  Hf8      1.0000 0.36748  0.76779  0.18858  Biso   1.000  Hf
  Hf9      1.0000 0.85830  0.27192  0.20751  Biso   1.000  Hf
  Hf10     1.0000 0.85343  0.76994  0.24536  Biso   1.000  Hf
  Hf11     1.0000 0.35739  0.48268  0.69834  Biso   1.000  Hf
  Hf12     1.0000 0.36748  0.98217  0.68854  Biso   1.000  Hf
  Hf13     1.0000 0.85837  0.47794  0.70750  Biso   1.000  Hf
  Hf14     1.0000 0.85348  0.97986  0.74542  Biso   1.000  Hf
  Hf15     1.0000 0.04138  0.20070  0.15930  Biso   1.000  Hf
  Hf16     1.0000 0.02625  0.66384  0.18416  Biso   1.000  Hf
  Hf17     1.0000 0.53323  0.16802  0.15244  Biso   1.000  Hf
  Hf18     1.0000 0.54177  0.66433  0.14816  Biso   1.000  Hf
  Hf19     1.0000 0.02640  0.08588  0.68455  Biso   1.000  Hf
  Hf20     1.0000 0.04122  0.54935  0.65901  Biso   1.000  Hf
  Hf21     1.0000 0.54177  0.08558  0.64822  Biso   1.000  Hf
  Hf22     1.0000 0.53315  0.58185  0.65256  Biso   1.000  Hf
  Hf23     1.0000 0.46557  0.41345  0.33840  Biso   1.000  Hf
  Hf24     1.0000 0.47748  0.91421  0.33225  Biso   1.000  Hf
  Hf25     1.0000 0.95563  0.42620  0.32184  Biso   1.000  Hf
  Hf26     1.0000 0.96383  0.85322  0.50494  Biso   1.000  Hf
  Hf27     1.0000 0.46555  0.33645  0.83842  Biso   1.000  Hf
  Hf28     1.0000 0.47742  0.83573  0.83229  Biso   1.000  Hf
  Hf29     1.0000 0.95557  0.32361  0.82196  Biso   1.000  Hf
  Hf30     1.0000 0.96381  0.89659  0.00504  Biso   1.000  Hf
  Hf31     1.0000 0.28027  0.13280  0.47276  Biso   1.000  Hf
  Hf32     1.0000 0.28181  0.62051  0.44887  Biso   1.000  Hf
  Hf33     1.0000 0.78652  0.12450  0.48072  Biso   1.000  Hf
  Hf34     1.0000 0.76866  0.62460  0.49256  Biso   1.000  Hf
  Hf35     1.0000 0.28185  0.12944  0.94891  Biso   1.000  Hf
  Hf36     1.0000 0.28026  0.61714  0.97287  Biso   1.000  Hf
  Hf37     1.0000 0.76874  0.12524  0.99266  Biso   1.000  Hf
  Hf38     1.0000 0.78650  0.62536  0.98061  Biso   1.000  Hf
  Hf39     1.0000 0.22378  0.38022  0.00044  Biso   1.000  Hf
  Hf40     1.0000 0.25054  0.87839  0.98242  Biso   1.000  Hf
  Hf41     1.0000 0.72240  0.38272  0.01700  Biso   1.000  Hf
  Hf42     1.0000 0.72112  0.87552  0.02719  Biso   1.000  Hf
  Hf43     1.0000 0.22380  0.36969  0.50044  Biso   1.000  Hf
  Hf44     1.0000 0.25058  0.87158  0.48239  Biso   1.000  Hf
  Hf45     1.0000 0.72245  0.36715  0.51695  Biso   1.000  Hf
  Hf46     1.0000 0.72114  0.87435  0.52726  Biso   1.000  Hf
