data_image0
_cell_length_a       10.1275
_cell_length_b       10.4745
_cell_length_c       5.23229
_cell_angle_alpha    89.9938
_cell_angle_beta     90.006
_cell_angle_gamma    90.4487

_symmetry_space_group_name_H-M    "P 1"
_symmetry_int_tables_number       1

loop_
  _symmetry_equiv_pos_as_xyz
  'x, y, z'

loop_
  _atom_site_label
  _atom_site_occupancy
  _atom_site_fract_x
  _atom_site_fract_y
  _atom_site_fract_z
  _atom_site_thermal_displace_type
  _atom_site_B_iso_or_equiv
  _atom_site_type_symbol
  La1      1.0000 0.13239  0.01263  0.30991  Biso   1.000  La
  Hf1      1.0000 0.13786  0.51763  0.33975  Biso   1.000  Hf
  Hf2      1.0000 0.13693  0.23442  0.83670  Biso   1.000  Hf
  Hf3      1.0000 0.14185  0.72327  0.83552  Biso   1.000  Hf
  Hf4      1.0000 0.35890  0.27318  0.33922  Biso   1.000  Hf
  Hf5      1.0000 0.36213  0.76001  0.33908  Biso   1.000  Hf
  Hf6      1.0000 0.36039  0.47770  0.84191  Biso   1.000  Hf
  Hf7      1.0000 0.36113  0.98137  0.81246  Biso   1.000  Hf
  La2      1.0000 0.63241  0.01270  0.19001  Biso   1.000  La
  Hf8      1.0000 0.63786  0.51767  0.16024  Biso   1.000  Hf
  Hf9      1.0000 0.63695  0.23447  0.66325  Biso   1.000  Hf
  Hf10     1.0000 0.64185  0.72333  0.66445  Biso   1.000  Hf
  Hf11     1.0000 0.85897  0.27318  0.16077  Biso   1.000  Hf
  Hf12     1.0000 0.86215  0.76001  0.16090  Biso   1.000  Hf
  Hf13     1.0000 0.86037  0.47770  0.65809  Biso   1.000  Hf
  Hf14     1.0000 0.86115  0.98134  0.68760  Biso   1.000  Hf
  Hf15     1.0000 0.03654  0.19656  0.17899  Biso   1.000  Hf
  Hf16     1.0000 0.04062  0.67395  0.18280  Biso   1.000  Hf
  Hf17     1.0000 0.03469  0.07534  0.72090  Biso   1.000  Hf
  Hf18     1.0000 0.03449  0.57848  0.67392  Biso   1.000  Hf
  Hf19     1.0000 0.46055  0.42804  0.18299  Biso   1.000  Hf
  Hf20     1.0000 0.43388  0.92578  0.17426  Biso   1.000  Hf
  Hf21     1.0000 0.46170  0.33169  0.68597  Biso   1.000  Hf
  Hf22     1.0000 0.47503  0.83264  0.66167  Biso   1.000  Hf
  Hf23     1.0000 0.27760  0.12972  0.58458  Biso   1.000  Hf
  Hf24     1.0000 0.27807  0.61865  0.58607  Biso   1.000  Hf
  Hf25     1.0000 0.28535  0.13585  0.06039  Biso   1.000  Hf
  Hf26     1.0000 0.27419  0.61953  0.08787  Biso   1.000  Hf
  Hf27     1.0000 0.22163  0.37613  0.58493  Biso   1.000  Hf
  Hf28     1.0000 0.23314  0.86036  0.58340  Biso   1.000  Hf
  Hf29     1.0000 0.22260  0.37814  0.08460  Biso   1.000  Hf
  Hf30     1.0000 0.23844  0.85870  0.05959  Biso   1.000  Hf
  Hf31     1.0000 0.53646  0.19657  0.32105  Biso   1.000  Hf
  Hf32     1.0000 0.54053  0.67390  0.31728  Biso   1.000  Hf
  Hf33     1.0000 0.53467  0.07543  0.77928  Biso   1.000  Hf
  Hf34     1.0000 0.53451  0.57856  0.82620  Biso   1.000  Hf
  Hf35     1.0000 0.96051  0.42811  0.31689  Biso   1.000  Hf
  Hf36     1.0000 0.93386  0.92575  0.32580  Biso   1.000  Hf
  Hf37     1.0000 0.96166  0.33165  0.81402  Biso   1.000  Hf
  Hf38     1.0000 0.97502  0.83260  0.83840  Biso   1.000  Hf
  Hf39     1.0000 0.77763  0.12974  0.91530  Biso   1.000  Hf
  Hf40     1.0000 0.77808  0.61866  0.91384  Biso   1.000  Hf
  Hf41     1.0000 0.78533  0.13587  0.43955  Biso   1.000  Hf
  Hf42     1.0000 0.77419  0.61959  0.41212  Biso   1.000  Hf
  Hf43     1.0000 0.72160  0.37614  0.91517  Biso   1.000  Hf
  Hf44     1.0000 0.73311  0.86038  0.91667  Biso   1.000  Hf
  Hf45     1.0000 0.72263  0.37813  0.41532  Biso   1.000  Hf
  Hf46     1.0000 0.73842  0.85874  0.44033  Biso   1.000  Hf
