data_image0
_cell_length_a       5.03983
_cell_length_b       10.5197
_cell_length_c       10.1359
_cell_angle_alpha    89.7948
_cell_angle_beta     89.7899
_cell_angle_gamma    90.0762

_symmetry_space_group_name_H-M    "P 1"
_symmetry_int_tables_number       1

loop_
  _symmetry_equiv_pos_as_xyz
  'x, y, z'

loop_
  _atom_site_label
  _atom_site_occupancy
  _atom_site_fract_x
  _atom_site_fract_y
  _atom_site_fract_z
  _atom_site_thermal_displace_type
  _atom_site_B_iso_or_equiv
  _atom_site_type_symbol
  La1      1.0000 0.25402  0.00863  0.12296  Biso   1.000  La
  Hf1      1.0000 0.27789  0.01621  0.62998  Biso   1.000  Hf
  Hf2      1.0000 0.26347  0.51741  0.12743  Biso   1.000  Hf
  Hf3      1.0000 0.27390  0.51546  0.62802  Biso   1.000  Hf
  Hf4      1.0000 0.27031  0.24245  0.38186  Biso   1.000  Hf
  Hf5      1.0000 0.27019  0.23485  0.87050  Biso   1.000  Hf
  Hf6      1.0000 0.27727  0.72669  0.38395  Biso   1.000  Hf
  Hf7      1.0000 0.27401  0.72913  0.87149  Biso   1.000  Hf
  Hf8      1.0000 0.71750  0.27280  0.12603  Biso   1.000  Hf
  Hf9      1.0000 0.73900  0.27032  0.63117  Biso   1.000  Hf
  Hf10     1.0000 0.72634  0.75562  0.11810  Biso   1.000  Hf
  Hf11     1.0000 0.73871  0.76508  0.62593  Biso   1.000  Hf
  Hf12     1.0000 0.73192  0.48453  0.37707  Biso   1.000  Hf
  Hf13     1.0000 0.73428  0.48214  0.87812  Biso   1.000  Hf
  La2      1.0000 0.74172  0.99369  0.37717  Biso   1.000  La
  Hf14     1.0000 0.73210  0.98093  0.87444  Biso   1.000  Hf
  Hf15     1.0000 0.02464  0.19046  0.21861  Biso   1.000  Hf
  Hf16     1.0000 0.08177  0.18773  0.68662  Biso   1.000  Hf
  Hf17     1.0000 0.07100  0.68862  0.19725  Biso   1.000  Hf
  Hf18     1.0000 0.07844  0.68104  0.69324  Biso   1.000  Hf
  Hf19     1.0000 0.14284  0.06041  0.43913  Biso   1.000  Hf
  Hf20     1.0000 0.07338  0.07024  0.91568  Biso   1.000  Hf
  Hf21     1.0000 0.07884  0.55893  0.44640  Biso   1.000  Hf
  Hf22     1.0000 0.06212  0.56916  0.94971  Biso   1.000  Hf
  Hf23     1.0000 0.92356  0.43805  0.19559  Biso   1.000  Hf
  Hf24     1.0000 0.93907  0.43466  0.70159  Biso   1.000  Hf
  Hf25     1.0000 0.83467  0.94120  0.14688  Biso   1.000  Hf
  Hf26     1.0000 0.92767  0.93558  0.68632  Biso   1.000  Hf
  Hf27     1.0000 0.92577  0.31832  0.45074  Biso   1.000  Hf
  Hf28     1.0000 0.93510  0.31831  0.94730  Biso   1.000  Hf
  Hf29     1.0000 0.94113  0.80189  0.45140  Biso   1.000  Hf
  Hf30     1.0000 0.93954  0.81419  0.93610  Biso   1.000  Hf
  Hf31     1.0000 0.51734  0.14500  0.24773  Biso   1.000  Hf
  Hf32     1.0000 0.54939  0.11714  0.75055  Biso   1.000  Hf
  Hf33     1.0000 0.53702  0.61143  0.24949  Biso   1.000  Hf
  Hf34     1.0000 0.54579  0.61520  0.75019  Biso   1.000  Hf
  Hf35     1.0000 0.53526  0.14789  0.51202  Biso   1.000  Hf
  Hf36     1.0000 0.54894  0.13921  0.99145  Biso   1.000  Hf
  Hf37     1.0000 0.55095  0.62820  0.50201  Biso   1.000  Hf
  Hf38     1.0000 0.53493  0.62560  0.99803  Biso   1.000  Hf
  Hf39     1.0000 0.46565  0.38739  0.50246  Biso   1.000  Hf
  Hf40     1.0000 0.45517  0.38519  0.00050  Biso   1.000  Hf
  Hf41     1.0000 0.44767  0.87019  0.51007  Biso   1.000  Hf
  Hf42     1.0000 0.46722  0.86478  0.98673  Biso   1.000  Hf
  Hf43     1.0000 0.45060  0.37591  0.25210  Biso   1.000  Hf
  Hf44     1.0000 0.46693  0.36901  0.75123  Biso   1.000  Hf
  Hf45     1.0000 0.46915  0.84482  0.25153  Biso   1.000  Hf
  Hf46     1.0000 0.46652  0.86742  0.74937  Biso   1.000  Hf
