data_image0
_cell_length_a       5.09462
_cell_length_b       10.4577
_cell_length_c       10.3424
_cell_angle_alpha    90.2583
_cell_angle_beta     90.0024
_cell_angle_gamma    90.0078

_symmetry_space_group_name_H-M    "P 1"
_symmetry_int_tables_number       1

loop_
  _symmetry_equiv_pos_as_xyz
  'x, y, z'

loop_
  _atom_site_label
  _atom_site_occupancy
  _atom_site_fract_x
  _atom_site_fract_y
  _atom_site_fract_z
  _atom_site_thermal_displace_type
  _atom_site_B_iso_or_equiv
  _atom_site_type_symbol
  La1      1.0000 0.25185  0.99942  0.10480  Biso   1.000  La
  Hf1      1.0000 0.24981  0.99811  0.60608  Biso   1.000  Hf
  Hf2      1.0000 0.25104  0.49791  0.15677  Biso   1.000  Hf
  Hf3      1.0000 0.25034  0.49847  0.67181  Biso   1.000  Hf
  Hf4      1.0000 0.29496  0.23378  0.36896  Biso   1.000  Hf
  Hf5      1.0000 0.31408  0.23647  0.86439  Biso   1.000  Hf
  Hf6      1.0000 0.20183  0.76433  0.36725  Biso   1.000  Hf
  Hf7      1.0000 0.18488  0.76234  0.86440  Biso   1.000  Hf
  Hf8      1.0000 0.79475  0.26409  0.13380  Biso   1.000  Hf
  Hf9      1.0000 0.81414  0.26177  0.63874  Biso   1.000  Hf
  Hf10     1.0000 0.70171  0.73362  0.13622  Biso   1.000  Hf
  Hf11     1.0000 0.68498  0.73589  0.63886  Biso   1.000  Hf
  Hf12     1.0000 0.75128  0.99999  0.34635  Biso   1.000  Hf
  Hf13     1.0000 0.75063  0.99987  0.83148  Biso   1.000  Hf
  La2      1.0000 0.75147  0.49851  0.39835  Biso   1.000  La
  Hf14     1.0000 0.74950  0.50021  0.89722  Biso   1.000  Hf
  Hf15     1.0000 0.04400  0.18361  0.00244  Biso   1.000  Hf
  Hf16     1.0000 0.03219  0.15913  0.50933  Biso   1.000  Hf
  Hf17     1.0000 0.95995  0.66235  0.99161  Biso   1.000  Hf
  Hf18     1.0000 0.95678  0.68294  0.50009  Biso   1.000  Hf
  Hf19     1.0000 0.00881  0.11756  0.25665  Biso   1.000  Hf
  Hf20     1.0000 0.03214  0.11009  0.74807  Biso   1.000  Hf
  Hf21     1.0000 0.99103  0.61768  0.24481  Biso   1.000  Hf
  Hf22     1.0000 0.96756  0.60949  0.75411  Biso   1.000  Hf
  Hf23     1.0000 0.03135  0.35426  0.26910  Biso   1.000  Hf
  Hf24     1.0000 0.02386  0.35946  0.78885  Biso   1.000  Hf
  Hf25     1.0000 0.96819  0.85562  0.23272  Biso   1.000  Hf
  Hf26     1.0000 0.97583  0.85902  0.71441  Biso   1.000  Hf
  Hf27     1.0000 0.98330  0.42458  0.03650  Biso   1.000  Hf
  Hf28     1.0000 0.03567  0.40250  0.54435  Biso   1.000  Hf
  Hf29     1.0000 0.96919  0.90598  0.95735  Biso   1.000  Hf
  Hf30     1.0000 0.01040  0.92260  0.46760  Biso   1.000  Hf
  Hf31     1.0000 0.53196  0.14354  0.23394  Biso   1.000  Hf
  Hf32     1.0000 0.52393  0.13873  0.71436  Biso   1.000  Hf
  Hf33     1.0000 0.46789  0.64228  0.27054  Biso   1.000  Hf
  Hf34     1.0000 0.47557  0.63924  0.78882  Biso   1.000  Hf
  Hf35     1.0000 0.53627  0.09603  0.95901  Biso   1.000  Hf
  Hf36     1.0000 0.48364  0.07344  0.46658  Biso   1.000  Hf
  Hf37     1.0000 0.50994  0.57564  0.03561  Biso   1.000  Hf
  Hf38     1.0000 0.46889  0.59232  0.54581  Biso   1.000  Hf
  Hf39     1.0000 0.53147  0.33931  0.99383  Biso   1.000  Hf
  Hf40     1.0000 0.54408  0.31430  0.50058  Biso   1.000  Hf
  Hf41     1.0000 0.45679  0.81515  0.00321  Biso   1.000  Hf
  Hf42     1.0000 0.46018  0.83586  0.51165  Biso   1.000  Hf
  Hf43     1.0000 0.50820  0.38027  0.24647  Biso   1.000  Hf
  Hf44     1.0000 0.53212  0.38815  0.75496  Biso   1.000  Hf
  Hf45     1.0000 0.49131  0.88019  0.25839  Biso   1.000  Hf
  Hf46     1.0000 0.46784  0.88881  0.74922  Biso   1.000  Hf
