data_image0
_cell_length_a       5.11832
_cell_length_b       10.268
_cell_length_c       10.2396
_cell_angle_alpha    89.9786
_cell_angle_beta     86.2073
_cell_angle_gamma    89.9936

_symmetry_space_group_name_H-M    "P 1"
_symmetry_int_tables_number       1

loop_
  _symmetry_equiv_pos_as_xyz
  'x, y, z'

loop_
  _atom_site_label
  _atom_site_occupancy
  _atom_site_fract_x
  _atom_site_fract_y
  _atom_site_fract_z
  _atom_site_thermal_displace_type
  _atom_site_B_iso_or_equiv
  _atom_site_type_symbol
  La1      1.0000 0.24833  0.99649  0.13354  Biso   1.000  La
  Hf1      1.0000 0.27320  0.00374  0.63166  Biso   1.000  Hf
  Hf2      1.0000 0.23708  0.50895  0.12295  Biso   1.000  Hf
  Hf3      1.0000 0.27675  0.48804  0.63481  Biso   1.000  Hf
  Hf4      1.0000 0.24942  0.27084  0.37873  Biso   1.000  Hf
  Hf5      1.0000 0.27089  0.26190  0.88587  Biso   1.000  Hf
  Hf6      1.0000 0.24997  0.75444  0.38700  Biso   1.000  Hf
  Hf7      1.0000 0.27819  0.75239  0.87591  Biso   1.000  Hf
  La2      1.0000 0.74848  0.25475  0.13353  Biso   1.000  La
  Hf8      1.0000 0.77327  0.24730  0.63164  Biso   1.000  Hf
  Hf9      1.0000 0.73707  0.74232  0.12301  Biso   1.000  Hf
  Hf10     1.0000 0.77675  0.76295  0.63481  Biso   1.000  Hf
  Hf11     1.0000 0.74927  0.98033  0.37875  Biso   1.000  Hf
  Hf12     1.0000 0.77064  0.98934  0.88589  Biso   1.000  Hf
  Hf13     1.0000 0.74996  0.49679  0.38697  Biso   1.000  Hf
  Hf14     1.0000 0.77792  0.49885  0.87586  Biso   1.000  Hf
  Hf15     1.0000 0.02797  0.13077  0.98039  Biso   1.000  Hf
  Hf16     1.0000 0.11671  0.15948  0.53005  Biso   1.000  Hf
  Hf17     1.0000 0.03585  0.63432  0.98629  Biso   1.000  Hf
  Hf18     1.0000 0.91938  0.66017  0.47242  Biso   1.000  Hf
  Hf19     1.0000 0.98551  0.12079  0.29116  Biso   1.000  Hf
  Hf20     1.0000 0.93687  0.09585  0.73900  Biso   1.000  Hf
  Hf21     1.0000 0.88694  0.59227  0.22013  Biso   1.000  Hf
  Hf22     1.0000 0.97784  0.60281  0.72755  Biso   1.000  Hf
  Hf23     1.0000 0.02698  0.37543  0.26015  Biso   1.000  Hf
  Hf24     1.0000 0.04012  0.35114  0.75176  Biso   1.000  Hf
  Hf25     1.0000 0.99349  0.84410  0.26160  Biso   1.000  Hf
  Hf26     1.0000 0.04466  0.85378  0.75064  Biso   1.000  Hf
  Hf27     1.0000 0.99904  0.39464  0.99446  Biso   1.000  Hf
  Hf28     1.0000 0.99590  0.40059  0.50970  Biso   1.000  Hf
  Hf29     1.0000 0.97801  0.87354  0.00114  Biso   1.000  Hf
  Hf30     1.0000 0.01208  0.90270  0.50778  Biso   1.000  Hf
  Hf31     1.0000 0.48555  0.13038  0.29112  Biso   1.000  Hf
  Hf32     1.0000 0.43695  0.15503  0.73917  Biso   1.000  Hf
  Hf33     1.0000 0.38691  0.65889  0.22020  Biso   1.000  Hf
  Hf34     1.0000 0.47792  0.64807  0.72782  Biso   1.000  Hf
  Hf35     1.0000 0.52801  0.12047  0.98055  Biso   1.000  Hf
  Hf36     1.0000 0.61660  0.09164  0.53005  Biso   1.000  Hf
  Hf37     1.0000 0.53596  0.61693  0.98641  Biso   1.000  Hf
  Hf38     1.0000 0.41950  0.59102  0.47254  Biso   1.000  Hf
  Hf39     1.0000 0.47808  0.37773  0.00113  Biso   1.000  Hf
  Hf40     1.0000 0.51204  0.34841  0.50778  Biso   1.000  Hf
  Hf41     1.0000 0.49889  0.85664  0.99456  Biso   1.000  Hf
  Hf42     1.0000 0.49591  0.85051  0.50974  Biso   1.000  Hf
  Hf43     1.0000 0.49371  0.40709  0.26159  Biso   1.000  Hf
  Hf44     1.0000 0.54471  0.39713  0.75067  Biso   1.000  Hf
  Hf45     1.0000 0.52673  0.87578  0.26021  Biso   1.000  Hf
  Hf46     1.0000 0.54007  0.89979  0.75183  Biso   1.000  Hf
