data_image0
_cell_length_a       10.2828
_cell_length_b       10.4499
_cell_length_c       5.19601
_cell_angle_alpha    90.0022
_cell_angle_beta     81.967
_cell_angle_gamma    89.9882

_symmetry_space_group_name_H-M    "P 1"
_symmetry_int_tables_number       1

loop_
  _symmetry_equiv_pos_as_xyz
  'x, y, z'

loop_
  _atom_site_label
  _atom_site_occupancy
  _atom_site_fract_x
  _atom_site_fract_y
  _atom_site_fract_z
  _atom_site_thermal_displace_type
  _atom_site_B_iso_or_equiv
  _atom_site_type_symbol
  La1      1.0000 0.12678  0.01018  0.26412  Biso   1.000  La
  Hf1      1.0000 0.14283  0.52257  0.27986  Biso   1.000  Hf
  Hf2      1.0000 0.64126  0.01960  0.29789  Biso   1.000  Hf
  Hf3      1.0000 0.63781  0.52068  0.29298  Biso   1.000  Hf
  La2      1.0000 0.12679  0.23979  0.76407  Biso   1.000  La
  Hf4      1.0000 0.14283  0.72741  0.77990  Biso   1.000  Hf
  Hf5      1.0000 0.64124  0.23034  0.79791  Biso   1.000  Hf
  Hf6      1.0000 0.63783  0.72921  0.79294  Biso   1.000  Hf
  Hf7      1.0000 0.36682  0.26935  0.19404  Biso   1.000  Hf
  Hf8      1.0000 0.36579  0.76938  0.20093  Biso   1.000  Hf
  Hf9      1.0000 0.85264  0.27474  0.22839  Biso   1.000  Hf
  Hf10     1.0000 0.86100  0.76382  0.20833  Biso   1.000  Hf
  Hf11     1.0000 0.36574  0.48057  0.70094  Biso   1.000  Hf
  Hf12     1.0000 0.36682  0.98059  0.69411  Biso   1.000  Hf
  Hf13     1.0000 0.86109  0.48620  0.70819  Biso   1.000  Hf
  Hf14     1.0000 0.85266  0.97518  0.72838  Biso   1.000  Hf
  Hf15     1.0000 0.03330  0.20734  0.23275  Biso   1.000  Hf
  Hf16     1.0000 0.04437  0.68329  0.17579  Biso   1.000  Hf
  Hf17     1.0000 0.54108  0.17021  0.16128  Biso   1.000  Hf
  Hf18     1.0000 0.53732  0.66818  0.15924  Biso   1.000  Hf
  Hf19     1.0000 0.03328  0.04262  0.73269  Biso   1.000  Hf
  Hf20     1.0000 0.04436  0.56671  0.67580  Biso   1.000  Hf
  Hf21     1.0000 0.54105  0.07970  0.66133  Biso   1.000  Hf
  Hf22     1.0000 0.53725  0.58175  0.65931  Biso   1.000  Hf
  Hf23     1.0000 0.47148  0.41733  0.33559  Biso   1.000  Hf
  Hf24     1.0000 0.46913  0.91899  0.33011  Biso   1.000  Hf
  Hf25     1.0000 0.95787  0.43634  0.32789  Biso   1.000  Hf
  Hf26     1.0000 0.92501  0.92669  0.34313  Biso   1.000  Hf
  Hf27     1.0000 0.46908  0.33093  0.83010  Biso   1.000  Hf
  Hf28     1.0000 0.47148  0.83260  0.83562  Biso   1.000  Hf
  Hf29     1.0000 0.92499  0.32336  0.84337  Biso   1.000  Hf
  Hf30     1.0000 0.95782  0.81360  0.82793  Biso   1.000  Hf
  Hf31     1.0000 0.29444  0.12719  0.46233  Biso   1.000  Hf
  Hf32     1.0000 0.27709  0.62772  0.47202  Biso   1.000  Hf
  Hf33     1.0000 0.77394  0.13131  0.49965  Biso   1.000  Hf
  Hf34     1.0000 0.77475  0.63119  0.48441  Biso   1.000  Hf
  Hf35     1.0000 0.29439  0.12276  0.96235  Biso   1.000  Hf
  Hf36     1.0000 0.27707  0.62223  0.97210  Biso   1.000  Hf
  Hf37     1.0000 0.77402  0.11862  0.99965  Biso   1.000  Hf
  Hf38     1.0000 0.77476  0.61871  0.98444  Biso   1.000  Hf
  Hf39     1.0000 0.23622  0.39045  0.00830  Biso   1.000  Hf
  Hf40     1.0000 0.24015  0.86731  0.98366  Biso   1.000  Hf
  Hf41     1.0000 0.71120  0.38123  0.03069  Biso   1.000  Hf
  Hf42     1.0000 0.72486  0.87520  0.02465  Biso   1.000  Hf
  Hf43     1.0000 0.24018  0.38265  0.48355  Biso   1.000  Hf
  Hf44     1.0000 0.23626  0.85950  0.50833  Biso   1.000  Hf
  Hf45     1.0000 0.72490  0.37474  0.52475  Biso   1.000  Hf
  Hf46     1.0000 0.71132  0.86860  0.53054  Biso   1.000  Hf
