data_image0
_cell_length_a       5.15752
_cell_length_b       10.2173
_cell_length_c       10.5986
_cell_angle_alpha    90.2459
_cell_angle_beta     83.4482
_cell_angle_gamma    90.0416

_symmetry_space_group_name_H-M    "P 1"
_symmetry_int_tables_number       1

loop_
  _symmetry_equiv_pos_as_xyz
  'x, y, z'

loop_
  _atom_site_label
  _atom_site_occupancy
  _atom_site_fract_x
  _atom_site_fract_y
  _atom_site_fract_z
  _atom_site_thermal_displace_type
  _atom_site_B_iso_or_equiv
  _atom_site_type_symbol
  La1      1.0000 0.23307  0.00556  0.12700  Biso   1.000  La
  Hf1      1.0000 0.29180  0.01923  0.64270  Biso   1.000  Hf
  Hf2      1.0000 0.23586  0.51974  0.14513  Biso   1.000  Hf
  Hf3      1.0000 0.28972  0.52378  0.63861  Biso   1.000  Hf
  Hf4      1.0000 0.25681  0.22421  0.39726  Biso   1.000  Hf
  Hf5      1.0000 0.33573  0.23040  0.87441  Biso   1.000  Hf
  Hf6      1.0000 0.25827  0.73026  0.39386  Biso   1.000  Hf
  Hf7      1.0000 0.28509  0.74433  0.88694  Biso   1.000  Hf
  Hf8      1.0000 0.66437  0.26959  0.12561  Biso   1.000  Hf
  Hf9      1.0000 0.74327  0.27577  0.60275  Biso   1.000  Hf
  Hf10     1.0000 0.71481  0.75566  0.11303  Biso   1.000  Hf
  Hf11     1.0000 0.74167  0.76975  0.60612  Biso   1.000  Hf
  Hf12     1.0000 0.70827  0.48079  0.35736  Biso   1.000  Hf
  La2      1.0000 0.76675  0.49445  0.87300  Biso   1.000  La
  Hf13     1.0000 0.71012  0.97621  0.36138  Biso   1.000  Hf
  Hf14     1.0000 0.76410  0.98023  0.85484  Biso   1.000  Hf
  Hf15     1.0000 0.03789  0.19964  0.04230  Biso   1.000  Hf
  Hf16     1.0000 0.05744  0.14955  0.56605  Biso   1.000  Hf
  Hf17     1.0000 0.99341  0.62784  0.04253  Biso   1.000  Hf
  Hf18     1.0000 0.04940  0.64405  0.55329  Biso   1.000  Hf
  Hf19     1.0000 0.01817  0.10448  0.31519  Biso   1.000  Hf
  Hf20     1.0000 0.09818  0.09458  0.81456  Biso   1.000  Hf
  Hf21     1.0000 0.02727  0.60546  0.30496  Biso   1.000  Hf
  Hf22     1.0000 0.08839  0.62373  0.79012  Biso   1.000  Hf
  Hf23     1.0000 0.90191  0.40540  0.18548  Biso   1.000  Hf
  Hf24     1.0000 0.98205  0.39549  0.68479  Biso   1.000  Hf
  Hf25     1.0000 0.91145  0.87631  0.20985  Biso   1.000  Hf
  Hf26     1.0000 0.97265  0.89455  0.69503  Biso   1.000  Hf
  Hf27     1.0000 0.94268  0.35045  0.43396  Biso   1.000  Hf
  Hf28     1.0000 0.96226  0.30039  0.95768  Biso   1.000  Hf
  Hf29     1.0000 0.95045  0.85589  0.44665  Biso   1.000  Hf
  Hf30     1.0000 0.00650  0.87217  0.95743  Biso   1.000  Hf
  Hf31     1.0000 0.52957  0.12878  0.24742  Biso   1.000  Hf
  Hf32     1.0000 0.58154  0.12659  0.73292  Biso   1.000  Hf
  Hf33     1.0000 0.51663  0.62094  0.23983  Biso   1.000  Hf
  Hf34     1.0000 0.56169  0.63362  0.73266  Biso   1.000  Hf
  Hf35     1.0000 0.53652  0.12111  0.49183  Biso   1.000  Hf
  Hf36     1.0000 0.56959  0.12763  0.97909  Biso   1.000  Hf
  Hf37     1.0000 0.53972  0.62552  0.48478  Biso   1.000  Hf
  Hf38     1.0000 0.47431  0.62909  0.00335  Biso   1.000  Hf
  Hf39     1.0000 0.43053  0.37239  0.02095  Biso   1.000  Hf
  Hf40     1.0000 0.46357  0.37888  0.50824  Biso   1.000  Hf
  Hf41     1.0000 0.52560  0.87088  0.99661  Biso   1.000  Hf
  Hf42     1.0000 0.46021  0.87452  0.51520  Biso   1.000  Hf
  Hf43     1.0000 0.41860  0.37341  0.26713  Biso   1.000  Hf
  Hf44     1.0000 0.47068  0.37121  0.75263  Biso   1.000  Hf
  Hf45     1.0000 0.43817  0.86641  0.26734  Biso   1.000  Hf
  Hf46     1.0000 0.48326  0.87906  0.76017  Biso   1.000  Hf
