data_image0
_cell_length_a       10.1278
_cell_length_b       10.4961
_cell_length_c       5.08289
_cell_angle_alpha    90.0012
_cell_angle_beta     90.9835
_cell_angle_gamma    90.019

_symmetry_space_group_name_H-M    "P 1"
_symmetry_int_tables_number       1

loop_
  _symmetry_equiv_pos_as_xyz
  'x, y, z'

loop_
  _atom_site_label
  _atom_site_occupancy
  _atom_site_fract_x
  _atom_site_fract_y
  _atom_site_fract_z
  _atom_site_thermal_displace_type
  _atom_site_B_iso_or_equiv
  _atom_site_type_symbol
  La1      1.0000 0.11978  0.00775  0.23855  Biso   1.000  La
  Hf1      1.0000 0.13504  0.51952  0.25397  Biso   1.000  Hf
  Hf2      1.0000 0.63428  0.01051  0.24459  Biso   1.000  Hf
  Hf3      1.0000 0.63430  0.51529  0.25675  Biso   1.000  Hf
  Hf4      1.0000 0.13420  0.23947  0.74459  Biso   1.000  Hf
  Hf5      1.0000 0.13435  0.73470  0.75688  Biso   1.000  Hf
  La2      1.0000 0.61966  0.24219  0.73845  Biso   1.000  La
  Hf6      1.0000 0.63501  0.73053  0.75402  Biso   1.000  Hf
  Hf7      1.0000 0.35931  0.26888  0.25425  Biso   1.000  Hf
  Hf8      1.0000 0.36998  0.76290  0.25262  Biso   1.000  Hf
  Hf9      1.0000 0.86513  0.27101  0.24167  Biso   1.000  Hf
  Hf10     1.0000 0.86098  0.76250  0.25775  Biso   1.000  Hf
  Hf11     1.0000 0.36085  0.48739  0.75793  Biso   1.000  Hf
  Hf12     1.0000 0.36509  0.97901  0.74177  Biso   1.000  Hf
  Hf13     1.0000 0.86984  0.48705  0.75252  Biso   1.000  Hf
  Hf14     1.0000 0.85925  0.98110  0.75421  Biso   1.000  Hf
  Hf15     1.0000 0.03755  0.20743  0.38191  Biso   1.000  Hf
  Hf16     1.0000 0.03331  0.68319  0.40350  Biso   1.000  Hf
  Hf17     1.0000 0.53458  0.17713  0.31443  Biso   1.000  Hf
  Hf18     1.0000 0.53418  0.67643  0.39969  Biso   1.000  Hf
  Hf19     1.0000 0.03462  0.07278  0.81453  Biso   1.000  Hf
  Hf20     1.0000 0.03417  0.57354  0.89979  Biso   1.000  Hf
  Hf21     1.0000 0.53759  0.04252  0.88194  Biso   1.000  Hf
  Hf22     1.0000 0.53324  0.56692  0.90361  Biso   1.000  Hf
  Hf23     1.0000 0.47696  0.42322  0.42835  Biso   1.000  Hf
  Hf24     1.0000 0.46621  0.92912  0.39143  Biso   1.000  Hf
  Hf25     1.0000 0.97210  0.43884  0.39918  Biso   1.000  Hf
  Hf26     1.0000 0.94537  0.91833  0.42153  Biso   1.000  Hf
  Hf27     1.0000 0.44565  0.33190  0.92208  Biso   1.000  Hf
  Hf28     1.0000 0.47213  0.81120  0.89934  Biso   1.000  Hf
  Hf29     1.0000 0.96612  0.32088  0.89132  Biso   1.000  Hf
  Hf30     1.0000 0.97693  0.82671  0.92802  Biso   1.000  Hf
  Hf31     1.0000 0.28420  0.12688  0.51216  Biso   1.000  Hf
  Hf32     1.0000 0.27001  0.61645  0.49591  Biso   1.000  Hf
  Hf33     1.0000 0.77417  0.11238  0.48857  Biso   1.000  Hf
  Hf34     1.0000 0.77013  0.61816  0.49960  Biso   1.000  Hf
  Hf35     1.0000 0.27419  0.13769  0.98862  Biso   1.000  Hf
  Hf36     1.0000 0.27017  0.63185  0.99967  Biso   1.000  Hf
  Hf37     1.0000 0.78419  0.12306  0.01211  Biso   1.000  Hf
  Hf38     1.0000 0.77001  0.63352  0.99580  Biso   1.000  Hf
  Hf39     1.0000 0.22045  0.38647  0.00439  Biso   1.000  Hf
  Hf40     1.0000 0.24426  0.87289  0.98479  Biso   1.000  Hf
  Hf41     1.0000 0.74090  0.39513  0.00477  Biso   1.000  Hf
  Hf42     1.0000 0.73229  0.87608  0.00410  Biso   1.000  Hf
  Hf43     1.0000 0.23230  0.37386  0.50412  Biso   1.000  Hf
  Hf44     1.0000 0.24100  0.85484  0.50489  Biso   1.000  Hf
  Hf45     1.0000 0.74419  0.37708  0.48459  Biso   1.000  Hf
  Hf46     1.0000 0.72041  0.86349  0.50443  Biso   1.000  Hf
