data_image0
_cell_length_a       10.1479
_cell_length_b       10.4877
_cell_length_c       5.07265
_cell_angle_alpha    90.5578
_cell_angle_beta     89.979
_cell_angle_gamma    90.1806

_symmetry_space_group_name_H-M    "P 1"
_symmetry_int_tables_number       1

loop_
  _symmetry_equiv_pos_as_xyz
  'x, y, z'

loop_
  _atom_site_label
  _atom_site_occupancy
  _atom_site_fract_x
  _atom_site_fract_y
  _atom_site_fract_z
  _atom_site_thermal_displace_type
  _atom_site_B_iso_or_equiv
  _atom_site_type_symbol
  La1      1.0000 0.11730  0.00102  0.24023  Biso   1.000  La
  Hf1      1.0000 0.13405  0.51591  0.25079  Biso   1.000  Hf
  Hf2      1.0000 0.63867  0.01213  0.25893  Biso   1.000  Hf
  Hf3      1.0000 0.63664  0.51821  0.25183  Biso   1.000  Hf
  Hf4      1.0000 0.12609  0.24061  0.73556  Biso   1.000  Hf
  Hf5      1.0000 0.13779  0.73040  0.75601  Biso   1.000  Hf
  Hf6      1.0000 0.64167  0.23119  0.75687  Biso   1.000  Hf
  Hf7      1.0000 0.63397  0.73021  0.75937  Biso   1.000  Hf
  La2      1.0000 0.37703  0.25536  0.23674  Biso   1.000  La
  Hf8      1.0000 0.36984  0.76196  0.24813  Biso   1.000  Hf
  Hf9      1.0000 0.86249  0.27092  0.25355  Biso   1.000  Hf
  Hf10     1.0000 0.86394  0.75904  0.25658  Biso   1.000  Hf
  Hf11     1.0000 0.36423  0.48574  0.74486  Biso   1.000  Hf
  Hf12     1.0000 0.37117  0.97732  0.74836  Biso   1.000  Hf
  Hf13     1.0000 0.86615  0.48414  0.75318  Biso   1.000  Hf
  Hf14     1.0000 0.85868  0.97995  0.76178  Biso   1.000  Hf
  Hf15     1.0000 0.03337  0.20416  0.37743  Biso   1.000  Hf
  Hf16     1.0000 0.03604  0.68590  0.39757  Biso   1.000  Hf
  Hf17     1.0000 0.56001  0.17554  0.41136  Biso   1.000  Hf
  Hf18     1.0000 0.53814  0.68532  0.39832  Biso   1.000  Hf
  Hf19     1.0000 0.02291  0.07553  0.83134  Biso   1.000  Hf
  Hf20     1.0000 0.03162  0.57056  0.89470  Biso   1.000  Hf
  Hf21     1.0000 0.53056  0.07300  0.91681  Biso   1.000  Hf
  Hf22     1.0000 0.53260  0.56955  0.90077  Biso   1.000  Hf
  Hf23     1.0000 0.46787  0.45093  0.38891  Biso   1.000  Hf
  Hf24     1.0000 0.46518  0.93533  0.38991  Biso   1.000  Hf
  Hf25     1.0000 0.96017  0.44164  0.38971  Biso   1.000  Hf
  Hf26     1.0000 0.93554  0.92222  0.41415  Biso   1.000  Hf
  Hf27     1.0000 0.47003  0.32281  0.82872  Biso   1.000  Hf
  Hf28     1.0000 0.47627  0.81941  0.90222  Biso   1.000  Hf
  Hf29     1.0000 0.95954  0.32128  0.89135  Biso   1.000  Hf
  Hf30     1.0000 0.97745  0.82478  0.92332  Biso   1.000  Hf
  Hf31     1.0000 0.26905  0.11388  0.52473  Biso   1.000  Hf
  Hf32     1.0000 0.27003  0.61575  0.49513  Biso   1.000  Hf
  Hf33     1.0000 0.77858  0.11692  0.51167  Biso   1.000  Hf
  Hf34     1.0000 0.77027  0.61749  0.50100  Biso   1.000  Hf
  Hf35     1.0000 0.25949  0.12420  0.95677  Biso   1.000  Hf
  Hf36     1.0000 0.26975  0.62969  0.99938  Biso   1.000  Hf
  Hf37     1.0000 0.76969  0.12975  0.01382  Biso   1.000  Hf
  Hf38     1.0000 0.76979  0.63038  0.99711  Biso   1.000  Hf
  Hf39     1.0000 0.22462  0.38728  0.98576  Biso   1.000  Hf
  Hf40     1.0000 0.24598  0.86901  0.98525  Biso   1.000  Hf
  Hf41     1.0000 0.72855  0.38365  0.00371  Biso   1.000  Hf
  Hf42     1.0000 0.73292  0.87597  0.00905  Biso   1.000  Hf
  Hf43     1.0000 0.21952  0.37877  0.50283  Biso   1.000  Hf
  Hf44     1.0000 0.24382  0.85264  0.50703  Biso   1.000  Hf
  Hf45     1.0000 0.73086  0.36921  0.50481  Biso   1.000  Hf
  Hf46     1.0000 0.71793  0.86444  0.50799  Biso   1.000  Hf
