data_image0
_cell_length_a       10.2599
_cell_length_b       5.20647
_cell_length_c       10.4529
_cell_angle_alpha    90.1443
_cell_angle_beta     81.6589
_cell_angle_gamma    90.8043

_symmetry_space_group_name_H-M    "P 1"
_symmetry_int_tables_number       1

loop_
  _symmetry_equiv_pos_as_xyz
  'x, y, z'

loop_
  _atom_site_label
  _atom_site_occupancy
  _atom_site_fract_x
  _atom_site_fract_y
  _atom_site_fract_z
  _atom_site_thermal_displace_type
  _atom_site_B_iso_or_equiv
  _atom_site_type_symbol
  La1      1.0000 0.12694  0.01795  0.13511  Biso   1.000  La
  La2      1.0000 0.12692  0.01796  0.63512  Biso   1.000  La
  Hf1      1.0000 0.64209  0.03563  0.14911  Biso   1.000  Hf
  Hf2      1.0000 0.64209  0.03562  0.64914  Biso   1.000  Hf
  Hf3      1.0000 0.14186  0.45977  0.39155  Biso   1.000  Hf
  Hf4      1.0000 0.14185  0.45977  0.89159  Biso   1.000  Hf
  Hf5      1.0000 0.63872  0.45505  0.39868  Biso   1.000  Hf
  Hf6      1.0000 0.63871  0.45502  0.89868  Biso   1.000  Hf
  Hf7      1.0000 0.36539  0.52800  0.10114  Biso   1.000  Hf
  Hf8      1.0000 0.36539  0.52797  0.60113  Biso   1.000  Hf
  Hf9      1.0000 0.86031  0.53549  0.10508  Biso   1.000  Hf
  Hf10     1.0000 0.86030  0.53546  0.60503  Biso   1.000  Hf
  Hf11     1.0000 0.36524  0.95420  0.34794  Biso   1.000  Hf
  Hf12     1.0000 0.36523  0.95417  0.84793  Biso   1.000  Hf
  Hf13     1.0000 0.85567  0.95975  0.36433  Biso   1.000  Hf
  Hf14     1.0000 0.85567  0.95972  0.86436  Biso   1.000  Hf
  Hf15     1.0000 0.04563  0.42394  0.09093  Biso   1.000  Hf
  Hf16     1.0000 0.04561  0.42393  0.59089  Biso   1.000  Hf
  Hf17     1.0000 0.53754  0.32812  0.08033  Biso   1.000  Hf
  Hf18     1.0000 0.53754  0.32810  0.58032  Biso   1.000  Hf
  Hf19     1.0000 0.03139  0.14793  0.35642  Biso   1.000  Hf
  Hf20     1.0000 0.03136  0.14798  0.85642  Biso   1.000  Hf
  Hf21     1.0000 0.53906  0.15819  0.32914  Biso   1.000  Hf
  Hf22     1.0000 0.53905  0.15817  0.82915  Biso   1.000  Hf
  Hf23     1.0000 0.46931  0.83119  0.16704  Biso   1.000  Hf
  Hf24     1.0000 0.46930  0.83118  0.66704  Biso   1.000  Hf
  Hf25     1.0000 0.91752  0.88143  0.16819  Biso   1.000  Hf
  Hf26     1.0000 0.91751  0.88136  0.66822  Biso   1.000  Hf
  Hf27     1.0000 0.47453  0.66479  0.41819  Biso   1.000  Hf
  Hf28     1.0000 0.47453  0.66481  0.91819  Biso   1.000  Hf
  Hf29     1.0000 0.96153  0.65494  0.41130  Biso   1.000  Hf
  Hf30     1.0000 0.96154  0.65498  0.91132  Biso   1.000  Hf
  Hf31     1.0000 0.28238  0.25256  0.24041  Biso   1.000  Hf
  Hf32     1.0000 0.28238  0.25250  0.74041  Biso   1.000  Hf
  Hf33     1.0000 0.77498  0.27029  0.24737  Biso   1.000  Hf
  Hf34     1.0000 0.77499  0.27031  0.74736  Biso   1.000  Hf
  Hf35     1.0000 0.28321  0.24547  0.47946  Biso   1.000  Hf
  Hf36     1.0000 0.28321  0.24544  0.97947  Biso   1.000  Hf
  Hf37     1.0000 0.77393  0.23944  0.49702  Biso   1.000  Hf
  Hf38     1.0000 0.77394  0.23949  0.99703  Biso   1.000  Hf
  Hf39     1.0000 0.24494  0.73779  0.99235  Biso   1.000  Hf
  Hf40     1.0000 0.24493  0.73781  0.49234  Biso   1.000  Hf
  Hf41     1.0000 0.72473  0.75376  0.01271  Biso   1.000  Hf
  Hf42     1.0000 0.72471  0.75382  0.51271  Biso   1.000  Hf
  Hf43     1.0000 0.23547  0.71830  0.25470  Biso   1.000  Hf
  Hf44     1.0000 0.23547  0.71822  0.75470  Biso   1.000  Hf
  Hf45     1.0000 0.71229  0.74410  0.26795  Biso   1.000  Hf
  Hf46     1.0000 0.71227  0.74412  0.76797  Biso   1.000  Hf
