data_image0
_cell_length_a       10.302
_cell_length_b       5.17265
_cell_length_c       10.4608
_cell_angle_alpha    89.993
_cell_angle_beta     81.6296
_cell_angle_gamma    90.021

_symmetry_space_group_name_H-M    "P 1"
_symmetry_int_tables_number       1

loop_
  _symmetry_equiv_pos_as_xyz
  'x, y, z'

loop_
  _atom_site_label
  _atom_site_occupancy
  _atom_site_fract_x
  _atom_site_fract_y
  _atom_site_fract_z
  _atom_site_thermal_displace_type
  _atom_site_B_iso_or_equiv
  _atom_site_type_symbol
  La1      1.0000 0.12764  0.00318  0.13028  Biso   1.000  La
  Hf1      1.0000 0.13739  0.04414  0.64555  Biso   1.000  Hf
  Hf2      1.0000 0.63585  0.01697  0.14668  Biso   1.000  Hf
  Hf3      1.0000 0.64215  0.04214  0.64836  Biso   1.000  Hf
  Hf4      1.0000 0.13628  0.45253  0.39266  Biso   1.000  Hf
  Hf5      1.0000 0.15182  0.46887  0.88758  Biso   1.000  Hf
  Hf6      1.0000 0.62583  0.45594  0.40342  Biso   1.000  Hf
  Hf7      1.0000 0.64656  0.45580  0.89724  Biso   1.000  Hf
  Hf8      1.0000 0.36422  0.51695  0.10329  Biso   1.000  Hf
  Hf9      1.0000 0.35791  0.54218  0.60166  Biso   1.000  Hf
  La2      1.0000 0.87238  0.50337  0.11972  Biso   1.000  La
  Hf10     1.0000 0.86268  0.54427  0.60442  Biso   1.000  Hf
  Hf11     1.0000 0.35341  0.95584  0.35277  Biso   1.000  Hf
  Hf12     1.0000 0.37412  0.95591  0.84662  Biso   1.000  Hf
  Hf13     1.0000 0.84812  0.96902  0.36243  Biso   1.000  Hf
  Hf14     1.0000 0.86368  0.95264  0.85738  Biso   1.000  Hf
  Hf15     1.0000 0.08873  0.44418  0.08830  Biso   1.000  Hf
  Hf16     1.0000 0.03591  0.34719  0.58232  Biso   1.000  Hf
  Hf17     1.0000 0.53693  0.32234  0.07922  Biso   1.000  Hf
  Hf18     1.0000 0.52981  0.33051  0.58363  Biso   1.000  Hf
  Hf19     1.0000 0.02046  0.17312  0.33755  Biso   1.000  Hf
  Hf20     1.0000 0.03981  0.16266  0.83970  Biso   1.000  Hf
  Hf21     1.0000 0.52071  0.16303  0.33360  Biso   1.000  Hf
  Hf22     1.0000 0.54367  0.15935  0.82741  Biso   1.000  Hf
  Hf23     1.0000 0.46306  0.82236  0.17076  Biso   1.000  Hf
  Hf24     1.0000 0.47014  0.83054  0.66641  Biso   1.000  Hf
  Hf25     1.0000 0.91122  0.94442  0.16162  Biso   1.000  Hf
  Hf26     1.0000 0.96411  0.84722  0.66769  Biso   1.000  Hf
  Hf27     1.0000 0.45637  0.65943  0.42260  Biso   1.000  Hf
  Hf28     1.0000 0.47934  0.66296  0.91633  Biso   1.000  Hf
  Hf29     1.0000 0.96018  0.66274  0.41034  Biso   1.000  Hf
  Hf30     1.0000 0.97952  0.67308  0.91243  Biso   1.000  Hf
  Hf31     1.0000 0.27708  0.24751  0.24385  Biso   1.000  Hf
  Hf32     1.0000 0.27687  0.25823  0.73504  Biso   1.000  Hf
  Hf33     1.0000 0.74280  0.24286  0.26335  Biso   1.000  Hf
  Hf34     1.0000 0.78118  0.26114  0.74131  Biso   1.000  Hf
  Hf35     1.0000 0.26906  0.24119  0.49107  Biso   1.000  Hf
  Hf36     1.0000 0.29232  0.24217  0.97481  Biso   1.000  Hf
  Hf37     1.0000 0.76993  0.24742  0.49845  Biso   1.000  Hf
  Hf38     1.0000 0.76876  0.21702  0.98962  Biso   1.000  Hf
  Hf39     1.0000 0.25722  0.74275  0.98670  Biso   1.000  Hf
  Hf40     1.0000 0.21886  0.76110  0.50872  Biso   1.000  Hf
  Hf41     1.0000 0.72295  0.74765  0.00612  Biso   1.000  Hf
  Hf42     1.0000 0.72311  0.75829  0.51501  Biso   1.000  Hf
  Hf43     1.0000 0.23126  0.71697  0.26038  Biso   1.000  Hf
  Hf44     1.0000 0.23003  0.74739  0.75155  Biso   1.000  Hf
  Hf45     1.0000 0.70764  0.74226  0.27518  Biso   1.000  Hf
  Hf46     1.0000 0.73092  0.74121  0.75889  Biso   1.000  Hf
