data_image0
_cell_length_a       5.07888
_cell_length_b       10.1448
_cell_length_c       10.3463
_cell_angle_alpha    92.5974
_cell_angle_beta     88.4305
_cell_angle_gamma    89.0407

_symmetry_space_group_name_H-M    "P 1"
_symmetry_int_tables_number       1

loop_
  _symmetry_equiv_pos_as_xyz
  'x, y, z'

loop_
  _atom_site_label
  _atom_site_occupancy
  _atom_site_fract_x
  _atom_site_fract_y
  _atom_site_fract_z
  _atom_site_thermal_displace_type
  _atom_site_B_iso_or_equiv
  _atom_site_type_symbol
  La1      1.0000 0.23220  0.01519  0.13163  Biso   1.000  La
  Hf1      1.0000 0.27457  0.99112  0.63529  Biso   1.000  Hf
  Hf2      1.0000 0.22927  0.50637  0.13707  Biso   1.000  Hf
  Hf3      1.0000 0.24461  0.49385  0.61729  Biso   1.000  Hf
  La2      1.0000 0.27821  0.23433  0.36916  Biso   1.000  La
  Hf4      1.0000 0.23588  0.25841  0.86555  Biso   1.000  Hf
  Hf5      1.0000 0.28120  0.74310  0.36375  Biso   1.000  Hf
  Hf6      1.0000 0.26586  0.75562  0.88353  Biso   1.000  Hf
  Hf7      1.0000 0.73422  0.29435  0.09051  Biso   1.000  Hf
  Hf8      1.0000 0.75730  0.23492  0.61965  Biso   1.000  Hf
  Hf9      1.0000 0.74747  0.76560  0.11511  Biso   1.000  Hf
  Hf10     1.0000 0.78614  0.74920  0.65072  Biso   1.000  Hf
  Hf11     1.0000 0.77626  0.95508  0.41029  Biso   1.000  Hf
  Hf12     1.0000 0.75321  0.01449  0.88112  Biso   1.000  Hf
  Hf13     1.0000 0.76284  0.48389  0.38570  Biso   1.000  Hf
  Hf14     1.0000 0.72431  0.50030  0.85011  Biso   1.000  Hf
  Hf15     1.0000 0.99542  0.15896  0.00005  Biso   1.000  Hf
  Hf16     1.0000 0.00967  0.09629  0.52120  Biso   1.000  Hf
  Hf17     1.0000 0.08280  0.66343  0.04203  Biso   1.000  Hf
  Hf18     1.0000 0.92587  0.59472  0.54117  Biso   1.000  Hf
  Hf19     1.0000 0.85243  0.12263  0.29975  Biso   1.000  Hf
  Hf20     1.0000 0.00887  0.11889  0.76140  Biso   1.000  Hf
  Hf21     1.0000 0.01103  0.60669  0.29000  Biso   1.000  Hf
  Hf22     1.0000 0.01493  0.62294  0.78047  Biso   1.000  Hf
  Hf23     1.0000 0.00434  0.36412  0.22242  Biso   1.000  Hf
  Hf24     1.0000 0.98321  0.36614  0.72951  Biso   1.000  Hf
  Hf25     1.0000 0.99991  0.85841  0.25524  Biso   1.000  Hf
  Hf26     1.0000 0.03536  0.87018  0.74792  Biso   1.000  Hf
  Hf27     1.0000 0.98016  0.40948  0.97745  Biso   1.000  Hf
  Hf28     1.0000 0.00101  0.36175  0.48743  Biso   1.000  Hf
  Hf29     1.0000 0.99086  0.89259  0.98509  Biso   1.000  Hf
  Hf30     1.0000 0.03908  0.84544  0.50622  Biso   1.000  Hf
  Hf31     1.0000 0.65796  0.12676  0.20100  Biso   1.000  Hf
  Hf32     1.0000 0.50159  0.13059  0.73935  Biso   1.000  Hf
  Hf33     1.0000 0.49964  0.64266  0.21089  Biso   1.000  Hf
  Hf34     1.0000 0.49539  0.62656  0.72039  Biso   1.000  Hf
  Hf35     1.0000 0.50088  0.15315  0.97955  Biso   1.000  Hf
  Hf36     1.0000 0.51517  0.09053  0.50072  Biso   1.000  Hf
  Hf37     1.0000 0.58451  0.65474  0.95971  Biso   1.000  Hf
  Hf38     1.0000 0.42759  0.58606  0.45882  Biso   1.000  Hf
  Hf39     1.0000 0.47129  0.40400  0.99463  Biso   1.000  Hf
  Hf40     1.0000 0.51950  0.35689  0.51574  Biso   1.000  Hf
  Hf41     1.0000 0.50927  0.88772  0.01336  Biso   1.000  Hf
  Hf42     1.0000 0.53022  0.84002  0.52334  Biso   1.000  Hf
  Hf43     1.0000 0.51077  0.39100  0.24560  Biso   1.000  Hf
  Hf44     1.0000 0.47516  0.37929  0.75293  Biso   1.000  Hf
  Hf45     1.0000 0.50632  0.88524  0.27830  Biso   1.000  Hf
  Hf46     1.0000 0.52733  0.88333  0.77129  Biso   1.000  Hf
