data_image0
_cell_length_a       10.2517
_cell_length_b       10.4138
_cell_length_c       5.18711
_cell_angle_alpha    90.0063
_cell_angle_beta     91.5127
_cell_angle_gamma    89.9814

_symmetry_space_group_name_H-M    "P 1"
_symmetry_int_tables_number       1

loop_
  _symmetry_equiv_pos_as_xyz
  'x, y, z'

loop_
  _atom_site_label
  _atom_site_occupancy
  _atom_site_fract_x
  _atom_site_fract_y
  _atom_site_fract_z
  _atom_site_thermal_displace_type
  _atom_site_B_iso_or_equiv
  _atom_site_type_symbol
  La1      1.0000 0.12645  0.00959  0.30276  Biso   1.000  La
  Hf1      1.0000 0.14264  0.52236  0.32997  Biso   1.000  Hf
  La2      1.0000 0.12651  0.24055  0.80275  Biso   1.000  La
  Hf2      1.0000 0.14263  0.72769  0.83009  Biso   1.000  Hf
  Hf3      1.0000 0.36731  0.26932  0.32901  Biso   1.000  Hf
  Hf4      1.0000 0.36465  0.76888  0.33332  Biso   1.000  Hf
  Hf5      1.0000 0.36469  0.48115  0.83329  Biso   1.000  Hf
  Hf6      1.0000 0.36728  0.98074  0.82910  Biso   1.000  Hf
  Hf7      1.0000 0.63992  0.01946  0.16981  Biso   1.000  Hf
  Hf8      1.0000 0.63808  0.52023  0.15748  Biso   1.000  Hf
  Hf9      1.0000 0.63995  0.23045  0.66987  Biso   1.000  Hf
  Hf10     1.0000 0.63808  0.72974  0.65750  Biso   1.000  Hf
  Hf11     1.0000 0.85190  0.27324  0.17825  Biso   1.000  Hf
  Hf12     1.0000 0.86105  0.76428  0.16018  Biso   1.000  Hf
  Hf13     1.0000 0.86120  0.48572  0.66008  Biso   1.000  Hf
  Hf14     1.0000 0.85202  0.97668  0.67835  Biso   1.000  Hf
  Hf15     1.0000 0.03184  0.20690  0.24982  Biso   1.000  Hf
  Hf16     1.0000 0.04238  0.68274  0.19012  Biso   1.000  Hf
  Hf17     1.0000 0.03180  0.04329  0.74982  Biso   1.000  Hf
  Hf18     1.0000 0.04242  0.56722  0.69012  Biso   1.000  Hf
  Hf19     1.0000 0.47184  0.41589  0.16336  Biso   1.000  Hf
  Hf20     1.0000 0.47110  0.91687  0.16886  Biso   1.000  Hf
  Hf21     1.0000 0.47118  0.33320  0.66885  Biso   1.000  Hf
  Hf22     1.0000 0.47181  0.83415  0.66341  Biso   1.000  Hf
  Hf23     1.0000 0.29547  0.12071  0.56568  Biso   1.000  Hf
  Hf24     1.0000 0.27519  0.62666  0.58132  Biso   1.000  Hf
  Hf25     1.0000 0.29541  0.12939  0.06570  Biso   1.000  Hf
  Hf26     1.0000 0.27521  0.62343  0.08131  Biso   1.000  Hf
  Hf27     1.0000 0.24350  0.38700  0.55695  Biso   1.000  Hf
  Hf28     1.0000 0.23263  0.86359  0.57987  Biso   1.000  Hf
  Hf29     1.0000 0.23268  0.38650  0.07977  Biso   1.000  Hf
  Hf30     1.0000 0.24345  0.86306  0.05700  Biso   1.000  Hf
  Hf31     1.0000 0.54138  0.17094  0.32525  Biso   1.000  Hf
  Hf32     1.0000 0.53216  0.66274  0.33184  Biso   1.000  Hf
  Hf33     1.0000 0.54137  0.07904  0.82534  Biso   1.000  Hf
  Hf34     1.0000 0.53219  0.58723  0.83184  Biso   1.000  Hf
  Hf35     1.0000 0.95958  0.43525  0.31431  Biso   1.000  Hf
  Hf36     1.0000 0.92686  0.92566  0.32025  Biso   1.000  Hf
  Hf37     1.0000 0.92670  0.32418  0.82008  Biso   1.000  Hf
  Hf38     1.0000 0.95949  0.81473  0.81456  Biso   1.000  Hf
  Hf39     1.0000 0.77451  0.12332  0.93630  Biso   1.000  Hf
  Hf40     1.0000 0.77397  0.62123  0.91005  Biso   1.000  Hf
  Hf41     1.0000 0.77448  0.12658  0.43617  Biso   1.000  Hf
  Hf42     1.0000 0.77397  0.62867  0.41002  Biso   1.000  Hf
  Hf43     1.0000 0.71037  0.37596  0.92358  Biso   1.000  Hf
  Hf44     1.0000 0.72509  0.87100  0.92154  Biso   1.000  Hf
  Hf45     1.0000 0.72514  0.37894  0.42161  Biso   1.000  Hf
  Hf46     1.0000 0.71044  0.87388  0.42348  Biso   1.000  Hf
