data_image0
_cell_length_a       10.0406
_cell_length_b       10.3008
_cell_length_c       5.21309
_cell_angle_alpha    90.0908
_cell_angle_beta     91.8417
_cell_angle_gamma    89.4886

_symmetry_space_group_name_H-M    "P 1"
_symmetry_int_tables_number       1

loop_
  _symmetry_equiv_pos_as_xyz
  'x, y, z'

loop_
  _atom_site_label
  _atom_site_occupancy
  _atom_site_fract_x
  _atom_site_fract_y
  _atom_site_fract_z
  _atom_site_thermal_displace_type
  _atom_site_B_iso_or_equiv
  _atom_site_type_symbol
  La1      1.0000 0.12061  0.00051  0.29961  Biso   1.000  La
  Hf1      1.0000 0.13699  0.52332  0.32426  Biso   1.000  Hf
  Hf2      1.0000 0.14018  0.23028  0.82436  Biso   1.000  Hf
  Hf3      1.0000 0.11075  0.73982  0.81610  Biso   1.000  Hf
  Hf4      1.0000 0.35809  0.26888  0.33258  Biso   1.000  Hf
  Hf5      1.0000 0.36775  0.76460  0.30096  Biso   1.000  Hf
  Hf6      1.0000 0.35649  0.48201  0.83473  Biso   1.000  Hf
  Hf7      1.0000 0.37136  0.98829  0.82331  Biso   1.000  Hf
  Hf8      1.0000 0.64177  0.02318  0.16626  Biso   1.000  Hf
  Hf9      1.0000 0.63808  0.51584  0.15386  Biso   1.000  Hf
  Hf10     1.0000 0.64078  0.23191  0.65508  Biso   1.000  Hf
  Hf11     1.0000 0.63312  0.72981  0.66386  Biso   1.000  Hf
  Hf12     1.0000 0.86474  0.27292  0.15884  Biso   1.000  Hf
  Hf13     1.0000 0.85565  0.76335  0.19269  Biso   1.000  Hf
  Hf14     1.0000 0.86123  0.47851  0.65848  Biso   1.000  Hf
  Hf15     1.0000 0.86126  0.97741  0.69689  Biso   1.000  Hf
  Hf16     1.0000 0.04193  0.18987  0.17044  Biso   1.000  Hf
  Hf17     1.0000 0.02775  0.66307  0.13580  Biso   1.000  Hf
  Hf18     1.0000 0.03112  0.07981  0.68750  Biso   1.000  Hf
  Hf19     1.0000 0.03232  0.57883  0.65881  Biso   1.000  Hf
  Hf20     1.0000 0.46468  0.41732  0.15932  Biso   1.000  Hf
  Hf21     1.0000 0.47249  0.91926  0.16063  Biso   1.000  Hf
  Hf22     1.0000 0.46774  0.33485  0.66278  Biso   1.000  Hf
  Hf23     1.0000 0.46023  0.83463  0.64536  Biso   1.000  Hf
  Hf24     1.0000 0.27928  0.12597  0.57622  Biso   1.000  Hf
  Hf25     1.0000 0.26282  0.64585  0.56566  Biso   1.000  Hf
  Hf26     1.0000 0.28557  0.13151  0.06175  Biso   1.000  Hf
  Hf27     1.0000 0.26977  0.62128  0.07044  Biso   1.000  Hf
  Hf28     1.0000 0.22394  0.37949  0.57605  Biso   1.000  Hf
  Hf29     1.0000 0.22193  0.37813  0.07658  Biso   1.000  Hf
  Hf30     1.0000 0.24280  0.86250  0.01418  Biso   1.000  Hf
  Hf31     1.0000 0.53709  0.16966  0.32354  Biso   1.000  Hf
  Hf32     1.0000 0.53653  0.66596  0.31986  Biso   1.000  Hf
  Hf33     1.0000 0.54462  0.08148  0.82047  Biso   1.000  Hf
  Hf34     1.0000 0.52944  0.58617  0.82535  Biso   1.000  Hf
  Hf35     1.0000 0.95833  0.42871  0.31477  Biso   1.000  Hf
  Hf36     1.0000 0.98141  0.83407  0.51492  Biso   1.000  Hf
  Hf37     1.0000 0.96164  0.32877  0.81266  Biso   1.000  Hf
  Hf38     1.0000 0.97375  0.88504  0.98965  Biso   1.000  Hf
  Hf39     1.0000 0.77771  0.12443  0.92662  Biso   1.000  Hf
  Hf40     1.0000 0.77631  0.62492  0.92376  Biso   1.000  Hf
  Hf41     1.0000 0.78573  0.12318  0.42269  Biso   1.000  Hf
  Hf42     1.0000 0.76774  0.62349  0.42627  Biso   1.000  Hf
  Hf43     1.0000 0.72340  0.37602  0.90823  Biso   1.000  Hf
  Hf44     1.0000 0.72404  0.86790  0.92424  Biso   1.000  Hf
  Hf45     1.0000 0.72394  0.37379  0.40915  Biso   1.000  Hf
  Hf46     1.0000 0.72949  0.88048  0.42445  Biso   1.000  Hf
