data_image0
_cell_length_a       10.11
_cell_length_b       5.14715
_cell_length_c       10.4307
_cell_angle_alpha    90.478
_cell_angle_beta     91.6029
_cell_angle_gamma    89.9818

_symmetry_space_group_name_H-M    "P 1"
_symmetry_int_tables_number       1

loop_
  _symmetry_equiv_pos_as_xyz
  'x, y, z'

loop_
  _atom_site_label
  _atom_site_occupancy
  _atom_site_fract_x
  _atom_site_fract_y
  _atom_site_fract_z
  _atom_site_thermal_displace_type
  _atom_site_B_iso_or_equiv
  _atom_site_type_symbol
  La1      1.0000 0.12375  0.99451  0.15277  Biso   1.000  La
  Hf1      1.0000 0.13816  0.04273  0.66939  Biso   1.000  Hf
  Hf2      1.0000 0.13144  0.44516  0.41950  Biso   1.000  Hf
  Hf3      1.0000 0.14797  0.46876  0.91883  Biso   1.000  Hf
  Hf4      1.0000 0.35602  0.49214  0.17977  Biso   1.000  Hf
  Hf5      1.0000 0.36017  0.53984  0.66942  Biso   1.000  Hf
  Hf6      1.0000 0.35698  0.94652  0.42079  Biso   1.000  Hf
  Hf7      1.0000 0.37093  0.96904  0.91252  Biso   1.000  Hf
  Hf8      1.0000 0.65887  0.04772  0.07954  Biso   1.000  Hf
  Hf9      1.0000 0.63517  0.04167  0.57921  Biso   1.000  Hf
  Hf10     1.0000 0.63416  0.46040  0.33034  Biso   1.000  Hf
  Hf11     1.0000 0.64181  0.45927  0.82795  Biso   1.000  Hf
  Hf12     1.0000 0.86524  0.54497  0.07971  Biso   1.000  Hf
  Hf13     1.0000 0.86057  0.54301  0.57950  Biso   1.000  Hf
  Hf14     1.0000 0.85054  0.96403  0.33437  Biso   1.000  Hf
  Hf15     1.0000 0.86584  0.96062  0.82873  Biso   1.000  Hf
  Hf16     1.0000 0.05379  0.43445  0.10089  Biso   1.000  Hf
  Hf17     1.0000 0.03422  0.34740  0.59218  Biso   1.000  Hf
  Hf18     1.0000 0.02384  0.14947  0.34747  Biso   1.000  Hf
  Hf19     1.0000 0.04172  0.16047  0.84530  Biso   1.000  Hf
  Hf20     1.0000 0.46774  0.81884  0.58094  Biso   1.000  Hf
  Hf21     1.0000 0.46670  0.67702  0.32357  Biso   1.000  Hf
  Hf22     1.0000 0.47226  0.67009  0.83236  Biso   1.000  Hf
  Hf23     1.0000 0.27459  0.22959  0.29810  Biso   1.000  Hf
  Hf24     1.0000 0.27856  0.25128  0.79024  Biso   1.000  Hf
  Hf25     1.0000 0.28059  0.23488  0.03415  Biso   1.000  Hf
  Hf26     1.0000 0.27204  0.24722  0.54386  Biso   1.000  Hf
  Hf27     1.0000 0.22498  0.71249  0.30039  Biso   1.000  Hf
  Hf28     1.0000 0.22567  0.75070  0.79202  Biso   1.000  Hf
  Hf29     1.0000 0.27579  0.72167  0.03579  Biso   1.000  Hf
  Hf30     1.0000 0.22088  0.75189  0.54546  Biso   1.000  Hf
  Hf31     1.0000 0.52977  0.30196  0.16774  Biso   1.000  Hf
  Hf32     1.0000 0.53019  0.32271  0.67006  Biso   1.000  Hf
  Hf33     1.0000 0.52650  0.17286  0.42000  Biso   1.000  Hf
  Hf34     1.0000 0.54345  0.16513  0.92047  Biso   1.000  Hf
  Hf35     1.0000 0.90862  0.90013  0.14511  Biso   1.000  Hf
  Hf36     1.0000 0.96349  0.84764  0.66180  Biso   1.000  Hf
  Hf37     1.0000 0.95751  0.65600  0.40723  Biso   1.000  Hf
  Hf38     1.0000 0.97252  0.67054  0.91251  Biso   1.000  Hf
  Hf39     1.0000 0.78543  0.25352  0.95513  Biso   1.000  Hf
  Hf40     1.0000 0.76957  0.24790  0.45844  Biso   1.000  Hf
  Hf41     1.0000 0.77498  0.28347  0.21049  Biso   1.000  Hf
  Hf42     1.0000 0.77670  0.25416  0.70587  Biso   1.000  Hf
  Hf43     1.0000 0.72762  0.74988  0.95390  Biso   1.000  Hf
  Hf44     1.0000 0.72089  0.74876  0.45904  Biso   1.000  Hf
  Hf45     1.0000 0.69931  0.76076  0.21200  Biso   1.000  Hf
  Hf46     1.0000 0.72623  0.75016  0.70637  Biso   1.000  Hf
