data_image0
_cell_length_a       5.00789
_cell_length_b       10.4409
_cell_length_c       10.047
_cell_angle_alpha    90.5145
_cell_angle_beta     90.102
_cell_angle_gamma    89.6055

_symmetry_space_group_name_H-M    "P 1"
_symmetry_int_tables_number       1

loop_
  _symmetry_equiv_pos_as_xyz
  'x, y, z'

loop_
  _atom_site_label
  _atom_site_occupancy
  _atom_site_fract_x
  _atom_site_fract_y
  _atom_site_fract_z
  _atom_site_thermal_displace_type
  _atom_site_B_iso_or_equiv
  _atom_site_type_symbol
  La1      1.0000 0.26017  0.00273  0.11832  Biso   1.000  La
  Hf1      1.0000 0.26542  0.02082  0.62776  Biso   1.000  Hf
  Hf2      1.0000 0.26538  0.51478  0.12790  Biso   1.000  Hf
  Hf3      1.0000 0.26729  0.51248  0.62412  Biso   1.000  Hf
  Hf4      1.0000 0.26871  0.23161  0.37317  Biso   1.000  Hf
  Hf5      1.0000 0.27811  0.23851  0.87028  Biso   1.000  Hf
  Hf6      1.0000 0.26345  0.73003  0.38411  Biso   1.000  Hf
  Hf7      1.0000 0.25369  0.72733  0.87088  Biso   1.000  Hf
  Hf8      1.0000 0.73064  0.26671  0.12776  Biso   1.000  Hf
  Hf9      1.0000 0.73513  0.26648  0.62026  Biso   1.000  Hf
  Hf10     1.0000 0.73861  0.75748  0.13464  Biso   1.000  Hf
  Hf11     1.0000 0.72382  0.76616  0.62712  Biso   1.000  Hf
  Hf12     1.0000 0.73096  0.48159  0.37561  Biso   1.000  Hf
  Hf13     1.0000 0.73438  0.48208  0.87497  Biso   1.000  Hf
  Hf14     1.0000 0.72415  0.98204  0.37908  Biso   1.000  Hf
  Hf15     1.0000 0.74876  0.99060  0.86712  Biso   1.000  Hf
  Hf16     1.0000 0.06883  0.19253  0.19534  Biso   1.000  Hf
  Hf17     1.0000 0.08408  0.19224  0.68224  Biso   1.000  Hf
  Hf18     1.0000 0.07260  0.68261  0.20208  Biso   1.000  Hf
  Hf19     1.0000 0.06533  0.68239  0.69490  Biso   1.000  Hf
  Hf20     1.0000 0.07049  0.06286  0.44178  Biso   1.000  Hf
  Hf21     1.0000 0.09964  0.06765  0.90445  Biso   1.000  Hf
  Hf22     1.0000 0.06973  0.56231  0.44690  Biso   1.000  Hf
  Hf23     1.0000 0.05716  0.57105  0.94999  Biso   1.000  Hf
  Hf24     1.0000 0.92449  0.43728  0.19407  Biso   1.000  Hf
  Hf25     1.0000 0.93042  0.43475  0.69630  Biso   1.000  Hf
  Hf26     1.0000 0.87100  0.93366  0.19607  Biso   1.000  Hf
  Hf27     1.0000 0.92618  0.93223  0.68818  Biso   1.000  Hf
  Hf28     1.0000 0.92521  0.31572  0.44219  Biso   1.000  Hf
  Hf29     1.0000 0.93931  0.31887  0.94340  Biso   1.000  Hf
  Hf30     1.0000 0.92148  0.81301  0.44764  Biso   1.000  Hf
  Hf31     1.0000 0.94914  0.83008  0.96019  Biso   1.000  Hf
  Hf32     1.0000 0.55648  0.12679  0.25673  Biso   1.000  Hf
  Hf33     1.0000 0.55271  0.12037  0.74358  Biso   1.000  Hf
  Hf34     1.0000 0.53657  0.61139  0.25119  Biso   1.000  Hf
  Hf35     1.0000 0.53464  0.61534  0.75027  Biso   1.000  Hf
  Hf36     1.0000 0.53384  0.13077  0.50103  Biso   1.000  Hf
  Hf37     1.0000 0.56740  0.13646  0.99047  Biso   1.000  Hf
  Hf38     1.0000 0.53961  0.63020  0.50259  Biso   1.000  Hf
  Hf39     1.0000 0.52721  0.64315  0.00001  Biso   1.000  Hf
  Hf40     1.0000 0.45911  0.38152  0.49812  Biso   1.000  Hf
  Hf41     1.0000 0.46406  0.38778  0.99792  Biso   1.000  Hf
  Hf42     1.0000 0.45220  0.88074  0.50864  Biso   1.000  Hf
  Hf43     1.0000 0.45383  0.36904  0.24892  Biso   1.000  Hf
  Hf44     1.0000 0.46559  0.36836  0.74665  Biso   1.000  Hf
  Hf45     1.0000 0.45824  0.84993  0.25954  Biso   1.000  Hf
  Hf46     1.0000 0.46472  0.86787  0.76483  Biso   1.000  Hf
