data_image0
_cell_length_a       10.2298
_cell_length_b       5.16447
_cell_length_c       10.4573
_cell_angle_alpha    90.1933
_cell_angle_beta     80.6482
_cell_angle_gamma    89.9145

_symmetry_space_group_name_H-M    "P 1"
_symmetry_int_tables_number       1

loop_
  _symmetry_equiv_pos_as_xyz
  'x, y, z'

loop_
  _atom_site_label
  _atom_site_occupancy
  _atom_site_fract_x
  _atom_site_fract_y
  _atom_site_fract_z
  _atom_site_thermal_displace_type
  _atom_site_B_iso_or_equiv
  _atom_site_type_symbol
  La1      1.0000 0.12780  0.01721  0.13852  Biso   1.000  La
  Hf1      1.0000 0.13894  0.04382  0.64762  Biso   1.000  Hf
  Hf2      1.0000 0.63893  0.03616  0.14499  Biso   1.000  Hf
  Hf3      1.0000 0.64010  0.04188  0.64856  Biso   1.000  Hf
  Hf4      1.0000 0.14730  0.47080  0.40011  Biso   1.000  Hf
  Hf5      1.0000 0.14252  0.46568  0.89411  Biso   1.000  Hf
  Hf6      1.0000 0.63092  0.45061  0.39876  Biso   1.000  Hf
  Hf7      1.0000 0.64320  0.45912  0.89498  Biso   1.000  Hf
  Hf8      1.0000 0.36647  0.53106  0.10241  Biso   1.000  Hf
  Hf9      1.0000 0.36254  0.54160  0.60631  Biso   1.000  Hf
  Hf10     1.0000 0.85752  0.53762  0.10430  Biso   1.000  Hf
  Hf11     1.0000 0.86367  0.54149  0.60251  Biso   1.000  Hf
  Hf12     1.0000 0.36163  0.95872  0.35314  Biso   1.000  Hf
  Hf13     1.0000 0.36823  0.95665  0.85275  Biso   1.000  Hf
  Hf14     1.0000 0.83947  0.94486  0.35829  Biso   1.000  Hf
  Hf15     1.0000 0.86365  0.95683  0.85382  Biso   1.000  Hf
  Hf16     1.0000 0.04159  0.40420  0.08629  Biso   1.000  Hf
  Hf17     1.0000 0.03414  0.33044  0.57369  Biso   1.000  Hf
  Hf18     1.0000 0.53983  0.33513  0.07970  Biso   1.000  Hf
  Hf19     1.0000 0.53407  0.33353  0.58309  Biso   1.000  Hf
  Hf20     1.0000 0.03794  0.16076  0.83311  Biso   1.000  Hf
  Hf21     1.0000 0.53435  0.15587  0.33049  Biso   1.000  Hf
  Hf22     1.0000 0.54193  0.16072  0.82955  Biso   1.000  Hf
  Hf23     1.0000 0.46413  0.84081  0.16787  Biso   1.000  Hf
  Hf24     1.0000 0.46784  0.83552  0.66997  Biso   1.000  Hf
  Hf25     1.0000 0.92171  0.86934  0.17213  Biso   1.000  Hf
  Hf26     1.0000 0.96656  0.83517  0.66839  Biso   1.000  Hf
  Hf27     1.0000 0.45935  0.65633  0.42272  Biso   1.000  Hf
  Hf28     1.0000 0.47661  0.66755  0.91977  Biso   1.000  Hf
  Hf29     1.0000 0.96728  0.66923  0.41168  Biso   1.000  Hf
  Hf30     1.0000 0.96549  0.66564  0.91760  Biso   1.000  Hf
  Hf31     1.0000 0.27187  0.26055  0.25171  Biso   1.000  Hf
  Hf32     1.0000 0.27600  0.25914  0.73934  Biso   1.000  Hf
  Hf33     1.0000 0.77034  0.26272  0.24523  Biso   1.000  Hf
  Hf34     1.0000 0.78017  0.26046  0.73867  Biso   1.000  Hf
  Hf35     1.0000 0.27540  0.23951  0.49454  Biso   1.000  Hf
  Hf36     1.0000 0.28620  0.24732  0.98137  Biso   1.000  Hf
  Hf37     1.0000 0.77324  0.23642  0.49179  Biso   1.000  Hf
  Hf38     1.0000 0.77837  0.23893  0.99062  Biso   1.000  Hf
  Hf39     1.0000 0.24394  0.73744  0.99448  Biso   1.000  Hf
  Hf40     1.0000 0.22229  0.75715  0.51085  Biso   1.000  Hf
  Hf41     1.0000 0.72510  0.75652  0.00821  Biso   1.000  Hf
  Hf42     1.0000 0.72197  0.74720  0.51235  Biso   1.000  Hf
  Hf43     1.0000 0.23552  0.72731  0.26246  Biso   1.000  Hf
  Hf44     1.0000 0.22615  0.74546  0.75643  Biso   1.000  Hf
  Hf45     1.0000 0.70456  0.73644  0.26740  Biso   1.000  Hf
  Hf46     1.0000 0.72879  0.74224  0.75800  Biso   1.000  Hf
