data_image0
_cell_length_a       10.072
_cell_length_b       5.20708
_cell_length_c       10.0456
_cell_angle_alpha    90.7704
_cell_angle_beta     90.8315
_cell_angle_gamma    89.9525

_symmetry_space_group_name_H-M    "P 1"
_symmetry_int_tables_number       1

loop_
  _symmetry_equiv_pos_as_xyz
  'x, y, z'

loop_
  _atom_site_label
  _atom_site_occupancy
  _atom_site_fract_x
  _atom_site_fract_y
  _atom_site_fract_z
  _atom_site_thermal_displace_type
  _atom_site_B_iso_or_equiv
  _atom_site_type_symbol
  La1      1.0000 0.12386  0.00036  0.12418  Biso   1.000  La
  Hf1      1.0000 0.13143  0.03028  0.62337  Biso   1.000  Hf
  Hf2      1.0000 0.63354  0.03213  0.12568  Biso   1.000  Hf
  Hf3      1.0000 0.63299  0.03271  0.62760  Biso   1.000  Hf
  Hf4      1.0000 0.12626  0.46747  0.38118  Biso   1.000  Hf
  Hf5      1.0000 0.13714  0.47298  0.87149  Biso   1.000  Hf
  Hf6      1.0000 0.63264  0.46235  0.37986  Biso   1.000  Hf
  Hf7      1.0000 0.64064  0.46668  0.87487  Biso   1.000  Hf
  Hf8      1.0000 0.38025  0.53925  0.11077  Biso   1.000  Hf
  Hf9      1.0000 0.36527  0.52857  0.62354  Biso   1.000  Hf
  Hf10     1.0000 0.85940  0.53539  0.13292  Biso   1.000  Hf
  Hf11     1.0000 0.86660  0.53402  0.62667  Biso   1.000  Hf
  Hf12     1.0000 0.37060  0.94539  0.37914  Biso   1.000  Hf
  Hf13     1.0000 0.37012  0.97365  0.87054  Biso   1.000  Hf
  Hf14     1.0000 0.85742  0.96639  0.38160  Biso   1.000  Hf
  Hf15     1.0000 0.86680  0.96686  0.87650  Biso   1.000  Hf
  Hf16     1.0000 0.03255  0.39877  0.20283  Biso   1.000  Hf
  Hf17     1.0000 0.04116  0.37752  0.68290  Biso   1.000  Hf
  Hf18     1.0000 0.53139  0.36377  0.19989  Biso   1.000  Hf
  Hf19     1.0000 0.53534  0.36635  0.69594  Biso   1.000  Hf
  Hf20     1.0000 0.03295  0.12647  0.44225  Biso   1.000  Hf
  Hf21     1.0000 0.03202  0.15818  0.92164  Biso   1.000  Hf
  Hf22     1.0000 0.53642  0.12626  0.44637  Biso   1.000  Hf
  Hf23     1.0000 0.53804  0.14355  0.94526  Biso   1.000  Hf
  Hf24     1.0000 0.45762  0.88858  0.18982  Biso   1.000  Hf
  Hf25     1.0000 0.46514  0.86529  0.69156  Biso   1.000  Hf
  Hf26     1.0000 0.93199  0.87607  0.20289  Biso   1.000  Hf
  Hf27     1.0000 0.96487  0.86898  0.69562  Biso   1.000  Hf
  Hf28     1.0000 0.46492  0.62739  0.44855  Biso   1.000  Hf
  Hf29     1.0000 0.47899  0.65074  0.94128  Biso   1.000  Hf
  Hf30     1.0000 0.95866  0.63450  0.44769  Biso   1.000  Hf
  Hf31     1.0000 0.97669  0.65694  0.95838  Biso   1.000  Hf
  Hf32     1.0000 0.27165  0.23663  0.74341  Biso   1.000  Hf
  Hf33     1.0000 0.76428  0.24115  0.25386  Biso   1.000  Hf
  Hf34     1.0000 0.77264  0.23690  0.75033  Biso   1.000  Hf
  Hf35     1.0000 0.27346  0.25673  0.48634  Biso   1.000  Hf
  Hf36     1.0000 0.27725  0.26889  0.99655  Biso   1.000  Hf
  Hf37     1.0000 0.76783  0.26362  0.50359  Biso   1.000  Hf
  Hf38     1.0000 0.77242  0.26316  0.00165  Biso   1.000  Hf
  Hf39     1.0000 0.22785  0.76245  0.49837  Biso   1.000  Hf
  Hf40     1.0000 0.24661  0.75244  0.98462  Biso   1.000  Hf
  Hf41     1.0000 0.72708  0.76060  0.50422  Biso   1.000  Hf
  Hf42     1.0000 0.73338  0.76367  0.00161  Biso   1.000  Hf
  Hf43     1.0000 0.25178  0.67012  0.25568  Biso   1.000  Hf
  Hf44     1.0000 0.23170  0.73803  0.74303  Biso   1.000  Hf
  Hf45     1.0000 0.71208  0.73507  0.25409  Biso   1.000  Hf
  Hf46     1.0000 0.73243  0.73649  0.75157  Biso   1.000  Hf
