data_image0
_cell_length_a       10.13
_cell_length_b       5.16613
_cell_length_c       10.4231
_cell_angle_alpha    90.3069
_cell_angle_beta     81.2327
_cell_angle_gamma    90.3592

_symmetry_space_group_name_H-M    "P 1"
_symmetry_int_tables_number       1

loop_
  _symmetry_equiv_pos_as_xyz
  'x, y, z'

loop_
  _atom_site_label
  _atom_site_occupancy
  _atom_site_fract_x
  _atom_site_fract_y
  _atom_site_fract_z
  _atom_site_thermal_displace_type
  _atom_site_B_iso_or_equiv
  _atom_site_type_symbol
  La1      1.0000 0.11502  0.01095  0.13406  Biso   1.000  La
  Hf1      1.0000 0.14004  0.04543  0.64391  Biso   1.000  Hf
  Hf2      1.0000 0.63654  0.03565  0.14631  Biso   1.000  Hf
  Hf3      1.0000 0.63664  0.04533  0.64826  Biso   1.000  Hf
  Hf4      1.0000 0.13624  0.44761  0.39211  Biso   1.000  Hf
  Hf5      1.0000 0.14260  0.47090  0.89258  Biso   1.000  Hf
  Hf6      1.0000 0.63379  0.45519  0.39731  Biso   1.000  Hf
  Hf7      1.0000 0.64069  0.46274  0.89470  Biso   1.000  Hf
  Hf8      1.0000 0.36223  0.52541  0.10277  Biso   1.000  Hf
  Hf9      1.0000 0.35913  0.54352  0.60088  Biso   1.000  Hf
  Hf10     1.0000 0.85363  0.53221  0.10482  Biso   1.000  Hf
  Hf11     1.0000 0.86313  0.54517  0.60496  Biso   1.000  Hf
  Hf12     1.0000 0.35702  0.95419  0.35014  Biso   1.000  Hf
  Hf13     1.0000 0.36529  0.95767  0.85162  Biso   1.000  Hf
  Hf14     1.0000 0.84950  0.96203  0.36770  Biso   1.000  Hf
  Hf15     1.0000 0.86249  0.96338  0.85450  Biso   1.000  Hf
  Hf16     1.0000 0.04249  0.42834  0.09615  Biso   1.000  Hf
  Hf17     1.0000 0.03774  0.35077  0.58517  Biso   1.000  Hf
  Hf18     1.0000 0.54086  0.33593  0.08003  Biso   1.000  Hf
  Hf19     1.0000 0.53361  0.34040  0.58081  Biso   1.000  Hf
  Hf20     1.0000 0.02440  0.14940  0.34386  Biso   1.000  Hf
  Hf21     1.0000 0.03876  0.16052  0.83921  Biso   1.000  Hf
  Hf22     1.0000 0.53778  0.15013  0.33126  Biso   1.000  Hf
  Hf23     1.0000 0.53990  0.16006  0.83054  Biso   1.000  Hf
  Hf24     1.0000 0.46546  0.83056  0.16854  Biso   1.000  Hf
  Hf25     1.0000 0.46315  0.84137  0.66715  Biso   1.000  Hf
  Hf26     1.0000 0.96294  0.84989  0.66896  Biso   1.000  Hf
  Hf27     1.0000 0.46276  0.65616  0.41740  Biso   1.000  Hf
  Hf28     1.0000 0.47374  0.66460  0.91678  Biso   1.000  Hf
  Hf29     1.0000 0.95899  0.65517  0.41405  Biso   1.000  Hf
  Hf30     1.0000 0.96581  0.67662  0.92495  Biso   1.000  Hf
  Hf31     1.0000 0.27726  0.24761  0.24135  Biso   1.000  Hf
  Hf32     1.0000 0.27651  0.26275  0.73673  Biso   1.000  Hf
  Hf33     1.0000 0.77722  0.24947  0.24243  Biso   1.000  Hf
  Hf34     1.0000 0.77874  0.26436  0.74157  Biso   1.000  Hf
  Hf35     1.0000 0.27374  0.24037  0.48878  Biso   1.000  Hf
  Hf36     1.0000 0.27943  0.24530  0.98059  Biso   1.000  Hf
  Hf37     1.0000 0.77098  0.24548  0.49598  Biso   1.000  Hf
  Hf38     1.0000 0.78047  0.24538  0.99243  Biso   1.000  Hf
  Hf39     1.0000 0.24344  0.74058  0.99391  Biso   1.000  Hf
  Hf40     1.0000 0.22191  0.76091  0.50639  Biso   1.000  Hf
  Hf41     1.0000 0.72450  0.76180  0.00903  Biso   1.000  Hf
  Hf42     1.0000 0.71928  0.75807  0.51354  Biso   1.000  Hf
  Hf43     1.0000 0.22883  0.71810  0.25811  Biso   1.000  Hf
  Hf44     1.0000 0.22246  0.74616  0.75461  Biso   1.000  Hf
  Hf45     1.0000 0.73005  0.73404  0.25962  Biso   1.000  Hf
  Hf46     1.0000 0.72637  0.74460  0.75916  Biso   1.000  Hf
