data_image0
_cell_length_a       5.02586
_cell_length_b       10.3932
_cell_length_c       10.0875
_cell_angle_alpha    90.5167
_cell_angle_beta     90.7084
_cell_angle_gamma    89.6278

_symmetry_space_group_name_H-M    "P 1"
_symmetry_int_tables_number       1

loop_
  _symmetry_equiv_pos_as_xyz
  'x, y, z'

loop_
  _atom_site_label
  _atom_site_occupancy
  _atom_site_fract_x
  _atom_site_fract_y
  _atom_site_fract_z
  _atom_site_thermal_displace_type
  _atom_site_B_iso_or_equiv
  _atom_site_type_symbol
  La1      1.0000 0.24626  0.00409  0.11769  Biso   1.000  La
  Hf1      1.0000 0.26007  0.01760  0.62266  Biso   1.000  Hf
  Hf2      1.0000 0.26451  0.51531  0.12593  Biso   1.000  Hf
  Hf3      1.0000 0.26743  0.51713  0.62406  Biso   1.000  Hf
  Hf4      1.0000 0.26650  0.23484  0.37223  Biso   1.000  Hf
  Hf5      1.0000 0.28248  0.24371  0.86584  Biso   1.000  Hf
  Hf6      1.0000 0.26206  0.73224  0.37941  Biso   1.000  Hf
  Hf7      1.0000 0.27604  0.73145  0.87558  Biso   1.000  Hf
  Hf8      1.0000 0.72546  0.26610  0.12665  Biso   1.000  Hf
  Hf9      1.0000 0.73626  0.26645  0.61985  Biso   1.000  Hf
  Hf10     1.0000 0.72824  0.76156  0.13085  Biso   1.000  Hf
  Hf11     1.0000 0.73482  0.76521  0.62289  Biso   1.000  Hf
  Hf12     1.0000 0.73002  0.48333  0.37416  Biso   1.000  Hf
  Hf13     1.0000 0.74045  0.48230  0.87648  Biso   1.000  Hf
  Hf14     1.0000 0.71978  0.98371  0.37823  Biso   1.000  Hf
  Hf15     1.0000 0.71639  0.98103  0.86520  Biso   1.000  Hf
  Hf16     1.0000 0.06001  0.19432  0.19914  Biso   1.000  Hf
  Hf17     1.0000 0.06743  0.18349  0.69761  Biso   1.000  Hf
  Hf18     1.0000 0.07024  0.68211  0.19737  Biso   1.000  Hf
  Hf19     1.0000 0.07279  0.68396  0.69673  Biso   1.000  Hf
  Hf20     1.0000 0.06220  0.06821  0.44490  Biso   1.000  Hf
  Hf21     1.0000 0.06506  0.56606  0.44799  Biso   1.000  Hf
  Hf22     1.0000 0.06767  0.57230  0.94652  Biso   1.000  Hf
  Hf23     1.0000 0.92177  0.43690  0.19318  Biso   1.000  Hf
  Hf24     1.0000 0.94169  0.43171  0.69923  Biso   1.000  Hf
  Hf25     1.0000 0.88104  0.92878  0.20475  Biso   1.000  Hf
  Hf26     1.0000 0.92677  0.93347  0.69374  Biso   1.000  Hf
  Hf27     1.0000 0.92892  0.31856  0.44677  Biso   1.000  Hf
  Hf28     1.0000 0.94270  0.31190  0.94542  Biso   1.000  Hf
  Hf29     1.0000 0.92816  0.81668  0.44989  Biso   1.000  Hf
  Hf30     1.0000 0.98081  0.84287  0.95503  Biso   1.000  Hf
  Hf31     1.0000 0.55158  0.12714  0.25493  Biso   1.000  Hf
  Hf32     1.0000 0.53991  0.11900  0.74163  Biso   1.000  Hf
  Hf33     1.0000 0.53533  0.61437  0.24979  Biso   1.000  Hf
  Hf34     1.0000 0.54595  0.61567  0.74950  Biso   1.000  Hf
  Hf35     1.0000 0.52797  0.13397  0.50018  Biso   1.000  Hf
  Hf36     1.0000 0.55270  0.13302  0.98532  Biso   1.000  Hf
  Hf37     1.0000 0.53749  0.63226  0.49970  Biso   1.000  Hf
  Hf38     1.0000 0.54334  0.62739  0.99972  Biso   1.000  Hf
  Hf39     1.0000 0.46069  0.38461  0.49758  Biso   1.000  Hf
  Hf40     1.0000 0.46560  0.38419  0.99597  Biso   1.000  Hf
  Hf41     1.0000 0.45529  0.88257  0.50151  Biso   1.000  Hf
  Hf42     1.0000 0.50164  0.86700  0.98797  Biso   1.000  Hf
  Hf43     1.0000 0.45313  0.37018  0.24770  Biso   1.000  Hf
  Hf44     1.0000 0.47201  0.36828  0.74522  Biso   1.000  Hf
  Hf45     1.0000 0.45610  0.85381  0.25727  Biso   1.000  Hf
  Hf46     1.0000 0.46131  0.86699  0.74617  Biso   1.000  Hf
