data_image0
_cell_length_a       10.1841
_cell_length_b       10.3798
_cell_length_c       5.22676
_cell_angle_alpha    90.5877
_cell_angle_beta     81.1057
_cell_angle_gamma    90.4473

_symmetry_space_group_name_H-M    "P 1"
_symmetry_int_tables_number       1

loop_
  _symmetry_equiv_pos_as_xyz
  'x, y, z'

loop_
  _atom_site_label
  _atom_site_occupancy
  _atom_site_fract_x
  _atom_site_fract_y
  _atom_site_fract_z
  _atom_site_thermal_displace_type
  _atom_site_B_iso_or_equiv
  _atom_site_type_symbol
  La1      1.0000 0.13439  0.01638  0.27712  Biso   1.000  La
  Hf1      1.0000 0.13521  0.52081  0.28702  Biso   1.000  Hf
  Hf2      1.0000 0.63954  0.02116  0.29542  Biso   1.000  Hf
  Hf3      1.0000 0.63882  0.52070  0.29171  Biso   1.000  Hf
  Hf4      1.0000 0.12804  0.23735  0.80150  Biso   1.000  Hf
  Hf5      1.0000 0.14080  0.72599  0.79221  Biso   1.000  Hf
  Hf6      1.0000 0.64053  0.22908  0.79186  Biso   1.000  Hf
  Hf7      1.0000 0.64109  0.72706  0.79189  Biso   1.000  Hf
  Hf8      1.0000 0.36651  0.27683  0.18144  Biso   1.000  Hf
  Hf9      1.0000 0.36481  0.76472  0.21022  Biso   1.000  Hf
  Hf10     1.0000 0.85676  0.27443  0.21229  Biso   1.000  Hf
  Hf11     1.0000 0.85857  0.76834  0.21203  Biso   1.000  Hf
  Hf12     1.0000 0.36110  0.47833  0.69889  Biso   1.000  Hf
  Hf13     1.0000 0.37105  0.96932  0.71452  Biso   1.000  Hf
  Hf14     1.0000 0.85949  0.48113  0.70748  Biso   1.000  Hf
  Hf15     1.0000 0.85937  0.97751  0.72314  Biso   1.000  Hf
  Hf16     1.0000 0.03697  0.20044  0.17511  Biso   1.000  Hf
  Hf17     1.0000 0.03986  0.67569  0.17104  Biso   1.000  Hf
  Hf18     1.0000 0.53267  0.16750  0.15751  Biso   1.000  Hf
  Hf19     1.0000 0.53931  0.66828  0.16237  Biso   1.000  Hf
  Hf20     1.0000 0.03509  0.07686  0.70669  Biso   1.000  Hf
  Hf21     1.0000 0.03937  0.57320  0.66676  Biso   1.000  Hf
  Hf22     1.0000 0.53770  0.08156  0.65748  Biso   1.000  Hf
  Hf23     1.0000 0.53483  0.58080  0.65907  Biso   1.000  Hf
  Hf24     1.0000 0.46458  0.42067  0.33331  Biso   1.000  Hf
  Hf25     1.0000 0.46322  0.92137  0.33883  Biso   1.000  Hf
  Hf26     1.0000 0.95519  0.43210  0.32954  Biso   1.000  Hf
  Hf27     1.0000 0.93883  0.92182  0.35495  Biso   1.000  Hf
  Hf28     1.0000 0.46799  0.33414  0.83125  Biso   1.000  Hf
  Hf29     1.0000 0.47321  0.83025  0.84795  Biso   1.000  Hf
  Hf30     1.0000 0.95320  0.32920  0.82808  Biso   1.000  Hf
  Hf31     1.0000 0.96560  0.82786  0.84371  Biso   1.000  Hf
  Hf32     1.0000 0.27568  0.62132  0.47658  Biso   1.000  Hf
  Hf33     1.0000 0.77644  0.13153  0.48839  Biso   1.000  Hf
  Hf34     1.0000 0.77549  0.62984  0.48339  Biso   1.000  Hf
  Hf35     1.0000 0.28437  0.12912  0.93536  Biso   1.000  Hf
  Hf36     1.0000 0.27696  0.61765  0.97820  Biso   1.000  Hf
  Hf37     1.0000 0.77252  0.12185  0.98969  Biso   1.000  Hf
  Hf38     1.0000 0.77663  0.61974  0.98180  Biso   1.000  Hf
  Hf39     1.0000 0.22478  0.38427  0.00758  Biso   1.000  Hf
  Hf40     1.0000 0.23976  0.86468  0.00192  Biso   1.000  Hf
  Hf41     1.0000 0.72028  0.38071  0.01962  Biso   1.000  Hf
  Hf42     1.0000 0.72588  0.87827  0.02370  Biso   1.000  Hf
  Hf43     1.0000 0.22748  0.35710  0.50480  Biso   1.000  Hf
  Hf44     1.0000 0.23636  0.85895  0.52578  Biso   1.000  Hf
  Hf45     1.0000 0.72145  0.37169  0.52004  Biso   1.000  Hf
  Hf46     1.0000 0.71310  0.86941  0.52792  Biso   1.000  Hf
