data_image0
_cell_length_a       10.0433
_cell_length_b       10.2628
_cell_length_c       5.21813
_cell_angle_alpha    89.9357
_cell_angle_beta     91.9184
_cell_angle_gamma    89.503

_symmetry_space_group_name_H-M    "P 1"
_symmetry_int_tables_number       1

loop_
  _symmetry_equiv_pos_as_xyz
  'x, y, z'

loop_
  _atom_site_label
  _atom_site_occupancy
  _atom_site_fract_x
  _atom_site_fract_y
  _atom_site_fract_z
  _atom_site_thermal_displace_type
  _atom_site_B_iso_or_equiv
  _atom_site_type_symbol
  La1      1.0000 0.11194  0.00838  0.29264  Biso   1.000  La
  Hf1      1.0000 0.13954  0.52489  0.31974  Biso   1.000  Hf
  Hf2      1.0000 0.14502  0.23684  0.80312  Biso   1.000  Hf
  Hf3      1.0000 0.11795  0.74799  0.80167  Biso   1.000  Hf
  Hf4      1.0000 0.35927  0.27009  0.32738  Biso   1.000  Hf
  Hf5      1.0000 0.36208  0.77007  0.32276  Biso   1.000  Hf
  Hf6      1.0000 0.35744  0.48525  0.83198  Biso   1.000  Hf
  Hf7      1.0000 0.36267  0.98097  0.81983  Biso   1.000  Hf
  Hf8      1.0000 0.63738  0.02056  0.16192  Biso   1.000  Hf
  Hf9      1.0000 0.63552  0.52062  0.15605  Biso   1.000  Hf
  Hf10     1.0000 0.63666  0.23025  0.65760  Biso   1.000  Hf
  Hf11     1.0000 0.63796  0.72829  0.66043  Biso   1.000  Hf
  Hf12     1.0000 0.85409  0.27558  0.16622  Biso   1.000  Hf
  Hf13     1.0000 0.85891  0.76312  0.18925  Biso   1.000  Hf
  Hf14     1.0000 0.86625  0.47660  0.66474  Biso   1.000  Hf
  Hf15     1.0000 0.85790  0.97766  0.69343  Biso   1.000  Hf
  Hf16     1.0000 0.02767  0.65957  0.12928  Biso   1.000  Hf
  Hf17     1.0000 0.02529  0.09146  0.68746  Biso   1.000  Hf
  Hf18     1.0000 0.03180  0.58655  0.64769  Biso   1.000  Hf
  Hf19     1.0000 0.46563  0.41816  0.16108  Biso   1.000  Hf
  Hf20     1.0000 0.46747  0.92116  0.16239  Biso   1.000  Hf
  Hf21     1.0000 0.46751  0.33510  0.66201  Biso   1.000  Hf
  Hf22     1.0000 0.47237  0.83627  0.65585  Biso   1.000  Hf
  Hf23     1.0000 0.27953  0.12914  0.56755  Biso   1.000  Hf
  Hf24     1.0000 0.27177  0.62859  0.56749  Biso   1.000  Hf
  Hf25     1.0000 0.27280  0.13375  0.05448  Biso   1.000  Hf
  Hf26     1.0000 0.27269  0.62515  0.07081  Biso   1.000  Hf
  Hf27     1.0000 0.22718  0.37966  0.57109  Biso   1.000  Hf
  Hf28     1.0000 0.23274  0.87390  0.56670  Biso   1.000  Hf
  Hf29     1.0000 0.22152  0.37881  0.07263  Biso   1.000  Hf
  Hf30     1.0000 0.23806  0.86500  0.04611  Biso   1.000  Hf
  Hf31     1.0000 0.53795  0.17083  0.32080  Biso   1.000  Hf
  Hf32     1.0000 0.53618  0.66884  0.32154  Biso   1.000  Hf
  Hf33     1.0000 0.53855  0.08130  0.81959  Biso   1.000  Hf
  Hf34     1.0000 0.53292  0.58449  0.82394  Biso   1.000  Hf
  Hf35     1.0000 0.97227  0.40427  0.35006  Biso   1.000  Hf
  Hf36     1.0000 0.97369  0.83903  0.50503  Biso   1.000  Hf
  Hf37     1.0000 0.96807  0.33307  0.85888  Biso   1.000  Hf
  Hf38     1.0000 0.97656  0.88572  0.97952  Biso   1.000  Hf
  Hf39     1.0000 0.77594  0.12480  0.92800  Biso   1.000  Hf
  Hf40     1.0000 0.77876  0.62287  0.92271  Biso   1.000  Hf
  Hf41     1.0000 0.78667  0.12315  0.42007  Biso   1.000  Hf
  Hf42     1.0000 0.77299  0.62061  0.42329  Biso   1.000  Hf
  Hf43     1.0000 0.72356  0.37490  0.91190  Biso   1.000  Hf
  Hf44     1.0000 0.72626  0.86805  0.92302  Biso   1.000  Hf
  Hf45     1.0000 0.72497  0.37554  0.41396  Biso   1.000  Hf
  Hf46     1.0000 0.72685  0.88043  0.42034  Biso   1.000  Hf
