data_image0
_cell_length_a       10.136
_cell_length_b       10.3092
_cell_length_c       10.4987
_cell_angle_alpha    90.0368
_cell_angle_beta     89.9946
_cell_angle_gamma    89.9962

_symmetry_space_group_name_H-M    "P 1"
_symmetry_int_tables_number       1

loop_
  _symmetry_equiv_pos_as_xyz
  'x, y, z'

loop_
  _atom_site_label
  _atom_site_occupancy
  _atom_site_fract_x
  _atom_site_fract_y
  _atom_site_fract_z
  _atom_site_thermal_displace_type
  _atom_site_B_iso_or_equiv
  _atom_site_type_symbol
  La1      1.0000 0.13405  0.01239  0.16303  Biso   1.000  La
  Hf1      1.0000 0.13847  0.01980  0.67229  Biso   1.000  Hf
  Hf2      1.0000 0.13885  0.52050  0.17277  Biso   1.000  Hf
  Hf3      1.0000 0.14000  0.52174  0.67021  Biso   1.000  Hf
  Hf4      1.0000 0.13817  0.22742  0.42068  Biso   1.000  Hf
  Hf5      1.0000 0.14004  0.23379  0.91696  Biso   1.000  Hf
  Hf6      1.0000 0.13930  0.72827  0.42377  Biso   1.000  Hf
  Hf7      1.0000 0.13973  0.72948  0.92116  Biso   1.000  Hf
  Hf8      1.0000 0.36068  0.26921  0.16890  Biso   1.000  Hf
  Hf9      1.0000 0.35465  0.26959  0.66532  Biso   1.000  Hf
  Hf10     1.0000 0.36507  0.76577  0.17343  Biso   1.000  Hf
  Hf11     1.0000 0.36087  0.77051  0.67125  Biso   1.000  Hf
  Hf12     1.0000 0.36130  0.47743  0.41975  Biso   1.000  Hf
  Hf13     1.0000 0.35743  0.48318  0.92271  Biso   1.000  Hf
  Hf14     1.0000 0.36151  0.97851  0.42201  Biso   1.000  Hf
  Hf15     1.0000 0.36339  0.97712  0.92075  Biso   1.000  Hf
  Hf16     1.0000 0.64000  0.01620  0.08304  Biso   1.000  Hf
  Hf17     1.0000 0.63817  0.02256  0.57935  Biso   1.000  Hf
  Hf18     1.0000 0.63971  0.52053  0.07884  Biso   1.000  Hf
  Hf19     1.0000 0.63926  0.52174  0.57623  Biso   1.000  Hf
  Hf20     1.0000 0.63847  0.23019  0.32773  Biso   1.000  Hf
  La2      1.0000 0.63400  0.23764  0.83700  Biso   1.000  La
  Hf21     1.0000 0.64002  0.72828  0.32977  Biso   1.000  Hf
  Hf22     1.0000 0.63888  0.72951  0.82723  Biso   1.000  Hf
  Hf23     1.0000 0.86335  0.27287  0.07925  Biso   1.000  Hf
  Hf24     1.0000 0.86146  0.27147  0.57799  Biso   1.000  Hf
  Hf25     1.0000 0.85741  0.76686  0.07731  Biso   1.000  Hf
  Hf26     1.0000 0.86129  0.77259  0.58021  Biso   1.000  Hf
  Hf27     1.0000 0.86086  0.47949  0.32875  Biso   1.000  Hf
  Hf28     1.0000 0.86507  0.48424  0.82657  Biso   1.000  Hf
  Hf29     1.0000 0.85468  0.98041  0.33465  Biso   1.000  Hf
  Hf30     1.0000 0.86069  0.98079  0.83110  Biso   1.000  Hf
  Hf31     1.0000 0.03869  0.19068  0.08254  Biso   1.000  Hf
  Hf32     1.0000 0.03429  0.16953  0.58887  Biso   1.000  Hf
  Hf33     1.0000 0.03284  0.66670  0.08333  Biso   1.000  Hf
  Hf34     1.0000 0.03189  0.66581  0.58456  Biso   1.000  Hf
  Hf35     1.0000 0.02136  0.08803  0.34846  Biso   1.000  Hf
  Hf36     1.0000 0.03544  0.08249  0.83765  Biso   1.000  Hf
  Hf37     1.0000 0.03216  0.58675  0.33448  Biso   1.000  Hf
  Hf38     1.0000 0.03357  0.58764  0.83127  Biso   1.000  Hf
  Hf39     1.0000 0.47122  0.41070  0.07834  Biso   1.000  Hf
  Hf40     1.0000 0.46854  0.41332  0.58048  Biso   1.000  Hf
  Hf41     1.0000 0.46597  0.91570  0.09230  Biso   1.000  Hf
  Hf42     1.0000 0.46769  0.91277  0.58318  Biso   1.000  Hf
  Hf43     1.0000 0.46784  0.33650  0.33045  Biso   1.000  Hf
  Hf44     1.0000 0.44085  0.33936  0.82638  Biso   1.000  Hf
  Hf45     1.0000 0.47132  0.83288  0.33694  Biso   1.000  Hf
  Hf46     1.0000 0.46547  0.82900  0.83298  Biso   1.000  Hf
  Hf47     1.0000 0.28216  0.12870  0.30144  Biso   1.000  Hf
  Hf48     1.0000 0.27517  0.12273  0.78989  Biso   1.000  Hf
  Hf49     1.0000 0.27589  0.61940  0.29632  Biso   1.000  Hf
  Hf50     1.0000 0.27565  0.62435  0.79542  Biso   1.000  Hf
  Hf51     1.0000 0.28839  0.13457  0.03236  Biso   1.000  Hf
  Hf52     1.0000 0.27058  0.12244  0.54310  Biso   1.000  Hf
  Hf53     1.0000 0.27349  0.62213  0.04866  Biso   1.000  Hf
  Hf54     1.0000 0.27564  0.62518  0.54520  Biso   1.000  Hf
  Hf55     1.0000 0.22349  0.37292  0.29311  Biso   1.000  Hf
  Hf56     1.0000 0.21215  0.37588  0.79106  Biso   1.000  Hf
  Hf57     1.0000 0.23451  0.86283  0.30284  Biso   1.000  Hf
  Hf58     1.0000 0.22386  0.87305  0.79255  Biso   1.000  Hf
  Hf59     1.0000 0.22499  0.37883  0.04403  Biso   1.000  Hf
  Hf60     1.0000 0.22469  0.37632  0.54168  Biso   1.000  Hf
  Hf61     1.0000 0.24234  0.85981  0.03521  Biso   1.000  Hf
  Hf62     1.0000 0.22439  0.87504  0.54712  Biso   1.000  Hf
  Hf63     1.0000 0.53546  0.16752  0.16235  Biso   1.000  Hf
  Hf64     1.0000 0.52137  0.16200  0.65153  Biso   1.000  Hf
  Hf65     1.0000 0.53359  0.66242  0.16869  Biso   1.000  Hf
  Hf66     1.0000 0.53218  0.66330  0.66550  Biso   1.000  Hf
  Hf67     1.0000 0.53430  0.08043  0.41114  Biso   1.000  Hf
  Hf68     1.0000 0.53870  0.05927  0.91742  Biso   1.000  Hf
  Hf69     1.0000 0.53190  0.58418  0.41538  Biso   1.000  Hf
  Hf70     1.0000 0.53286  0.58326  0.91662  Biso   1.000  Hf
  Hf71     1.0000 0.96549  0.42095  0.16704  Biso   1.000  Hf
  Hf72     1.0000 0.97131  0.41710  0.66307  Biso   1.000  Hf
  Hf73     1.0000 0.94094  0.91057  0.17365  Biso   1.000  Hf
  Hf74     1.0000 0.96785  0.91348  0.66957  Biso   1.000  Hf
  Hf75     1.0000 0.96768  0.33726  0.41687  Biso   1.000  Hf
  Hf76     1.0000 0.96601  0.33435  0.90774  Biso   1.000  Hf
  Hf77     1.0000 0.96856  0.83672  0.41954  Biso   1.000  Hf
  Hf78     1.0000 0.97122  0.83931  0.92168  Biso   1.000  Hf
  Hf79     1.0000 0.78836  0.11547  0.96765  Biso   1.000  Hf
  Hf80     1.0000 0.77057  0.12757  0.45692  Biso   1.000  Hf
  Hf81     1.0000 0.77345  0.62789  0.95137  Biso   1.000  Hf
  Hf82     1.0000 0.77562  0.62484  0.45482  Biso   1.000  Hf
  Hf83     1.0000 0.77517  0.12723  0.21013  Biso   1.000  Hf
  Hf84     1.0000 0.78214  0.12129  0.69859  Biso   1.000  Hf
  Hf85     1.0000 0.77566  0.62565  0.20458  Biso   1.000  Hf
  Hf86     1.0000 0.77591  0.63061  0.70369  Biso   1.000  Hf
  Hf87     1.0000 0.74234  0.39016  0.96477  Biso   1.000  Hf
  Hf88     1.0000 0.72436  0.37495  0.45288  Biso   1.000  Hf
  Hf89     1.0000 0.72498  0.87116  0.95594  Biso   1.000  Hf
  Hf90     1.0000 0.72468  0.87368  0.45829  Biso   1.000  Hf
  Hf91     1.0000 0.72385  0.37695  0.20746  Biso   1.000  Hf
  Hf92     1.0000 0.73450  0.38718  0.69716  Biso   1.000  Hf
  Hf93     1.0000 0.71214  0.87410  0.20888  Biso   1.000  Hf
  Hf94     1.0000 0.72350  0.87707  0.70686  Biso   1.000  Hf
