data_image0
_cell_length_a       10.1147
_cell_length_b       10.2384
_cell_length_c       10.5554
_cell_angle_alpha    89.7326
_cell_angle_beta     89.3818
_cell_angle_gamma    89.8357

_symmetry_space_group_name_H-M    "P 1"
_symmetry_int_tables_number       1

loop_
  _symmetry_equiv_pos_as_xyz
  'x, y, z'

loop_
  _atom_site_label
  _atom_site_occupancy
  _atom_site_fract_x
  _atom_site_fract_y
  _atom_site_fract_z
  _atom_site_thermal_displace_type
  _atom_site_B_iso_or_equiv
  _atom_site_type_symbol
  Hf1      1.0000 0.12909  0.00198  0.15002  Biso   1.000  Hf
  Hf2      1.0000 0.13788  0.02075  0.66867  Biso   1.000  Hf
  Hf3      1.0000 0.13820  0.51999  0.17160  Biso   1.000  Hf
  Hf4      1.0000 0.13896  0.52543  0.67043  Biso   1.000  Hf
  Hf5      1.0000 0.13720  0.24887  0.43346  Biso   1.000  Hf
  Hf6      1.0000 0.13285  0.22961  0.91715  Biso   1.000  Hf
  Hf7      1.0000 0.14094  0.73231  0.41888  Biso   1.000  Hf
  Hf8      1.0000 0.13828  0.72706  0.91844  Biso   1.000  Hf
  La1      1.0000 0.36343  0.25612  0.16304  Biso   1.000  La
  Hf9      1.0000 0.36559  0.26925  0.67529  Biso   1.000  Hf
  Hf10     1.0000 0.36221  0.76359  0.16650  Biso   1.000  Hf
  Hf11     1.0000 0.36198  0.77576  0.66599  Biso   1.000  Hf
  Hf12     1.0000 0.36429  0.47871  0.42020  Biso   1.000  Hf
  Hf13     1.0000 0.36032  0.48091  0.91811  Biso   1.000  Hf
  La2      1.0000 0.37062  0.99926  0.40305  Biso   1.000  La
  Hf14     1.0000 0.36312  0.97995  0.91662  Biso   1.000  Hf
  Hf15     1.0000 0.63520  0.01799  0.08335  Biso   1.000  Hf
  Hf16     1.0000 0.63589  0.02344  0.59012  Biso   1.000  Hf
  Hf17     1.0000 0.63826  0.52039  0.07382  Biso   1.000  Hf
  Hf18     1.0000 0.63743  0.52055  0.58070  Biso   1.000  Hf
  Hf19     1.0000 0.64302  0.23111  0.33744  Biso   1.000  Hf
  Hf20     1.0000 0.63604  0.22964  0.83659  Biso   1.000  Hf
  Hf21     1.0000 0.63331  0.72067  0.32690  Biso   1.000  Hf
  Hf22     1.0000 0.63721  0.72950  0.82604  Biso   1.000  Hf
  Hf23     1.0000 0.86041  0.27166  0.07895  Biso   1.000  Hf
  Hf24     1.0000 0.85897  0.26940  0.58024  Biso   1.000  Hf
  Hf25     1.0000 0.85947  0.76824  0.07665  Biso   1.000  Hf
  Hf26     1.0000 0.86197  0.77138  0.57768  Biso   1.000  Hf
  Hf27     1.0000 0.86079  0.48196  0.32657  Biso   1.000  Hf
  Hf28     1.0000 0.86042  0.47823  0.82554  Biso   1.000  Hf
  Hf29     1.0000 0.83821  0.96843  0.33132  Biso   1.000  Hf
  Hf30     1.0000 0.86210  0.97857  0.82860  Biso   1.000  Hf
  Hf31     1.0000 0.02105  0.15630  0.07715  Biso   1.000  Hf
  Hf32     1.0000 0.02105  0.14978  0.56541  Biso   1.000  Hf
  Hf33     1.0000 0.03057  0.66326  0.07857  Biso   1.000  Hf
  Hf34     1.0000 0.02912  0.66146  0.57544  Biso   1.000  Hf
  Hf35     1.0000 0.18426  0.11874  0.29537  Biso   1.000  Hf
  Hf36     1.0000 0.02482  0.09411  0.82153  Biso   1.000  Hf
  Hf37     1.0000 0.02849  0.59194  0.32882  Biso   1.000  Hf
  Hf38     1.0000 0.02818  0.59006  0.82639  Biso   1.000  Hf
  Hf39     1.0000 0.47199  0.41697  0.06821  Biso   1.000  Hf
  Hf40     1.0000 0.47025  0.40820  0.58139  Biso   1.000  Hf
  Hf41     1.0000 0.46835  0.90516  0.07319  Biso   1.000  Hf
  Hf42     1.0000 0.47696  0.90742  0.57984  Biso   1.000  Hf
  Hf43     1.0000 0.47837  0.34529  0.33233  Biso   1.000  Hf
  Hf44     1.0000 0.47048  0.34382  0.82809  Biso   1.000  Hf
  Hf45     1.0000 0.46667  0.82189  0.32244  Biso   1.000  Hf
  Hf46     1.0000 0.47303  0.84592  0.82380  Biso   1.000  Hf
  Hf47     1.0000 0.27060  0.12371  0.79443  Biso   1.000  Hf
  Hf48     1.0000 0.27605  0.62164  0.29463  Biso   1.000  Hf
  Hf49     1.0000 0.27382  0.62571  0.79267  Biso   1.000  Hf
  Hf50     1.0000 0.25298  0.10964  0.03136  Biso   1.000  Hf
  Hf51     1.0000 0.26620  0.14052  0.55276  Biso   1.000  Hf
  Hf52     1.0000 0.27317  0.62412  0.04312  Biso   1.000  Hf
  Hf53     1.0000 0.27582  0.62976  0.54328  Biso   1.000  Hf
  Hf54     1.0000 0.22144  0.38135  0.30224  Biso   1.000  Hf
  Hf55     1.0000 0.22575  0.37338  0.78976  Biso   1.000  Hf
  Hf56     1.0000 0.21267  0.86277  0.27529  Biso   1.000  Hf
  Hf57     1.0000 0.22558  0.87497  0.79174  Biso   1.000  Hf
  Hf58     1.0000 0.21334  0.38192  0.03354  Biso   1.000  Hf
  Hf59     1.0000 0.22569  0.38436  0.54588  Biso   1.000  Hf
  Hf60     1.0000 0.22962  0.86875  0.03446  Biso   1.000  Hf
  Hf61     1.0000 0.21912  0.87577  0.54514  Biso   1.000  Hf
  Hf62     1.0000 0.53037  0.11003  0.22399  Biso   1.000  Hf
  Hf63     1.0000 0.52154  0.13942  0.70587  Biso   1.000  Hf
  Hf64     1.0000 0.53162  0.65370  0.16914  Biso   1.000  Hf
  Hf65     1.0000 0.53058  0.66079  0.67093  Biso   1.000  Hf
  Hf66     1.0000 0.53718  0.13518  0.46865  Biso   1.000  Hf
  Hf67     1.0000 0.51614  0.11488  0.95660  Biso   1.000  Hf
  Hf68     1.0000 0.53277  0.58536  0.42422  Biso   1.000  Hf
  Hf69     1.0000 0.53008  0.59442  0.91837  Biso   1.000  Hf
  Hf70     1.0000 0.96806  0.41195  0.16918  Biso   1.000  Hf
  Hf71     1.0000 0.97022  0.40843  0.66676  Biso   1.000  Hf
  Hf72     1.0000 0.95581  0.91615  0.17708  Biso   1.000  Hf
  Hf73     1.0000 0.96946  0.90723  0.67364  Biso   1.000  Hf
  Hf74     1.0000 0.96238  0.33272  0.41461  Biso   1.000  Hf
  Hf75     1.0000 0.96414  0.33806  0.91786  Biso   1.000  Hf
  Hf76     1.0000 0.96827  0.85095  0.42083  Biso   1.000  Hf
  Hf77     1.0000 0.97273  0.84562  0.92652  Biso   1.000  Hf
  Hf78     1.0000 0.76842  0.12206  0.95756  Biso   1.000  Hf
  Hf79     1.0000 0.78198  0.11618  0.45570  Biso   1.000  Hf
  Hf80     1.0000 0.77679  0.62532  0.95225  Biso   1.000  Hf
  Hf81     1.0000 0.77591  0.62381  0.45429  Biso   1.000  Hf
  Hf82     1.0000 0.77904  0.12638  0.20824  Biso   1.000  Hf
  Hf83     1.0000 0.77224  0.12879  0.70852  Biso   1.000  Hf
  Hf84     1.0000 0.77589  0.62453  0.20251  Biso   1.000  Hf
  Hf85     1.0000 0.77498  0.62536  0.70301  Biso   1.000  Hf
  Hf86     1.0000 0.72519  0.37516  0.95509  Biso   1.000  Hf
  Hf87     1.0000 0.72884  0.37458  0.45981  Biso   1.000  Hf
  Hf88     1.0000 0.72376  0.87362  0.95724  Biso   1.000  Hf
  Hf89     1.0000 0.71540  0.87033  0.45555  Biso   1.000  Hf
  Hf90     1.0000 0.72306  0.37552  0.20570  Biso   1.000  Hf
  Hf91     1.0000 0.72292  0.37476  0.70785  Biso   1.000  Hf
  Hf92     1.0000 0.71850  0.87081  0.20702  Biso   1.000  Hf
  Hf93     1.0000 0.72972  0.87519  0.70755  Biso   1.000  Hf
