data_image0
_cell_length_a       10.198
_cell_length_b       10.3494
_cell_length_c       10.5192
_cell_angle_alpha    90.4636
_cell_angle_beta     80.8646
_cell_angle_gamma    90.2502

_symmetry_space_group_name_H-M    "P 1"
_symmetry_int_tables_number       1

loop_
  _symmetry_equiv_pos_as_xyz
  'x, y, z'

loop_
  _atom_site_label
  _atom_site_occupancy
  _atom_site_fract_x
  _atom_site_fract_y
  _atom_site_fract_z
  _atom_site_thermal_displace_type
  _atom_site_B_iso_or_equiv
  _atom_site_type_symbol
  La1      1.0000 0.13910  0.02174  0.14759  Biso   1.000  La
  Hf1      1.0000 0.13651  0.02151  0.65144  Biso   1.000  Hf
  Hf2      1.0000 0.12752  0.53319  0.13739  Biso   1.000  Hf
  Hf3      1.0000 0.13729  0.52336  0.64613  Biso   1.000  Hf
  Hf4      1.0000 0.64393  0.02209  0.14213  Biso   1.000  Hf
  Hf5      1.0000 0.63766  0.02359  0.64639  Biso   1.000  Hf
  Hf6      1.0000 0.63890  0.52024  0.14450  Biso   1.000  Hf
  Hf7      1.0000 0.63657  0.52517  0.64592  Biso   1.000  Hf
  Hf8      1.0000 0.11945  0.23015  0.41974  Biso   1.000  Hf
  Hf9      1.0000 0.13758  0.23331  0.89536  Biso   1.000  Hf
  Hf10     1.0000 0.13751  0.72418  0.39787  Biso   1.000  Hf
  Hf11     1.0000 0.14011  0.73539  0.89139  Biso   1.000  Hf
  Hf12     1.0000 0.64267  0.23267  0.39598  Biso   1.000  Hf
  Hf13     1.0000 0.64295  0.23047  0.89315  Biso   1.000  Hf
  Hf14     1.0000 0.63904  0.73300  0.39895  Biso   1.000  Hf
  Hf15     1.0000 0.64137  0.73022  0.89247  Biso   1.000  Hf
  Hf16     1.0000 0.37377  0.27321  0.08844  Biso   1.000  Hf
  Hf17     1.0000 0.36118  0.27196  0.60576  Biso   1.000  Hf
  Hf18     1.0000 0.36764  0.76839  0.09591  Biso   1.000  Hf
  Hf19     1.0000 0.36070  0.77261  0.60433  Biso   1.000  Hf
  Hf20     1.0000 0.86127  0.27357  0.10227  Biso   1.000  Hf
  Hf21     1.0000 0.85322  0.27595  0.61004  Biso   1.000  Hf
  Hf22     1.0000 0.85482  0.77270  0.10439  Biso   1.000  Hf
  Hf23     1.0000 0.86240  0.77242  0.60360  Biso   1.000  Hf
  Hf24     1.0000 0.37377  0.48346  0.35974  Biso   1.000  Hf
  Hf25     1.0000 0.36178  0.48367  0.85231  Biso   1.000  Hf
  La2      1.0000 0.35983  0.98910  0.35533  Biso   1.000  La
  Hf26     1.0000 0.36491  0.98069  0.85224  Biso   1.000  Hf
  Hf27     1.0000 0.85681  0.48313  0.35443  Biso   1.000  Hf
  Hf28     1.0000 0.86246  0.48249  0.85295  Biso   1.000  Hf
  Hf29     1.0000 0.85759  0.97922  0.35871  Biso   1.000  Hf
  Hf30     1.0000 0.86229  0.97930  0.85433  Biso   1.000  Hf
  Hf31     1.0000 0.03474  0.18629  0.07191  Biso   1.000  Hf
  Hf32     1.0000 0.02233  0.17208  0.59669  Biso   1.000  Hf
  Hf33     1.0000 0.03408  0.67748  0.07569  Biso   1.000  Hf
  Hf34     1.0000 0.03243  0.66579  0.58031  Biso   1.000  Hf
  Hf35     1.0000 0.54029  0.17106  0.07498  Biso   1.000  Hf
  Hf36     1.0000 0.53305  0.16896  0.57927  Biso   1.000  Hf
  Hf37     1.0000 0.53744  0.66559  0.07855  Biso   1.000  Hf
  Hf38     1.0000 0.53698  0.67169  0.58399  Biso   1.000  Hf
  Hf39     1.0000 0.03310  0.07432  0.35630  Biso   1.000  Hf
  Hf40     1.0000 0.03700  0.08062  0.83475  Biso   1.000  Hf
  Hf41     1.0000 0.03110  0.58287  0.32499  Biso   1.000  Hf
  Hf42     1.0000 0.03604  0.58418  0.82896  Biso   1.000  Hf
  Hf43     1.0000 0.55697  0.08589  0.32034  Biso   1.000  Hf
  Hf44     1.0000 0.53851  0.08335  0.82859  Biso   1.000  Hf
  Hf45     1.0000 0.54171  0.57800  0.33465  Biso   1.000  Hf
  Hf46     1.0000 0.53591  0.58274  0.82918  Biso   1.000  Hf
  Hf47     1.0000 0.45823  0.41917  0.17673  Biso   1.000  Hf
  Hf48     1.0000 0.46179  0.42447  0.66843  Biso   1.000  Hf
  Hf49     1.0000 0.46874  0.92441  0.14846  Biso   1.000  Hf
  Hf50     1.0000 0.46350  0.92325  0.66799  Biso   1.000  Hf
  Hf51     1.0000 0.96257  0.42179  0.17141  Biso   1.000  Hf
  Hf52     1.0000 0.96271  0.42265  0.67013  Biso   1.000  Hf
  Hf53     1.0000 0.94373  0.91956  0.17734  Biso   1.000  Hf
  Hf54     1.0000 0.96249  0.91963  0.67285  Biso   1.000  Hf
  Hf55     1.0000 0.46403  0.32749  0.42277  Biso   1.000  Hf
  Hf56     1.0000 0.47172  0.33899  0.91283  Biso   1.000  Hf
  Hf57     1.0000 0.46446  0.82037  0.42509  Biso   1.000  Hf
  Hf58     1.0000 0.47084  0.82946  0.91289  Biso   1.000  Hf
  Hf59     1.0000 0.95839  0.33820  0.42523  Biso   1.000  Hf
  Hf60     1.0000 0.96276  0.33635  0.91558  Biso   1.000  Hf
  Hf61     1.0000 0.96248  0.82805  0.42100  Biso   1.000  Hf
  Hf62     1.0000 0.96487  0.83517  0.92191  Biso   1.000  Hf
  Hf63     1.0000 0.27639  0.13153  0.74375  Biso   1.000  Hf
  Hf64     1.0000 0.27154  0.59557  0.24113  Biso   1.000  Hf
  Hf65     1.0000 0.27508  0.63208  0.73969  Biso   1.000  Hf
  Hf66     1.0000 0.78880  0.13385  0.23965  Biso   1.000  Hf
  Hf67     1.0000 0.77479  0.13200  0.74210  Biso   1.000  Hf
  Hf68     1.0000 0.77383  0.62979  0.23840  Biso   1.000  Hf
  Hf69     1.0000 0.77571  0.63163  0.73933  Biso   1.000  Hf
  Hf70     1.0000 0.25819  0.13274  0.50942  Biso   1.000  Hf
  Hf71     1.0000 0.28785  0.13088  0.98169  Biso   1.000  Hf
  Hf72     1.0000 0.27702  0.62258  0.49146  Biso   1.000  Hf
  Hf73     1.0000 0.27323  0.62429  0.98686  Biso   1.000  Hf
  Hf74     1.0000 0.77260  0.12466  0.49383  Biso   1.000  Hf
  Hf75     1.0000 0.77730  0.12209  0.98918  Biso   1.000  Hf
  Hf76     1.0000 0.77510  0.62303  0.49029  Biso   1.000  Hf
  Hf77     1.0000 0.77535  0.62083  0.98952  Biso   1.000  Hf
  Hf78     1.0000 0.22681  0.38569  0.01580  Biso   1.000  Hf
  Hf79     1.0000 0.22268  0.38547  0.50222  Biso   1.000  Hf
  Hf80     1.0000 0.23810  0.87284  0.99561  Biso   1.000  Hf
  Hf81     1.0000 0.21318  0.87334  0.51929  Biso   1.000  Hf
  Hf82     1.0000 0.72278  0.38107  0.00966  Biso   1.000  Hf
  Hf83     1.0000 0.72108  0.38359  0.51120  Biso   1.000  Hf
  Hf84     1.0000 0.72607  0.87878  0.00694  Biso   1.000  Hf
  Hf85     1.0000 0.72435  0.88141  0.51056  Biso   1.000  Hf
  Hf86     1.0000 0.25451  0.21543  0.25232  Biso   1.000  Hf
  Hf87     1.0000 0.22372  0.37440  0.75910  Biso   1.000  Hf
  Hf88     1.0000 0.23106  0.83683  0.25240  Biso   1.000  Hf
  Hf89     1.0000 0.22441  0.87493  0.75826  Biso   1.000  Hf
  Hf90     1.0000 0.72242  0.37382  0.25985  Biso   1.000  Hf
  Hf91     1.0000 0.72319  0.37399  0.76024  Biso   1.000  Hf
  Hf92     1.0000 0.71325  0.87048  0.26077  Biso   1.000  Hf
  Hf93     1.0000 0.72430  0.87274  0.75853  Biso   1.000  Hf
