data_image0
_cell_length_a       10.2097
_cell_length_b       10.3456
_cell_length_c       10.4745
_cell_angle_alpha    89.9977
_cell_angle_beta     80.6675
_cell_angle_gamma    90.3712

_symmetry_space_group_name_H-M    "P 1"
_symmetry_int_tables_number       1

loop_
  _symmetry_equiv_pos_as_xyz
  'x, y, z'

loop_
  _atom_site_label
  _atom_site_occupancy
  _atom_site_fract_x
  _atom_site_fract_y
  _atom_site_fract_z
  _atom_site_thermal_displace_type
  _atom_site_B_iso_or_equiv
  _atom_site_type_symbol
  La1      1.0000 0.13013  0.01071  0.13855  Biso   1.000  La
  Hf1      1.0000 0.14781  0.02010  0.64038  Biso   1.000  Hf
  Hf2      1.0000 0.13892  0.51985  0.14620  Biso   1.000  Hf
  Hf3      1.0000 0.13908  0.52078  0.64507  Biso   1.000  Hf
  Hf4      1.0000 0.63709  0.02099  0.14920  Biso   1.000  Hf
  Hf5      1.0000 0.63893  0.02159  0.64711  Biso   1.000  Hf
  Hf6      1.0000 0.63658  0.51976  0.14699  Biso   1.000  Hf
  Hf7      1.0000 0.64141  0.52211  0.64668  Biso   1.000  Hf
  Hf8      1.0000 0.13685  0.22738  0.39791  Biso   1.000  Hf
  Hf9      1.0000 0.13953  0.23840  0.89639  Biso   1.000  Hf
  Hf10     1.0000 0.13886  0.72593  0.39519  Biso   1.000  Hf
  Hf11     1.0000 0.14376  0.72505  0.89449  Biso   1.000  Hf
  Hf12     1.0000 0.63795  0.23004  0.39723  Biso   1.000  Hf
  Hf13     1.0000 0.63392  0.23319  0.89790  Biso   1.000  Hf
  Hf14     1.0000 0.63639  0.72702  0.39775  Biso   1.000  Hf
  Hf15     1.0000 0.64293  0.73113  0.89398  Biso   1.000  Hf
  Hf16     1.0000 0.35707  0.26888  0.10602  Biso   1.000  Hf
  Hf17     1.0000 0.36361  0.27298  0.60225  Biso   1.000  Hf
  Hf18     1.0000 0.36608  0.76681  0.10210  Biso   1.000  Hf
  Hf19     1.0000 0.36206  0.76995  0.60276  Biso   1.000  Hf
  Hf20     1.0000 0.85624  0.27495  0.10550  Biso   1.000  Hf
  Hf21     1.0000 0.86114  0.27407  0.60481  Biso   1.000  Hf
  Hf22     1.0000 0.86047  0.76160  0.10361  Biso   1.000  Hf
  Hf23     1.0000 0.86315  0.77262  0.60209  Biso   1.000  Hf
  Hf24     1.0000 0.35859  0.47789  0.35332  Biso   1.000  Hf
  Hf25     1.0000 0.36342  0.48024  0.85302  Biso   1.000  Hf
  Hf26     1.0000 0.36107  0.97841  0.35289  Biso   1.000  Hf
  Hf27     1.0000 0.36291  0.97901  0.85080  Biso   1.000  Hf
  Hf28     1.0000 0.86092  0.47922  0.35493  Biso   1.000  Hf
  Hf29     1.0000 0.86108  0.48015  0.85380  Biso   1.000  Hf
  Hf30     1.0000 0.85219  0.97990  0.35962  Biso   1.000  Hf
  La2      1.0000 0.86987  0.98929  0.86145  Biso   1.000  La
  Hf31     1.0000 0.03250  0.19156  0.07688  Biso   1.000  Hf
  Hf32     1.0000 0.03676  0.17304  0.58914  Biso   1.000  Hf
  Hf33     1.0000 0.04453  0.67800  0.09130  Biso   1.000  Hf
  Hf34     1.0000 0.03715  0.66944  0.58082  Biso   1.000  Hf
  Hf35     1.0000 0.52541  0.16489  0.08050  Biso   1.000  Hf
  Hf36     1.0000 0.53418  0.16773  0.57851  Biso   1.000  Hf
  Hf37     1.0000 0.53561  0.66393  0.07725  Biso   1.000  Hf
  Hf38     1.0000 0.53498  0.66697  0.57998  Biso   1.000  Hf
  Hf39     1.0000 0.02451  0.08183  0.34649  Biso   1.000  Hf
  Hf40     1.0000 0.07620  0.06970  0.83377  Biso   1.000  Hf
  Hf41     1.0000 0.03699  0.57656  0.33323  Biso   1.000  Hf
  Hf42     1.0000 0.04183  0.57073  0.83355  Biso   1.000  Hf
  Hf43     1.0000 0.53420  0.08254  0.33049  Biso   1.000  Hf
  Hf44     1.0000 0.53630  0.08132  0.83038  Biso   1.000  Hf
  Hf45     1.0000 0.53188  0.58239  0.32900  Biso   1.000  Hf
  Hf46     1.0000 0.53634  0.58447  0.82788  Biso   1.000  Hf
  Hf47     1.0000 0.46366  0.41553  0.17212  Biso   1.000  Hf
  Hf48     1.0000 0.46812  0.41761  0.67100  Biso   1.000  Hf
  Hf49     1.0000 0.46370  0.91868  0.16962  Biso   1.000  Hf
  Hf50     1.0000 0.46580  0.91746  0.66950  Biso   1.000  Hf
  Hf51     1.0000 0.95817  0.42926  0.16645  Biso   1.000  Hf
  Hf52     1.0000 0.96301  0.42344  0.66677  Biso   1.000  Hf
  Hf53     1.0000 0.92380  0.93030  0.16623  Biso   1.000  Hf
  Hf54     1.0000 0.97549  0.91817  0.65351  Biso   1.000  Hf
  Hf55     1.0000 0.46502  0.33303  0.42002  Biso   1.000  Hf
  Hf56     1.0000 0.46439  0.33607  0.92275  Biso   1.000  Hf
  Hf57     1.0000 0.46582  0.83227  0.42149  Biso   1.000  Hf
  Hf58     1.0000 0.47459  0.83511  0.91950  Biso   1.000  Hf
  Hf59     1.0000 0.96285  0.33056  0.41918  Biso   1.000  Hf
  Hf60     1.0000 0.95547  0.32200  0.90870  Biso   1.000  Hf
  Hf61     1.0000 0.96324  0.82696  0.41086  Biso   1.000  Hf
  Hf62     1.0000 0.96750  0.80844  0.92312  Biso   1.000  Hf
  Hf63     1.0000 0.27825  0.13359  0.24871  Biso   1.000  Hf
  Hf64     1.0000 0.29036  0.12847  0.73184  Biso   1.000  Hf
  Hf65     1.0000 0.27687  0.62331  0.23930  Biso   1.000  Hf
  Hf66     1.0000 0.27835  0.62690  0.73838  Biso   1.000  Hf
  Hf67     1.0000 0.77286  0.13330  0.24663  Biso   1.000  Hf
  Hf68     1.0000 0.76490  0.14182  0.73773  Biso   1.000  Hf
  Hf69     1.0000 0.77299  0.62831  0.24305  Biso   1.000  Hf
  Hf70     1.0000 0.78004  0.62958  0.74030  Biso   1.000  Hf
  Hf71     1.0000 0.27547  0.12085  0.49002  Biso   1.000  Hf
  Hf72     1.0000 0.28310  0.12911  0.98021  Biso   1.000  Hf
  Hf73     1.0000 0.27579  0.62031  0.48971  Biso   1.000  Hf
  Hf74     1.0000 0.27824  0.61665  0.99023  Biso   1.000  Hf
  Hf75     1.0000 0.77221  0.12192  0.49326  Biso   1.000  Hf
  Hf76     1.0000 0.75857  0.13467  0.00590  Biso   1.000  Hf
  Hf77     1.0000 0.77587  0.62080  0.49091  Biso   1.000  Hf
  Hf78     1.0000 0.77552  0.61871  0.99147  Biso   1.000  Hf
  Hf79     1.0000 0.22448  0.38129  0.00853  Biso   1.000  Hf
  Hf80     1.0000 0.22413  0.37920  0.50909  Biso   1.000  Hf
  Hf81     1.0000 0.24143  0.86533  0.99410  Biso   1.000  Hf
  Hf82     1.0000 0.22779  0.87808  0.50674  Biso   1.000  Hf
  Hf83     1.0000 0.72176  0.38335  0.00977  Biso   1.000  Hf
  Hf84     1.0000 0.72421  0.37968  0.51029  Biso   1.000  Hf
  Hf85     1.0000 0.71690  0.87089  0.01979  Biso   1.000  Hf
  Hf86     1.0000 0.72453  0.87915  0.50998  Biso   1.000  Hf
  Hf87     1.0000 0.21996  0.37042  0.25971  Biso   1.000  Hf
  Hf88     1.0000 0.22701  0.37169  0.75695  Biso   1.000  Hf
  Hf89     1.0000 0.23510  0.85818  0.26227  Biso   1.000  Hf
  Hf90     1.0000 0.22714  0.86670  0.75337  Biso   1.000  Hf
  Hf91     1.0000 0.72165  0.37310  0.26162  Biso   1.000  Hf
  Hf92     1.0000 0.72313  0.37669  0.76071  Biso   1.000  Hf
  Hf93     1.0000 0.70964  0.87153  0.26816  Biso   1.000  Hf
  Hf94     1.0000 0.72175  0.86641  0.75129  Biso   1.000  Hf
