data_image0
_cell_length_a       10.0865
_cell_length_b       10.3124
_cell_length_c       10.4748
_cell_angle_alpha    90.2681
_cell_angle_beta     89.6395
_cell_angle_gamma    89.6753

_symmetry_space_group_name_H-M    "P 1"
_symmetry_int_tables_number       1

loop_
  _symmetry_equiv_pos_as_xyz
  'x, y, z'

loop_
  _atom_site_label
  _atom_site_occupancy
  _atom_site_fract_x
  _atom_site_fract_y
  _atom_site_fract_z
  _atom_site_thermal_displace_type
  _atom_site_B_iso_or_equiv
  _atom_site_type_symbol
  Hf1      1.0000 0.14092  0.99741  0.18295  Biso   1.000  Hf
  Hf2      1.0000 0.13864  0.02077  0.67086  Biso   1.000  Hf
  Hf3      1.0000 0.14306  0.52313  0.17210  Biso   1.000  Hf
  Hf4      1.0000 0.13840  0.52274  0.66875  Biso   1.000  Hf
  Hf5      1.0000 0.13898  0.23062  0.41982  Biso   1.000  Hf
  Hf6      1.0000 0.14411  0.24358  0.89634  Biso   1.000  Hf
  Hf7      1.0000 0.14171  0.72638  0.42415  Biso   1.000  Hf
  Hf8      1.0000 0.13710  0.72726  0.92132  Biso   1.000  Hf
  La1      1.0000 0.36043  0.25626  0.15695  Biso   1.000  La
  Hf9      1.0000 0.36741  0.27137  0.66548  Biso   1.000  Hf
  Hf10     1.0000 0.36684  0.76500  0.17077  Biso   1.000  Hf
  Hf11     1.0000 0.36204  0.77148  0.67256  Biso   1.000  Hf
  Hf12     1.0000 0.36329  0.47658  0.42000  Biso   1.000  Hf
  Hf13     1.0000 0.36655  0.48554  0.91807  Biso   1.000  Hf
  Hf14     1.0000 0.36644  0.97651  0.42603  Biso   1.000  Hf
  Hf15     1.0000 0.35585  0.97603  0.92117  Biso   1.000  Hf
  Hf16     1.0000 0.63531  0.01601  0.08189  Biso   1.000  Hf
  Hf17     1.0000 0.64101  0.02136  0.58055  Biso   1.000  Hf
  Hf18     1.0000 0.64313  0.51688  0.07805  Biso   1.000  Hf
  Hf19     1.0000 0.63930  0.52208  0.57958  Biso   1.000  Hf
  Hf20     1.0000 0.63954  0.23136  0.33422  Biso   1.000  Hf
  Hf21     1.0000 0.63777  0.22842  0.83327  Biso   1.000  Hf
  Hf22     1.0000 0.64050  0.72731  0.32930  Biso   1.000  Hf
  Hf23     1.0000 0.64087  0.72908  0.82872  Biso   1.000  Hf
  La2      1.0000 0.87630  0.25309  0.09343  Biso   1.000  La
  Hf24     1.0000 0.86118  0.27141  0.57977  Biso   1.000  Hf
  Hf25     1.0000 0.85954  0.76676  0.07779  Biso   1.000  Hf
  Hf26     1.0000 0.86264  0.77225  0.57812  Biso   1.000  Hf
  Hf27     1.0000 0.86453  0.48268  0.33167  Biso   1.000  Hf
  Hf28     1.0000 0.86078  0.47688  0.82816  Biso   1.000  Hf
  Hf29     1.0000 0.85831  0.97834  0.33060  Biso   1.000  Hf
  Hf30     1.0000 0.86180  0.97744  0.82764  Biso   1.000  Hf
  Hf31     1.0000 0.03209  0.15973  0.57580  Biso   1.000  Hf
  Hf32     1.0000 0.03570  0.66944  0.08513  Biso   1.000  Hf
  Hf33     1.0000 0.03317  0.66706  0.58421  Biso   1.000  Hf
  Hf34     1.0000 0.01939  0.10766  0.30238  Biso   1.000  Hf
  Hf35     1.0000 0.02994  0.08898  0.83244  Biso   1.000  Hf
  Hf36     1.0000 0.03587  0.59003  0.33639  Biso   1.000  Hf
  Hf37     1.0000 0.03407  0.58247  0.83266  Biso   1.000  Hf
  Hf38     1.0000 0.46563  0.43640  0.08230  Biso   1.000  Hf
  Hf39     1.0000 0.46649  0.42249  0.58998  Biso   1.000  Hf
  Hf40     1.0000 0.45271  0.93200  0.09555  Biso   1.000  Hf
  Hf41     1.0000 0.46817  0.91875  0.59027  Biso   1.000  Hf
  Hf42     1.0000 0.46854  0.32873  0.34958  Biso   1.000  Hf
  Hf43     1.0000 0.46371  0.33012  0.83793  Biso   1.000  Hf
  Hf44     1.0000 0.46763  0.82977  0.33722  Biso   1.000  Hf
  Hf45     1.0000 0.46425  0.83509  0.83954  Biso   1.000  Hf
  Hf46     1.0000 0.26604  0.10664  0.30510  Biso   1.000  Hf
  Hf47     1.0000 0.27864  0.12394  0.79195  Biso   1.000  Hf
  Hf48     1.0000 0.28197  0.62267  0.29486  Biso   1.000  Hf
  Hf49     1.0000 0.27577  0.62664  0.79370  Biso   1.000  Hf
  Hf50     1.0000 0.20027  0.12008  0.04118  Biso   1.000  Hf
  Hf51     1.0000 0.27718  0.12718  0.54678  Biso   1.000  Hf
  Hf52     1.0000 0.27895  0.62778  0.04382  Biso   1.000  Hf
  Hf53     1.0000 0.27740  0.62649  0.54586  Biso   1.000  Hf
  Hf54     1.0000 0.21784  0.37791  0.29819  Biso   1.000  Hf
  Hf55     1.0000 0.23169  0.37799  0.78234  Biso   1.000  Hf
  Hf56     1.0000 0.22637  0.86427  0.29630  Biso   1.000  Hf
  Hf57     1.0000 0.22169  0.87512  0.79525  Biso   1.000  Hf
  Hf58     1.0000 0.21234  0.38520  0.02632  Biso   1.000  Hf
  Hf59     1.0000 0.22541  0.37542  0.54144  Biso   1.000  Hf
  Hf60     1.0000 0.22731  0.86791  0.04511  Biso   1.000  Hf
  Hf61     1.0000 0.22692  0.87625  0.54658  Biso   1.000  Hf
  Hf62     1.0000 0.56122  0.17838  0.16075  Biso   1.000  Hf
  Hf63     1.0000 0.53754  0.16760  0.66678  Biso   1.000  Hf
  Hf64     1.0000 0.54184  0.67408  0.15984  Biso   1.000  Hf
  Hf65     1.0000 0.53537  0.67175  0.66440  Biso   1.000  Hf
  Hf66     1.0000 0.53529  0.08065  0.41692  Biso   1.000  Hf
  Hf67     1.0000 0.51844  0.09046  0.92508  Biso   1.000  Hf
  Hf68     1.0000 0.53681  0.58101  0.41441  Biso   1.000  Hf
  Hf69     1.0000 0.53898  0.58448  0.90924  Biso   1.000  Hf
  Hf70     1.0000 0.97296  0.42826  0.17146  Biso   1.000  Hf
  Hf71     1.0000 0.96863  0.41569  0.66344  Biso   1.000  Hf
  Hf72     1.0000 0.96283  0.92008  0.16107  Biso   1.000  Hf
  Hf73     1.0000 0.96858  0.91539  0.66618  Biso   1.000  Hf
  Hf74     1.0000 0.96666  0.33554  0.41711  Biso   1.000  Hf
  Hf75     1.0000 0.97179  0.33144  0.90389  Biso   1.000  Hf
  Hf76     1.0000 0.97411  0.84103  0.41796  Biso   1.000  Hf
  Hf77     1.0000 0.96617  0.83384  0.91583  Biso   1.000  Hf
  Hf78     1.0000 0.76502  0.11114  0.95160  Biso   1.000  Hf
  Hf79     1.0000 0.77758  0.12387  0.45933  Biso   1.000  Hf
  Hf80     1.0000 0.77939  0.62284  0.95463  Biso   1.000  Hf
  Hf81     1.0000 0.77765  0.62674  0.45649  Biso   1.000  Hf
  Hf82     1.0000 0.76572  0.10653  0.21705  Biso   1.000  Hf
  Hf83     1.0000 0.77665  0.12630  0.70670  Biso   1.000  Hf
  Hf84     1.0000 0.77915  0.62535  0.20586  Biso   1.000  Hf
  Hf85     1.0000 0.77735  0.62634  0.70518  Biso   1.000  Hf
  Hf86     1.0000 0.72304  0.37431  0.95288  Biso   1.000  Hf
  Hf87     1.0000 0.72724  0.37551  0.46098  Biso   1.000  Hf
  Hf88     1.0000 0.72100  0.86886  0.95626  Biso   1.000  Hf
  Hf89     1.0000 0.72550  0.87365  0.45592  Biso   1.000  Hf
  Hf90     1.0000 0.72316  0.38160  0.21616  Biso   1.000  Hf
  Hf91     1.0000 0.72389  0.37589  0.70725  Biso   1.000  Hf
  Hf92     1.0000 0.72629  0.87002  0.20656  Biso   1.000  Hf
  Hf93     1.0000 0.72568  0.87673  0.70533  Biso   1.000  Hf
