data_image0
_cell_length_a       10.1146
_cell_length_b       10.3099
_cell_length_c       10.4537
_cell_angle_alpha    90.0596
_cell_angle_beta     90.6451
_cell_angle_gamma    90.2966

_symmetry_space_group_name_H-M    "P 1"
_symmetry_int_tables_number       1

loop_
  _symmetry_equiv_pos_as_xyz
  'x, y, z'

loop_
  _atom_site_label
  _atom_site_occupancy
  _atom_site_fract_x
  _atom_site_fract_y
  _atom_site_fract_z
  _atom_site_thermal_displace_type
  _atom_site_B_iso_or_equiv
  _atom_site_type_symbol
  La1      1.0000 0.12839  0.00872  0.15907  Biso   1.000  La
  Hf1      1.0000 0.13936  0.02062  0.67078  Biso   1.000  Hf
  La2      1.0000 0.12843  0.50882  0.15910  Biso   1.000  La
  Hf2      1.0000 0.13935  0.52065  0.67079  Biso   1.000  Hf
  Hf3      1.0000 0.13858  0.22587  0.42158  Biso   1.000  Hf
  Hf4      1.0000 0.14130  0.23264  0.91620  Biso   1.000  Hf
  Hf5      1.0000 0.13858  0.72588  0.42158  Biso   1.000  Hf
  Hf6      1.0000 0.14129  0.73265  0.91619  Biso   1.000  Hf
  Hf7      1.0000 0.36478  0.26448  0.16922  Biso   1.000  Hf
  Hf8      1.0000 0.36081  0.26979  0.66966  Biso   1.000  Hf
  Hf9      1.0000 0.36480  0.76453  0.16922  Biso   1.000  Hf
  Hf10     1.0000 0.36081  0.76981  0.66966  Biso   1.000  Hf
  Hf11     1.0000 0.35924  0.47733  0.42019  Biso   1.000  Hf
  Hf12     1.0000 0.36691  0.47927  0.91801  Biso   1.000  Hf
  Hf13     1.0000 0.35924  0.97735  0.42016  Biso   1.000  Hf
  Hf14     1.0000 0.36691  0.97931  0.91800  Biso   1.000  Hf
  Hf15     1.0000 0.64205  0.01886  0.08027  Biso   1.000  Hf
  Hf16     1.0000 0.63771  0.01987  0.58109  Biso   1.000  Hf
  Hf17     1.0000 0.64204  0.51889  0.08026  Biso   1.000  Hf
  Hf18     1.0000 0.63770  0.51990  0.58109  Biso   1.000  Hf
  Hf19     1.0000 0.63768  0.22837  0.33203  Biso   1.000  Hf
  Hf20     1.0000 0.64025  0.22940  0.82777  Biso   1.000  Hf
  Hf21     1.0000 0.63771  0.72836  0.33203  Biso   1.000  Hf
  Hf22     1.0000 0.64026  0.72940  0.82776  Biso   1.000  Hf
  Hf23     1.0000 0.85807  0.26774  0.07726  Biso   1.000  Hf
  Hf24     1.0000 0.86358  0.27152  0.58060  Biso   1.000  Hf
  Hf25     1.0000 0.85806  0.76777  0.07725  Biso   1.000  Hf
  Hf26     1.0000 0.86358  0.77155  0.58059  Biso   1.000  Hf
  Hf27     1.0000 0.85372  0.48146  0.33668  Biso   1.000  Hf
  Hf28     1.0000 0.86238  0.47953  0.82953  Biso   1.000  Hf
  Hf29     1.0000 0.85370  0.98149  0.33667  Biso   1.000  Hf
  Hf30     1.0000 0.86238  0.97956  0.82954  Biso   1.000  Hf
  Hf31     1.0000 0.04206  0.20538  0.09220  Biso   1.000  Hf
  Hf32     1.0000 0.03724  0.17477  0.59441  Biso   1.000  Hf
  Hf33     1.0000 0.04207  0.70549  0.09223  Biso   1.000  Hf
  Hf34     1.0000 0.03722  0.67479  0.59443  Biso   1.000  Hf
  Hf35     1.0000 0.02528  0.08003  0.35152  Biso   1.000  Hf
  Hf36     1.0000 0.03924  0.07505  0.84452  Biso   1.000  Hf
  Hf37     1.0000 0.02528  0.58006  0.35152  Biso   1.000  Hf
  Hf38     1.0000 0.03925  0.57507  0.84452  Biso   1.000  Hf
  Hf39     1.0000 0.47282  0.41339  0.08292  Biso   1.000  Hf
  Hf40     1.0000 0.46741  0.41337  0.58287  Biso   1.000  Hf
  Hf41     1.0000 0.47284  0.91342  0.08294  Biso   1.000  Hf
  Hf42     1.0000 0.46741  0.91340  0.58288  Biso   1.000  Hf
  Hf43     1.0000 0.47167  0.33656  0.33262  Biso   1.000  Hf
  Hf44     1.0000 0.47040  0.33453  0.82972  Biso   1.000  Hf
  Hf45     1.0000 0.47168  0.83654  0.33264  Biso   1.000  Hf
  Hf46     1.0000 0.47040  0.83452  0.82972  Biso   1.000  Hf
  Hf47     1.0000 0.28087  0.12287  0.29996  Biso   1.000  Hf
  Hf48     1.0000 0.27674  0.12467  0.79117  Biso   1.000  Hf
  Hf49     1.0000 0.28089  0.62289  0.29996  Biso   1.000  Hf
  Hf50     1.0000 0.27674  0.62469  0.79117  Biso   1.000  Hf
  Hf51     1.0000 0.28453  0.12573  0.03502  Biso   1.000  Hf
  Hf52     1.0000 0.27484  0.12400  0.54482  Biso   1.000  Hf
  Hf53     1.0000 0.28453  0.62574  0.03503  Biso   1.000  Hf
  Hf54     1.0000 0.27483  0.62401  0.54484  Biso   1.000  Hf
  Hf55     1.0000 0.23240  0.36134  0.29877  Biso   1.000  Hf
  Hf56     1.0000 0.22564  0.37430  0.78996  Biso   1.000  Hf
  Hf57     1.0000 0.23240  0.86134  0.29877  Biso   1.000  Hf
  Hf58     1.0000 0.22562  0.87430  0.78996  Biso   1.000  Hf
  Hf59     1.0000 0.24563  0.36357  0.03102  Biso   1.000  Hf
  Hf60     1.0000 0.22318  0.37639  0.54447  Biso   1.000  Hf
  Hf61     1.0000 0.24566  0.86357  0.03099  Biso   1.000  Hf
  Hf62     1.0000 0.22317  0.87641  0.54446  Biso   1.000  Hf
  Hf63     1.0000 0.53430  0.16124  0.16766  Biso   1.000  Hf
  Hf64     1.0000 0.53251  0.16384  0.66606  Biso   1.000  Hf
  Hf65     1.0000 0.53428  0.66122  0.16768  Biso   1.000  Hf
  Hf66     1.0000 0.53248  0.66383  0.66607  Biso   1.000  Hf
  Hf67     1.0000 0.53263  0.08263  0.41754  Biso   1.000  Hf
  Hf68     1.0000 0.53778  0.08445  0.91597  Biso   1.000  Hf
  Hf69     1.0000 0.53263  0.58265  0.41757  Biso   1.000  Hf
  Hf70     1.0000 0.53777  0.58446  0.91598  Biso   1.000  Hf
  Hf71     1.0000 0.92114  0.43673  0.15432  Biso   1.000  Hf
  Hf72     1.0000 0.96351  0.42444  0.66108  Biso   1.000  Hf
  Hf73     1.0000 0.92105  0.93684  0.15424  Biso   1.000  Hf
  Hf74     1.0000 0.96351  0.92446  0.66107  Biso   1.000  Hf
  Hf75     1.0000 0.96360  0.33021  0.41060  Biso   1.000  Hf
  Hf76     1.0000 0.96382  0.32905  0.90664  Biso   1.000  Hf
  Hf77     1.0000 0.96359  0.83020  0.41058  Biso   1.000  Hf
  Hf78     1.0000 0.96380  0.82903  0.90662  Biso   1.000  Hf
  Hf79     1.0000 0.77816  0.12257  0.95582  Biso   1.000  Hf
  Hf80     1.0000 0.77289  0.12461  0.46014  Biso   1.000  Hf
  Hf81     1.0000 0.77816  0.62257  0.95583  Biso   1.000  Hf
  Hf82     1.0000 0.77290  0.62461  0.46014  Biso   1.000  Hf
  Hf83     1.0000 0.77436  0.13154  0.21011  Biso   1.000  Hf
  Hf84     1.0000 0.77656  0.12703  0.70689  Biso   1.000  Hf
  Hf85     1.0000 0.77439  0.63152  0.21007  Biso   1.000  Hf
  Hf86     1.0000 0.77655  0.62703  0.70687  Biso   1.000  Hf
  Hf87     1.0000 0.72406  0.37355  0.95465  Biso   1.000  Hf
  Hf88     1.0000 0.72375  0.37393  0.45947  Biso   1.000  Hf
  Hf89     1.0000 0.72404  0.87356  0.95464  Biso   1.000  Hf
  Hf90     1.0000 0.72374  0.87393  0.45946  Biso   1.000  Hf
  Hf91     1.0000 0.71058  0.37693  0.21131  Biso   1.000  Hf
  Hf92     1.0000 0.72567  0.37542  0.70585  Biso   1.000  Hf
  Hf93     1.0000 0.71057  0.87691  0.21132  Biso   1.000  Hf
  Hf94     1.0000 0.72566  0.87544  0.70585  Biso   1.000  Hf
