data_image0
_cell_length_a       10.0632
_cell_length_b       10.3898
_cell_length_c       10.0693
_cell_angle_alpha    90.2399
_cell_angle_beta     89.9335
_cell_angle_gamma    89.8126

_symmetry_space_group_name_H-M    "P 1"
_symmetry_int_tables_number       1

loop_
  _symmetry_equiv_pos_as_xyz
  'x, y, z'

loop_
  _atom_site_label
  _atom_site_occupancy
  _atom_site_fract_x
  _atom_site_fract_y
  _atom_site_fract_z
  _atom_site_thermal_displace_type
  _atom_site_B_iso_or_equiv
  _atom_site_type_symbol
  Hf1      1.0000 0.09825  0.98743  0.08282  Biso   1.000  Hf
  Hf2      1.0000 0.13038  0.01536  0.62624  Biso   1.000  Hf
  Hf3      1.0000 0.14001  0.52004  0.12726  Biso   1.000  Hf
  Hf4      1.0000 0.13296  0.51509  0.62415  Biso   1.000  Hf
  Hf5      1.0000 0.64175  0.01732  0.13027  Biso   1.000  Hf
  Hf6      1.0000 0.63048  0.01684  0.62384  Biso   1.000  Hf
  Hf7      1.0000 0.63612  0.51822  0.12589  Biso   1.000  Hf
  Hf8      1.0000 0.63038  0.51752  0.62846  Biso   1.000  Hf
  La1      1.0000 0.11914  0.24208  0.36512  Biso   1.000  La
  Hf9      1.0000 0.13294  0.23535  0.87135  Biso   1.000  Hf
  Hf10     1.0000 0.13294  0.73690  0.37537  Biso   1.000  Hf
  Hf11     1.0000 0.13603  0.72846  0.87650  Biso   1.000  Hf
  Hf12     1.0000 0.64091  0.23625  0.37910  Biso   1.000  Hf
  Hf13     1.0000 0.63536  0.23297  0.87534  Biso   1.000  Hf
  Hf14     1.0000 0.63582  0.73182  0.37767  Biso   1.000  Hf
  Hf15     1.0000 0.63249  0.73143  0.87832  Biso   1.000  Hf
  La2      1.0000 0.37414  0.25273  0.12195  Biso   1.000  La
  Hf16     1.0000 0.36636  0.26512  0.61932  Biso   1.000  Hf
  Hf17     1.0000 0.36798  0.77298  0.12726  Biso   1.000  Hf
  Hf18     1.0000 0.36199  0.76316  0.62973  Biso   1.000  Hf
  Hf19     1.0000 0.87005  0.26554  0.12227  Biso   1.000  Hf
  Hf20     1.0000 0.86286  0.26900  0.63182  Biso   1.000  Hf
  Hf21     1.0000 0.86277  0.76499  0.13196  Biso   1.000  Hf
  Hf22     1.0000 0.86584  0.76246  0.62586  Biso   1.000  Hf
  Hf23     1.0000 0.36883  0.48865  0.37553  Biso   1.000  Hf
  Hf24     1.0000 0.36602  0.48294  0.87214  Biso   1.000  Hf
  Hf25     1.0000 0.37360  0.97014  0.38604  Biso   1.000  Hf
  Hf26     1.0000 0.36699  0.98371  0.87302  Biso   1.000  Hf
  Hf27     1.0000 0.86351  0.48479  0.37907  Biso   1.000  Hf
  Hf28     1.0000 0.86640  0.48495  0.87637  Biso   1.000  Hf
  Hf29     1.0000 0.86318  0.98082  0.38390  Biso   1.000  Hf
  Hf30     1.0000 0.85539  0.98036  0.86816  Biso   1.000  Hf
  Hf31     1.0000 0.04830  0.16689  0.15552  Biso   1.000  Hf
  Hf32     1.0000 0.03697  0.18760  0.68637  Biso   1.000  Hf
  Hf33     1.0000 0.03445  0.68149  0.19762  Biso   1.000  Hf
  Hf34     1.0000 0.03294  0.68278  0.70083  Biso   1.000  Hf
  Hf35     1.0000 0.56645  0.18421  0.19989  Biso   1.000  Hf
  Hf36     1.0000 0.53576  0.18365  0.69480  Biso   1.000  Hf
  Hf37     1.0000 0.53952  0.69369  0.19402  Biso   1.000  Hf
  Hf38     1.0000 0.53109  0.68366  0.70141  Biso   1.000  Hf
  Hf39     1.0000 0.02788  0.05414  0.45624  Biso   1.000  Hf
  Hf40     1.0000 0.02668  0.06594  0.91268  Biso   1.000  Hf
  Hf41     1.0000 0.03747  0.56549  0.44511  Biso   1.000  Hf
  Hf42     1.0000 0.03186  0.57166  0.94882  Biso   1.000  Hf
  Hf43     1.0000 0.54202  0.06404  0.44240  Biso   1.000  Hf
  Hf44     1.0000 0.52918  0.07315  0.95482  Biso   1.000  Hf
  Hf45     1.0000 0.53566  0.57223  0.44986  Biso   1.000  Hf
  Hf46     1.0000 0.53659  0.56686  0.94673  Biso   1.000  Hf
  Hf47     1.0000 0.47894  0.44440  0.20519  Biso   1.000  Hf
  Hf48     1.0000 0.46192  0.43412  0.68923  Biso   1.000  Hf
  Hf49     1.0000 0.45870  0.94921  0.19769  Biso   1.000  Hf
  Hf50     1.0000 0.46218  0.93383  0.69198  Biso   1.000  Hf
  Hf51     1.0000 0.97691  0.42088  0.20420  Biso   1.000  Hf
  Hf52     1.0000 0.96421  0.43594  0.69908  Biso   1.000  Hf
  Hf53     1.0000 0.95787  0.92719  0.20649  Biso   1.000  Hf
  Hf54     1.0000 0.96154  0.92838  0.69504  Biso   1.000  Hf
  Hf55     1.0000 0.46495  0.31416  0.43783  Biso   1.000  Hf
  Hf56     1.0000 0.46888  0.32291  0.92864  Biso   1.000  Hf
  Hf57     1.0000 0.46557  0.81404  0.45059  Biso   1.000  Hf
  Hf58     1.0000 0.46940  0.82169  0.94785  Biso   1.000  Hf
  Hf59     1.0000 0.94645  0.32435  0.45913  Biso   1.000  Hf
  Hf60     1.0000 0.96127  0.31609  0.93926  Biso   1.000  Hf
  Hf61     1.0000 0.95987  0.80901  0.44627  Biso   1.000  Hf
  Hf62     1.0000 0.98325  0.83525  0.96944  Biso   1.000  Hf
  Hf63     1.0000 0.27085  0.11853  0.74343  Biso   1.000  Hf
  Hf64     1.0000 0.27481  0.63285  0.25058  Biso   1.000  Hf
  Hf65     1.0000 0.26707  0.61637  0.74944  Biso   1.000  Hf
  Hf66     1.0000 0.79016  0.11885  0.25329  Biso   1.000  Hf
  Hf67     1.0000 0.76603  0.11637  0.75077  Biso   1.000  Hf
  Hf68     1.0000 0.77050  0.61933  0.25082  Biso   1.000  Hf
  Hf69     1.0000 0.76798  0.61726  0.75024  Biso   1.000  Hf
  Hf70     1.0000 0.28202  0.12159  0.48736  Biso   1.000  Hf
  Hf71     1.0000 0.25304  0.11220  0.99249  Biso   1.000  Hf
  Hf72     1.0000 0.26734  0.63622  0.50019  Biso   1.000  Hf
  Hf73     1.0000 0.27377  0.63164  0.00036  Biso   1.000  Hf
  Hf74     1.0000 0.76922  0.13250  0.50542  Biso   1.000  Hf
  Hf75     1.0000 0.77061  0.12828  0.99988  Biso   1.000  Hf
  Hf76     1.0000 0.76992  0.63041  0.50055  Biso   1.000  Hf
  Hf77     1.0000 0.77382  0.63481  0.99897  Biso   1.000  Hf
  Hf78     1.0000 0.24172  0.39109  0.50449  Biso   1.000  Hf
  Hf79     1.0000 0.22360  0.38610  0.98953  Biso   1.000  Hf
  Hf80     1.0000 0.22807  0.87768  0.50239  Biso   1.000  Hf
  Hf81     1.0000 0.23729  0.87183  0.99354  Biso   1.000  Hf
  Hf82     1.0000 0.72201  0.38540  0.50385  Biso   1.000  Hf
  Hf83     1.0000 0.73238  0.38130  0.00311  Biso   1.000  Hf
  Hf84     1.0000 0.72683  0.87849  0.50269  Biso   1.000  Hf
  Hf85     1.0000 0.73351  0.87915  0.00058  Biso   1.000  Hf
  Hf86     1.0000 0.23806  0.39266  0.24638  Biso   1.000  Hf
  Hf87     1.0000 0.23022  0.36553  0.74578  Biso   1.000  Hf
  Hf88     1.0000 0.22788  0.88487  0.24871  Biso   1.000  Hf
  Hf89     1.0000 0.22872  0.86623  0.75054  Biso   1.000  Hf
  Hf90     1.0000 0.73937  0.36967  0.25254  Biso   1.000  Hf
  Hf91     1.0000 0.72778  0.36939  0.75372  Biso   1.000  Hf
  Hf92     1.0000 0.72514  0.86951  0.25246  Biso   1.000  Hf
  Hf93     1.0000 0.72732  0.86489  0.74976  Biso   1.000  Hf
