data_image0
_cell_length_a       10.1242
_cell_length_b       10.2913
_cell_length_c       10.5428
_cell_angle_alpha    90.0748
_cell_angle_beta     89.9994
_cell_angle_gamma    89.9973

_symmetry_space_group_name_H-M    "P 1"
_symmetry_int_tables_number       1

loop_
  _symmetry_equiv_pos_as_xyz
  'x, y, z'

loop_
  _atom_site_label
  _atom_site_occupancy
  _atom_site_fract_x
  _atom_site_fract_y
  _atom_site_fract_z
  _atom_site_thermal_displace_type
  _atom_site_B_iso_or_equiv
  _atom_site_type_symbol
  La1      1.0000 0.13068  0.01124  0.16285  Biso   1.000  La
  Hf1      1.0000 0.13984  0.02079  0.67273  Biso   1.000  Hf
  Hf2      1.0000 0.14043  0.52123  0.17090  Biso   1.000  Hf
  Hf3      1.0000 0.13802  0.52180  0.67270  Biso   1.000  Hf
  Hf4      1.0000 0.13940  0.22721  0.42161  Biso   1.000  Hf
  Hf5      1.0000 0.13827  0.23376  0.91609  Biso   1.000  Hf
  Hf6      1.0000 0.13810  0.73038  0.42382  Biso   1.000  Hf
  Hf7      1.0000 0.14009  0.72735  0.92230  Biso   1.000  Hf
  Hf8      1.0000 0.35312  0.26942  0.16419  Biso   1.000  Hf
  Hf9      1.0000 0.36209  0.27026  0.66918  Biso   1.000  Hf
  Hf10     1.0000 0.36674  0.76653  0.17102  Biso   1.000  Hf
  Hf11     1.0000 0.35943  0.77003  0.67378  Biso   1.000  Hf
  Hf12     1.0000 0.35645  0.48303  0.42259  Biso   1.000  Hf
  Hf13     1.0000 0.36250  0.47814  0.92024  Biso   1.000  Hf
  Hf14     1.0000 0.35922  0.97620  0.42447  Biso   1.000  Hf
  Hf15     1.0000 0.36466  0.97887  0.91878  Biso   1.000  Hf
  Hf16     1.0000 0.63942  0.02271  0.07840  Biso   1.000  Hf
  Hf17     1.0000 0.63820  0.01626  0.58390  Biso   1.000  Hf
  Hf18     1.0000 0.63811  0.51965  0.07618  Biso   1.000  Hf
  Hf19     1.0000 0.64008  0.52267  0.57767  Biso   1.000  Hf
  La2      1.0000 0.63074  0.23875  0.33708  Biso   1.000  La
  Hf20     1.0000 0.63985  0.22922  0.82727  Biso   1.000  Hf
  Hf21     1.0000 0.64041  0.72883  0.32910  Biso   1.000  Hf
  Hf22     1.0000 0.63806  0.72821  0.82729  Biso   1.000  Hf
  Hf23     1.0000 0.85925  0.27379  0.07554  Biso   1.000  Hf
  Hf24     1.0000 0.86462  0.27114  0.58122  Biso   1.000  Hf
  Hf25     1.0000 0.85645  0.76697  0.07742  Biso   1.000  Hf
  Hf26     1.0000 0.86245  0.77188  0.57976  Biso   1.000  Hf
  Hf27     1.0000 0.86679  0.48347  0.32899  Biso   1.000  Hf
  Hf28     1.0000 0.85942  0.47996  0.82622  Biso   1.000  Hf
  Hf29     1.0000 0.85317  0.98055  0.33583  Biso   1.000  Hf
  Hf30     1.0000 0.86213  0.97975  0.83081  Biso   1.000  Hf
  Hf31     1.0000 0.03322  0.18634  0.07681  Biso   1.000  Hf
  Hf32     1.0000 0.03657  0.16804  0.58906  Biso   1.000  Hf
  Hf33     1.0000 0.03146  0.66269  0.07959  Biso   1.000  Hf
  Hf34     1.0000 0.03025  0.66182  0.58181  Biso   1.000  Hf
  Hf35     1.0000 0.02129  0.08958  0.34626  Biso   1.000  Hf
  Hf36     1.0000 0.03354  0.08611  0.83498  Biso   1.000  Hf
  Hf37     1.0000 0.03310  0.59160  0.33057  Biso   1.000  Hf
  Hf38     1.0000 0.02954  0.58957  0.82932  Biso   1.000  Hf
  Hf39     1.0000 0.46953  0.40924  0.07540  Biso   1.000  Hf
  Hf40     1.0000 0.47407  0.40630  0.57287  Biso   1.000  Hf
  Hf41     1.0000 0.47132  0.91205  0.08086  Biso   1.000  Hf
  Hf42     1.0000 0.46578  0.90918  0.58763  Biso   1.000  Hf
  Hf43     1.0000 0.44565  0.35251  0.31674  Biso   1.000  Hf
  Hf44     1.0000 0.46868  0.33728  0.82688  Biso   1.000  Hf
  Hf45     1.0000 0.46997  0.83298  0.33285  Biso   1.000  Hf
  Hf46     1.0000 0.46979  0.83516  0.83112  Biso   1.000  Hf
  Hf47     1.0000 0.28198  0.12764  0.30159  Biso   1.000  Hf
  Hf48     1.0000 0.27618  0.12404  0.78979  Biso   1.000  Hf
  Hf49     1.0000 0.27626  0.62029  0.29516  Biso   1.000  Hf
  Hf50     1.0000 0.27439  0.62346  0.79662  Biso   1.000  Hf
  Hf51     1.0000 0.28100  0.13222  0.02931  Biso   1.000  Hf
  Hf52     1.0000 0.27647  0.12456  0.54569  Biso   1.000  Hf
  Hf53     1.0000 0.27587  0.62049  0.04630  Biso   1.000  Hf
  Hf54     1.0000 0.27312  0.62801  0.54739  Biso   1.000  Hf
  Hf55     1.0000 0.21027  0.37163  0.29207  Biso   1.000  Hf
  Hf56     1.0000 0.22618  0.37537  0.79248  Biso   1.000  Hf
  Hf57     1.0000 0.23386  0.86215  0.30154  Biso   1.000  Hf
  Hf58     1.0000 0.22520  0.87420  0.79436  Biso   1.000  Hf
  Hf59     1.0000 0.22389  0.37851  0.04129  Biso   1.000  Hf
  Hf60     1.0000 0.22637  0.37723  0.54513  Biso   1.000  Hf
  Hf61     1.0000 0.24353  0.86055  0.03491  Biso   1.000  Hf
  Hf62     1.0000 0.22243  0.87584  0.54827  Biso   1.000  Hf
  Hf63     1.0000 0.52130  0.16039  0.15374  Biso   1.000  Hf
  Hf64     1.0000 0.53353  0.16389  0.66504  Biso   1.000  Hf
  Hf65     1.0000 0.53311  0.65848  0.16941  Biso   1.000  Hf
  Hf66     1.0000 0.52955  0.66045  0.67066  Biso   1.000  Hf
  Hf67     1.0000 0.53316  0.06374  0.42327  Biso   1.000  Hf
  Hf68     1.0000 0.53659  0.08193  0.91091  Biso   1.000  Hf
  Hf69     1.0000 0.53147  0.58731  0.42036  Biso   1.000  Hf
  Hf70     1.0000 0.53028  0.58817  0.91814  Biso   1.000  Hf
  Hf71     1.0000 0.97003  0.41705  0.16715  Biso   1.000  Hf
  Hf72     1.0000 0.96977  0.41481  0.66888  Biso   1.000  Hf
  Hf73     1.0000 0.94575  0.89730  0.18342  Biso   1.000  Hf
  Hf74     1.0000 0.96868  0.91269  0.67317  Biso   1.000  Hf
  Hf75     1.0000 0.97133  0.33797  0.41914  Biso   1.000  Hf
  Hf76     1.0000 0.96581  0.34078  0.91238  Biso   1.000  Hf
  Hf77     1.0000 0.96951  0.84079  0.42469  Biso   1.000  Hf
  Hf78     1.0000 0.97410  0.84374  0.92719  Biso   1.000  Hf
  Hf79     1.0000 0.77648  0.12544  0.95434  Biso   1.000  Hf
  Hf80     1.0000 0.78096  0.11782  0.47069  Biso   1.000  Hf
  Hf81     1.0000 0.77312  0.62200  0.95261  Biso   1.000  Hf
  Hf82     1.0000 0.77585  0.62955  0.45371  Biso   1.000  Hf
  Hf83     1.0000 0.78204  0.12230  0.19838  Biso   1.000  Hf
  Hf84     1.0000 0.77622  0.12598  0.71020  Biso   1.000  Hf
  Hf85     1.0000 0.77625  0.62970  0.20487  Biso   1.000  Hf
  Hf86     1.0000 0.77440  0.62655  0.70340  Biso   1.000  Hf
  Hf87     1.0000 0.72244  0.37414  0.95171  Biso   1.000  Hf
  Hf88     1.0000 0.74350  0.38946  0.46508  Biso   1.000  Hf
  Hf89     1.0000 0.72640  0.87275  0.95483  Biso   1.000  Hf
  Hf90     1.0000 0.72384  0.87151  0.45866  Biso   1.000  Hf
  Hf91     1.0000 0.73390  0.38786  0.19844  Biso   1.000  Hf
  Hf92     1.0000 0.72518  0.37580  0.70564  Biso   1.000  Hf
  Hf93     1.0000 0.71029  0.87835  0.20786  Biso   1.000  Hf
  Hf94     1.0000 0.72618  0.87464  0.70747  Biso   1.000  Hf
