data_image0
_cell_length_a       10.0306
_cell_length_b       10.4199
_cell_length_c       10.0991
_cell_angle_alpha    90.3736
_cell_angle_beta     90.5016
_cell_angle_gamma    89.9765

_symmetry_space_group_name_H-M    "P 1"
_symmetry_int_tables_number       1

loop_
  _symmetry_equiv_pos_as_xyz
  'x, y, z'

loop_
  _atom_site_label
  _atom_site_occupancy
  _atom_site_fract_x
  _atom_site_fract_y
  _atom_site_fract_z
  _atom_site_thermal_displace_type
  _atom_site_B_iso_or_equiv
  _atom_site_type_symbol
  La1      1.0000 0.12473  0.00556  0.11842  Biso   1.000  La
  Hf1      1.0000 0.13278  0.01792  0.62625  Biso   1.000  Hf
  Hf2      1.0000 0.13253  0.51429  0.12610  Biso   1.000  Hf
  Hf3      1.0000 0.13371  0.51593  0.62729  Biso   1.000  Hf
  La2      1.0000 0.62473  0.00556  0.11842  Biso   1.000  La
  Hf4      1.0000 0.63278  0.01792  0.62625  Biso   1.000  Hf
  Hf5      1.0000 0.63253  0.51429  0.12610  Biso   1.000  Hf
  Hf6      1.0000 0.63370  0.51592  0.62730  Biso   1.000  Hf
  Hf7      1.0000 0.13304  0.23371  0.37674  Biso   1.000  Hf
  Hf8      1.0000 0.13641  0.23726  0.87026  Biso   1.000  Hf
  Hf9      1.0000 0.13096  0.73056  0.38184  Biso   1.000  Hf
  Hf10     1.0000 0.13856  0.73136  0.87546  Biso   1.000  Hf
  Hf11     1.0000 0.63302  0.23371  0.37674  Biso   1.000  Hf
  Hf12     1.0000 0.63642  0.23727  0.87026  Biso   1.000  Hf
  Hf13     1.0000 0.63096  0.73057  0.38184  Biso   1.000  Hf
  Hf14     1.0000 0.63855  0.73136  0.87545  Biso   1.000  Hf
  Hf15     1.0000 0.36050  0.26721  0.12896  Biso   1.000  Hf
  Hf16     1.0000 0.36656  0.26750  0.62331  Biso   1.000  Hf
  Hf17     1.0000 0.36436  0.75904  0.13004  Biso   1.000  Hf
  Hf18     1.0000 0.36576  0.76560  0.62505  Biso   1.000  Hf
  Hf19     1.0000 0.86049  0.26721  0.12897  Biso   1.000  Hf
  Hf20     1.0000 0.86656  0.26750  0.62330  Biso   1.000  Hf
  Hf21     1.0000 0.86435  0.75903  0.13003  Biso   1.000  Hf
  Hf22     1.0000 0.86576  0.76560  0.62505  Biso   1.000  Hf
  Hf23     1.0000 0.36348  0.48264  0.37727  Biso   1.000  Hf
  Hf24     1.0000 0.36750  0.48198  0.87770  Biso   1.000  Hf
  Hf25     1.0000 0.36021  0.98327  0.38093  Biso   1.000  Hf
  Hf26     1.0000 0.36779  0.98402  0.86838  Biso   1.000  Hf
  Hf27     1.0000 0.86348  0.48265  0.37727  Biso   1.000  Hf
  Hf28     1.0000 0.86750  0.48199  0.87769  Biso   1.000  Hf
  Hf29     1.0000 0.86021  0.98327  0.38093  Biso   1.000  Hf
  Hf30     1.0000 0.86778  0.98402  0.86837  Biso   1.000  Hf
  Hf31     1.0000 0.03128  0.19773  0.19982  Biso   1.000  Hf
  Hf32     1.0000 0.04044  0.19028  0.68307  Biso   1.000  Hf
  Hf33     1.0000 0.03570  0.68240  0.19930  Biso   1.000  Hf
  Hf34     1.0000 0.03558  0.68381  0.69674  Biso   1.000  Hf
  Hf35     1.0000 0.53127  0.19773  0.19982  Biso   1.000  Hf
  Hf36     1.0000 0.54043  0.19027  0.68308  Biso   1.000  Hf
  Hf37     1.0000 0.53570  0.68241  0.19930  Biso   1.000  Hf
  Hf38     1.0000 0.53557  0.68380  0.69674  Biso   1.000  Hf
  Hf39     1.0000 0.03430  0.06460  0.44183  Biso   1.000  Hf
  Hf40     1.0000 0.03858  0.07262  0.91045  Biso   1.000  Hf
  Hf41     1.0000 0.03291  0.56452  0.44904  Biso   1.000  Hf
  Hf42     1.0000 0.03401  0.57053  0.94729  Biso   1.000  Hf
  Hf43     1.0000 0.53429  0.06460  0.44184  Biso   1.000  Hf
  Hf44     1.0000 0.53857  0.07264  0.91048  Biso   1.000  Hf
  Hf45     1.0000 0.53290  0.56454  0.44905  Biso   1.000  Hf
  Hf46     1.0000 0.53400  0.57053  0.94730  Biso   1.000  Hf
  Hf47     1.0000 0.46090  0.43744  0.19595  Biso   1.000  Hf
  Hf48     1.0000 0.46687  0.43406  0.69848  Biso   1.000  Hf
  Hf49     1.0000 0.43782  0.93101  0.20309  Biso   1.000  Hf
  Hf50     1.0000 0.46249  0.93334  0.69012  Biso   1.000  Hf
  Hf51     1.0000 0.96091  0.43743  0.19594  Biso   1.000  Hf
  Hf52     1.0000 0.96687  0.43406  0.69847  Biso   1.000  Hf
  Hf53     1.0000 0.93781  0.93101  0.20307  Biso   1.000  Hf
  Hf54     1.0000 0.96248  0.93334  0.69010  Biso   1.000  Hf
  Hf55     1.0000 0.46203  0.31769  0.44536  Biso   1.000  Hf
  Hf56     1.0000 0.46876  0.31970  0.94745  Biso   1.000  Hf
  Hf57     1.0000 0.46291  0.81488  0.44886  Biso   1.000  Hf
  Hf58     1.0000 0.48431  0.82803  0.95834  Biso   1.000  Hf
  Hf59     1.0000 0.96203  0.31770  0.44535  Biso   1.000  Hf
  Hf60     1.0000 0.96876  0.31970  0.94744  Biso   1.000  Hf
  Hf61     1.0000 0.96291  0.81489  0.44885  Biso   1.000  Hf
  Hf62     1.0000 0.98430  0.82803  0.95834  Biso   1.000  Hf
  Hf63     1.0000 0.27630  0.12759  0.25873  Biso   1.000  Hf
  Hf64     1.0000 0.27326  0.11935  0.74616  Biso   1.000  Hf
  Hf65     1.0000 0.26792  0.61222  0.25055  Biso   1.000  Hf
  Hf66     1.0000 0.27196  0.61687  0.75038  Biso   1.000  Hf
  Hf67     1.0000 0.77630  0.12760  0.25873  Biso   1.000  Hf
  Hf68     1.0000 0.77326  0.11935  0.74616  Biso   1.000  Hf
  Hf69     1.0000 0.76791  0.61221  0.25054  Biso   1.000  Hf
  Hf70     1.0000 0.77196  0.61687  0.75037  Biso   1.000  Hf
  Hf71     1.0000 0.26681  0.13219  0.50292  Biso   1.000  Hf
  Hf72     1.0000 0.27974  0.13686  0.99138  Biso   1.000  Hf
  Hf73     1.0000 0.26885  0.63119  0.50124  Biso   1.000  Hf
  Hf74     1.0000 0.27088  0.62705  0.00065  Biso   1.000  Hf
  Hf75     1.0000 0.76680  0.13219  0.50292  Biso   1.000  Hf
  Hf76     1.0000 0.77975  0.13685  0.99138  Biso   1.000  Hf
  Hf77     1.0000 0.76885  0.63120  0.50123  Biso   1.000  Hf
  Hf78     1.0000 0.77087  0.62705  0.00065  Biso   1.000  Hf
  Hf79     1.0000 0.22875  0.38321  0.50027  Biso   1.000  Hf
  Hf80     1.0000 0.23001  0.38316  0.99934  Biso   1.000  Hf
  Hf81     1.0000 0.22641  0.88184  0.50278  Biso   1.000  Hf
  Hf82     1.0000 0.24989  0.86753  0.98983  Biso   1.000  Hf
  Hf83     1.0000 0.72875  0.38323  0.50027  Biso   1.000  Hf
  Hf84     1.0000 0.73001  0.38315  0.99933  Biso   1.000  Hf
  Hf85     1.0000 0.72641  0.88185  0.50277  Biso   1.000  Hf
  Hf86     1.0000 0.74988  0.86752  0.98983  Biso   1.000  Hf
  Hf87     1.0000 0.22545  0.36990  0.25078  Biso   1.000  Hf
  Hf88     1.0000 0.23301  0.36939  0.74838  Biso   1.000  Hf
  Hf89     1.0000 0.23085  0.85094  0.25863  Biso   1.000  Hf
  Hf90     1.0000 0.22968  0.86768  0.74747  Biso   1.000  Hf
  Hf91     1.0000 0.72544  0.36990  0.25077  Biso   1.000  Hf
  Hf92     1.0000 0.73301  0.36938  0.74836  Biso   1.000  Hf
  Hf93     1.0000 0.73085  0.85093  0.25863  Biso   1.000  Hf
  Hf94     1.0000 0.72968  0.86767  0.74746  Biso   1.000  Hf
