data_image0
_cell_length_a       10.1808
_cell_length_b       10.3799
_cell_length_c       10.4174
_cell_angle_alpha    90.6401
_cell_angle_beta     81.1113
_cell_angle_gamma    89.8838

_symmetry_space_group_name_H-M    "P 1"
_symmetry_int_tables_number       1

loop_
  _symmetry_equiv_pos_as_xyz
  'x, y, z'

loop_
  _atom_site_label
  _atom_site_occupancy
  _atom_site_fract_x
  _atom_site_fract_y
  _atom_site_fract_z
  _atom_site_thermal_displace_type
  _atom_site_B_iso_or_equiv
  _atom_site_type_symbol
  La1      1.0000 0.12014  0.00397  0.13395  Biso   1.000  La
  Hf1      1.0000 0.13844  0.02142  0.64664  Biso   1.000  Hf
  Hf2      1.0000 0.13971  0.52271  0.14209  Biso   1.000  Hf
  Hf3      1.0000 0.13741  0.52047  0.64329  Biso   1.000  Hf
  Hf4      1.0000 0.64013  0.02073  0.14803  Biso   1.000  Hf
  Hf5      1.0000 0.63666  0.02163  0.64790  Biso   1.000  Hf
  Hf6      1.0000 0.64417  0.52226  0.14479  Biso   1.000  Hf
  Hf7      1.0000 0.63615  0.52104  0.64718  Biso   1.000  Hf
  La2      1.0000 0.12842  0.23444  0.38575  Biso   1.000  La
  Hf8      1.0000 0.13826  0.23354  0.89429  Biso   1.000  Hf
  Hf9      1.0000 0.13767  0.72697  0.39621  Biso   1.000  Hf
  Hf10     1.0000 0.13978  0.72933  0.89483  Biso   1.000  Hf
  Hf11     1.0000 0.63799  0.23232  0.39771  Biso   1.000  Hf
  Hf12     1.0000 0.64689  0.22765  0.89509  Biso   1.000  Hf
  Hf13     1.0000 0.64106  0.72511  0.39986  Biso   1.000  Hf
  Hf14     1.0000 0.64113  0.73043  0.89393  Biso   1.000  Hf
  Hf15     1.0000 0.37715  0.28614  0.07995  Biso   1.000  Hf
  Hf16     1.0000 0.36020  0.26963  0.60041  Biso   1.000  Hf
  Hf17     1.0000 0.36787  0.76872  0.10268  Biso   1.000  Hf
  Hf18     1.0000 0.35846  0.76825  0.60822  Biso   1.000  Hf
  Hf19     1.0000 0.86139  0.27404  0.10577  Biso   1.000  Hf
  Hf20     1.0000 0.85628  0.26964  0.60964  Biso   1.000  Hf
  Hf21     1.0000 0.85475  0.76660  0.10495  Biso   1.000  Hf
  Hf22     1.0000 0.86260  0.77014  0.60583  Biso   1.000  Hf
  Hf23     1.0000 0.36577  0.48086  0.34956  Biso   1.000  Hf
  Hf24     1.0000 0.36028  0.48350  0.84663  Biso   1.000  Hf
  Hf25     1.0000 0.37152  0.96394  0.36400  Biso   1.000  Hf
  Hf26     1.0000 0.36517  0.98016  0.85313  Biso   1.000  Hf
  Hf27     1.0000 0.85952  0.48183  0.35584  Biso   1.000  Hf
  Hf28     1.0000 0.86380  0.47931  0.85243  Biso   1.000  Hf
  Hf29     1.0000 0.85030  0.97550  0.36036  Biso   1.000  Hf
  Hf30     1.0000 0.86428  0.97718  0.85724  Biso   1.000  Hf
  Hf31     1.0000 0.04303  0.19985  0.08727  Biso   1.000  Hf
  Hf32     1.0000 0.03061  0.17330  0.60165  Biso   1.000  Hf
  Hf33     1.0000 0.04148  0.68389  0.08983  Biso   1.000  Hf
  Hf34     1.0000 0.03852  0.67315  0.58380  Biso   1.000  Hf
  Hf35     1.0000 0.53693  0.17144  0.07983  Biso   1.000  Hf
  Hf36     1.0000 0.53446  0.17022  0.58159  Biso   1.000  Hf
  Hf37     1.0000 0.54300  0.67429  0.08215  Biso   1.000  Hf
  Hf38     1.0000 0.53527  0.66909  0.58391  Biso   1.000  Hf
  Hf39     1.0000 0.02778  0.05071  0.34601  Biso   1.000  Hf
  Hf40     1.0000 0.04279  0.07045  0.84525  Biso   1.000  Hf
  Hf41     1.0000 0.04484  0.56547  0.33664  Biso   1.000  Hf
  Hf42     1.0000 0.03925  0.57502  0.83484  Biso   1.000  Hf
  Hf43     1.0000 0.53447  0.07949  0.33205  Biso   1.000  Hf
  Hf44     1.0000 0.53766  0.08338  0.83081  Biso   1.000  Hf
  Hf45     1.0000 0.53895  0.57924  0.33161  Biso   1.000  Hf
  Hf46     1.0000 0.53498  0.58233  0.83114  Biso   1.000  Hf
  Hf47     1.0000 0.47432  0.42605  0.16322  Biso   1.000  Hf
  Hf48     1.0000 0.46141  0.42067  0.66631  Biso   1.000  Hf
  Hf49     1.0000 0.45846  0.92872  0.16949  Biso   1.000  Hf
  Hf50     1.0000 0.46299  0.92034  0.66944  Biso   1.000  Hf
  Hf51     1.0000 0.96004  0.43152  0.16574  Biso   1.000  Hf
  Hf52     1.0000 0.96092  0.42528  0.66376  Biso   1.000  Hf
  Hf53     1.0000 0.91765  0.93331  0.16476  Biso   1.000  Hf
  Hf54     1.0000 0.96411  0.92056  0.67082  Biso   1.000  Hf
  Hf55     1.0000 0.46120  0.32639  0.41319  Biso   1.000  Hf
  Hf56     1.0000 0.47461  0.33952  0.91106  Biso   1.000  Hf
  Hf57     1.0000 0.46505  0.82349  0.42629  Biso   1.000  Hf
  Hf58     1.0000 0.47373  0.83481  0.91874  Biso   1.000  Hf
  Hf59     1.0000 0.93295  0.32312  0.42278  Biso   1.000  Hf
  Hf60     1.0000 0.95956  0.32509  0.91173  Biso   1.000  Hf
  Hf61     1.0000 0.95516  0.81598  0.41356  Biso   1.000  Hf
  Hf62     1.0000 0.96418  0.82651  0.92116  Biso   1.000  Hf
  Hf63     1.0000 0.27530  0.12991  0.74021  Biso   1.000  Hf
  Hf64     1.0000 0.27691  0.62745  0.23781  Biso   1.000  Hf
  Hf65     1.0000 0.27447  0.62852  0.73987  Biso   1.000  Hf
  Hf66     1.0000 0.77100  0.13429  0.24530  Biso   1.000  Hf
  Hf67     1.0000 0.77635  0.12711  0.74505  Biso   1.000  Hf
  Hf68     1.0000 0.77782  0.63057  0.24375  Biso   1.000  Hf
  Hf69     1.0000 0.77677  0.62925  0.74095  Biso   1.000  Hf
  Hf70     1.0000 0.28175  0.11131  0.48811  Biso   1.000  Hf
  Hf71     1.0000 0.28673  0.12996  0.98936  Biso   1.000  Hf
  Hf72     1.0000 0.27743  0.62316  0.48864  Biso   1.000  Hf
  Hf73     1.0000 0.27711  0.62080  0.98938  Biso   1.000  Hf
  Hf74     1.0000 0.77004  0.11866  0.49640  Biso   1.000  Hf
  Hf75     1.0000 0.77778  0.12075  0.99396  Biso   1.000  Hf
  Hf76     1.0000 0.77563  0.61858  0.49404  Biso   1.000  Hf
  Hf77     1.0000 0.77822  0.61990  0.98978  Biso   1.000  Hf
  Hf78     1.0000 0.22754  0.38640  0.99635  Biso   1.000  Hf
  Hf79     1.0000 0.23220  0.38894  0.50770  Biso   1.000  Hf
  Hf80     1.0000 0.24195  0.86653  0.99479  Biso   1.000  Hf
  Hf81     1.0000 0.22269  0.87471  0.51298  Biso   1.000  Hf
  Hf82     1.0000 0.72669  0.38065  0.00839  Biso   1.000  Hf
  Hf83     1.0000 0.71041  0.38045  0.51375  Biso   1.000  Hf
  Hf84     1.0000 0.72365  0.87920  0.00846  Biso   1.000  Hf
  Hf85     1.0000 0.72185  0.87664  0.51409  Biso   1.000  Hf
  Hf86     1.0000 0.24422  0.37123  0.23505  Biso   1.000  Hf
  Hf87     1.0000 0.22268  0.36984  0.75412  Biso   1.000  Hf
  Hf88     1.0000 0.23651  0.86294  0.26549  Biso   1.000  Hf
  Hf89     1.0000 0.22429  0.86969  0.75866  Biso   1.000  Hf
  Hf90     1.0000 0.72473  0.37422  0.25963  Biso   1.000  Hf
  Hf91     1.0000 0.72466  0.36963  0.76039  Biso   1.000  Hf
  Hf92     1.0000 0.70422  0.86566  0.26503  Biso   1.000  Hf
  Hf93     1.0000 0.72675  0.87085  0.75993  Biso   1.000  Hf
