data_image0
_cell_length_a       10.2092
_cell_length_b       10.3652
_cell_length_c       10.4865
_cell_angle_alpha    89.9924
_cell_angle_beta     80.5303
_cell_angle_gamma    90.2822

_symmetry_space_group_name_H-M    "P 1"
_symmetry_int_tables_number       1

loop_
  _symmetry_equiv_pos_as_xyz
  'x, y, z'

loop_
  _atom_site_label
  _atom_site_occupancy
  _atom_site_fract_x
  _atom_site_fract_y
  _atom_site_fract_z
  _atom_site_thermal_displace_type
  _atom_site_B_iso_or_equiv
  _atom_site_type_symbol
  La1      1.0000 0.13281  0.01360  0.14263  Biso   1.000  La
  Hf1      1.0000 0.13850  0.02109  0.64544  Biso   1.000  Hf
  Hf2      1.0000 0.13788  0.52095  0.14489  Biso   1.000  Hf
  Hf3      1.0000 0.14083  0.52225  0.64631  Biso   1.000  Hf
  Hf4      1.0000 0.63817  0.02055  0.14514  Biso   1.000  Hf
  Hf5      1.0000 0.64626  0.02167  0.64154  Biso   1.000  Hf
  Hf6      1.0000 0.63893  0.51841  0.14851  Biso   1.000  Hf
  Hf7      1.0000 0.63902  0.52065  0.64469  Biso   1.000  Hf
  Hf8      1.0000 0.13953  0.22794  0.39757  Biso   1.000  Hf
  Hf9      1.0000 0.13287  0.23735  0.89452  Biso   1.000  Hf
  Hf10     1.0000 0.13984  0.72718  0.39670  Biso   1.000  Hf
  Hf11     1.0000 0.14079  0.72801  0.89356  Biso   1.000  Hf
  Hf12     1.0000 0.63625  0.22911  0.39681  Biso   1.000  Hf
  Hf13     1.0000 0.64353  0.23390  0.89732  Biso   1.000  Hf
  Hf14     1.0000 0.63644  0.72658  0.39630  Biso   1.000  Hf
  Hf15     1.0000 0.64432  0.72632  0.89508  Biso   1.000  Hf
  Hf16     1.0000 0.35921  0.27199  0.10645  Biso   1.000  Hf
  Hf17     1.0000 0.36015  0.27283  0.60331  Biso   1.000  Hf
  Hf18     1.0000 0.36713  0.76264  0.10551  Biso   1.000  Hf
  Hf19     1.0000 0.36046  0.77206  0.60246  Biso   1.000  Hf
  Hf20     1.0000 0.85567  0.27368  0.10490  Biso   1.000  Hf
  Hf21     1.0000 0.86356  0.27342  0.60369  Biso   1.000  Hf
  Hf22     1.0000 0.85646  0.76612  0.10267  Biso   1.000  Hf
  Hf23     1.0000 0.86375  0.77088  0.60318  Biso   1.000  Hf
  Hf24     1.0000 0.35918  0.47774  0.35371  Biso   1.000  Hf
  Hf25     1.0000 0.36214  0.47906  0.85513  Biso   1.000  Hf
  Hf26     1.0000 0.36151  0.97890  0.35459  Biso   1.000  Hf
  La2      1.0000 0.36720  0.98640  0.85739  Biso   1.000  La
  Hf27     1.0000 0.86097  0.47936  0.35529  Biso   1.000  Hf
  Hf28     1.0000 0.86107  0.48158  0.85149  Biso   1.000  Hf
  Hf29     1.0000 0.85373  0.97836  0.35841  Biso   1.000  Hf
  Hf30     1.0000 0.86183  0.97944  0.85485  Biso   1.000  Hf
  Hf31     1.0000 0.02744  0.18817  0.07668  Biso   1.000  Hf
  Hf32     1.0000 0.03676  0.17249  0.58305  Biso   1.000  Hf
  Hf33     1.0000 0.03329  0.66841  0.07977  Biso   1.000  Hf
  Hf34     1.0000 0.03660  0.66982  0.58093  Biso   1.000  Hf
  Hf35     1.0000 0.53419  0.16857  0.07864  Biso   1.000  Hf
  Hf36     1.0000 0.53313  0.16739  0.58116  Biso   1.000  Hf
  Hf37     1.0000 0.54266  0.66607  0.08456  Biso   1.000  Hf
  Hf38     1.0000 0.53392  0.66536  0.57958  Biso   1.000  Hf
  Hf39     1.0000 0.02333  0.08524  0.34618  Biso   1.000  Hf
  Hf40     1.0000 0.03741  0.07765  0.83562  Biso   1.000  Hf
  Hf41     1.0000 0.03408  0.58285  0.32987  Biso   1.000  Hf
  Hf42     1.0000 0.03568  0.58061  0.82828  Biso   1.000  Hf
  Hf43     1.0000 0.53624  0.07964  0.33045  Biso   1.000  Hf
  Hf44     1.0000 0.56555  0.08139  0.82365  Biso   1.000  Hf
  Hf45     1.0000 0.53385  0.57879  0.33226  Biso   1.000  Hf
  Hf46     1.0000 0.54044  0.57602  0.83028  Biso   1.000  Hf
  Hf47     1.0000 0.46436  0.41932  0.17178  Biso   1.000  Hf
  Hf48     1.0000 0.46595  0.41708  0.67019  Biso   1.000  Hf
  Hf49     1.0000 0.46261  0.92229  0.16443  Biso   1.000  Hf
  Hf50     1.0000 0.47669  0.91469  0.65388  Biso   1.000  Hf
  Hf51     1.0000 0.95956  0.42402  0.16967  Biso   1.000  Hf
  Hf52     1.0000 0.96612  0.42128  0.66769  Biso   1.000  Hf
  Hf53     1.0000 0.93438  0.91875  0.17623  Biso   1.000  Hf
  Hf54     1.0000 0.96375  0.92041  0.66950  Biso   1.000  Hf
  Hf55     1.0000 0.46344  0.33022  0.41911  Biso   1.000  Hf
  Hf56     1.0000 0.46674  0.33166  0.92031  Biso   1.000  Hf
  Hf57     1.0000 0.46328  0.82755  0.41699  Biso   1.000  Hf
  Hf58     1.0000 0.47258  0.81189  0.92337  Biso   1.000  Hf
  Hf59     1.0000 0.96605  0.33460  0.42038  Biso   1.000  Hf
  Hf60     1.0000 0.95731  0.33386  0.91538  Biso   1.000  Hf
  Hf61     1.0000 0.96683  0.83257  0.41877  Biso   1.000  Hf
  Hf62     1.0000 0.96578  0.83137  0.92130  Biso   1.000  Hf
  Hf63     1.0000 0.28289  0.13559  0.25045  Biso   1.000  Hf
  Hf64     1.0000 0.26309  0.14153  0.73458  Biso   1.000  Hf
  Hf65     1.0000 0.27559  0.62213  0.24046  Biso   1.000  Hf
  Hf66     1.0000 0.27925  0.62861  0.74084  Biso   1.000  Hf
  Hf67     1.0000 0.77204  0.13080  0.24227  Biso   1.000  Hf
  Hf68     1.0000 0.79027  0.13053  0.73712  Biso   1.000  Hf
  Hf69     1.0000 0.77390  0.62857  0.24211  Biso   1.000  Hf
  Hf70     1.0000 0.77775  0.62841  0.73733  Biso   1.000  Hf
  Hf71     1.0000 0.27507  0.11965  0.49168  Biso   1.000  Hf
  Hf72     1.0000 0.26994  0.14667  0.99162  Biso   1.000  Hf
  Hf73     1.0000 0.27558  0.62042  0.49055  Biso   1.000  Hf
  Hf74     1.0000 0.27634  0.61571  0.99131  Biso   1.000  Hf
  Hf75     1.0000 0.77269  0.12305  0.49125  Biso   1.000  Hf
  Hf76     1.0000 0.77511  0.12164  0.99155  Biso   1.000  Hf
  Hf77     1.0000 0.77573  0.62108  0.49020  Biso   1.000  Hf
  Hf78     1.0000 0.77798  0.61841  0.98972  Biso   1.000  Hf
  Hf79     1.0000 0.22366  0.38426  0.00871  Biso   1.000  Hf
  Hf80     1.0000 0.22441  0.37954  0.50947  Biso   1.000  Hf
  Hf81     1.0000 0.23006  0.85330  0.00841  Biso   1.000  Hf
  Hf82     1.0000 0.22493  0.88031  0.50834  Biso   1.000  Hf
  Hf83     1.0000 0.72202  0.38162  0.01027  Biso   1.000  Hf
  Hf84     1.0000 0.72428  0.37896  0.50979  Biso   1.000  Hf
  Hf85     1.0000 0.72487  0.87839  0.00843  Biso   1.000  Hf
  Hf86     1.0000 0.72733  0.87699  0.50873  Biso   1.000  Hf
  Hf87     1.0000 0.22077  0.37142  0.25918  Biso   1.000  Hf
  Hf88     1.0000 0.22441  0.37788  0.75958  Biso   1.000  Hf
  Hf89     1.0000 0.23693  0.85849  0.26544  Biso   1.000  Hf
  Hf90     1.0000 0.21710  0.86442  0.74957  Biso   1.000  Hf
  Hf91     1.0000 0.72225  0.37156  0.26265  Biso   1.000  Hf
  Hf92     1.0000 0.72611  0.37141  0.75787  Biso   1.000  Hf
  Hf93     1.0000 0.70972  0.86942  0.26284  Biso   1.000  Hf
  Hf94     1.0000 0.72795  0.86920  0.75770  Biso   1.000  Hf
