data_image0
_cell_length_a       10.063
_cell_length_b       10.4026
_cell_length_c       10.1006
_cell_angle_alpha    90.3115
_cell_angle_beta     89.9704
_cell_angle_gamma    90.0033

_symmetry_space_group_name_H-M    "P 1"
_symmetry_int_tables_number       1

loop_
  _symmetry_equiv_pos_as_xyz
  'x, y, z'

loop_
  _atom_site_label
  _atom_site_occupancy
  _atom_site_fract_x
  _atom_site_fract_y
  _atom_site_fract_z
  _atom_site_thermal_displace_type
  _atom_site_B_iso_or_equiv
  _atom_site_type_symbol
  La1      1.0000 0.12431  0.00680  0.12016  Biso   1.000  La
  Hf1      1.0000 0.12923  0.01234  0.62357  Biso   1.000  Hf
  Hf2      1.0000 0.13291  0.51521  0.12325  Biso   1.000  Hf
  Hf3      1.0000 0.13576  0.51577  0.62605  Biso   1.000  Hf
  Hf4      1.0000 0.63311  0.01395  0.12534  Biso   1.000  Hf
  Hf5      1.0000 0.63837  0.01497  0.62923  Biso   1.000  Hf
  Hf6      1.0000 0.63244  0.51668  0.12431  Biso   1.000  Hf
  Hf7      1.0000 0.63723  0.51748  0.62667  Biso   1.000  Hf
  Hf8      1.0000 0.13097  0.23572  0.37368  Biso   1.000  Hf
  Hf9      1.0000 0.13584  0.23648  0.86938  Biso   1.000  Hf
  Hf10     1.0000 0.13349  0.73176  0.37663  Biso   1.000  Hf
  Hf11     1.0000 0.13780  0.73261  0.87459  Biso   1.000  Hf
  Hf12     1.0000 0.63514  0.23258  0.37100  Biso   1.000  Hf
  Hf13     1.0000 0.64013  0.23271  0.88171  Biso   1.000  Hf
  Hf14     1.0000 0.63085  0.73175  0.37935  Biso   1.000  Hf
  Hf15     1.0000 0.63684  0.73286  0.87595  Biso   1.000  Hf
  Hf16     1.0000 0.36518  0.26563  0.12587  Biso   1.000  Hf
  La2      1.0000 0.37630  0.25614  0.61794  Biso   1.000  La
  Hf17     1.0000 0.36968  0.76298  0.12389  Biso   1.000  Hf
  Hf18     1.0000 0.36565  0.76633  0.62387  Biso   1.000  Hf
  Hf19     1.0000 0.86355  0.26963  0.12588  Biso   1.000  Hf
  Hf20     1.0000 0.86638  0.26641  0.62442  Biso   1.000  Hf
  Hf21     1.0000 0.86097  0.76323  0.12911  Biso   1.000  Hf
  Hf22     1.0000 0.86769  0.76367  0.62565  Biso   1.000  Hf
  Hf23     1.0000 0.36337  0.48614  0.36916  Biso   1.000  Hf
  Hf24     1.0000 0.36582  0.48362  0.87722  Biso   1.000  Hf
  Hf25     1.0000 0.36305  0.98352  0.37418  Biso   1.000  Hf
  Hf26     1.0000 0.36966  0.98392  0.87340  Biso   1.000  Hf
  Hf27     1.0000 0.86386  0.48398  0.37661  Biso   1.000  Hf
  Hf28     1.0000 0.86793  0.48312  0.87470  Biso   1.000  Hf
  Hf29     1.0000 0.85777  0.98150  0.38036  Biso   1.000  Hf
  Hf30     1.0000 0.86542  0.98147  0.87523  Biso   1.000  Hf
  Hf31     1.0000 0.02606  0.19592  0.20326  Biso   1.000  Hf
  Hf32     1.0000 0.03983  0.18947  0.68289  Biso   1.000  Hf
  Hf33     1.0000 0.03406  0.68556  0.19598  Biso   1.000  Hf
  Hf34     1.0000 0.03518  0.68224  0.69723  Biso   1.000  Hf
  Hf35     1.0000 0.53965  0.18452  0.18852  Biso   1.000  Hf
  Hf36     1.0000 0.55743  0.17605  0.70954  Biso   1.000  Hf
  Hf37     1.0000 0.53337  0.68107  0.20052  Biso   1.000  Hf
  Hf38     1.0000 0.53783  0.68770  0.69541  Biso   1.000  Hf
  Hf39     1.0000 0.02429  0.06761  0.44281  Biso   1.000  Hf
  Hf40     1.0000 0.02852  0.07743  0.92111  Biso   1.000  Hf
  Hf41     1.0000 0.03125  0.56823  0.44657  Biso   1.000  Hf
  Hf42     1.0000 0.03499  0.56913  0.94464  Biso   1.000  Hf
  Hf43     1.0000 0.52517  0.07542  0.45676  Biso   1.000  Hf
  Hf44     1.0000 0.53925  0.06477  0.94616  Biso   1.000  Hf
  Hf45     1.0000 0.53125  0.56801  0.44954  Biso   1.000  Hf
  Hf46     1.0000 0.53435  0.57079  0.94852  Biso   1.000  Hf
  Hf47     1.0000 0.46045  0.43830  0.18431  Biso   1.000  Hf
  Hf48     1.0000 0.47401  0.44563  0.70531  Biso   1.000  Hf
  Hf49     1.0000 0.46311  0.93540  0.19397  Biso   1.000  Hf
  Hf50     1.0000 0.46551  0.93466  0.69511  Biso   1.000  Hf
  Hf51     1.0000 0.96147  0.43926  0.19561  Biso   1.000  Hf
  Hf52     1.0000 0.96368  0.43508  0.69367  Biso   1.000  Hf
  Hf53     1.0000 0.93962  0.92657  0.20700  Biso   1.000  Hf
  Hf54     1.0000 0.96232  0.92975  0.69551  Biso   1.000  Hf
  Hf55     1.0000 0.46700  0.32401  0.41403  Biso   1.000  Hf
  Hf56     1.0000 0.46905  0.31774  0.94228  Biso   1.000  Hf
  Hf57     1.0000 0.46628  0.82049  0.44773  Biso   1.000  Hf
  Hf58     1.0000 0.47520  0.81902  0.94858  Biso   1.000  Hf
  Hf59     1.0000 0.96034  0.31899  0.44423  Biso   1.000  Hf
  Hf60     1.0000 0.96735  0.32049  0.94812  Biso   1.000  Hf
  Hf61     1.0000 0.96538  0.81630  0.44973  Biso   1.000  Hf
  Hf62     1.0000 0.97591  0.82422  0.95702  Biso   1.000  Hf
  Hf63     1.0000 0.27996  0.12770  0.25262  Biso   1.000  Hf
  Hf64     1.0000 0.25776  0.10397  0.75224  Biso   1.000  Hf
  Hf65     1.0000 0.26611  0.61450  0.24592  Biso   1.000  Hf
  Hf66     1.0000 0.27344  0.61903  0.74834  Biso   1.000  Hf
  Hf67     1.0000 0.76587  0.11551  0.25221  Biso   1.000  Hf
  Hf68     1.0000 0.78235  0.11635  0.75063  Biso   1.000  Hf
  Hf69     1.0000 0.76746  0.61702  0.25010  Biso   1.000  Hf
  Hf70     1.0000 0.77182  0.61719  0.74931  Biso   1.000  Hf
  Hf71     1.0000 0.25249  0.11951  0.49019  Biso   1.000  Hf
  Hf72     1.0000 0.27782  0.13900  0.98965  Biso   1.000  Hf
  Hf73     1.0000 0.26875  0.63340  0.49819  Biso   1.000  Hf
  Hf74     1.0000 0.27025  0.63008  0.99887  Biso   1.000  Hf
  Hf75     1.0000 0.76468  0.13187  0.50196  Biso   1.000  Hf
  Hf76     1.0000 0.77359  0.13092  0.00302  Biso   1.000  Hf
  Hf77     1.0000 0.76955  0.63212  0.49913  Biso   1.000  Hf
  Hf78     1.0000 0.77058  0.63161  0.99819  Biso   1.000  Hf
  Hf79     1.0000 0.22377  0.38888  0.48977  Biso   1.000  Hf
  Hf80     1.0000 0.23161  0.38221  0.99966  Biso   1.000  Hf
  Hf81     1.0000 0.22817  0.87965  0.49868  Biso   1.000  Hf
  Hf82     1.0000 0.24581  0.87152  0.98814  Biso   1.000  Hf
  Hf83     1.0000 0.72636  0.38204  0.49954  Biso   1.000  Hf
  Hf84     1.0000 0.73196  0.38515  0.99992  Biso   1.000  Hf
  Hf85     1.0000 0.72813  0.87917  0.50206  Biso   1.000  Hf
  Hf86     1.0000 0.73323  0.87972  0.00098  Biso   1.000  Hf
  Hf87     1.0000 0.22583  0.36904  0.24536  Biso   1.000  Hf
  Hf88     1.0000 0.22308  0.37847  0.75303  Biso   1.000  Hf
  Hf89     1.0000 0.24241  0.85460  0.25542  Biso   1.000  Hf
  Hf90     1.0000 0.23004  0.86316  0.74460  Biso   1.000  Hf
  Hf91     1.0000 0.72834  0.36880  0.24902  Biso   1.000  Hf
  Hf92     1.0000 0.73392  0.36645  0.75149  Biso   1.000  Hf
  Hf93     1.0000 0.71609  0.86431  0.25151  Biso   1.000  Hf
  Hf94     1.0000 0.73119  0.86615  0.75062  Biso   1.000  Hf
