data_image0
_cell_length_a       10.1187
_cell_length_b       10.3512
_cell_length_c       10.4015
_cell_angle_alpha    90.6204
_cell_angle_beta     90.6327
_cell_angle_gamma    89.9812

_symmetry_space_group_name_H-M    "P 1"
_symmetry_int_tables_number       1

loop_
  _symmetry_equiv_pos_as_xyz
  'x, y, z'

loop_
  _atom_site_label
  _atom_site_occupancy
  _atom_site_fract_x
  _atom_site_fract_y
  _atom_site_fract_z
  _atom_site_thermal_displace_type
  _atom_site_B_iso_or_equiv
  _atom_site_type_symbol
  La1      1.0000 0.11641  0.99850  0.14489  Biso   1.000  La
  Hf1      1.0000 0.13781  0.02238  0.67283  Biso   1.000  Hf
  Hf2      1.0000 0.13836  0.52566  0.16747  Biso   1.000  Hf
  Hf3      1.0000 0.13749  0.51992  0.66735  Biso   1.000  Hf
  La2      1.0000 0.13027  0.23275  0.40297  Biso   1.000  La
  Hf4      1.0000 0.13990  0.23593  0.92046  Biso   1.000  Hf
  Hf5      1.0000 0.13732  0.73100  0.42000  Biso   1.000  Hf
  Hf6      1.0000 0.14090  0.72951  0.91863  Biso   1.000  Hf
  Hf7      1.0000 0.37506  0.28555  0.15481  Biso   1.000  Hf
  Hf8      1.0000 0.36134  0.26953  0.66756  Biso   1.000  Hf
  Hf9      1.0000 0.36920  0.76932  0.17191  Biso   1.000  Hf
  Hf10     1.0000 0.35881  0.76727  0.67470  Biso   1.000  Hf
  Hf11     1.0000 0.36174  0.48249  0.41978  Biso   1.000  Hf
  Hf12     1.0000 0.36174  0.48303  0.91377  Biso   1.000  Hf
  Hf13     1.0000 0.37233  0.96372  0.43717  Biso   1.000  Hf
  Hf14     1.0000 0.36862  0.98146  0.92118  Biso   1.000  Hf
  Hf15     1.0000 0.64439  0.01923  0.08267  Biso   1.000  Hf
  Hf16     1.0000 0.64228  0.01981  0.58446  Biso   1.000  Hf
  Hf17     1.0000 0.64474  0.52291  0.07567  Biso   1.000  Hf
  Hf18     1.0000 0.63740  0.51797  0.57923  Biso   1.000  Hf
  Hf19     1.0000 0.63586  0.22957  0.33296  Biso   1.000  Hf
  Hf20     1.0000 0.63860  0.22902  0.83115  Biso   1.000  Hf
  Hf21     1.0000 0.64092  0.72583  0.33171  Biso   1.000  Hf
  Hf22     1.0000 0.63870  0.72938  0.82608  Biso   1.000  Hf
  Hf23     1.0000 0.86146  0.27374  0.08013  Biso   1.000  Hf
  Hf24     1.0000 0.85783  0.26947  0.58414  Biso   1.000  Hf
  Hf25     1.0000 0.85600  0.76702  0.07854  Biso   1.000  Hf
  Hf26     1.0000 0.86323  0.76953  0.58003  Biso   1.000  Hf
  Hf27     1.0000 0.85901  0.48202  0.32965  Biso   1.000  Hf
  Hf28     1.0000 0.86347  0.47900  0.82746  Biso   1.000  Hf
  Hf29     1.0000 0.84983  0.97800  0.33242  Biso   1.000  Hf
  Hf30     1.0000 0.86407  0.97897  0.83390  Biso   1.000  Hf
  Hf31     1.0000 0.04158  0.19932  0.09493  Biso   1.000  Hf
  Hf32     1.0000 0.02897  0.17085  0.60370  Biso   1.000  Hf
  Hf33     1.0000 0.04192  0.69023  0.09779  Biso   1.000  Hf
  Hf34     1.0000 0.03734  0.67231  0.58812  Biso   1.000  Hf
  Hf35     1.0000 0.02610  0.05366  0.34274  Biso   1.000  Hf
  Hf36     1.0000 0.04135  0.07303  0.85233  Biso   1.000  Hf
  Hf37     1.0000 0.03971  0.57222  0.34197  Biso   1.000  Hf
  Hf38     1.0000 0.03753  0.57701  0.84029  Biso   1.000  Hf
  Hf39     1.0000 0.47278  0.42176  0.07672  Biso   1.000  Hf
  Hf40     1.0000 0.46687  0.41552  0.58473  Biso   1.000  Hf
  Hf41     1.0000 0.47106  0.92166  0.08972  Biso   1.000  Hf
  Hf42     1.0000 0.47260  0.90871  0.59103  Biso   1.000  Hf
  Hf43     1.0000 0.45835  0.32335  0.33571  Biso   1.000  Hf
  Hf44     1.0000 0.46582  0.33165  0.83444  Biso   1.000  Hf
  Hf45     1.0000 0.47070  0.82334  0.34151  Biso   1.000  Hf
  Hf46     1.0000 0.46843  0.83356  0.83490  Biso   1.000  Hf
  Hf47     1.0000 0.27614  0.12590  0.79355  Biso   1.000  Hf
  Hf48     1.0000 0.27350  0.63107  0.29369  Biso   1.000  Hf
  Hf49     1.0000 0.27560  0.62428  0.79215  Biso   1.000  Hf
  Hf50     1.0000 0.28647  0.13531  0.04439  Biso   1.000  Hf
  Hf51     1.0000 0.28172  0.11804  0.54166  Biso   1.000  Hf
  Hf52     1.0000 0.27583  0.62153  0.04325  Biso   1.000  Hf
  Hf53     1.0000 0.27579  0.62676  0.54258  Biso   1.000  Hf
  Hf54     1.0000 0.24059  0.38650  0.27477  Biso   1.000  Hf
  Hf55     1.0000 0.22462  0.37472  0.78926  Biso   1.000  Hf
  Hf56     1.0000 0.23831  0.87931  0.30113  Biso   1.000  Hf
  Hf57     1.0000 0.22445  0.87404  0.79394  Biso   1.000  Hf
  Hf58     1.0000 0.22731  0.38315  0.03438  Biso   1.000  Hf
  Hf59     1.0000 0.22907  0.38361  0.54455  Biso   1.000  Hf
  Hf60     1.0000 0.24935  0.85973  0.03134  Biso   1.000  Hf
  Hf61     1.0000 0.22421  0.87219  0.54986  Biso   1.000  Hf
  Hf62     1.0000 0.53508  0.16881  0.16348  Biso   1.000  Hf
  Hf63     1.0000 0.53443  0.16549  0.66546  Biso   1.000  Hf
  Hf64     1.0000 0.53549  0.66281  0.16477  Biso   1.000  Hf
  Hf65     1.0000 0.53203  0.66507  0.66467  Biso   1.000  Hf
  Hf66     1.0000 0.53078  0.07900  0.41564  Biso   1.000  Hf
  Hf67     1.0000 0.54045  0.08144  0.91523  Biso   1.000  Hf
  Hf68     1.0000 0.53457  0.57756  0.41312  Biso   1.000  Hf
  Hf69     1.0000 0.53550  0.58484  0.91290  Biso   1.000  Hf
  Hf70     1.0000 0.96015  0.43271  0.15777  Biso   1.000  Hf
  Hf71     1.0000 0.96269  0.42399  0.65876  Biso   1.000  Hf
  Hf72     1.0000 0.91256  0.93777  0.14516  Biso   1.000  Hf
  Hf73     1.0000 0.96516  0.91964  0.66553  Biso   1.000  Hf
  Hf74     1.0000 0.93938  0.32814  0.41375  Biso   1.000  Hf
  Hf75     1.0000 0.96236  0.32800  0.90632  Biso   1.000  Hf
  Hf76     1.0000 0.95817  0.82017  0.40530  Biso   1.000  Hf
  Hf77     1.0000 0.96823  0.82975  0.91583  Biso   1.000  Hf
  Hf78     1.0000 0.77958  0.12528  0.95950  Biso   1.000  Hf
  Hf79     1.0000 0.76986  0.12217  0.46172  Biso   1.000  Hf
  Hf80     1.0000 0.77702  0.62372  0.95303  Biso   1.000  Hf
  Hf81     1.0000 0.77587  0.62114  0.45680  Biso   1.000  Hf
  Hf82     1.0000 0.77248  0.13158  0.21259  Biso   1.000  Hf
  Hf83     1.0000 0.77523  0.12408  0.71134  Biso   1.000  Hf
  Hf84     1.0000 0.77727  0.62750  0.20470  Biso   1.000  Hf
  Hf85     1.0000 0.77658  0.62627  0.70461  Biso   1.000  Hf
  Hf86     1.0000 0.72566  0.37599  0.95492  Biso   1.000  Hf
  Hf87     1.0000 0.71221  0.37314  0.45787  Biso   1.000  Hf
  Hf88     1.0000 0.72424  0.87301  0.95469  Biso   1.000  Hf
  Hf89     1.0000 0.72314  0.87147  0.46133  Biso   1.000  Hf
  Hf90     1.0000 0.72176  0.37845  0.20672  Biso   1.000  Hf
  Hf91     1.0000 0.72422  0.37454  0.70739  Biso   1.000  Hf
  Hf92     1.0000 0.70592  0.87098  0.21186  Biso   1.000  Hf
  Hf93     1.0000 0.72666  0.87536  0.70768  Biso   1.000  Hf
