data_image0
_cell_length_a       10.2097
_cell_length_b       10.3471
_cell_length_c       10.4632
_cell_angle_alpha    90.0997
_cell_angle_beta     80.789
_cell_angle_gamma    89.9488

_symmetry_space_group_name_H-M    "P 1"
_symmetry_int_tables_number       1

loop_
  _symmetry_equiv_pos_as_xyz
  'x, y, z'

loop_
  _atom_site_label
  _atom_site_occupancy
  _atom_site_fract_x
  _atom_site_fract_y
  _atom_site_fract_z
  _atom_site_thermal_displace_type
  _atom_site_B_iso_or_equiv
  _atom_site_type_symbol
  La1      1.0000 0.12728  0.00697  0.13692  Biso   1.000  La
  Hf1      1.0000 0.13934  0.02167  0.64715  Biso   1.000  Hf
  Hf2      1.0000 0.14140  0.52192  0.14225  Biso   1.000  Hf
  Hf3      1.0000 0.13987  0.52288  0.64541  Biso   1.000  Hf
  Hf4      1.0000 0.64313  0.02083  0.14664  Biso   1.000  Hf
  Hf5      1.0000 0.63775  0.02102  0.64793  Biso   1.000  Hf
  Hf6      1.0000 0.64090  0.51883  0.14468  Biso   1.000  Hf
  Hf7      1.0000 0.63592  0.52249  0.64696  Biso   1.000  Hf
  La2      1.0000 0.13218  0.23504  0.38871  Biso   1.000  La
  Hf8      1.0000 0.13928  0.23339  0.89455  Biso   1.000  Hf
  Hf9      1.0000 0.13995  0.72823  0.39441  Biso   1.000  Hf
  Hf10     1.0000 0.14192  0.72846  0.89370  Biso   1.000  Hf
  Hf11     1.0000 0.63842  0.23146  0.39704  Biso   1.000  Hf
  Hf12     1.0000 0.64140  0.22847  0.89770  Biso   1.000  Hf
  Hf13     1.0000 0.63436  0.72850  0.39854  Biso   1.000  Hf
  Hf14     1.0000 0.64219  0.72950  0.89346  Biso   1.000  Hf
  Hf15     1.0000 0.36432  0.26904  0.10059  Biso   1.000  Hf
  Hf16     1.0000 0.36103  0.27033  0.60357  Biso   1.000  Hf
  Hf17     1.0000 0.36871  0.76852  0.10317  Biso   1.000  Hf
  Hf18     1.0000 0.35800  0.77282  0.60259  Biso   1.000  Hf
  Hf19     1.0000 0.86147  0.27443  0.10500  Biso   1.000  Hf
  Hf20     1.0000 0.85398  0.27133  0.61020  Biso   1.000  Hf
  Hf21     1.0000 0.85749  0.76520  0.10227  Biso   1.000  Hf
  Hf22     1.0000 0.86236  0.77052  0.60447  Biso   1.000  Hf
  Hf23     1.0000 0.36442  0.48116  0.35132  Biso   1.000  Hf
  Hf24     1.0000 0.36214  0.47786  0.85331  Biso   1.000  Hf
  Hf25     1.0000 0.36245  0.98148  0.35366  Biso   1.000  Hf
  Hf26     1.0000 0.36438  0.97967  0.85119  Biso   1.000  Hf
  Hf27     1.0000 0.85814  0.48501  0.35367  Biso   1.000  Hf
  Hf28     1.0000 0.86299  0.47891  0.85226  Biso   1.000  Hf
  Hf29     1.0000 0.84855  0.97659  0.36021  Biso   1.000  Hf
  Hf30     1.0000 0.86345  0.97821  0.85606  Biso   1.000  Hf
  Hf31     1.0000 0.04117  0.19739  0.08503  Biso   1.000  Hf
  Hf32     1.0000 0.02578  0.16935  0.60017  Biso   1.000  Hf
  Hf33     1.0000 0.04145  0.68188  0.08579  Biso   1.000  Hf
  Hf34     1.0000 0.03669  0.67048  0.58141  Biso   1.000  Hf
  Hf35     1.0000 0.54013  0.16741  0.07800  Biso   1.000  Hf
  Hf36     1.0000 0.53460  0.16886  0.58142  Biso   1.000  Hf
  Hf37     1.0000 0.53980  0.66639  0.07716  Biso   1.000  Hf
  Hf38     1.0000 0.53113  0.66709  0.58024  Biso   1.000  Hf
  Hf39     1.0000 0.02529  0.05144  0.34814  Biso   1.000  Hf
  Hf40     1.0000 0.04004  0.07448  0.84089  Biso   1.000  Hf
  Hf41     1.0000 0.04009  0.57306  0.33334  Biso   1.000  Hf
  Hf42     1.0000 0.03744  0.57837  0.83250  Biso   1.000  Hf
  Hf43     1.0000 0.53878  0.08063  0.33067  Biso   1.000  Hf
  Hf44     1.0000 0.53672  0.08310  0.82926  Biso   1.000  Hf
  Hf45     1.0000 0.53589  0.58261  0.32769  Biso   1.000  Hf
  Hf46     1.0000 0.53464  0.58365  0.82973  Biso   1.000  Hf
  Hf47     1.0000 0.47411  0.41399  0.16957  Biso   1.000  Hf
  Hf48     1.0000 0.46475  0.41765  0.67185  Biso   1.000  Hf
  Hf49     1.0000 0.47078  0.91701  0.16917  Biso   1.000  Hf
  Hf50     1.0000 0.46506  0.91811  0.67011  Biso   1.000  Hf
  Hf51     1.0000 0.96064  0.43012  0.16654  Biso   1.000  Hf
  Hf52     1.0000 0.96412  0.42172  0.66574  Biso   1.000  Hf
  Hf53     1.0000 0.92094  0.92953  0.16756  Biso   1.000  Hf
  Hf54     1.0000 0.96461  0.91816  0.67124  Biso   1.000  Hf
  Hf55     1.0000 0.46378  0.32975  0.41823  Biso   1.000  Hf
  Hf56     1.0000 0.46977  0.33420  0.91972  Biso   1.000  Hf
  Hf57     1.0000 0.46369  0.83304  0.42330  Biso   1.000  Hf
  Hf58     1.0000 0.47604  0.83649  0.91945  Biso   1.000  Hf
  Hf59     1.0000 0.93120  0.32632  0.42272  Biso   1.000  Hf
  Hf60     1.0000 0.96102  0.32879  0.91377  Biso   1.000  Hf
  Hf61     1.0000 0.95685  0.81986  0.41530  Biso   1.000  Hf
  Hf62     1.0000 0.96689  0.82906  0.92000  Biso   1.000  Hf
  Hf63     1.0000 0.29502  0.12676  0.23492  Biso   1.000  Hf
  Hf64     1.0000 0.27478  0.13029  0.74038  Biso   1.000  Hf
  Hf65     1.0000 0.27770  0.62785  0.23774  Biso   1.000  Hf
  Hf66     1.0000 0.27604  0.62954  0.73936  Biso   1.000  Hf
  Hf67     1.0000 0.77446  0.13400  0.24450  Biso   1.000  Hf
  Hf68     1.0000 0.77439  0.12794  0.74487  Biso   1.000  Hf
  Hf69     1.0000 0.77424  0.63058  0.24109  Biso   1.000  Hf
  Hf70     1.0000 0.77622  0.62916  0.73926  Biso   1.000  Hf
  Hf71     1.0000 0.28175  0.11457  0.49893  Biso   1.000  Hf
  Hf72     1.0000 0.28463  0.12728  0.97898  Biso   1.000  Hf
  Hf73     1.0000 0.27636  0.62557  0.48799  Biso   1.000  Hf
  Hf74     1.0000 0.27704  0.61821  0.98906  Biso   1.000  Hf
  Hf75     1.0000 0.76985  0.11986  0.49632  Biso   1.000  Hf
  Hf76     1.0000 0.77982  0.12086  0.99260  Biso   1.000  Hf
  Hf77     1.0000 0.77272  0.62093  0.49199  Biso   1.000  Hf
  Hf78     1.0000 0.77796  0.61940  0.98845  Biso   1.000  Hf
  Hf79     1.0000 0.22656  0.38067  0.00377  Biso   1.000  Hf
  Hf80     1.0000 0.23487  0.39061  0.51231  Biso   1.000  Hf
  Hf81     1.0000 0.24351  0.86523  0.99377  Biso   1.000  Hf
  Hf82     1.0000 0.22007  0.87860  0.50915  Biso   1.000  Hf
  Hf83     1.0000 0.72605  0.37991  0.00838  Biso   1.000  Hf
  Hf84     1.0000 0.71083  0.38057  0.51475  Biso   1.000  Hf
  Hf85     1.0000 0.72580  0.87782  0.00736  Biso   1.000  Hf
  Hf86     1.0000 0.72125  0.87673  0.51353  Biso   1.000  Hf
  Hf87     1.0000 0.23836  0.38334  0.24283  Biso   1.000  Hf
  Hf88     1.0000 0.22440  0.37192  0.75829  Biso   1.000  Hf
  Hf89     1.0000 0.23799  0.86018  0.26195  Biso   1.000  Hf
  Hf90     1.0000 0.22417  0.87110  0.75640  Biso   1.000  Hf
  Hf91     1.0000 0.72429  0.37422  0.26022  Biso   1.000  Hf
  Hf92     1.0000 0.72416  0.37164  0.76092  Biso   1.000  Hf
  Hf93     1.0000 0.70811  0.86763  0.26385  Biso   1.000  Hf
  Hf94     1.0000 0.72685  0.87106  0.75916  Biso   1.000  Hf
