data_image0
_cell_length_a       10.1898
_cell_length_b       10.3561
_cell_length_c       10.4869
_cell_angle_alpha    90.1427
_cell_angle_beta     80.715
_cell_angle_gamma    90.2953

_symmetry_space_group_name_H-M    "P 1"
_symmetry_int_tables_number       1

loop_
  _symmetry_equiv_pos_as_xyz
  'x, y, z'

loop_
  _atom_site_label
  _atom_site_occupancy
  _atom_site_fract_x
  _atom_site_fract_y
  _atom_site_fract_z
  _atom_site_thermal_displace_type
  _atom_site_B_iso_or_equiv
  _atom_site_type_symbol
  La1      1.0000 0.13354  0.01075  0.14032  Biso   1.000  La
  Hf1      1.0000 0.14050  0.02213  0.64728  Biso   1.000  Hf
  Hf2      1.0000 0.13782  0.51783  0.14516  Biso   1.000  Hf
  Hf3      1.0000 0.13932  0.52071  0.64541  Biso   1.000  Hf
  La2      1.0000 0.63347  0.01073  0.14029  Biso   1.000  La
  Hf4      1.0000 0.64051  0.02213  0.64726  Biso   1.000  Hf
  Hf5      1.0000 0.63784  0.51784  0.14514  Biso   1.000  Hf
  Hf6      1.0000 0.63933  0.52073  0.64539  Biso   1.000  Hf
  Hf7      1.0000 0.13715  0.22928  0.39789  Biso   1.000  Hf
  Hf8      1.0000 0.13933  0.23298  0.89404  Biso   1.000  Hf
  Hf9      1.0000 0.13610  0.72319  0.39808  Biso   1.000  Hf
  Hf10     1.0000 0.14416  0.72848  0.89248  Biso   1.000  Hf
  Hf11     1.0000 0.63716  0.22929  0.39785  Biso   1.000  Hf
  Hf12     1.0000 0.63936  0.23298  0.89401  Biso   1.000  Hf
  Hf13     1.0000 0.63612  0.72321  0.39804  Biso   1.000  Hf
  Hf14     1.0000 0.64417  0.72849  0.89245  Biso   1.000  Hf
  Hf15     1.0000 0.35861  0.27145  0.10297  Biso   1.000  Hf
  Hf16     1.0000 0.36119  0.27149  0.60411  Biso   1.000  Hf
  Hf17     1.0000 0.36271  0.76133  0.10315  Biso   1.000  Hf
  Hf18     1.0000 0.36137  0.77192  0.60336  Biso   1.000  Hf
  Hf19     1.0000 0.85860  0.27142  0.10294  Biso   1.000  Hf
  Hf20     1.0000 0.86119  0.27148  0.60408  Biso   1.000  Hf
  Hf21     1.0000 0.86271  0.76136  0.10313  Biso   1.000  Hf
  Hf22     1.0000 0.86137  0.77192  0.60331  Biso   1.000  Hf
  Hf23     1.0000 0.35893  0.47702  0.35335  Biso   1.000  Hf
  Hf24     1.0000 0.36222  0.47895  0.85235  Biso   1.000  Hf
  Hf25     1.0000 0.35417  0.97952  0.36140  Biso   1.000  Hf
  Hf26     1.0000 0.36615  0.97839  0.85265  Biso   1.000  Hf
  Hf27     1.0000 0.85893  0.47701  0.35332  Biso   1.000  Hf
  Hf28     1.0000 0.86223  0.47896  0.85233  Biso   1.000  Hf
  Hf29     1.0000 0.85419  0.97954  0.36133  Biso   1.000  Hf
  Hf30     1.0000 0.86615  0.97840  0.85263  Biso   1.000  Hf
  Hf31     1.0000 0.03624  0.19004  0.07602  Biso   1.000  Hf
  Hf32     1.0000 0.03560  0.17221  0.58576  Biso   1.000  Hf
  Hf33     1.0000 0.04231  0.67420  0.08209  Biso   1.000  Hf
  Hf34     1.0000 0.03452  0.66837  0.58226  Biso   1.000  Hf
  Hf35     1.0000 0.53622  0.19002  0.07600  Biso   1.000  Hf
  Hf36     1.0000 0.53554  0.17212  0.58568  Biso   1.000  Hf
  Hf37     1.0000 0.54226  0.67414  0.08203  Biso   1.000  Hf
  Hf38     1.0000 0.53448  0.66828  0.58219  Biso   1.000  Hf
  Hf39     1.0000 0.02794  0.07917  0.34900  Biso   1.000  Hf
  Hf40     1.0000 0.04070  0.07962  0.83198  Biso   1.000  Hf
  Hf41     1.0000 0.03333  0.57920  0.32965  Biso   1.000  Hf
  Hf42     1.0000 0.03691  0.58063  0.82947  Biso   1.000  Hf
  Hf43     1.0000 0.52794  0.07920  0.34895  Biso   1.000  Hf
  Hf44     1.0000 0.54065  0.07971  0.83191  Biso   1.000  Hf
  Hf45     1.0000 0.53331  0.57926  0.32959  Biso   1.000  Hf
  Hf46     1.0000 0.53686  0.58073  0.82941  Biso   1.000  Hf
  Hf47     1.0000 0.45936  0.42370  0.16805  Biso   1.000  Hf
  Hf48     1.0000 0.46467  0.42076  0.66751  Biso   1.000  Hf
  Hf49     1.0000 0.42976  0.92695  0.17100  Biso   1.000  Hf
  Hf50     1.0000 0.46663  0.91830  0.67038  Biso   1.000  Hf
  Hf51     1.0000 0.95933  0.42374  0.16799  Biso   1.000  Hf
  Hf52     1.0000 0.96461  0.42084  0.66744  Biso   1.000  Hf
  Hf53     1.0000 0.92979  0.92701  0.17091  Biso   1.000  Hf
  Hf54     1.0000 0.96658  0.91837  0.67032  Biso   1.000  Hf
  Hf55     1.0000 0.46259  0.33112  0.42007  Biso   1.000  Hf
  Hf56     1.0000 0.46428  0.33372  0.91360  Biso   1.000  Hf
  Hf57     1.0000 0.46377  0.82972  0.41993  Biso   1.000  Hf
  Hf58     1.0000 0.47821  0.83636  0.92228  Biso   1.000  Hf
  Hf59     1.0000 0.96255  0.33106  0.42003  Biso   1.000  Hf
  Hf60     1.0000 0.96422  0.33363  0.91351  Biso   1.000  Hf
  Hf61     1.0000 0.96375  0.82966  0.41987  Biso   1.000  Hf
  Hf62     1.0000 0.97813  0.83622  0.92216  Biso   1.000  Hf
  Hf63     1.0000 0.27986  0.13812  0.25093  Biso   1.000  Hf
  Hf64     1.0000 0.27842  0.12985  0.73898  Biso   1.000  Hf
  Hf65     1.0000 0.27483  0.62258  0.23951  Biso   1.000  Hf
  Hf66     1.0000 0.27743  0.62984  0.73846  Biso   1.000  Hf
  Hf67     1.0000 0.77987  0.13808  0.25090  Biso   1.000  Hf
  Hf68     1.0000 0.77845  0.12981  0.73895  Biso   1.000  Hf
  Hf69     1.0000 0.77484  0.62254  0.23948  Biso   1.000  Hf
  Hf70     1.0000 0.77743  0.62981  0.73842  Biso   1.000  Hf
  Hf71     1.0000 0.27210  0.12164  0.49525  Biso   1.000  Hf
  Hf72     1.0000 0.28480  0.12704  0.98034  Biso   1.000  Hf
  Hf73     1.0000 0.27494  0.61984  0.49039  Biso   1.000  Hf
  Hf74     1.0000 0.27765  0.61646  0.98928  Biso   1.000  Hf
  Hf75     1.0000 0.77210  0.12168  0.49521  Biso   1.000  Hf
  Hf76     1.0000 0.78478  0.12706  0.98031  Biso   1.000  Hf
  Hf77     1.0000 0.77494  0.61986  0.49035  Biso   1.000  Hf
  Hf78     1.0000 0.77764  0.61651  0.98924  Biso   1.000  Hf
  Hf79     1.0000 0.22445  0.38070  0.00704  Biso   1.000  Hf
  Hf80     1.0000 0.22309  0.37913  0.50928  Biso   1.000  Hf
  Hf81     1.0000 0.24317  0.86411  0.99457  Biso   1.000  Hf
  Hf82     1.0000 0.22328  0.87905  0.51263  Biso   1.000  Hf
  Hf83     1.0000 0.72447  0.38073  0.00702  Biso   1.000  Hf
  Hf84     1.0000 0.72307  0.37916  0.50925  Biso   1.000  Hf
  Hf85     1.0000 0.74315  0.86416  0.99456  Biso   1.000  Hf
  Hf86     1.0000 0.72327  0.87909  0.51258  Biso   1.000  Hf
  Hf87     1.0000 0.21892  0.37233  0.25933  Biso   1.000  Hf
  Hf88     1.0000 0.22489  0.37265  0.75709  Biso   1.000  Hf
  Hf89     1.0000 0.22526  0.85567  0.26862  Biso   1.000  Hf
  Hf90     1.0000 0.22707  0.87152  0.75633  Biso   1.000  Hf
  Hf91     1.0000 0.71893  0.37230  0.25928  Biso   1.000  Hf
  Hf92     1.0000 0.72489  0.37260  0.75706  Biso   1.000  Hf
  Hf93     1.0000 0.72530  0.85563  0.26853  Biso   1.000  Hf
  Hf94     1.0000 0.72707  0.87148  0.75630  Biso   1.000  Hf
