data_image0
_cell_length_a       10.1147
_cell_length_b       10.3336
_cell_length_c       10.4822
_cell_angle_alpha    90.0011
_cell_angle_beta     90.0687
_cell_angle_gamma    90.2815

_symmetry_space_group_name_H-M    "P 1"
_symmetry_int_tables_number       1

loop_
  _symmetry_equiv_pos_as_xyz
  'x, y, z'

loop_
  _atom_site_label
  _atom_site_occupancy
  _atom_site_fract_x
  _atom_site_fract_y
  _atom_site_fract_z
  _atom_site_thermal_displace_type
  _atom_site_B_iso_or_equiv
  _atom_site_type_symbol
  La1      1.0000 0.12760  0.00886  0.15823  Biso   1.000  La
  Hf1      1.0000 0.13893  0.02126  0.67220  Biso   1.000  Hf
  Hf2      1.0000 0.13921  0.52078  0.17126  Biso   1.000  Hf
  Hf3      1.0000 0.14025  0.52254  0.67041  Biso   1.000  Hf
  Hf4      1.0000 0.13317  0.23322  0.42247  Biso   1.000  Hf
  Hf5      1.0000 0.13868  0.23350  0.91818  Biso   1.000  Hf
  Hf6      1.0000 0.14053  0.72791  0.42142  Biso   1.000  Hf
  Hf7      1.0000 0.14163  0.72798  0.91945  Biso   1.000  Hf
  Hf8      1.0000 0.35703  0.27142  0.16904  Biso   1.000  Hf
  Hf9      1.0000 0.36055  0.27155  0.67176  Biso   1.000  Hf
  Hf10     1.0000 0.36678  0.76124  0.16791  Biso   1.000  Hf
  Hf11     1.0000 0.36098  0.77278  0.67144  Biso   1.000  Hf
  Hf12     1.0000 0.35972  0.47821  0.42049  Biso   1.000  Hf
  Hf13     1.0000 0.36163  0.47821  0.92069  Biso   1.000  Hf
  La2      1.0000 0.36580  0.98777  0.41126  Biso   1.000  La
  Hf14     1.0000 0.36537  0.97973  0.91916  Biso   1.000  Hf
  Hf15     1.0000 0.63986  0.02160  0.08243  Biso   1.000  Hf
  Hf16     1.0000 0.64410  0.01955  0.58742  Biso   1.000  Hf
  Hf17     1.0000 0.63926  0.51762  0.07534  Biso   1.000  Hf
  Hf18     1.0000 0.63801  0.52031  0.57773  Biso   1.000  Hf
  Hf19     1.0000 0.64054  0.23524  0.32719  Biso   1.000  Hf
  Hf20     1.0000 0.63833  0.22901  0.82930  Biso   1.000  Hf
  Hf21     1.0000 0.64248  0.72413  0.32783  Biso   1.000  Hf
  Hf22     1.0000 0.63798  0.72827  0.82698  Biso   1.000  Hf
  Hf23     1.0000 0.86026  0.27426  0.07524  Biso   1.000  Hf
  Hf24     1.0000 0.86021  0.27296  0.58047  Biso   1.000  Hf
  Hf25     1.0000 0.85776  0.76483  0.07576  Biso   1.000  Hf
  Hf26     1.0000 0.86362  0.77041  0.57982  Biso   1.000  Hf
  Hf27     1.0000 0.86233  0.48112  0.32792  Biso   1.000  Hf
  Hf28     1.0000 0.86110  0.48042  0.82513  Biso   1.000  Hf
  Hf29     1.0000 0.85285  0.98066  0.33809  Biso   1.000  Hf
  Hf30     1.0000 0.86244  0.97917  0.83283  Biso   1.000  Hf
  Hf31     1.0000 0.03206  0.18763  0.07915  Biso   1.000  Hf
  Hf32     1.0000 0.02905  0.16977  0.59182  Biso   1.000  Hf
  Hf33     1.0000 0.03577  0.67237  0.08559  Biso   1.000  Hf
  Hf34     1.0000 0.03301  0.66519  0.58533  Biso   1.000  Hf
  Hf35     1.0000 0.02200  0.08370  0.35108  Biso   1.000  Hf
  Hf36     1.0000 0.03566  0.08165  0.83940  Biso   1.000  Hf
  Hf37     1.0000 0.03388  0.58492  0.33404  Biso   1.000  Hf
  Hf38     1.0000 0.03292  0.58451  0.83325  Biso   1.000  Hf
  Hf39     1.0000 0.46760  0.41485  0.08196  Biso   1.000  Hf
  Hf40     1.0000 0.46705  0.41479  0.58434  Biso   1.000  Hf
  Hf41     1.0000 0.46827  0.91892  0.08964  Biso   1.000  Hf
  Hf42     1.0000 0.47631  0.91430  0.59853  Biso   1.000  Hf
  Hf43     1.0000 0.46460  0.33184  0.33422  Biso   1.000  Hf
  Hf44     1.0000 0.46697  0.33263  0.83481  Biso   1.000  Hf
  Hf45     1.0000 0.47143  0.81225  0.33117  Biso   1.000  Hf
  Hf46     1.0000 0.46844  0.83115  0.83699  Biso   1.000  Hf
  Hf47     1.0000 0.25826  0.14543  0.28985  Biso   1.000  Hf
  Hf48     1.0000 0.27631  0.12393  0.79299  Biso   1.000  Hf
  Hf49     1.0000 0.27996  0.61684  0.29330  Biso   1.000  Hf
  Hf50     1.0000 0.27646  0.62454  0.79425  Biso   1.000  Hf
  Hf51     1.0000 0.28460  0.13306  0.03291  Biso   1.000  Hf
  Hf52     1.0000 0.26508  0.13680  0.55085  Biso   1.000  Hf
  Hf53     1.0000 0.27437  0.61874  0.04383  Biso   1.000  Hf
  Hf54     1.0000 0.27723  0.62655  0.54385  Biso   1.000  Hf
  Hf55     1.0000 0.22173  0.38001  0.29543  Biso   1.000  Hf
  Hf56     1.0000 0.22543  0.37593  0.79340  Biso   1.000  Hf
  Hf57     1.0000 0.22405  0.85066  0.28781  Biso   1.000  Hf
  Hf58     1.0000 0.22553  0.87530  0.79361  Biso   1.000  Hf
  Hf59     1.0000 0.22333  0.37700  0.04376  Biso   1.000  Hf
  Hf60     1.0000 0.22290  0.38030  0.54470  Biso   1.000  Hf
  Hf61     1.0000 0.24536  0.86015  0.03167  Biso   1.000  Hf
  Hf62     1.0000 0.21835  0.87178  0.55227  Biso   1.000  Hf
  Hf63     1.0000 0.52928  0.16449  0.16909  Biso   1.000  Hf
  Hf64     1.0000 0.53284  0.16582  0.66645  Biso   1.000  Hf
  Hf65     1.0000 0.53876  0.66047  0.16045  Biso   1.000  Hf
  Hf66     1.0000 0.53256  0.66396  0.66535  Biso   1.000  Hf
  Hf67     1.0000 0.56295  0.08412  0.41901  Biso   1.000  Hf
  Hf68     1.0000 0.53815  0.08199  0.91606  Biso   1.000  Hf
  Hf69     1.0000 0.53616  0.57725  0.41375  Biso   1.000  Hf
  Hf70     1.0000 0.53294  0.58204  0.91324  Biso   1.000  Hf
  Hf71     1.0000 0.96392  0.42251  0.16317  Biso   1.000  Hf
  Hf72     1.0000 0.96701  0.41998  0.66327  Biso   1.000  Hf
  Hf73     1.0000 0.92897  0.92022  0.16560  Biso   1.000  Hf
  Hf74     1.0000 0.96579  0.91718  0.66821  Biso   1.000  Hf
  Hf75     1.0000 0.96400  0.33780  0.41694  Biso   1.000  Hf
  Hf76     1.0000 0.96442  0.33648  0.90818  Biso   1.000  Hf
  Hf77     1.0000 0.96640  0.83308  0.41559  Biso   1.000  Hf
  Hf78     1.0000 0.97142  0.83695  0.92007  Biso   1.000  Hf
  Hf79     1.0000 0.77698  0.12451  0.95774  Biso   1.000  Hf
  Hf80     1.0000 0.78485  0.12574  0.46246  Biso   1.000  Hf
  Hf81     1.0000 0.77451  0.62275  0.95157  Biso   1.000  Hf
  Hf82     1.0000 0.77779  0.62260  0.45532  Biso   1.000  Hf
  Hf83     1.0000 0.77363  0.12969  0.20849  Biso   1.000  Hf
  Hf84     1.0000 0.77607  0.12640  0.71076  Biso   1.000  Hf
  Hf85     1.0000 0.77839  0.62546  0.20305  Biso   1.000  Hf
  Hf86     1.0000 0.77497  0.62595  0.70302  Biso   1.000  Hf
  Hf87     1.0000 0.72366  0.37429  0.95172  Biso   1.000  Hf
  Hf88     1.0000 0.72364  0.37484  0.45435  Biso   1.000  Hf
  Hf89     1.0000 0.72490  0.87293  0.95715  Biso   1.000  Hf
  Hf90     1.0000 0.72475  0.87153  0.46152  Biso   1.000  Hf
  Hf91     1.0000 0.72445  0.37889  0.20328  Biso   1.000  Hf
  Hf92     1.0000 0.72401  0.37574  0.70388  Biso   1.000  Hf
  Hf93     1.0000 0.71022  0.87619  0.21055  Biso   1.000  Hf
  Hf94     1.0000 0.72864  0.87410  0.71003  Biso   1.000  Hf
