data_image0
_cell_length_a       10.133
_cell_length_b       10.2747
_cell_length_c       10.4869
_cell_angle_alpha    89.8
_cell_angle_beta     90.4985
_cell_angle_gamma    90.0441

_symmetry_space_group_name_H-M    "P 1"
_symmetry_int_tables_number       1

loop_
  _symmetry_equiv_pos_as_xyz
  'x, y, z'

loop_
  _atom_site_label
  _atom_site_occupancy
  _atom_site_fract_x
  _atom_site_fract_y
  _atom_site_fract_z
  _atom_site_thermal_displace_type
  _atom_site_B_iso_or_equiv
  _atom_site_type_symbol
  La1      1.0000 0.13465  0.01872  0.15943  Biso   1.000  La
  Hf1      1.0000 0.14101  0.01359  0.66950  Biso   1.000  Hf
  Hf2      1.0000 0.13805  0.51868  0.17178  Biso   1.000  Hf
  Hf3      1.0000 0.14123  0.52225  0.66874  Biso   1.000  Hf
  Hf4      1.0000 0.13933  0.22920  0.42346  Biso   1.000  Hf
  La2      1.0000 0.13291  0.24706  0.89762  Biso   1.000  La
  Hf5      1.0000 0.13823  0.72753  0.41931  Biso   1.000  Hf
  Hf6      1.0000 0.14029  0.72648  0.91952  Biso   1.000  Hf
  Hf7      1.0000 0.36273  0.27118  0.16995  Biso   1.000  Hf
  Hf8      1.0000 0.36833  0.26926  0.66575  Biso   1.000  Hf
  Hf9      1.0000 0.36240  0.77015  0.17007  Biso   1.000  Hf
  Hf10     1.0000 0.36276  0.77111  0.67030  Biso   1.000  Hf
  Hf11     1.0000 0.36137  0.47852  0.41993  Biso   1.000  Hf
  Hf12     1.0000 0.36679  0.48194  0.92137  Biso   1.000  Hf
  Hf13     1.0000 0.36178  0.97936  0.41992  Biso   1.000  Hf
  Hf14     1.0000 0.36492  0.98122  0.91687  Biso   1.000  Hf
  Hf15     1.0000 0.63785  0.01899  0.08127  Biso   1.000  Hf
  Hf16     1.0000 0.63980  0.01929  0.58040  Biso   1.000  Hf
  Hf17     1.0000 0.63290  0.52799  0.07989  Biso   1.000  Hf
  Hf18     1.0000 0.63900  0.52127  0.57644  Biso   1.000  Hf
  Hf19     1.0000 0.63454  0.22928  0.33399  Biso   1.000  Hf
  Hf20     1.0000 0.63908  0.22746  0.82864  Biso   1.000  Hf
  Hf21     1.0000 0.63779  0.73081  0.32963  Biso   1.000  Hf
  Hf22     1.0000 0.63898  0.73079  0.82570  Biso   1.000  Hf
  Hf23     1.0000 0.82811  0.28350  0.08417  Biso   1.000  Hf
  Hf24     1.0000 0.86425  0.26946  0.58271  Biso   1.000  Hf
  Hf25     1.0000 0.85897  0.76691  0.07813  Biso   1.000  Hf
  Hf26     1.0000 0.86260  0.77054  0.57689  Biso   1.000  Hf
  Hf27     1.0000 0.86275  0.47788  0.33213  Biso   1.000  Hf
  Hf28     1.0000 0.86022  0.48183  0.82888  Biso   1.000  Hf
  Hf29     1.0000 0.85667  0.98133  0.33163  Biso   1.000  Hf
  Hf30     1.0000 0.86234  0.97483  0.82972  Biso   1.000  Hf
  Hf31     1.0000 0.03623  0.16466  0.59114  Biso   1.000  Hf
  Hf32     1.0000 0.03185  0.66285  0.08389  Biso   1.000  Hf
  Hf33     1.0000 0.03136  0.66199  0.57962  Biso   1.000  Hf
  Hf34     1.0000 0.01945  0.09904  0.33520  Biso   1.000  Hf
  Hf35     1.0000 0.03799  0.05974  0.84247  Biso   1.000  Hf
  Hf36     1.0000 0.03085  0.58540  0.33070  Biso   1.000  Hf
  Hf37     1.0000 0.03596  0.57904  0.83265  Biso   1.000  Hf
  Hf38     1.0000 0.46766  0.41840  0.08429  Biso   1.000  Hf
  Hf39     1.0000 0.47138  0.41418  0.57972  Biso   1.000  Hf
  Hf40     1.0000 0.46758  0.91809  0.08475  Biso   1.000  Hf
  Hf41     1.0000 0.46746  0.91636  0.58304  Biso   1.000  Hf
  Hf42     1.0000 0.46730  0.33565  0.33405  Biso   1.000  Hf
  Hf43     1.0000 0.47071  0.33175  0.83319  Biso   1.000  Hf
  Hf44     1.0000 0.46694  0.83392  0.33453  Biso   1.000  Hf
  Hf45     1.0000 0.47008  0.83639  0.82985  Biso   1.000  Hf
  Hf46     1.0000 0.28138  0.12930  0.30037  Biso   1.000  Hf
  Hf47     1.0000 0.28750  0.11479  0.77974  Biso   1.000  Hf
  Hf48     1.0000 0.27394  0.62117  0.29278  Biso   1.000  Hf
  Hf49     1.0000 0.27523  0.62793  0.79386  Biso   1.000  Hf
  Hf50     1.0000 0.28980  0.13466  0.03686  Biso   1.000  Hf
  Hf51     1.0000 0.27490  0.12464  0.54157  Biso   1.000  Hf
  Hf52     1.0000 0.27472  0.62358  0.04516  Biso   1.000  Hf
  Hf53     1.0000 0.27602  0.62617  0.54288  Biso   1.000  Hf
  Hf54     1.0000 0.22334  0.37290  0.29535  Biso   1.000  Hf
  Hf55     1.0000 0.24803  0.38889  0.77980  Biso   1.000  Hf
  Hf56     1.0000 0.22808  0.86749  0.29534  Biso   1.000  Hf
  Hf57     1.0000 0.22531  0.87015  0.79119  Biso   1.000  Hf
  Hf58     1.0000 0.22799  0.38395  0.04947  Biso   1.000  Hf
  Hf59     1.0000 0.22694  0.37634  0.54213  Biso   1.000  Hf
  Hf60     1.0000 0.23832  0.86528  0.03263  Biso   1.000  Hf
  Hf61     1.0000 0.22460  0.87463  0.54278  Biso   1.000  Hf
  Hf62     1.0000 0.53739  0.16962  0.16530  Biso   1.000  Hf
  Hf63     1.0000 0.54027  0.16774  0.66288  Biso   1.000  Hf
  Hf64     1.0000 0.53180  0.66789  0.16812  Biso   1.000  Hf
  Hf65     1.0000 0.53323  0.66346  0.66651  Biso   1.000  Hf
  Hf66     1.0000 0.53426  0.08262  0.41634  Biso   1.000  Hf
  Hf67     1.0000 0.54072  0.08005  0.91335  Biso   1.000  Hf
  Hf68     1.0000 0.53268  0.58510  0.41640  Biso   1.000  Hf
  Hf69     1.0000 0.53052  0.59117  0.91775  Biso   1.000  Hf
  Hf70     1.0000 0.96653  0.39582  0.17679  Biso   1.000  Hf
  Hf71     1.0000 0.97782  0.40152  0.68424  Biso   1.000  Hf
  Hf72     1.0000 0.94035  0.92057  0.16314  Biso   1.000  Hf
  Hf73     1.0000 0.96562  0.91245  0.66506  Biso   1.000  Hf
  Hf74     1.0000 0.97030  0.34372  0.43067  Biso   1.000  Hf
  Hf75     1.0000 0.94098  0.34248  0.93891  Biso   1.000  Hf
  Hf76     1.0000 0.96831  0.83713  0.41432  Biso   1.000  Hf
  Hf77     1.0000 0.96469  0.82513  0.91609  Biso   1.000  Hf
  Hf78     1.0000 0.78168  0.12513  0.96232  Biso   1.000  Hf
  Hf79     1.0000 0.77407  0.12463  0.46050  Biso   1.000  Hf
  Hf80     1.0000 0.77258  0.62172  0.95369  Biso   1.000  Hf
  Hf81     1.0000 0.77577  0.62359  0.45421  Biso   1.000  Hf
  Hf82     1.0000 0.77398  0.13194  0.21042  Biso   1.000  Hf
  Hf83     1.0000 0.77916  0.12360  0.70961  Biso   1.000  Hf
  Hf84     1.0000 0.77547  0.62738  0.20516  Biso   1.000  Hf
  Hf85     1.0000 0.77683  0.62640  0.70331  Biso   1.000  Hf
  Hf86     1.0000 0.70396  0.37517  0.95914  Biso   1.000  Hf
  Hf87     1.0000 0.72628  0.37330  0.45697  Biso   1.000  Hf
  Hf88     1.0000 0.72441  0.87285  0.95598  Biso   1.000  Hf
  Hf89     1.0000 0.72499  0.87357  0.45698  Biso   1.000  Hf
  Hf90     1.0000 0.71476  0.38534  0.21039  Biso   1.000  Hf
  Hf91     1.0000 0.72949  0.37632  0.70624  Biso   1.000  Hf
  Hf92     1.0000 0.71258  0.87803  0.20940  Biso   1.000  Hf
  Hf93     1.0000 0.72493  0.87408  0.70432  Biso   1.000  Hf
