data_image0
_cell_length_a       10.062
_cell_length_b       10.2479
_cell_length_c       10.4805
_cell_angle_alpha    89.9673
_cell_angle_beta     90.3968
_cell_angle_gamma    89.8938

_symmetry_space_group_name_H-M    "P 1"
_symmetry_int_tables_number       1

loop_
  _symmetry_equiv_pos_as_xyz
  'x, y, z'

loop_
  _atom_site_label
  _atom_site_occupancy
  _atom_site_fract_x
  _atom_site_fract_y
  _atom_site_fract_z
  _atom_site_thermal_displace_type
  _atom_site_B_iso_or_equiv
  _atom_site_type_symbol
  La1      1.0000 0.12780  0.02026  0.15706  Biso   1.000  La
  Hf1      1.0000 0.14019  0.01983  0.67135  Biso   1.000  Hf
  Hf2      1.0000 0.13839  0.52043  0.17108  Biso   1.000  Hf
  Hf3      1.0000 0.13872  0.52218  0.66924  Biso   1.000  Hf
  Hf4      1.0000 0.13800  0.22857  0.42205  Biso   1.000  Hf
  Hf5      1.0000 0.14512  0.23724  0.90984  Biso   1.000  Hf
  Hf6      1.0000 0.13857  0.72968  0.42022  Biso   1.000  Hf
  Hf7      1.0000 0.14018  0.72668  0.92039  Biso   1.000  Hf
  Hf8      1.0000 0.36032  0.27108  0.17115  Biso   1.000  Hf
  Hf9      1.0000 0.36360  0.27104  0.66804  Biso   1.000  Hf
  Hf10     1.0000 0.36298  0.76980  0.17111  Biso   1.000  Hf
  Hf11     1.0000 0.36165  0.77155  0.66984  Biso   1.000  Hf
  Hf12     1.0000 0.36116  0.47909  0.42041  Biso   1.000  Hf
  Hf13     1.0000 0.36242  0.47942  0.92126  Biso   1.000  Hf
  Hf14     1.0000 0.36072  0.97951  0.41947  Biso   1.000  Hf
  Hf15     1.0000 0.36483  0.97871  0.91778  Biso   1.000  Hf
  Hf16     1.0000 0.63844  0.02037  0.08042  Biso   1.000  Hf
  Hf17     1.0000 0.63821  0.02049  0.58013  Biso   1.000  Hf
  Hf18     1.0000 0.63602  0.52214  0.07840  Biso   1.000  Hf
  Hf19     1.0000 0.63949  0.52130  0.57731  Biso   1.000  Hf
  Hf20     1.0000 0.63683  0.22933  0.32963  Biso   1.000  Hf
  Hf21     1.0000 0.63900  0.22810  0.82793  Biso   1.000  Hf
  Hf22     1.0000 0.63806  0.72938  0.32952  Biso   1.000  Hf
  Hf23     1.0000 0.63956  0.72827  0.82675  Biso   1.000  Hf
  Hf24     1.0000 0.85157  0.27568  0.07917  Biso   1.000  Hf
  Hf25     1.0000 0.86182  0.27091  0.57970  Biso   1.000  Hf
  Hf26     1.0000 0.85697  0.76617  0.07851  Biso   1.000  Hf
  Hf27     1.0000 0.86258  0.77171  0.58057  Biso   1.000  Hf
  Hf28     1.0000 0.86209  0.47865  0.32974  Biso   1.000  Hf
  Hf29     1.0000 0.86312  0.47726  0.82847  Biso   1.000  Hf
  Hf30     1.0000 0.85546  0.97880  0.33404  Biso   1.000  Hf
  Hf31     1.0000 0.86331  0.97911  0.83218  Biso   1.000  Hf
  Hf32     1.0000 0.03399  0.16636  0.58854  Biso   1.000  Hf
  Hf33     1.0000 0.03132  0.66185  0.08063  Biso   1.000  Hf
  Hf34     1.0000 0.03286  0.66460  0.58270  Biso   1.000  Hf
  Hf35     1.0000 0.01921  0.09548  0.33848  Biso   1.000  Hf
  Hf36     1.0000 0.03838  0.08252  0.84520  Biso   1.000  Hf
  Hf37     1.0000 0.03102  0.58797  0.33054  Biso   1.000  Hf
  Hf38     1.0000 0.03327  0.58312  0.83193  Biso   1.000  Hf
  Hf39     1.0000 0.46651  0.41505  0.08248  Biso   1.000  Hf
  Hf40     1.0000 0.46885  0.41515  0.58190  Biso   1.000  Hf
  Hf41     1.0000 0.46676  0.91890  0.08428  Biso   1.000  Hf
  Hf42     1.0000 0.46665  0.91613  0.58336  Biso   1.000  Hf
  Hf43     1.0000 0.46809  0.33695  0.33217  Biso   1.000  Hf
  Hf44     1.0000 0.46790  0.33417  0.83217  Biso   1.000  Hf
  Hf45     1.0000 0.46801  0.83438  0.33404  Biso   1.000  Hf
  Hf46     1.0000 0.46950  0.83507  0.83079  Biso   1.000  Hf
  Hf47     1.0000 0.28025  0.12902  0.29925  Biso   1.000  Hf
  Hf48     1.0000 0.27839  0.12379  0.78825  Biso   1.000  Hf
  Hf49     1.0000 0.27598  0.62156  0.29328  Biso   1.000  Hf
  Hf50     1.0000 0.27626  0.62391  0.79326  Biso   1.000  Hf
  Hf51     1.0000 0.28110  0.13856  0.03035  Biso   1.000  Hf
  Hf52     1.0000 0.27560  0.12594  0.54399  Biso   1.000  Hf
  Hf53     1.0000 0.27526  0.62170  0.04518  Biso   1.000  Hf
  Hf54     1.0000 0.27607  0.62724  0.54318  Biso   1.000  Hf
  Hf55     1.0000 0.22311  0.37403  0.29467  Biso   1.000  Hf
  Hf56     1.0000 0.22714  0.37584  0.79171  Biso   1.000  Hf
  Hf57     1.0000 0.22806  0.86758  0.29676  Biso   1.000  Hf
  Hf58     1.0000 0.22509  0.87319  0.79197  Biso   1.000  Hf
  Hf59     1.0000 0.22100  0.37770  0.04329  Biso   1.000  Hf
  Hf60     1.0000 0.22492  0.37732  0.54446  Biso   1.000  Hf
  Hf61     1.0000 0.23891  0.86426  0.03378  Biso   1.000  Hf
  Hf62     1.0000 0.22332  0.87748  0.54444  Biso   1.000  Hf
  Hf63     1.0000 0.53344  0.16665  0.16595  Biso   1.000  Hf
  Hf64     1.0000 0.53490  0.16647  0.66509  Biso   1.000  Hf
  Hf65     1.0000 0.53288  0.66454  0.16680  Biso   1.000  Hf
  Hf66     1.0000 0.53370  0.66481  0.66588  Biso   1.000  Hf
  Hf67     1.0000 0.53352  0.08395  0.41614  Biso   1.000  Hf
  Hf68     1.0000 0.53762  0.08235  0.91387  Biso   1.000  Hf
  Hf69     1.0000 0.53273  0.58481  0.41661  Biso   1.000  Hf
  Hf70     1.0000 0.53139  0.58623  0.91668  Biso   1.000  Hf
  Hf71     1.0000 0.96911  0.40595  0.17104  Biso   1.000  Hf
  Hf72     1.0000 0.96938  0.41254  0.67086  Biso   1.000  Hf
  Hf73     1.0000 0.94622  0.90455  0.17700  Biso   1.000  Hf
  Hf74     1.0000 0.96790  0.91522  0.67200  Biso   1.000  Hf
  Hf75     1.0000 0.96869  0.34093  0.42356  Biso   1.000  Hf
  Hf76     1.0000 0.96712  0.33118  0.92276  Biso   1.000  Hf
  Hf77     1.0000 0.96822  0.83931  0.42247  Biso   1.000  Hf
  Hf78     1.0000 0.97053  0.83728  0.92308  Biso   1.000  Hf
  Hf79     1.0000 0.77954  0.12392  0.95817  Biso   1.000  Hf
  Hf80     1.0000 0.77265  0.12546  0.45892  Biso   1.000  Hf
  Hf81     1.0000 0.77443  0.62071  0.95347  Biso   1.000  Hf
  Hf82     1.0000 0.77717  0.62437  0.45553  Biso   1.000  Hf
  Hf83     1.0000 0.77733  0.12858  0.20601  Biso   1.000  Hf
  Hf84     1.0000 0.77762  0.12540  0.70794  Biso   1.000  Hf
  Hf85     1.0000 0.77513  0.62545  0.20491  Biso   1.000  Hf
  Hf86     1.0000 0.77757  0.62507  0.70522  Biso   1.000  Hf
  Hf87     1.0000 0.72266  0.37378  0.95505  Biso   1.000  Hf
  Hf88     1.0000 0.72424  0.37453  0.45453  Biso   1.000  Hf
  Hf89     1.0000 0.72494  0.87281  0.95577  Biso   1.000  Hf
  Hf90     1.0000 0.72322  0.87296  0.45855  Biso   1.000  Hf
  Hf91     1.0000 0.72176  0.37835  0.20504  Biso   1.000  Hf
  Hf92     1.0000 0.72553  0.37563  0.70508  Biso   1.000  Hf
  Hf93     1.0000 0.71146  0.87756  0.20827  Biso   1.000  Hf
  Hf94     1.0000 0.72553  0.87579  0.70696  Biso   1.000  Hf
