data_image0
_cell_length_a       10.0707
_cell_length_b       10.2902
_cell_length_c       10.4506
_cell_angle_alpha    89.8219
_cell_angle_beta     90.0517
_cell_angle_gamma    90.0946

_symmetry_space_group_name_H-M    "P 1"
_symmetry_int_tables_number       1

loop_
  _symmetry_equiv_pos_as_xyz
  'x, y, z'

loop_
  _atom_site_label
  _atom_site_occupancy
  _atom_site_fract_x
  _atom_site_fract_y
  _atom_site_fract_z
  _atom_site_thermal_displace_type
  _atom_site_B_iso_or_equiv
  _atom_site_type_symbol
  La1      1.0000 0.13648  0.01354  0.15925  Biso   1.000  La
  Hf1      1.0000 0.13892  0.01991  0.67305  Biso   1.000  Hf
  Hf2      1.0000 0.13786  0.51933  0.17160  Biso   1.000  Hf
  Hf3      1.0000 0.13760  0.52097  0.67013  Biso   1.000  Hf
  Hf4      1.0000 0.13786  0.22671  0.42319  Biso   1.000  Hf
  Hf5      1.0000 0.12996  0.23734  0.91269  Biso   1.000  Hf
  Hf6      1.0000 0.13868  0.72880  0.42052  Biso   1.000  Hf
  Hf7      1.0000 0.13886  0.72562  0.91964  Biso   1.000  Hf
  Hf8      1.0000 0.36709  0.27787  0.17996  Biso   1.000  Hf
  Hf9      1.0000 0.36165  0.27038  0.67258  Biso   1.000  Hf
  Hf10     1.0000 0.36535  0.76625  0.17157  Biso   1.000  Hf
  Hf11     1.0000 0.36016  0.76910  0.66783  Biso   1.000  Hf
  Hf12     1.0000 0.35974  0.47994  0.42313  Biso   1.000  Hf
  Hf13     1.0000 0.36297  0.47773  0.92141  Biso   1.000  Hf
  Hf14     1.0000 0.36225  0.97853  0.42090  Biso   1.000  Hf
  Hf15     1.0000 0.36980  0.97192  0.91322  Biso   1.000  Hf
  Hf16     1.0000 0.63891  0.02115  0.08173  Biso   1.000  Hf
  Hf17     1.0000 0.63795  0.02145  0.58026  Biso   1.000  Hf
  Hf18     1.0000 0.64004  0.52092  0.07821  Biso   1.000  Hf
  Hf19     1.0000 0.63778  0.52087  0.57665  Biso   1.000  Hf
  Hf20     1.0000 0.64057  0.22949  0.33035  Biso   1.000  Hf
  Hf21     1.0000 0.63936  0.22922  0.82896  Biso   1.000  Hf
  Hf22     1.0000 0.63922  0.72989  0.32942  Biso   1.000  Hf
  Hf23     1.0000 0.64034  0.72745  0.82638  Biso   1.000  Hf
  Hf24     1.0000 0.85924  0.27316  0.07708  Biso   1.000  Hf
  Hf25     1.0000 0.86225  0.27175  0.57912  Biso   1.000  Hf
  Hf26     1.0000 0.85786  0.76874  0.07847  Biso   1.000  Hf
  Hf27     1.0000 0.86267  0.77178  0.57816  Biso   1.000  Hf
  Hf28     1.0000 0.86183  0.47948  0.32857  Biso   1.000  Hf
  Hf29     1.0000 0.85805  0.48142  0.82498  Biso   1.000  Hf
  Hf30     1.0000 0.85759  0.97985  0.33296  Biso   1.000  Hf
  Hf31     1.0000 0.86087  0.97866  0.82983  Biso   1.000  Hf
  Hf32     1.0000 0.03632  0.18917  0.07918  Biso   1.000  Hf
  Hf33     1.0000 0.03609  0.17251  0.59300  Biso   1.000  Hf
  Hf34     1.0000 0.03557  0.67093  0.08661  Biso   1.000  Hf
  Hf35     1.0000 0.03485  0.66943  0.58660  Biso   1.000  Hf
  Hf36     1.0000 0.02618  0.08415  0.34870  Biso   1.000  Hf
  Hf37     1.0000 0.03504  0.07886  0.83904  Biso   1.000  Hf
  Hf38     1.0000 0.03488  0.58218  0.33455  Biso   1.000  Hf
  Hf39     1.0000 0.03328  0.57949  0.83491  Biso   1.000  Hf
  Hf40     1.0000 0.46902  0.41822  0.08479  Biso   1.000  Hf
  Hf41     1.0000 0.46685  0.41442  0.58431  Biso   1.000  Hf
  Hf42     1.0000 0.46400  0.92247  0.08631  Biso   1.000  Hf
  Hf43     1.0000 0.46664  0.91565  0.58457  Biso   1.000  Hf
  Hf44     1.0000 0.47053  0.33918  0.33530  Biso   1.000  Hf
  Hf45     1.0000 0.46735  0.33336  0.83423  Biso   1.000  Hf
  Hf46     1.0000 0.46974  0.83410  0.33440  Biso   1.000  Hf
  Hf47     1.0000 0.46937  0.83178  0.83022  Biso   1.000  Hf
  Hf48     1.0000 0.28363  0.12974  0.30005  Biso   1.000  Hf
  Hf49     1.0000 0.27663  0.12463  0.80292  Biso   1.000  Hf
  Hf50     1.0000 0.27736  0.62063  0.29388  Biso   1.000  Hf
  Hf51     1.0000 0.27658  0.62381  0.79410  Biso   1.000  Hf
  Hf52     1.0000 0.27608  0.12436  0.54886  Biso   1.000  Hf
  Hf53     1.0000 0.27343  0.61602  0.04539  Biso   1.000  Hf
  Hf54     1.0000 0.27558  0.62568  0.54403  Biso   1.000  Hf
  Hf55     1.0000 0.22339  0.37515  0.29673  Biso   1.000  Hf
  Hf56     1.0000 0.22444  0.37651  0.79314  Biso   1.000  Hf
  Hf57     1.0000 0.23250  0.86343  0.29945  Biso   1.000  Hf
  Hf58     1.0000 0.22517  0.87224  0.78950  Biso   1.000  Hf
  Hf59     1.0000 0.23036  0.36457  0.04412  Biso   1.000  Hf
  Hf60     1.0000 0.22404  0.37602  0.54580  Biso   1.000  Hf
  Hf61     1.0000 0.24356  0.85929  0.03037  Biso   1.000  Hf
  Hf62     1.0000 0.22340  0.87627  0.54392  Biso   1.000  Hf
  Hf63     1.0000 0.53300  0.16740  0.16739  Biso   1.000  Hf
  Hf64     1.0000 0.53254  0.16482  0.66777  Biso   1.000  Hf
  Hf65     1.0000 0.53529  0.66531  0.16530  Biso   1.000  Hf
  Hf66     1.0000 0.53310  0.66485  0.66509  Biso   1.000  Hf
  Hf67     1.0000 0.53410  0.08485  0.41717  Biso   1.000  Hf
  Hf68     1.0000 0.53404  0.08467  0.91693  Biso   1.000  Hf
  Hf69     1.0000 0.53208  0.58458  0.41664  Biso   1.000  Hf
  Hf70     1.0000 0.53308  0.58472  0.91561  Biso   1.000  Hf
  Hf71     1.0000 0.96289  0.42270  0.16086  Biso   1.000  Hf
  Hf72     1.0000 0.96384  0.42172  0.66089  Biso   1.000  Hf
  Hf73     1.0000 0.94234  0.91646  0.16761  Biso   1.000  Hf
  Hf74     1.0000 0.96544  0.91915  0.66450  Biso   1.000  Hf
  Hf75     1.0000 0.96634  0.33356  0.41476  Biso   1.000  Hf
  Hf76     1.0000 0.95790  0.33214  0.90439  Biso   1.000  Hf
  Hf77     1.0000 0.96567  0.83143  0.41410  Biso   1.000  Hf
  Hf78     1.0000 0.96791  0.83319  0.91630  Biso   1.000  Hf
  Hf79     1.0000 0.77648  0.12383  0.95660  Biso   1.000  Hf
  Hf80     1.0000 0.77375  0.12600  0.45853  Biso   1.000  Hf
  Hf81     1.0000 0.77557  0.62330  0.95271  Biso   1.000  Hf
  Hf82     1.0000 0.77673  0.62410  0.45465  Biso   1.000  Hf
  Hf83     1.0000 0.77575  0.12851  0.20723  Biso   1.000  Hf
  Hf84     1.0000 0.77614  0.12625  0.70700  Biso   1.000  Hf
  Hf85     1.0000 0.77634  0.62667  0.20484  Biso   1.000  Hf
  Hf86     1.0000 0.77534  0.62689  0.70287  Biso   1.000  Hf
  Hf87     1.0000 0.72171  0.37522  0.95430  Biso   1.000  Hf
  Hf88     1.0000 0.72433  0.37496  0.45461  Biso   1.000  Hf
  Hf89     1.0000 0.72269  0.87351  0.95530  Biso   1.000  Hf
  Hf90     1.0000 0.72378  0.87437  0.45768  Biso   1.000  Hf
  Hf91     1.0000 0.72372  0.37711  0.20547  Biso   1.000  Hf
  Hf92     1.0000 0.72293  0.37572  0.70386  Biso   1.000  Hf
  Hf93     1.0000 0.71175  0.87634  0.20711  Biso   1.000  Hf
  Hf94     1.0000 0.72470  0.87579  0.70586  Biso   1.000  Hf
