data_image0
_cell_length_a       10.0068
_cell_length_b       10.377
_cell_length_c       10.0431
_cell_angle_alpha    90.195
_cell_angle_beta     90.3557
_cell_angle_gamma    89.8747

_symmetry_space_group_name_H-M    "P 1"
_symmetry_int_tables_number       1

loop_
  _symmetry_equiv_pos_as_xyz
  'x, y, z'

loop_
  _atom_site_label
  _atom_site_occupancy
  _atom_site_fract_x
  _atom_site_fract_y
  _atom_site_fract_z
  _atom_site_thermal_displace_type
  _atom_site_B_iso_or_equiv
  _atom_site_type_symbol
  La1      1.0000 0.12247  0.00594  0.11967  Biso   1.000  La
  Hf1      1.0000 0.13322  0.01594  0.62633  Biso   1.000  Hf
  Hf2      1.0000 0.13237  0.51733  0.12515  Biso   1.000  Hf
  Hf3      1.0000 0.13392  0.51804  0.62394  Biso   1.000  Hf
  Hf4      1.0000 0.63268  0.01488  0.12636  Biso   1.000  Hf
  Hf5      1.0000 0.63127  0.01813  0.62295  Biso   1.000  Hf
  Hf6      1.0000 0.63376  0.51474  0.12657  Biso   1.000  Hf
  Hf7      1.0000 0.63421  0.51540  0.62527  Biso   1.000  Hf
  Hf8      1.0000 0.13449  0.23452  0.37593  Biso   1.000  Hf
  Hf9      1.0000 0.13969  0.24392  0.86599  Biso   1.000  Hf
  Hf10     1.0000 0.13395  0.73405  0.37603  Biso   1.000  Hf
  Hf11     1.0000 0.13740  0.73405  0.87515  Biso   1.000  Hf
  Hf12     1.0000 0.63251  0.23433  0.37296  Biso   1.000  Hf
  Hf13     1.0000 0.63474  0.23351  0.87572  Biso   1.000  Hf
  Hf14     1.0000 0.63161  0.73235  0.37846  Biso   1.000  Hf
  Hf15     1.0000 0.63514  0.73015  0.87565  Biso   1.000  Hf
  Hf16     1.0000 0.36366  0.26562  0.12439  Biso   1.000  Hf
  Hf17     1.0000 0.36833  0.26602  0.62180  Biso   1.000  Hf
  Hf18     1.0000 0.37026  0.76379  0.12342  Biso   1.000  Hf
  Hf19     1.0000 0.36683  0.76672  0.62368  Biso   1.000  Hf
  Hf20     1.0000 0.86405  0.26669  0.12748  Biso   1.000  Hf
  Hf21     1.0000 0.86613  0.26721  0.62445  Biso   1.000  Hf
  Hf22     1.0000 0.86012  0.76544  0.13111  Biso   1.000  Hf
  Hf23     1.0000 0.86730  0.76466  0.62503  Biso   1.000  Hf
  Hf24     1.0000 0.36496  0.48358  0.37340  Biso   1.000  Hf
  Hf25     1.0000 0.36918  0.48436  0.87516  Biso   1.000  Hf
  Hf26     1.0000 0.36455  0.98449  0.37367  Biso   1.000  Hf
  Hf27     1.0000 0.36974  0.98416  0.87173  Biso   1.000  Hf
  Hf28     1.0000 0.86646  0.48374  0.37588  Biso   1.000  Hf
  Hf29     1.0000 0.86748  0.48147  0.87683  Biso   1.000  Hf
  Hf30     1.0000 0.86152  0.98348  0.38182  Biso   1.000  Hf
  Hf31     1.0000 0.85569  0.97925  0.87042  Biso   1.000  Hf
  Hf32     1.0000 0.02674  0.19327  0.20596  Biso   1.000  Hf
  Hf33     1.0000 0.03429  0.18306  0.69665  Biso   1.000  Hf
  Hf34     1.0000 0.03590  0.68706  0.19453  Biso   1.000  Hf
  Hf35     1.0000 0.03609  0.68400  0.69634  Biso   1.000  Hf
  Hf36     1.0000 0.53788  0.18521  0.18925  Biso   1.000  Hf
  Hf37     1.0000 0.53617  0.18481  0.69478  Biso   1.000  Hf
  Hf38     1.0000 0.53548  0.68004  0.19684  Biso   1.000  Hf
  Hf39     1.0000 0.53712  0.68356  0.69454  Biso   1.000  Hf
  Hf40     1.0000 0.03282  0.06736  0.44650  Biso   1.000  Hf
  Hf41     1.0000 0.03507  0.56737  0.44586  Biso   1.000  Hf
  Hf42     1.0000 0.03403  0.57104  0.94432  Biso   1.000  Hf
  Hf43     1.0000 0.53492  0.06699  0.44376  Biso   1.000  Hf
  Hf44     1.0000 0.53958  0.06627  0.94253  Biso   1.000  Hf
  Hf45     1.0000 0.53416  0.56496  0.44572  Biso   1.000  Hf
  Hf46     1.0000 0.53718  0.56577  0.94636  Biso   1.000  Hf
  Hf47     1.0000 0.46436  0.43211  0.19427  Biso   1.000  Hf
  Hf48     1.0000 0.46636  0.43383  0.69442  Biso   1.000  Hf
  Hf49     1.0000 0.46188  0.93613  0.19106  Biso   1.000  Hf
  Hf50     1.0000 0.46534  0.93394  0.69361  Biso   1.000  Hf
  Hf51     1.0000 0.96039  0.43904  0.19261  Biso   1.000  Hf
  Hf52     1.0000 0.96913  0.43191  0.69981  Biso   1.000  Hf
  Hf53     1.0000 0.94114  0.92716  0.20938  Biso   1.000  Hf
  Hf54     1.0000 0.96315  0.93287  0.69724  Biso   1.000  Hf
  Hf55     1.0000 0.46326  0.31535  0.44292  Biso   1.000  Hf
  Hf56     1.0000 0.46585  0.31664  0.94255  Biso   1.000  Hf
  Hf57     1.0000 0.46514  0.81757  0.44670  Biso   1.000  Hf
  Hf58     1.0000 0.47332  0.81742  0.94475  Biso   1.000  Hf
  Hf59     1.0000 0.96559  0.31990  0.44912  Biso   1.000  Hf
  Hf60     1.0000 0.96850  0.31009  0.94716  Biso   1.000  Hf
  Hf61     1.0000 0.96462  0.81596  0.44965  Biso   1.000  Hf
  Hf62     1.0000 0.97888  0.83748  0.95752  Biso   1.000  Hf
  Hf63     1.0000 0.27908  0.12678  0.25373  Biso   1.000  Hf
  Hf64     1.0000 0.27225  0.11886  0.74478  Biso   1.000  Hf
  Hf65     1.0000 0.26880  0.61439  0.24814  Biso   1.000  Hf
  Hf66     1.0000 0.27136  0.61798  0.74858  Biso   1.000  Hf
  Hf67     1.0000 0.76626  0.11701  0.25117  Biso   1.000  Hf
  Hf68     1.0000 0.76883  0.11712  0.74747  Biso   1.000  Hf
  Hf69     1.0000 0.76926  0.61810  0.25085  Biso   1.000  Hf
  Hf70     1.0000 0.77275  0.61476  0.74966  Biso   1.000  Hf
  Hf71     1.0000 0.26806  0.13170  0.50024  Biso   1.000  Hf
  Hf72     1.0000 0.26788  0.13871  0.98790  Biso   1.000  Hf
  Hf73     1.0000 0.27002  0.63334  0.49856  Biso   1.000  Hf
  Hf74     1.0000 0.27161  0.63058  0.99851  Biso   1.000  Hf
  Hf75     1.0000 0.76679  0.13520  0.50011  Biso   1.000  Hf
  Hf76     1.0000 0.77804  0.12787  0.99830  Biso   1.000  Hf
  Hf77     1.0000 0.76998  0.63167  0.50006  Biso   1.000  Hf
  Hf78     1.0000 0.77211  0.63066  0.99932  Biso   1.000  Hf
  Hf79     1.0000 0.23062  0.38409  0.49808  Biso   1.000  Hf
  Hf80     1.0000 0.23138  0.38649  0.99668  Biso   1.000  Hf
  Hf81     1.0000 0.22921  0.88380  0.49842  Biso   1.000  Hf
  Hf82     1.0000 0.24516  0.87304  0.98763  Biso   1.000  Hf
  Hf83     1.0000 0.72971  0.38315  0.49888  Biso   1.000  Hf
  Hf84     1.0000 0.73052  0.38112  0.99869  Biso   1.000  Hf
  Hf85     1.0000 0.72868  0.88139  0.50330  Biso   1.000  Hf
  Hf86     1.0000 0.73152  0.87864  0.00013  Biso   1.000  Hf
  Hf87     1.0000 0.22690  0.36907  0.24703  Biso   1.000  Hf
  Hf88     1.0000 0.23399  0.36970  0.74526  Biso   1.000  Hf
  Hf89     1.0000 0.24141  0.85666  0.25441  Biso   1.000  Hf
  Hf90     1.0000 0.23052  0.86755  0.74525  Biso   1.000  Hf
  Hf91     1.0000 0.72909  0.36858  0.25017  Biso   1.000  Hf
  Hf92     1.0000 0.73207  0.36645  0.74931  Biso   1.000  Hf
  Hf93     1.0000 0.71597  0.86571  0.25218  Biso   1.000  Hf
  Hf94     1.0000 0.73062  0.86627  0.75127  Biso   1.000  Hf
