data_image0
_cell_length_a       10.168
_cell_length_b       10.3075
_cell_length_c       10.4624
_cell_angle_alpha    90.1161
_cell_angle_beta     80.3816
_cell_angle_gamma    89.8809

_symmetry_space_group_name_H-M    "P 1"
_symmetry_int_tables_number       1

loop_
  _symmetry_equiv_pos_as_xyz
  'x, y, z'

loop_
  _atom_site_label
  _atom_site_occupancy
  _atom_site_fract_x
  _atom_site_fract_y
  _atom_site_fract_z
  _atom_site_thermal_displace_type
  _atom_site_B_iso_or_equiv
  _atom_site_type_symbol
  La1      1.0000 0.13235  0.01160  0.14273  Biso   1.000  La
  Hf1      1.0000 0.13966  0.02103  0.64647  Biso   1.000  Hf
  Hf2      1.0000 0.13828  0.52219  0.14444  Biso   1.000  Hf
  Hf3      1.0000 0.13815  0.52268  0.64700  Biso   1.000  Hf
  Hf4      1.0000 0.63723  0.02155  0.14505  Biso   1.000  Hf
  Hf5      1.0000 0.63883  0.02190  0.64833  Biso   1.000  Hf
  Hf6      1.0000 0.63880  0.51847  0.14505  Biso   1.000  Hf
  Hf7      1.0000 0.63997  0.52092  0.64569  Biso   1.000  Hf
  Hf8      1.0000 0.14645  0.23720  0.40110  Biso   1.000  Hf
  Hf9      1.0000 0.13925  0.23255  0.89486  Biso   1.000  Hf
  Hf10     1.0000 0.13903  0.72732  0.39706  Biso   1.000  Hf
  Hf11     1.0000 0.14087  0.72859  0.89504  Biso   1.000  Hf
  Hf12     1.0000 0.63767  0.22962  0.39574  Biso   1.000  Hf
  Hf13     1.0000 0.63953  0.22970  0.89601  Biso   1.000  Hf
  Hf14     1.0000 0.63373  0.72327  0.39782  Biso   1.000  Hf
  Hf15     1.0000 0.64152  0.72884  0.89426  Biso   1.000  Hf
  Hf16     1.0000 0.35958  0.27012  0.10386  Biso   1.000  Hf
  Hf17     1.0000 0.36358  0.27062  0.60583  Biso   1.000  Hf
  Hf18     1.0000 0.36705  0.76820  0.10350  Biso   1.000  Hf
  Hf19     1.0000 0.36048  0.77184  0.60506  Biso   1.000  Hf
  Hf20     1.0000 0.86029  0.27335  0.10291  Biso   1.000  Hf
  Hf21     1.0000 0.86158  0.26970  0.60233  Biso   1.000  Hf
  Hf22     1.0000 0.85670  0.76688  0.10414  Biso   1.000  Hf
  Hf23     1.0000 0.86245  0.77267  0.60428  Biso   1.000  Hf
  Hf24     1.0000 0.36115  0.47896  0.35207  Biso   1.000  Hf
  Hf25     1.0000 0.36375  0.47864  0.85420  Biso   1.000  Hf
  Hf26     1.0000 0.36210  0.97858  0.35663  Biso   1.000  Hf
  Hf27     1.0000 0.36460  0.97845  0.85293  Biso   1.000  Hf
  Hf28     1.0000 0.86246  0.47805  0.35293  Biso   1.000  Hf
  Hf29     1.0000 0.86129  0.47849  0.85151  Biso   1.000  Hf
  Hf30     1.0000 0.83889  0.97064  0.35882  Biso   1.000  Hf
  Hf31     1.0000 0.86326  0.97900  0.85545  Biso   1.000  Hf
  Hf32     1.0000 0.03631  0.18960  0.07879  Biso   1.000  Hf
  Hf33     1.0000 0.03511  0.16571  0.57476  Biso   1.000  Hf
  Hf34     1.0000 0.03803  0.67477  0.08177  Biso   1.000  Hf
  Hf35     1.0000 0.03514  0.66998  0.58039  Biso   1.000  Hf
  Hf36     1.0000 0.53530  0.16947  0.08002  Biso   1.000  Hf
  Hf37     1.0000 0.53723  0.16972  0.58098  Biso   1.000  Hf
  Hf38     1.0000 0.53963  0.66802  0.07941  Biso   1.000  Hf
  Hf39     1.0000 0.53309  0.66554  0.58064  Biso   1.000  Hf
  Hf40     1.0000 0.03727  0.08142  0.83198  Biso   1.000  Hf
  Hf41     1.0000 0.03507  0.58115  0.33128  Biso   1.000  Hf
  Hf42     1.0000 0.03515  0.58106  0.82890  Biso   1.000  Hf
  Hf43     1.0000 0.53695  0.07989  0.33154  Biso   1.000  Hf
  Hf44     1.0000 0.53842  0.08173  0.82929  Biso   1.000  Hf
  Hf45     1.0000 0.53377  0.57887  0.32865  Biso   1.000  Hf
  Hf46     1.0000 0.53750  0.58157  0.82927  Biso   1.000  Hf
  Hf47     1.0000 0.46446  0.41751  0.16978  Biso   1.000  Hf
  Hf48     1.0000 0.46683  0.41784  0.67072  Biso   1.000  Hf
  Hf49     1.0000 0.46215  0.92300  0.16867  Biso   1.000  Hf
  Hf50     1.0000 0.46586  0.91842  0.67028  Biso   1.000  Hf
  Hf51     1.0000 0.95987  0.42708  0.16659  Biso   1.000  Hf
  Hf52     1.0000 0.96552  0.41844  0.66494  Biso   1.000  Hf
  Hf53     1.0000 0.93430  0.91883  0.18033  Biso   1.000  Hf
  Hf54     1.0000 0.96542  0.91828  0.67260  Biso   1.000  Hf
  Hf55     1.0000 0.46301  0.33027  0.42023  Biso   1.000  Hf
  Hf56     1.0000 0.46695  0.33337  0.92116  Biso   1.000  Hf
  Hf57     1.0000 0.46246  0.82950  0.42278  Biso   1.000  Hf
  Hf58     1.0000 0.47398  0.83411  0.92008  Biso   1.000  Hf
  Hf59     1.0000 0.96437  0.32256  0.41225  Biso   1.000  Hf
  Hf60     1.0000 0.96185  0.33178  0.91448  Biso   1.000  Hf
  Hf61     1.0000 0.96595  0.84042  0.42066  Biso   1.000  Hf
  Hf62     1.0000 0.96747  0.83404  0.92407  Biso   1.000  Hf
  Hf63     1.0000 0.27500  0.13695  0.25317  Biso   1.000  Hf
  Hf64     1.0000 0.27636  0.12949  0.73927  Biso   1.000  Hf
  Hf65     1.0000 0.27661  0.62532  0.23915  Biso   1.000  Hf
  Hf66     1.0000 0.27632  0.62929  0.74051  Biso   1.000  Hf
  Hf67     1.0000 0.77474  0.12924  0.24202  Biso   1.000  Hf
  Hf68     1.0000 0.77837  0.12974  0.74013  Biso   1.000  Hf
  Hf69     1.0000 0.77410  0.62718  0.24133  Biso   1.000  Hf
  Hf70     1.0000 0.77744  0.62980  0.73830  Biso   1.000  Hf
  Hf71     1.0000 0.27793  0.12074  0.49476  Biso   1.000  Hf
  Hf72     1.0000 0.28540  0.12764  0.98119  Biso   1.000  Hf
  Hf73     1.0000 0.27504  0.61998  0.49078  Biso   1.000  Hf
  Hf74     1.0000 0.27737  0.61857  0.99018  Biso   1.000  Hf
  Hf75     1.0000 0.77483  0.11869  0.49124  Biso   1.000  Hf
  Hf76     1.0000 0.77602  0.12146  0.99094  Biso   1.000  Hf
  Hf77     1.0000 0.77634  0.62037  0.48999  Biso   1.000  Hf
  Hf78     1.0000 0.77750  0.61906  0.98894  Biso   1.000  Hf
  Hf79     1.0000 0.22503  0.38073  0.00850  Biso   1.000  Hf
  Hf80     1.0000 0.22412  0.37863  0.50956  Biso   1.000  Hf
  Hf81     1.0000 0.23939  0.86655  0.99726  Biso   1.000  Hf
  Hf82     1.0000 0.22310  0.87887  0.51179  Biso   1.000  Hf
  Hf83     1.0000 0.72286  0.37965  0.00783  Biso   1.000  Hf
  Hf84     1.0000 0.72602  0.37809  0.50855  Biso   1.000  Hf
  Hf85     1.0000 0.72493  0.87865  0.00956  Biso   1.000  Hf
  Hf86     1.0000 0.71843  0.87467  0.51286  Biso   1.000  Hf
  Hf87     1.0000 0.22199  0.37455  0.25877  Biso   1.000  Hf
  Hf88     1.0000 0.22535  0.37272  0.75838  Biso   1.000  Hf
  Hf89     1.0000 0.23562  0.85990  0.26601  Biso   1.000  Hf
  Hf90     1.0000 0.22432  0.87163  0.75822  Biso   1.000  Hf
  Hf91     1.0000 0.72275  0.37095  0.25989  Biso   1.000  Hf
  Hf92     1.0000 0.72491  0.37072  0.75783  Biso   1.000  Hf
  Hf93     1.0000 0.70624  0.86654  0.26442  Biso   1.000  Hf
  Hf94     1.0000 0.72686  0.87165  0.75947  Biso   1.000  Hf
