data_image0
_cell_length_a       10.1429
_cell_length_b       10.2911
_cell_length_c       10.4721
_cell_angle_alpha    89.9871
_cell_angle_beta     80.734
_cell_angle_gamma    89.9619

_symmetry_space_group_name_H-M    "P 1"
_symmetry_int_tables_number       1

loop_
  _symmetry_equiv_pos_as_xyz
  'x, y, z'

loop_
  _atom_site_label
  _atom_site_occupancy
  _atom_site_fract_x
  _atom_site_fract_y
  _atom_site_fract_z
  _atom_site_thermal_displace_type
  _atom_site_B_iso_or_equiv
  _atom_site_type_symbol
  La1      1.0000 0.12949  0.01903  0.13700  Biso   1.000  La
  Hf1      1.0000 0.13987  0.02055  0.64543  Biso   1.000  Hf
  Hf2      1.0000 0.13905  0.52046  0.14474  Biso   1.000  Hf
  Hf3      1.0000 0.13891  0.52233  0.64455  Biso   1.000  Hf
  Hf4      1.0000 0.63894  0.01924  0.14684  Biso   1.000  Hf
  Hf5      1.0000 0.63964  0.02175  0.64689  Biso   1.000  Hf
  Hf6      1.0000 0.63612  0.52160  0.14685  Biso   1.000  Hf
  Hf7      1.0000 0.63990  0.52154  0.64567  Biso   1.000  Hf
  Hf8      1.0000 0.13831  0.22868  0.39731  Biso   1.000  Hf
  Hf9      1.0000 0.14485  0.23553  0.88466  Biso   1.000  Hf
  Hf10     1.0000 0.13888  0.72818  0.39475  Biso   1.000  Hf
  Hf11     1.0000 0.14060  0.72752  0.89427  Biso   1.000  Hf
  Hf12     1.0000 0.63754  0.22889  0.39681  Biso   1.000  Hf
  Hf13     1.0000 0.63835  0.22770  0.89596  Biso   1.000  Hf
  Hf14     1.0000 0.63590  0.72741  0.39708  Biso   1.000  Hf
  Hf15     1.0000 0.64161  0.72906  0.89395  Biso   1.000  Hf
  Hf16     1.0000 0.36126  0.27080  0.10407  Biso   1.000  Hf
  Hf17     1.0000 0.36303  0.27169  0.60130  Biso   1.000  Hf
  Hf18     1.0000 0.36500  0.76963  0.10251  Biso   1.000  Hf
  Hf19     1.0000 0.36090  0.77187  0.60300  Biso   1.000  Hf
  Hf20     1.0000 0.85133  0.27540  0.10613  Biso   1.000  Hf
  Hf21     1.0000 0.86187  0.27130  0.60562  Biso   1.000  Hf
  Hf22     1.0000 0.85678  0.76641  0.10455  Biso   1.000  Hf
  Hf23     1.0000 0.86234  0.77197  0.60461  Biso   1.000  Hf
  Hf24     1.0000 0.35908  0.47849  0.35301  Biso   1.000  Hf
  Hf25     1.0000 0.36464  0.47949  0.85337  Biso   1.000  Hf
  Hf26     1.0000 0.36130  0.97962  0.35326  Biso   1.000  Hf
  Hf27     1.0000 0.36378  0.97775  0.85101  Biso   1.000  Hf
  Hf28     1.0000 0.86177  0.47831  0.35561  Biso   1.000  Hf
  Hf29     1.0000 0.86337  0.47706  0.85453  Biso   1.000  Hf
  Hf30     1.0000 0.85428  0.97822  0.35892  Biso   1.000  Hf
  Hf31     1.0000 0.86364  0.97862  0.85648  Biso   1.000  Hf
  Hf32     1.0000 0.03716  0.17152  0.58572  Biso   1.000  Hf
  Hf33     1.0000 0.03620  0.67007  0.08040  Biso   1.000  Hf
  Hf34     1.0000 0.03574  0.66918  0.57973  Biso   1.000  Hf
  Hf35     1.0000 0.53659  0.16850  0.07896  Biso   1.000  Hf
  Hf36     1.0000 0.53510  0.16811  0.57909  Biso   1.000  Hf
  Hf37     1.0000 0.53831  0.66907  0.07828  Biso   1.000  Hf
  Hf38     1.0000 0.53468  0.66773  0.58043  Biso   1.000  Hf
  Hf39     1.0000 0.02256  0.08950  0.33979  Biso   1.000  Hf
  Hf40     1.0000 0.04024  0.07874  0.83986  Biso   1.000  Hf
  Hf41     1.0000 0.03441  0.58261  0.32758  Biso   1.000  Hf
  Hf42     1.0000 0.03727  0.57816  0.83030  Biso   1.000  Hf
  Hf43     1.0000 0.53724  0.08022  0.33026  Biso   1.000  Hf
  Hf44     1.0000 0.53661  0.08240  0.82811  Biso   1.000  Hf
  Hf45     1.0000 0.53338  0.58153  0.32864  Biso   1.000  Hf
  Hf46     1.0000 0.53736  0.58204  0.82861  Biso   1.000  Hf
  Hf47     1.0000 0.46361  0.41834  0.17027  Biso   1.000  Hf
  Hf48     1.0000 0.46656  0.41798  0.67008  Biso   1.000  Hf
  Hf49     1.0000 0.46343  0.92122  0.16815  Biso   1.000  Hf
  Hf50     1.0000 0.46555  0.91837  0.67000  Biso   1.000  Hf
  Hf51     1.0000 0.96646  0.41043  0.17302  Biso   1.000  Hf
  Hf52     1.0000 0.96596  0.41751  0.67353  Biso   1.000  Hf
  Hf53     1.0000 0.93505  0.92127  0.17430  Biso   1.000  Hf
  Hf54     1.0000 0.96489  0.92008  0.67254  Biso   1.000  Hf
  Hf55     1.0000 0.46416  0.33140  0.41918  Biso   1.000  Hf
  Hf56     1.0000 0.46735  0.33389  0.92091  Biso   1.000  Hf
  Hf57     1.0000 0.46274  0.83108  0.42184  Biso   1.000  Hf
  Hf58     1.0000 0.47262  0.83421  0.91912  Biso   1.000  Hf
  Hf59     1.0000 0.96534  0.33584  0.42595  Biso   1.000  Hf
  Hf60     1.0000 0.96508  0.32741  0.92641  Biso   1.000  Hf
  Hf61     1.0000 0.96455  0.83307  0.42040  Biso   1.000  Hf
  Hf62     1.0000 0.96620  0.83033  0.92211  Biso   1.000  Hf
  Hf63     1.0000 0.28212  0.13612  0.24630  Biso   1.000  Hf
  Hf64     1.0000 0.27762  0.12972  0.73509  Biso   1.000  Hf
  Hf65     1.0000 0.27639  0.62580  0.23811  Biso   1.000  Hf
  Hf66     1.0000 0.27652  0.62922  0.73913  Biso   1.000  Hf
  Hf67     1.0000 0.77555  0.13206  0.24157  Biso   1.000  Hf
  Hf68     1.0000 0.77790  0.12859  0.74235  Biso   1.000  Hf
  Hf69     1.0000 0.77508  0.62701  0.24103  Biso   1.000  Hf
  Hf70     1.0000 0.77890  0.62838  0.74001  Biso   1.000  Hf
  Hf71     1.0000 0.27525  0.12029  0.49082  Biso   1.000  Hf
  Hf72     1.0000 0.27967  0.13118  0.97790  Biso   1.000  Hf
  Hf73     1.0000 0.27571  0.62146  0.48910  Biso   1.000  Hf
  Hf74     1.0000 0.27745  0.61778  0.98967  Biso   1.000  Hf
  Hf75     1.0000 0.77349  0.12202  0.49373  Biso   1.000  Hf
  Hf76     1.0000 0.77792  0.12107  0.99234  Biso   1.000  Hf
  Hf77     1.0000 0.77662  0.62112  0.49088  Biso   1.000  Hf
  Hf78     1.0000 0.77644  0.61818  0.98974  Biso   1.000  Hf
  Hf79     1.0000 0.22286  0.37862  0.00748  Biso   1.000  Hf
  Hf80     1.0000 0.22405  0.38035  0.50877  Biso   1.000  Hf
  Hf81     1.0000 0.23732  0.86782  0.99664  Biso   1.000  Hf
  Hf82     1.0000 0.22244  0.88005  0.50927  Biso   1.000  Hf
  Hf83     1.0000 0.72301  0.37926  0.01042  Biso   1.000  Hf
  Hf84     1.0000 0.72361  0.37931  0.51007  Biso   1.000  Hf
  Hf85     1.0000 0.72484  0.87827  0.00901  Biso   1.000  Hf
  Hf86     1.0000 0.72276  0.87844  0.51196  Biso   1.000  Hf
  Hf87     1.0000 0.22141  0.37220  0.25876  Biso   1.000  Hf
  Hf88     1.0000 0.22720  0.37360  0.75577  Biso   1.000  Hf
  Hf89     1.0000 0.23131  0.86317  0.26130  Biso   1.000  Hf
  Hf90     1.0000 0.22415  0.87086  0.75655  Biso   1.000  Hf
  Hf91     1.0000 0.72175  0.37272  0.26063  Biso   1.000  Hf
  Hf92     1.0000 0.72533  0.37038  0.76043  Biso   1.000  Hf
  Hf93     1.0000 0.70997  0.86844  0.26414  Biso   1.000  Hf
  Hf94     1.0000 0.72651  0.87103  0.75960  Biso   1.000  Hf
