data_image0
_cell_length_a       10.0697
_cell_length_b       10.2753
_cell_length_c       10.4518
_cell_angle_alpha    90.1348
_cell_angle_beta     90.4491
_cell_angle_gamma    90.0359

_symmetry_space_group_name_H-M    "P 1"
_symmetry_int_tables_number       1

loop_
  _symmetry_equiv_pos_as_xyz
  'x, y, z'

loop_
  _atom_site_label
  _atom_site_occupancy
  _atom_site_fract_x
  _atom_site_fract_y
  _atom_site_fract_z
  _atom_site_thermal_displace_type
  _atom_site_B_iso_or_equiv
  _atom_site_type_symbol
  La1      1.0000 0.13391  0.00764  0.15829  Biso   1.000  La
  Hf1      1.0000 0.13722  0.02101  0.66944  Biso   1.000  Hf
  Hf2      1.0000 0.13650  0.51786  0.17071  Biso   1.000  Hf
  Hf3      1.0000 0.13855  0.52156  0.67131  Biso   1.000  Hf
  Hf4      1.0000 0.13676  0.22629  0.42056  Biso   1.000  Hf
  Hf5      1.0000 0.13761  0.23392  0.91827  Biso   1.000  Hf
  Hf6      1.0000 0.13591  0.72710  0.42353  Biso   1.000  Hf
  Hf7      1.0000 0.14391  0.72826  0.92159  Biso   1.000  Hf
  Hf8      1.0000 0.35949  0.26767  0.17056  Biso   1.000  Hf
  Hf9      1.0000 0.36077  0.27072  0.66980  Biso   1.000  Hf
  Hf10     1.0000 0.36066  0.75576  0.17877  Biso   1.000  Hf
  Hf11     1.0000 0.36017  0.77089  0.67105  Biso   1.000  Hf
  Hf12     1.0000 0.36056  0.47552  0.42160  Biso   1.000  Hf
  Hf13     1.0000 0.36231  0.47689  0.92177  Biso   1.000  Hf
  Hf14     1.0000 0.36038  0.97894  0.42091  Biso   1.000  Hf
  Hf15     1.0000 0.36550  0.98679  0.90984  Biso   1.000  Hf
  Hf16     1.0000 0.65077  0.02486  0.08018  Biso   1.000  Hf
  Hf17     1.0000 0.63727  0.02099  0.58055  Biso   1.000  Hf
  Hf18     1.0000 0.63855  0.51848  0.07788  Biso   1.000  Hf
  Hf19     1.0000 0.63750  0.52153  0.57726  Biso   1.000  Hf
  Hf20     1.0000 0.63658  0.22898  0.32944  Biso   1.000  Hf
  Hf21     1.0000 0.63994  0.22923  0.82829  Biso   1.000  Hf
  Hf22     1.0000 0.63919  0.73033  0.32909  Biso   1.000  Hf
  Hf23     1.0000 0.63758  0.72880  0.82814  Biso   1.000  Hf
  Hf24     1.0000 0.86197  0.27544  0.07737  Biso   1.000  Hf
  Hf25     1.0000 0.86144  0.27217  0.57891  Biso   1.000  Hf
  Hf26     1.0000 0.85881  0.76760  0.07910  Biso   1.000  Hf
  Hf27     1.0000 0.86056  0.77090  0.57970  Biso   1.000  Hf
  Hf28     1.0000 0.86005  0.47966  0.32986  Biso   1.000  Hf
  Hf29     1.0000 0.86095  0.48102  0.82679  Biso   1.000  Hf
  Hf30     1.0000 0.85612  0.98077  0.33453  Biso   1.000  Hf
  Hf31     1.0000 0.86359  0.97852  0.82989  Biso   1.000  Hf
  Hf32     1.0000 0.03627  0.18984  0.08339  Biso   1.000  Hf
  Hf33     1.0000 0.03475  0.17272  0.59134  Biso   1.000  Hf
  Hf34     1.0000 0.04181  0.68019  0.09263  Biso   1.000  Hf
  Hf35     1.0000 0.03384  0.66993  0.58912  Biso   1.000  Hf
  Hf36     1.0000 0.02565  0.08089  0.34972  Biso   1.000  Hf
  Hf37     1.0000 0.03722  0.07963  0.83969  Biso   1.000  Hf
  Hf38     1.0000 0.03479  0.57945  0.33775  Biso   1.000  Hf
  Hf39     1.0000 0.03569  0.58333  0.83784  Biso   1.000  Hf
  Hf40     1.0000 0.46840  0.41207  0.08304  Biso   1.000  Hf
  Hf41     1.0000 0.46788  0.41357  0.58241  Biso   1.000  Hf
  Hf42     1.0000 0.46672  0.91338  0.58258  Biso   1.000  Hf
  Hf43     1.0000 0.46734  0.33573  0.33145  Biso   1.000  Hf
  Hf44     1.0000 0.46709  0.33198  0.83323  Biso   1.000  Hf
  Hf45     1.0000 0.47034  0.83925  0.32678  Biso   1.000  Hf
  Hf46     1.0000 0.46968  0.83689  0.83292  Biso   1.000  Hf
  Hf47     1.0000 0.28051  0.12704  0.30024  Biso   1.000  Hf
  Hf48     1.0000 0.27512  0.12480  0.78918  Biso   1.000  Hf
  Hf49     1.0000 0.27649  0.61751  0.29450  Biso   1.000  Hf
  Hf50     1.0000 0.27777  0.62451  0.79537  Biso   1.000  Hf
  Hf51     1.0000 0.28800  0.13344  0.03122  Biso   1.000  Hf
  Hf52     1.0000 0.27462  0.12500  0.54481  Biso   1.000  Hf
  Hf53     1.0000 0.27353  0.61665  0.04611  Biso   1.000  Hf
  Hf54     1.0000 0.27502  0.62521  0.54495  Biso   1.000  Hf
  Hf55     1.0000 0.22127  0.37182  0.29343  Biso   1.000  Hf
  Hf56     1.0000 0.22495  0.37529  0.79325  Biso   1.000  Hf
  Hf57     1.0000 0.22986  0.85974  0.30201  Biso   1.000  Hf
  Hf58     1.0000 0.22274  0.87405  0.79266  Biso   1.000  Hf
  Hf59     1.0000 0.22336  0.37637  0.04424  Biso   1.000  Hf
  Hf60     1.0000 0.22333  0.37622  0.54448  Biso   1.000  Hf
  Hf61     1.0000 0.26990  0.86155  0.03495  Biso   1.000  Hf
  Hf62     1.0000 0.22262  0.87665  0.54590  Biso   1.000  Hf
  Hf63     1.0000 0.53069  0.15660  0.16794  Biso   1.000  Hf
  Hf64     1.0000 0.53152  0.16324  0.66892  Biso   1.000  Hf
  Hf65     1.0000 0.53419  0.66526  0.16388  Biso   1.000  Hf
  Hf66     1.0000 0.53157  0.66464  0.66692  Biso   1.000  Hf
  Hf67     1.0000 0.53196  0.08536  0.41914  Biso   1.000  Hf
  Hf68     1.0000 0.54070  0.07963  0.91850  Biso   1.000  Hf
  Hf69     1.0000 0.52991  0.58674  0.41634  Biso   1.000  Hf
  Hf70     1.0000 0.53223  0.58415  0.91655  Biso   1.000  Hf
  Hf71     1.0000 0.95897  0.42881  0.15943  Biso   1.000  Hf
  Hf72     1.0000 0.96430  0.42267  0.66183  Biso   1.000  Hf
  Hf73     1.0000 0.93200  0.92328  0.16446  Biso   1.000  Hf
  Hf74     1.0000 0.96404  0.91890  0.66498  Biso   1.000  Hf
  Hf75     1.0000 0.96364  0.33209  0.41327  Biso   1.000  Hf
  Hf76     1.0000 0.96294  0.33400  0.90752  Biso   1.000  Hf
  Hf77     1.0000 0.96311  0.83007  0.41407  Biso   1.000  Hf
  Hf78     1.0000 0.97311  0.83645  0.92064  Biso   1.000  Hf
  Hf79     1.0000 0.78038  0.12504  0.95664  Biso   1.000  Hf
  Hf80     1.0000 0.77167  0.12583  0.45881  Biso   1.000  Hf
  Hf81     1.0000 0.77562  0.62304  0.95407  Biso   1.000  Hf
  Hf82     1.0000 0.77540  0.62378  0.45545  Biso   1.000  Hf
  Hf83     1.0000 0.77697  0.13159  0.20788  Biso   1.000  Hf
  Hf84     1.0000 0.77666  0.12635  0.70725  Biso   1.000  Hf
  Hf85     1.0000 0.77540  0.62812  0.20605  Biso   1.000  Hf
  Hf86     1.0000 0.77480  0.62706  0.70427  Biso   1.000  Hf
  Hf87     1.0000 0.72290  0.37532  0.95362  Biso   1.000  Hf
  Hf88     1.0000 0.72258  0.37535  0.45499  Biso   1.000  Hf
  Hf89     1.0000 0.72594  0.87376  0.95543  Biso   1.000  Hf
  Hf90     1.0000 0.72237  0.87379  0.45790  Biso   1.000  Hf
  Hf91     1.0000 0.72183  0.37715  0.20586  Biso   1.000  Hf
  Hf92     1.0000 0.72340  0.37578  0.70455  Biso   1.000  Hf
  Hf93     1.0000 0.70495  0.87695  0.20621  Biso   1.000  Hf
  Hf94     1.0000 0.72444  0.87545  0.70670  Biso   1.000  Hf
