data_image0
_cell_length_a       10.046
_cell_length_b       10.2713
_cell_length_c       10.443
_cell_angle_alpha    90.1171
_cell_angle_beta     90.2858
_cell_angle_gamma    90.1946

_symmetry_space_group_name_H-M    "P 1"
_symmetry_int_tables_number       1

loop_
  _symmetry_equiv_pos_as_xyz
  'x, y, z'

loop_
  _atom_site_label
  _atom_site_occupancy
  _atom_site_fract_x
  _atom_site_fract_y
  _atom_site_fract_z
  _atom_site_thermal_displace_type
  _atom_site_B_iso_or_equiv
  _atom_site_type_symbol
  La1      1.0000 0.11724  0.00009  0.15558  Biso   1.000  La
  Hf1      1.0000 0.13938  0.02128  0.67089  Biso   1.000  Hf
  Hf2      1.0000 0.13904  0.52015  0.17158  Biso   1.000  Hf
  Hf3      1.0000 0.13882  0.52260  0.67034  Biso   1.000  Hf
  Hf4      1.0000 0.13680  0.22447  0.41884  Biso   1.000  Hf
  Hf5      1.0000 0.13873  0.23290  0.91850  Biso   1.000  Hf
  Hf6      1.0000 0.13861  0.72735  0.42030  Biso   1.000  Hf
  Hf7      1.0000 0.14174  0.73045  0.92245  Biso   1.000  Hf
  Hf8      1.0000 0.35645  0.26531  0.17020  Biso   1.000  Hf
  Hf9      1.0000 0.35961  0.27119  0.66966  Biso   1.000  Hf
  Hf10     1.0000 0.36805  0.76800  0.17113  Biso   1.000  Hf
  Hf11     1.0000 0.35951  0.77141  0.66996  Biso   1.000  Hf
  Hf12     1.0000 0.35934  0.47667  0.41975  Biso   1.000  Hf
  Hf13     1.0000 0.36093  0.47821  0.92150  Biso   1.000  Hf
  Hf14     1.0000 0.35967  0.97875  0.41839  Biso   1.000  Hf
  Hf15     1.0000 0.36645  0.98081  0.91881  Biso   1.000  Hf
  Hf16     1.0000 0.64172  0.02225  0.07913  Biso   1.000  Hf
  Hf17     1.0000 0.63482  0.02107  0.58213  Biso   1.000  Hf
  Hf18     1.0000 0.63633  0.51661  0.07926  Biso   1.000  Hf
  Hf19     1.0000 0.63732  0.52068  0.57761  Biso   1.000  Hf
  Hf20     1.0000 0.63532  0.22999  0.32907  Biso   1.000  Hf
  Hf21     1.0000 0.63879  0.23080  0.82799  Biso   1.000  Hf
  Hf22     1.0000 0.64011  0.72703  0.33025  Biso   1.000  Hf
  Hf23     1.0000 0.63651  0.72919  0.82702  Biso   1.000  Hf
  Hf24     1.0000 0.86043  0.27486  0.07691  Biso   1.000  Hf
  Hf25     1.0000 0.86207  0.27203  0.57927  Biso   1.000  Hf
  Hf26     1.0000 0.85462  0.76315  0.07866  Biso   1.000  Hf
  Hf27     1.0000 0.86135  0.77026  0.57925  Biso   1.000  Hf
  Hf28     1.0000 0.86163  0.47809  0.32954  Biso   1.000  Hf
  Hf29     1.0000 0.86091  0.48036  0.82662  Biso   1.000  Hf
  Hf30     1.0000 0.85118  0.98349  0.34092  Biso   1.000  Hf
  Hf31     1.0000 0.86194  0.98112  0.83064  Biso   1.000  Hf
  Hf32     1.0000 0.03314  0.18561  0.08221  Biso   1.000  Hf
  Hf33     1.0000 0.03346  0.16832  0.58810  Biso   1.000  Hf
  Hf34     1.0000 0.03846  0.68199  0.09632  Biso   1.000  Hf
  Hf35     1.0000 0.03382  0.66892  0.58538  Biso   1.000  Hf
  Hf36     1.0000 0.02268  0.08024  0.34499  Biso   1.000  Hf
  Hf37     1.0000 0.03502  0.08432  0.83577  Biso   1.000  Hf
  Hf38     1.0000 0.03571  0.57903  0.33803  Biso   1.000  Hf
  Hf39     1.0000 0.03088  0.58921  0.83562  Biso   1.000  Hf
  Hf40     1.0000 0.46522  0.41422  0.08469  Biso   1.000  Hf
  Hf41     1.0000 0.46581  0.41607  0.58335  Biso   1.000  Hf
  Hf42     1.0000 0.47505  0.91580  0.08410  Biso   1.000  Hf
  Hf43     1.0000 0.46385  0.91679  0.58411  Biso   1.000  Hf
  Hf44     1.0000 0.46450  0.33271  0.33371  Biso   1.000  Hf
  Hf45     1.0000 0.46581  0.33323  0.83356  Biso   1.000  Hf
  Hf46     1.0000 0.47365  0.83624  0.33217  Biso   1.000  Hf
  Hf47     1.0000 0.46837  0.83481  0.83060  Biso   1.000  Hf
  Hf48     1.0000 0.27604  0.12368  0.29675  Biso   1.000  Hf
  Hf49     1.0000 0.27674  0.12411  0.79070  Biso   1.000  Hf
  Hf50     1.0000 0.27891  0.61968  0.29362  Biso   1.000  Hf
  Hf51     1.0000 0.27619  0.62475  0.79471  Biso   1.000  Hf
  Hf52     1.0000 0.28152  0.12960  0.03449  Biso   1.000  Hf
  Hf53     1.0000 0.27523  0.12532  0.54341  Biso   1.000  Hf
  Hf54     1.0000 0.27329  0.62069  0.04446  Biso   1.000  Hf
  Hf55     1.0000 0.27540  0.62558  0.54385  Biso   1.000  Hf
  Hf56     1.0000 0.22038  0.37165  0.29284  Biso   1.000  Hf
  Hf57     1.0000 0.22326  0.37596  0.79302  Biso   1.000  Hf
  Hf58     1.0000 0.23164  0.86204  0.29754  Biso   1.000  Hf
  Hf59     1.0000 0.22325  0.87414  0.79290  Biso   1.000  Hf
  Hf60     1.0000 0.22274  0.37667  0.04396  Biso   1.000  Hf
  Hf61     1.0000 0.22175  0.37605  0.54347  Biso   1.000  Hf
  Hf62     1.0000 0.24844  0.86173  0.03396  Biso   1.000  Hf
  Hf63     1.0000 0.22162  0.87649  0.54380  Biso   1.000  Hf
  Hf64     1.0000 0.53379  0.16637  0.16439  Biso   1.000  Hf
  Hf65     1.0000 0.53254  0.16772  0.66529  Biso   1.000  Hf
  Hf66     1.0000 0.53743  0.66489  0.16538  Biso   1.000  Hf
  Hf67     1.0000 0.53206  0.66607  0.66448  Biso   1.000  Hf
  Hf68     1.0000 0.53344  0.08211  0.41530  Biso   1.000  Hf
  Hf69     1.0000 0.53959  0.08265  0.91415  Biso   1.000  Hf
  Hf70     1.0000 0.53303  0.58300  0.41462  Biso   1.000  Hf
  Hf71     1.0000 0.53316  0.58379  0.91638  Biso   1.000  Hf
  Hf72     1.0000 0.96144  0.42645  0.16042  Biso   1.000  Hf
  Hf73     1.0000 0.96531  0.42112  0.66306  Biso   1.000  Hf
  Hf74     1.0000 0.96697  0.91306  0.67108  Biso   1.000  Hf
  Hf75     1.0000 0.96405  0.33056  0.41357  Biso   1.000  Hf
  Hf76     1.0000 0.96396  0.33609  0.90955  Biso   1.000  Hf
  Hf77     1.0000 0.96330  0.83163  0.40954  Biso   1.000  Hf
  Hf78     1.0000 0.97782  0.85462  0.94216  Biso   1.000  Hf
  Hf79     1.0000 0.77867  0.12589  0.95617  Biso   1.000  Hf
  Hf80     1.0000 0.77098  0.12569  0.46049  Biso   1.000  Hf
  Hf81     1.0000 0.77702  0.62489  0.95588  Biso   1.000  Hf
  Hf82     1.0000 0.77699  0.62309  0.45575  Biso   1.000  Hf
  Hf83     1.0000 0.77684  0.12552  0.20807  Biso   1.000  Hf
  Hf84     1.0000 0.77653  0.12684  0.70766  Biso   1.000  Hf
  Hf85     1.0000 0.77559  0.62306  0.20650  Biso   1.000  Hf
  Hf86     1.0000 0.77504  0.62797  0.70473  Biso   1.000  Hf
  Hf87     1.0000 0.72246  0.37637  0.95329  Biso   1.000  Hf
  Hf88     1.0000 0.72290  0.37456  0.45504  Biso   1.000  Hf
  Hf89     1.0000 0.72674  0.87262  0.95467  Biso   1.000  Hf
  Hf90     1.0000 0.72031  0.87246  0.45996  Biso   1.000  Hf
  Hf91     1.0000 0.72247  0.37475  0.20547  Biso   1.000  Hf
  Hf92     1.0000 0.72357  0.37680  0.70405  Biso   1.000  Hf
  Hf93     1.0000 0.73628  0.87393  0.20576  Biso   1.000  Hf
  Hf94     1.0000 0.72426  0.87692  0.70684  Biso   1.000  Hf
