data_image0
_cell_length_a       10.162
_cell_length_b       10.3101
_cell_length_c       10.4622
_cell_angle_alpha    90.0377
_cell_angle_beta     80.5062
_cell_angle_gamma    90.1493

_symmetry_space_group_name_H-M    "P 1"
_symmetry_int_tables_number       1

loop_
  _symmetry_equiv_pos_as_xyz
  'x, y, z'

loop_
  _atom_site_label
  _atom_site_occupancy
  _atom_site_fract_x
  _atom_site_fract_y
  _atom_site_fract_z
  _atom_site_thermal_displace_type
  _atom_site_B_iso_or_equiv
  _atom_site_type_symbol
  La1      1.0000 0.13271  0.01173  0.14050  Biso   1.000  La
  Hf1      1.0000 0.13837  0.22775  0.39711  Biso   1.000  Hf
  Hf2      1.0000 0.36022  0.26890  0.10393  Biso   1.000  Hf
  Hf3      1.0000 0.35865  0.47713  0.35282  Biso   1.000  Hf
  Hf4      1.0000 0.03687  0.19225  0.07803  Biso   1.000  Hf
  Hf5      1.0000 0.02543  0.08153  0.34809  Biso   1.000  Hf
  Hf6      1.0000 0.46432  0.41627  0.17082  Biso   1.000  Hf
  Hf7      1.0000 0.46348  0.33100  0.42019  Biso   1.000  Hf
  Hf8      1.0000 0.28286  0.13481  0.24878  Biso   1.000  Hf
  Hf9      1.0000 0.27509  0.12013  0.49262  Biso   1.000  Hf
  Hf10     1.0000 0.22555  0.38003  0.00754  Biso   1.000  Hf
  Hf11     1.0000 0.22029  0.37106  0.25802  Biso   1.000  Hf
  Hf12     1.0000 0.13965  0.02129  0.64608  Biso   1.000  Hf
  Hf13     1.0000 0.13812  0.23250  0.89401  Biso   1.000  Hf
  Hf14     1.0000 0.36053  0.27059  0.60368  Biso   1.000  Hf
  Hf15     1.0000 0.36242  0.47801  0.85401  Biso   1.000  Hf
  Hf16     1.0000 0.03699  0.17368  0.58620  Biso   1.000  Hf
  Hf17     1.0000 0.03888  0.07742  0.83471  Biso   1.000  Hf
  Hf18     1.0000 0.46553  0.41725  0.67028  Biso   1.000  Hf
  Hf19     1.0000 0.46790  0.33362  0.92066  Biso   1.000  Hf
  Hf20     1.0000 0.27656  0.12907  0.73822  Biso   1.000  Hf
  Hf21     1.0000 0.28535  0.12766  0.97931  Biso   1.000  Hf
  Hf22     1.0000 0.22336  0.37912  0.50900  Biso   1.000  Hf
  Hf23     1.0000 0.22447  0.37234  0.75791  Biso   1.000  Hf
  Hf24     1.0000 0.13879  0.52063  0.14431  Biso   1.000  Hf
  Hf25     1.0000 0.13950  0.72663  0.39614  Biso   1.000  Hf
  Hf26     1.0000 0.36700  0.76716  0.10297  Biso   1.000  Hf
  Hf27     1.0000 0.36192  0.97919  0.35467  Biso   1.000  Hf
  Hf28     1.0000 0.03901  0.67624  0.08299  Biso   1.000  Hf
  Hf29     1.0000 0.03599  0.58026  0.33031  Biso   1.000  Hf
  Hf30     1.0000 0.46547  0.91988  0.16850  Biso   1.000  Hf
  Hf31     1.0000 0.46402  0.83123  0.42252  Biso   1.000  Hf
  Hf32     1.0000 0.27715  0.62351  0.23840  Biso   1.000  Hf
  Hf33     1.0000 0.27576  0.62030  0.49011  Biso   1.000  Hf
  Hf34     1.0000 0.24142  0.86522  0.99484  Biso   1.000  Hf
  Hf35     1.0000 0.23660  0.85849  0.26388  Biso   1.000  Hf
  Hf36     1.0000 0.13919  0.52118  0.64560  Biso   1.000  Hf
  Hf37     1.0000 0.14099  0.72803  0.89413  Biso   1.000  Hf
  Hf38     1.0000 0.36012  0.77158  0.60376  Biso   1.000  Hf
  Hf39     1.0000 0.36419  0.97858  0.85151  Biso   1.000  Hf
  Hf40     1.0000 0.03647  0.67040  0.58165  Biso   1.000  Hf
  Hf41     1.0000 0.03659  0.57886  0.83069  Biso   1.000  Hf
  Hf42     1.0000 0.46656  0.91730  0.67008  Biso   1.000  Hf
  Hf43     1.0000 0.47526  0.83497  0.91947  Biso   1.000  Hf
  Hf44     1.0000 0.27684  0.62900  0.73991  Biso   1.000  Hf
  Hf45     1.0000 0.27698  0.61767  0.98974  Biso   1.000  Hf
  Hf46     1.0000 0.22338  0.87936  0.51022  Biso   1.000  Hf
  Hf47     1.0000 0.22410  0.87108  0.75642  Biso   1.000  Hf
  Hf48     1.0000 0.64044  0.02038  0.14652  Biso   1.000  Hf
  Hf49     1.0000 0.63750  0.22991  0.39644  Biso   1.000  Hf
  Hf50     1.0000 0.85976  0.27343  0.10321  Biso   1.000  Hf
  Hf51     1.0000 0.86120  0.47904  0.35440  Biso   1.000  Hf
  Hf52     1.0000 0.53642  0.16815  0.07964  Biso   1.000  Hf
  Hf53     1.0000 0.53670  0.08039  0.33100  Biso   1.000  Hf
  Hf54     1.0000 0.95902  0.42727  0.16693  Biso   1.000  Hf
  Hf55     1.0000 0.96357  0.33195  0.42012  Biso   1.000  Hf
  Hf56     1.0000 0.77429  0.13207  0.24292  Biso   1.000  Hf
  Hf57     1.0000 0.77244  0.12267  0.49391  Biso   1.000  Hf
  Hf58     1.0000 0.72256  0.37968  0.00882  Biso   1.000  Hf
  Hf59     1.0000 0.72233  0.37222  0.26069  Biso   1.000  Hf
  Hf60     1.0000 0.63987  0.02227  0.64716  Biso   1.000  Hf
  Hf61     1.0000 0.64015  0.22891  0.89669  Biso   1.000  Hf
  Hf62     1.0000 0.86143  0.27211  0.60455  Biso   1.000  Hf
  Hf63     1.0000 0.86094  0.47926  0.85250  Biso   1.000  Hf
  Hf64     1.0000 0.53382  0.16774  0.58031  Biso   1.000  Hf
  Hf65     1.0000 0.53805  0.08214  0.82863  Biso   1.000  Hf
  Hf66     1.0000 0.96331  0.42268  0.66688  Biso   1.000  Hf
  Hf67     1.0000 0.96024  0.32996  0.91259  Biso   1.000  Hf
  Hf68     1.0000 0.77833  0.12945  0.74166  Biso   1.000  Hf
  Hf69     1.0000 0.77697  0.12044  0.99143  Biso   1.000  Hf
  Hf70     1.0000 0.72323  0.37935  0.50960  Biso   1.000  Hf
  Hf71     1.0000 0.72392  0.37092  0.75854  Biso   1.000  Hf
  Hf72     1.0000 0.63813  0.51840  0.14654  Biso   1.000  Hf
  Hf73     1.0000 0.63596  0.72664  0.39698  Biso   1.000  Hf
  Hf74     1.0000 0.85705  0.76605  0.10385  Biso   1.000  Hf
  Hf75     1.0000 0.85350  0.97906  0.36019  Biso   1.000  Hf
  Hf76     1.0000 0.53889  0.66644  0.07824  Biso   1.000  Hf
  Hf77     1.0000 0.53275  0.58083  0.32919  Biso   1.000  Hf
  Hf78     1.0000 0.93087  0.92392  0.17378  Biso   1.000  Hf
  Hf79     1.0000 0.96410  0.83005  0.41813  Biso   1.000  Hf
  Hf80     1.0000 0.77381  0.62836  0.24144  Biso   1.000  Hf
  Hf81     1.0000 0.77560  0.62103  0.49044  Biso   1.000  Hf
  Hf82     1.0000 0.72517  0.87779  0.00886  Biso   1.000  Hf
  Hf83     1.0000 0.70997  0.86879  0.26426  Biso   1.000  Hf
  Hf84     1.0000 0.63903  0.52085  0.64533  Biso   1.000  Hf
  Hf85     1.0000 0.64224  0.72879  0.89391  Biso   1.000  Hf
  Hf86     1.0000 0.86241  0.77163  0.60355  Biso   1.000  Hf
  Hf87     1.0000 0.86270  0.97865  0.85543  Biso   1.000  Hf
  Hf88     1.0000 0.53366  0.66684  0.58053  Biso   1.000  Hf
  Hf89     1.0000 0.53617  0.58200  0.82897  Biso   1.000  Hf
  Hf90     1.0000 0.96443  0.92040  0.66982  Biso   1.000  Hf
  Hf91     1.0000 0.96658  0.83083  0.92090  Biso   1.000  Hf
  Hf92     1.0000 0.77686  0.62952  0.73880  Biso   1.000  Hf
  Hf93     1.0000 0.77696  0.61913  0.98954  Biso   1.000  Hf
  Hf94     1.0000 0.72307  0.87852  0.51184  Biso   1.000  Hf
  Hf95     1.0000 0.72672  0.87119  0.75901  Biso   1.000  Hf
