data_image0
_cell_length_a       10.0431
_cell_length_b       10.2769
_cell_length_c       10.5742
_cell_angle_alpha    89.9309
_cell_angle_beta     90.8988
_cell_angle_gamma    90.3273

_symmetry_space_group_name_H-M    "P 1"
_symmetry_int_tables_number       1

loop_
  _symmetry_equiv_pos_as_xyz
  'x, y, z'

loop_
  _atom_site_label
  _atom_site_occupancy
  _atom_site_fract_x
  _atom_site_fract_y
  _atom_site_fract_z
  _atom_site_thermal_displace_type
  _atom_site_B_iso_or_equiv
  _atom_site_type_symbol
  Hf1      1.0000 0.13929  0.02080  0.17282  Biso   1.000  Hf
  Hf2      1.0000 0.13761  0.22683  0.42740  Biso   1.000  Hf
  Hf3      1.0000 0.34313  0.27571  0.19322  Biso   1.000  Hf
  Hf4      1.0000 0.36184  0.47981  0.42480  Biso   1.000  Hf
  Hf5      1.0000 0.64365  0.00738  0.08040  Biso   1.000  Hf
  Hf6      1.0000 0.63731  0.22163  0.33086  Biso   1.000  Hf
  Hf7      1.0000 0.86540  0.26984  0.07550  Biso   1.000  Hf
  Hf8      1.0000 0.85839  0.47738  0.32520  Biso   1.000  Hf
  Hf9      1.0000 0.03619  0.16217  0.08176  Biso   1.000  Hf
  Hf10     1.0000 0.03167  0.08725  0.33193  Biso   1.000  Hf
  Hf11     1.0000 0.44712  0.44731  0.10870  Biso   1.000  Hf
  Hf12     1.0000 0.46539  0.33187  0.33934  Biso   1.000  Hf
  Hf13     1.0000 0.27024  0.12404  0.30260  Biso   1.000  Hf
  Hf14     1.0000 0.28554  0.13004  0.04737  Biso   1.000  Hf
  Hf15     1.0000 0.21441  0.37896  0.30663  Biso   1.000  Hf
  Hf16     1.0000 0.21365  0.37964  0.05304  Biso   1.000  Hf
  Hf17     1.0000 0.52083  0.13234  0.19362  Biso   1.000  Hf
  Hf18     1.0000 0.53099  0.08487  0.42685  Biso   1.000  Hf
  Hf19     1.0000 0.96336  0.41461  0.17000  Biso   1.000  Hf
  Hf20     1.0000 0.96928  0.33746  0.41862  Biso   1.000  Hf
  Hf21     1.0000 0.77702  0.12262  0.45144  Biso   1.000  Hf
  Hf22     1.0000 0.77830  0.12490  0.20354  Biso   1.000  Hf
  Hf23     1.0000 0.72453  0.37395  0.45110  Biso   1.000  Hf
  Hf24     1.0000 0.71137  0.37063  0.19650  Biso   1.000  Hf
  Hf25     1.0000 0.14107  0.02086  0.67461  Biso   1.000  Hf
  Hf26     1.0000 0.14429  0.23006  0.92381  Biso   1.000  Hf
  Hf27     1.0000 0.36360  0.27287  0.67311  Biso   1.000  Hf
  Hf28     1.0000 0.35726  0.48540  0.92956  Biso   1.000  Hf
  Hf29     1.0000 0.64209  0.01498  0.57559  Biso   1.000  Hf
  Hf30     1.0000 0.65348  0.22629  0.79673  Biso   1.000  Hf
  Hf31     1.0000 0.86654  0.27306  0.57260  Biso   1.000  Hf
  Hf32     1.0000 0.86572  0.47956  0.82921  Biso   1.000  Hf
  Hf33     1.0000 0.03303  0.16166  0.58220  Biso   1.000  Hf
  Hf34     1.0000 0.03649  0.08676  0.83261  Biso   1.000  Hf
  Hf35     1.0000 0.47131  0.41325  0.57988  Biso   1.000  Hf
  Hf36     1.0000 0.47962  0.34136  0.82119  Biso   1.000  Hf
  Hf37     1.0000 0.28034  0.12470  0.79706  Biso   1.000  Hf
  Hf38     1.0000 0.27665  0.12451  0.54873  Biso   1.000  Hf
  Hf39     1.0000 0.22774  0.37359  0.80022  Biso   1.000  Hf
  Hf40     1.0000 0.22600  0.37510  0.55102  Biso   1.000  Hf
  Hf41     1.0000 0.53239  0.15958  0.65998  Biso   1.000  Hf
  Hf42     1.0000 0.53845  0.07205  0.90635  Biso   1.000  Hf
  Hf43     1.0000 0.97238  0.41163  0.67049  Biso   1.000  Hf
  Hf44     1.0000 0.97191  0.33531  0.91837  Biso   1.000  Hf
  Hf45     1.0000 0.77499  0.12618  0.94778  Biso   1.000  Hf
  Hf46     1.0000 0.78731  0.11893  0.69335  Biso   1.000  Hf
  Hf47     1.0000 0.73168  0.38211  0.95174  Biso   1.000  Hf
  Hf48     1.0000 0.73223  0.37738  0.69635  Biso   1.000  Hf
  Hf49     1.0000 0.13711  0.52390  0.17395  Biso   1.000  Hf
  Hf50     1.0000 0.13806  0.72785  0.42316  Biso   1.000  Hf
  Hf51     1.0000 0.36006  0.77367  0.17532  Biso   1.000  Hf
  Hf52     1.0000 0.36121  0.97733  0.42653  Biso   1.000  Hf
  Hf53     1.0000 0.63793  0.53573  0.08031  Biso   1.000  Hf
  Hf54     1.0000 0.63907  0.73079  0.33088  Biso   1.000  Hf
  Hf55     1.0000 0.86435  0.77014  0.07889  Biso   1.000  Hf
  Hf56     1.0000 0.86394  0.97906  0.32886  Biso   1.000  Hf
  Hf57     1.0000 0.03224  0.66349  0.08164  Biso   1.000  Hf
  Hf58     1.0000 0.02886  0.58706  0.33313  Biso   1.000  Hf
  Hf59     1.0000 0.46914  0.90807  0.07837  Biso   1.000  Hf
  Hf60     1.0000 0.46891  0.83903  0.33449  Biso   1.000  Hf
  Hf61     1.0000 0.27425  0.62630  0.29691  Biso   1.000  Hf
  Hf62     1.0000 0.27331  0.63226  0.04509  Biso   1.000  Hf
  Hf63     1.0000 0.22393  0.87469  0.29817  Biso   1.000  Hf
  Hf64     1.0000 0.22289  0.87953  0.04756  Biso   1.000  Hf
  Hf65     1.0000 0.53488  0.67584  0.17046  Biso   1.000  Hf
  Hf66     1.0000 0.53190  0.58756  0.41745  Biso   1.000  Hf
  Hf67     1.0000 0.96949  0.91381  0.16974  Biso   1.000  Hf
  Hf68     1.0000 0.96919  0.83662  0.42085  Biso   1.000  Hf
  Hf69     1.0000 0.77714  0.62381  0.45479  Biso   1.000  Hf
  Hf70     1.0000 0.77776  0.62646  0.20659  Biso   1.000  Hf
  Hf71     1.0000 0.72668  0.87333  0.45650  Biso   1.000  Hf
  Hf72     1.0000 0.72914  0.87217  0.20770  Biso   1.000  Hf
  Hf73     1.0000 0.14135  0.52015  0.67394  Biso   1.000  Hf
  Hf74     1.0000 0.13887  0.73113  0.92197  Biso   1.000  Hf
  Hf75     1.0000 0.36264  0.76880  0.67323  Biso   1.000  Hf
  Hf76     1.0000 0.36356  0.97508  0.92122  Biso   1.000  Hf
  Hf77     1.0000 0.64087  0.52263  0.57542  Biso   1.000  Hf
  Hf78     1.0000 0.64104  0.72768  0.82668  Biso   1.000  Hf
  Hf79     1.0000 0.86535  0.76979  0.58030  Biso   1.000  Hf
  Hf80     1.0000 0.86470  0.97939  0.82958  Biso   1.000  Hf
  Hf81     1.0000 0.03469  0.66226  0.58329  Biso   1.000  Hf
  Hf82     1.0000 0.03507  0.58686  0.83302  Biso   1.000  Hf
  Hf83     1.0000 0.47059  0.90850  0.58305  Biso   1.000  Hf
  Hf84     1.0000 0.46837  0.83117  0.83215  Biso   1.000  Hf
  Hf85     1.0000 0.27598  0.62522  0.79610  Biso   1.000  Hf
  Hf86     1.0000 0.27692  0.62427  0.54598  Biso   1.000  Hf
  Hf87     1.0000 0.22562  0.87353  0.79672  Biso   1.000  Hf
  Hf88     1.0000 0.22488  0.87476  0.54818  Biso   1.000  Hf
  Hf89     1.0000 0.53363  0.66114  0.66805  Biso   1.000  Hf
  Hf90     1.0000 0.53204  0.58721  0.92023  Biso   1.000  Hf
  Hf91     1.0000 0.97148  0.91132  0.67134  Biso   1.000  Hf
  Hf92     1.0000 0.96984  0.83832  0.92064  Biso   1.000  Hf
  Hf93     1.0000 0.77956  0.62814  0.95235  Biso   1.000  Hf
  Hf94     1.0000 0.77856  0.62484  0.70407  Biso   1.000  Hf
  Hf95     1.0000 0.72792  0.87286  0.95592  Biso   1.000  Hf
  Hf96     1.0000 0.72742  0.87309  0.70681  Biso   1.000  Hf
  La1      1.0000 0.54338  0.26444  0.02190  Biso   1.000  La
