data_image0
_cell_length_a       10.1187
_cell_length_b       10.3238
_cell_length_c       5.2383
_cell_angle_alpha    90.016
_cell_angle_beta     90.4228
_cell_angle_gamma    90.2099

_symmetry_space_group_name_H-M    "P 1"
_symmetry_int_tables_number       1

loop_
  _symmetry_equiv_pos_as_xyz
  'x, y, z'

loop_
  _atom_site_label
  _atom_site_occupancy
  _atom_site_fract_x
  _atom_site_fract_y
  _atom_site_fract_z
  _atom_site_thermal_displace_type
  _atom_site_B_iso_or_equiv
  _atom_site_type_symbol
  La1      1.0000 0.13131  0.01168  0.32297  Biso   1.000  La
  Hf1      1.0000 0.13823  0.23242  0.83910  Biso   1.000  Hf
  Hf2      1.0000 0.35975  0.26861  0.34086  Biso   1.000  Hf
  Hf3      1.0000 0.36058  0.47688  0.84092  Biso   1.000  Hf
  Hf4      1.0000 0.63959  0.02144  0.16641  Biso   1.000  Hf
  Hf5      1.0000 0.63840  0.23028  0.65818  Biso   1.000  Hf
  Hf6      1.0000 0.85932  0.27467  0.15450  Biso   1.000  Hf
  Hf7      1.0000 0.86126  0.48025  0.65289  Biso   1.000  Hf
  Hf8      1.0000 0.03600  0.19577  0.17872  Biso   1.000  Hf
  Hf9      1.0000 0.02729  0.08043  0.71521  Biso   1.000  Hf
  Hf10     1.0000 0.46820  0.41218  0.16323  Biso   1.000  Hf
  Hf11     1.0000 0.46833  0.33620  0.66339  Biso   1.000  Hf
  Hf12     1.0000 0.28083  0.12821  0.59677  Biso   1.000  Hf
  Hf13     1.0000 0.28556  0.13300  0.07092  Biso   1.000  Hf
  Hf14     1.0000 0.22302  0.37381  0.58508  Biso   1.000  Hf
  Hf15     1.0000 0.22403  0.37772  0.08707  Biso   1.000  Hf
  Hf16     1.0000 0.53320  0.16558  0.33382  Biso   1.000  Hf
  Hf17     1.0000 0.53790  0.08279  0.83134  Biso   1.000  Hf
  Hf18     1.0000 0.96084  0.42837  0.31662  Biso   1.000  Hf
  Hf19     1.0000 0.96250  0.33398  0.81522  Biso   1.000  Hf
  Hf20     1.0000 0.77402  0.12634  0.92163  Biso   1.000  Hf
  Hf21     1.0000 0.77600  0.12849  0.42105  Biso   1.000  Hf
  Hf22     1.0000 0.72272  0.37599  0.90580  Biso   1.000  Hf
  Hf23     1.0000 0.72330  0.37681  0.40810  Biso   1.000  Hf
  Hf24     1.0000 0.13951  0.52019  0.34017  Biso   1.000  Hf
  Hf25     1.0000 0.14255  0.72603  0.83930  Biso   1.000  Hf
  Hf26     1.0000 0.36554  0.76665  0.33882  Biso   1.000  Hf
  Hf27     1.0000 0.36583  0.97937  0.83645  Biso   1.000  Hf
  Hf28     1.0000 0.63762  0.51835  0.15396  Biso   1.000  Hf
  Hf29     1.0000 0.63933  0.72764  0.65700  Biso   1.000  Hf
  Hf30     1.0000 0.85962  0.76502  0.15514  Biso   1.000  Hf
  Hf31     1.0000 0.85541  0.98066  0.67707  Biso   1.000  Hf
  Hf32     1.0000 0.03771  0.67331  0.17696  Biso   1.000  Hf
  Hf33     1.0000 0.03465  0.58126  0.67069  Biso   1.000  Hf
  Hf34     1.0000 0.47033  0.91615  0.16896  Biso   1.000  Hf
  Hf35     1.0000 0.47354  0.83580  0.66219  Biso   1.000  Hf
  Hf36     1.0000 0.27803  0.61955  0.58675  Biso   1.000  Hf
  Hf37     1.0000 0.27524  0.61972  0.08943  Biso   1.000  Hf
  Hf38     1.0000 0.23476  0.86161  0.59156  Biso   1.000  Hf
  Hf39     1.0000 0.24357  0.86160  0.06762  Biso   1.000  Hf
  Hf40     1.0000 0.53388  0.66059  0.33478  Biso   1.000  Hf
  Hf41     1.0000 0.53048  0.58570  0.83550  Biso   1.000  Hf
  Hf42     1.0000 0.93400  0.91771  0.33836  Biso   1.000  Hf
  Hf43     1.0000 0.96959  0.83317  0.83592  Biso   1.000  Hf
  Hf44     1.0000 0.77473  0.62201  0.90616  Biso   1.000  Hf
  Hf45     1.0000 0.77509  0.62705  0.40736  Biso   1.000  Hf
  Hf46     1.0000 0.72515  0.87246  0.91892  Biso   1.000  Hf
  Hf47     1.0000 0.71167  0.87648  0.42114  Biso   1.000  Hf
