data_image0
_cell_length_a       10.1572
_cell_length_b       5.18549
_cell_length_c       10.7235
_cell_angle_alpha    90.1358
_cell_angle_beta     78.6881
_cell_angle_gamma    90.9187

_symmetry_space_group_name_H-M    "P 1"
_symmetry_int_tables_number       1

loop_
  _symmetry_equiv_pos_as_xyz
  'x, y, z'

loop_
  _atom_site_label
  _atom_site_occupancy
  _atom_site_fract_x
  _atom_site_fract_y
  _atom_site_fract_z
  _atom_site_thermal_displace_type
  _atom_site_B_iso_or_equiv
  _atom_site_type_symbol
  Hf1      1.0000 0.13521  0.04858  0.14933  Biso   1.000  Hf
  Hf2      1.0000 0.13803  0.46372  0.39533  Biso   1.000  Hf
  Hf3      1.0000 0.34054  0.55461  0.07834  Biso   1.000  Hf
  Hf4      1.0000 0.35308  0.96498  0.35565  Biso   1.000  Hf
  Hf5      1.0000 0.02884  0.33152  0.07728  Biso   1.000  Hf
  Hf6      1.0000 0.03300  0.16941  0.32875  Biso   1.000  Hf
  Hf7      1.0000 0.45007  0.88048  0.16101  Biso   1.000  Hf
  Hf8      1.0000 0.47657  0.68485  0.44812  Biso   1.000  Hf
  Hf9      1.0000 0.27754  0.26873  0.24026  Biso   1.000  Hf
  Hf10     1.0000 0.27784  0.25481  0.48854  Biso   1.000  Hf
  Hf11     1.0000 0.20831  0.77590  0.00128  Biso   1.000  Hf
  Hf12     1.0000 0.21288  0.74570  0.25354  Biso   1.000  Hf
  Hf13     1.0000 0.13803  0.04674  0.64501  Biso   1.000  Hf
  Hf14     1.0000 0.12799  0.45679  0.89367  Biso   1.000  Hf
  Hf15     1.0000 0.36009  0.54821  0.60856  Biso   1.000  Hf
  Hf16     1.0000 0.35455  0.96357  0.85038  Biso   1.000  Hf
  Hf17     1.0000 0.03575  0.33218  0.57885  Biso   1.000  Hf
  Hf18     1.0000 0.02810  0.16982  0.82589  Biso   1.000  Hf
  Hf19     1.0000 0.46641  0.82441  0.68132  Biso   1.000  Hf
  Hf20     1.0000 0.46220  0.67993  0.91682  Biso   1.000  Hf
  Hf21     1.0000 0.27202  0.25433  0.73936  Biso   1.000  Hf
  Hf22     1.0000 0.26566  0.25033  0.98464  Biso   1.000  Hf
  Hf23     1.0000 0.22202  0.76199  0.50982  Biso   1.000  Hf
  Hf24     1.0000 0.21922  0.74127  0.75732  Biso   1.000  Hf
  Hf25     1.0000 0.64125  0.03503  0.14945  Biso   1.000  Hf
  Hf26     1.0000 0.65380  0.44539  0.42676  Biso   1.000  Hf
  Hf27     1.0000 0.85631  0.53629  0.10978  Biso   1.000  Hf
  Hf28     1.0000 0.85913  0.95143  0.35577  Biso   1.000  Hf
  Hf29     1.0000 0.51778  0.31512  0.05699  Biso   1.000  Hf
  Hf30     1.0000 0.54425  0.11950  0.34409  Biso   1.000  Hf
  Hf31     1.0000 0.96133  0.83060  0.17635  Biso   1.000  Hf
  Hf32     1.0000 0.96550  0.66847  0.42782  Biso   1.000  Hf
  Hf33     1.0000 0.78145  0.25430  0.25156  Biso   1.000  Hf
  Hf34     1.0000 0.78603  0.22410  0.50382  Biso   1.000  Hf
  Hf35     1.0000 0.71650  0.74519  0.01655  Biso   1.000  Hf
  Hf36     1.0000 0.71681  0.73126  0.26484  Biso   1.000  Hf
  Hf37     1.0000 0.63979  0.03642  0.65472  Biso   1.000  Hf
  Hf38     1.0000 0.63425  0.45178  0.89654  Biso   1.000  Hf
  Hf39     1.0000 0.86635  0.54320  0.61143  Biso   1.000  Hf
  Hf40     1.0000 0.85631  0.95326  0.86009  Biso   1.000  Hf
  Hf41     1.0000 0.53213  0.32005  0.58828  Biso   1.000  Hf
  Hf42     1.0000 0.52793  0.17557  0.82379  Biso   1.000  Hf
  Hf43     1.0000 0.96624  0.83018  0.67920  Biso   1.000  Hf
  Hf44     1.0000 0.95860  0.66783  0.92625  Biso   1.000  Hf
  Hf45     1.0000 0.77512  0.25873  0.74778  Biso   1.000  Hf
  Hf46     1.0000 0.77232  0.23802  0.99527  Biso   1.000  Hf
  Hf47     1.0000 0.72868  0.74968  0.52047  Biso   1.000  Hf
  Hf48     1.0000 0.72232  0.74566  0.76574  Biso   1.000  Hf
  La1      1.0000 0.49717  0.50000  0.25255  Biso   1.000  La
