data_image0
_cell_length_a       5.09546
_cell_length_b       10.3591
_cell_length_c       10.6935
_cell_angle_alpha    90.0368
_cell_angle_beta     78.5331
_cell_angle_gamma    90.9806

_symmetry_space_group_name_H-M    "P 1"
_symmetry_int_tables_number       1

loop_
  _symmetry_equiv_pos_as_xyz
  'x, y, z'

loop_
  _atom_site_label
  _atom_site_occupancy
  _atom_site_fract_x
  _atom_site_fract_y
  _atom_site_fract_z
  _atom_site_thermal_displace_type
  _atom_site_B_iso_or_equiv
  _atom_site_type_symbol
  Hf1      1.0000 0.28659  0.01266  0.15212  Biso   1.000  Hf
  Hf2      1.0000 0.32033  0.23006  0.42153  Biso   1.000  Hf
  Hf3      1.0000 0.66834  0.26994  0.08357  Biso   1.000  Hf
  Hf4      1.0000 0.70210  0.48734  0.35298  Biso   1.000  Hf
  Hf5      1.0000 0.02223  0.14981  0.05720  Biso   1.000  Hf
  Hf6      1.0000 0.09710  0.06085  0.34749  Biso   1.000  Hf
  Hf7      1.0000 0.89157  0.43916  0.15761  Biso   1.000  Hf
  Hf8      1.0000 0.96642  0.35018  0.44790  Biso   1.000  Hf
  Hf9      1.0000 0.57361  0.12740  0.24688  Biso   1.000  Hf
  Hf10     1.0000 0.58771  0.11715  0.49781  Biso   1.000  Hf
  Hf11     1.0000 0.40094  0.38284  0.00730  Biso   1.000  Hf
  Hf12     1.0000 0.41508  0.37261  0.25823  Biso   1.000  Hf
  Hf13     1.0000 0.28218  0.01820  0.64842  Biso   1.000  Hf
  Hf14     1.0000 0.25127  0.22388  0.89178  Biso   1.000  Hf
  Hf15     1.0000 0.73741  0.27611  0.61333  Biso   1.000  Hf
  Hf16     1.0000 0.70650  0.48179  0.85668  Biso   1.000  Hf
  Hf17     1.0000 0.08421  0.16803  0.58953  Biso   1.000  Hf
  Hf18     1.0000 0.05490  0.08176  0.82085  Biso   1.000  Hf
  Hf19     1.0000 0.93378  0.41824  0.68425  Biso   1.000  Hf
  Hf20     1.0000 0.90446  0.33197  0.91558  Biso   1.000  Hf
  Hf21     1.0000 0.54616  0.12778  0.74397  Biso   1.000  Hf
  Hf22     1.0000 0.52131  0.11860  0.98713  Biso   1.000  Hf
  Hf23     1.0000 0.46736  0.38140  0.51797  Biso   1.000  Hf
  Hf24     1.0000 0.44251  0.37222  0.76113  Biso   1.000  Hf
  Hf25     1.0000 0.26538  0.52915  0.14602  Biso   1.000  Hf
  Hf26     1.0000 0.26876  0.72677  0.39983  Biso   1.000  Hf
  Hf27     1.0000 0.71992  0.77323  0.10527  Biso   1.000  Hf
  Hf28     1.0000 0.72331  0.97085  0.35909  Biso   1.000  Hf
  Hf29     1.0000 0.06526  0.67457  0.07915  Biso   1.000  Hf
  Hf30     1.0000 0.05493  0.58612  0.32629  Biso   1.000  Hf
  Hf31     1.0000 0.93375  0.91388  0.17881  Biso   1.000  Hf
  Hf32     1.0000 0.92343  0.82543  0.42595  Biso   1.000  Hf
  Hf33     1.0000 0.54138  0.63208  0.24475  Biso   1.000  Hf
  Hf34     1.0000 0.53856  0.62289  0.49348  Biso   1.000  Hf
  Hf35     1.0000 0.45012  0.87711  0.01162  Biso   1.000  Hf
  Hf36     1.0000 0.44730  0.86792  0.26035  Biso   1.000  Hf
  Hf37     1.0000 0.27495  0.52383  0.65097  Biso   1.000  Hf
  Hf38     1.0000 0.26856  0.72981  0.89893  Biso   1.000  Hf
  Hf39     1.0000 0.72012  0.77018  0.60617  Biso   1.000  Hf
  Hf40     1.0000 0.71373  0.97617  0.85414  Biso   1.000  Hf
  Hf41     1.0000 0.05731  0.66216  0.58012  Biso   1.000  Hf
  Hf42     1.0000 0.05904  0.58754  0.83094  Biso   1.000  Hf
  Hf43     1.0000 0.92964  0.91246  0.67416  Biso   1.000  Hf
  Hf44     1.0000 0.93137  0.83783  0.92498  Biso   1.000  Hf
  Hf45     1.0000 0.54719  0.62895  0.74325  Biso   1.000  Hf
  Hf46     1.0000 0.54585  0.62422  0.99277  Biso   1.000  Hf
  Hf47     1.0000 0.44283  0.87577  0.51233  Biso   1.000  Hf
  Hf48     1.0000 0.44149  0.87105  0.76185  Biso   1.000  Hf
  La1      1.0000 0.99437  0.25001  0.25254  Biso   1.000  La
