data_image0
_cell_length_a       10.1132
_cell_length_b       5.15542
_cell_length_c       10.4548
_cell_angle_alpha    90.06
_cell_angle_beta     90.6598
_cell_angle_gamma    90.2997

_symmetry_space_group_name_H-M    "P 1"
_symmetry_int_tables_number       1

loop_
  _symmetry_equiv_pos_as_xyz
  'x, y, z'

loop_
  _atom_site_label
  _atom_site_occupancy
  _atom_site_fract_x
  _atom_site_fract_y
  _atom_site_fract_z
  _atom_site_thermal_displace_type
  _atom_site_B_iso_or_equiv
  _atom_site_type_symbol
  La1      1.0000 0.12840  0.01754  0.15909  Biso   1.000  La
  Hf1      1.0000 0.13855  0.45169  0.42160  Biso   1.000  Hf
  Hf2      1.0000 0.36475  0.52903  0.16924  Biso   1.000  Hf
  Hf3      1.0000 0.35922  0.95466  0.42022  Biso   1.000  Hf
  Hf4      1.0000 0.64206  0.03781  0.08026  Biso   1.000  Hf
  Hf5      1.0000 0.63770  0.45670  0.33200  Biso   1.000  Hf
  Hf6      1.0000 0.85808  0.53551  0.07722  Biso   1.000  Hf
  Hf7      1.0000 0.85371  0.96295  0.33669  Biso   1.000  Hf
  Hf8      1.0000 0.04207  0.41091  0.09219  Biso   1.000  Hf
  Hf9      1.0000 0.02530  0.15999  0.35152  Biso   1.000  Hf
  Hf10     1.0000 0.47287  0.82672  0.08287  Biso   1.000  Hf
  Hf11     1.0000 0.47168  0.67323  0.33254  Biso   1.000  Hf
  Hf12     1.0000 0.28087  0.24570  0.29997  Biso   1.000  Hf
  Hf13     1.0000 0.28450  0.25143  0.03503  Biso   1.000  Hf
  Hf14     1.0000 0.23237  0.72263  0.29879  Biso   1.000  Hf
  Hf15     1.0000 0.24562  0.72713  0.03104  Biso   1.000  Hf
  Hf16     1.0000 0.53426  0.32237  0.16774  Biso   1.000  Hf
  Hf17     1.0000 0.53259  0.16541  0.41763  Biso   1.000  Hf
  Hf18     1.0000 0.92108  0.87359  0.15430  Biso   1.000  Hf
  Hf19     1.0000 0.96354  0.66034  0.41062  Biso   1.000  Hf
  Hf20     1.0000 0.77291  0.24922  0.46009  Biso   1.000  Hf
  Hf21     1.0000 0.77441  0.26317  0.21004  Biso   1.000  Hf
  Hf22     1.0000 0.72373  0.74793  0.45949  Biso   1.000  Hf
  Hf23     1.0000 0.71057  0.75391  0.21133  Biso   1.000  Hf
  Hf24     1.0000 0.13936  0.04125  0.67080  Biso   1.000  Hf
  Hf25     1.0000 0.14128  0.46527  0.91618  Biso   1.000  Hf
  Hf26     1.0000 0.36082  0.53962  0.66969  Biso   1.000  Hf
  Hf27     1.0000 0.36689  0.95854  0.91804  Biso   1.000  Hf
  Hf28     1.0000 0.63774  0.03978  0.58107  Biso   1.000  Hf
  Hf29     1.0000 0.64028  0.45876  0.82774  Biso   1.000  Hf
  Hf30     1.0000 0.86361  0.54310  0.58057  Biso   1.000  Hf
  Hf31     1.0000 0.86237  0.95908  0.82952  Biso   1.000  Hf
  Hf32     1.0000 0.03728  0.34957  0.59439  Biso   1.000  Hf
  Hf33     1.0000 0.03927  0.15011  0.84449  Biso   1.000  Hf
  Hf34     1.0000 0.46745  0.82666  0.58283  Biso   1.000  Hf
  Hf35     1.0000 0.47042  0.66916  0.82967  Biso   1.000  Hf
  Hf36     1.0000 0.27679  0.24930  0.79117  Biso   1.000  Hf
  Hf37     1.0000 0.27483  0.24799  0.54483  Biso   1.000  Hf
  Hf38     1.0000 0.22561  0.74855  0.79000  Biso   1.000  Hf
  Hf39     1.0000 0.22314  0.75282  0.54450  Biso   1.000  Hf
  Hf40     1.0000 0.53248  0.32760  0.66612  Biso   1.000  Hf
  Hf41     1.0000 0.53777  0.16902  0.91607  Biso   1.000  Hf
  Hf42     1.0000 0.96349  0.84892  0.66108  Biso   1.000  Hf
  Hf43     1.0000 0.96382  0.65807  0.90660  Biso   1.000  Hf
  Hf44     1.0000 0.77820  0.24516  0.95578  Biso   1.000  Hf
  Hf45     1.0000 0.77659  0.25409  0.70685  Biso   1.000  Hf
  Hf46     1.0000 0.72404  0.74715  0.95464  Biso   1.000  Hf
  Hf47     1.0000 0.72567  0.75084  0.70584  Biso   1.000  Hf
