data_image0
_cell_length_a       10.0965
_cell_length_b       10.4417
_cell_length_c       10.1301
_cell_angle_alpha    89.5981
_cell_angle_beta     89.8665
_cell_angle_gamma    90.2563

_symmetry_space_group_name_H-M    "P 1"
_symmetry_int_tables_number       1

loop_
  _symmetry_equiv_pos_as_xyz
  'x, y, z'

loop_
  _atom_site_label
  _atom_site_occupancy
  _atom_site_fract_x
  _atom_site_fract_y
  _atom_site_fract_z
  _atom_site_thermal_displace_type
  _atom_site_B_iso_or_equiv
  _atom_site_type_symbol
  Zr1      1.0000 0.14164  0.00237  0.11271  Biso   1.000  Zr
  Zr2      1.0000 0.13152  0.23137  0.39313  Biso   1.000  Zr
  Zr3      1.0000 0.36881  0.26644  0.12193  Biso   1.000  Zr
  Zr4      1.0000 0.36820  0.48584  0.37533  Biso   1.000  Zr
  O1       1.0000 0.97070  0.17514  0.26829  Biso   1.000  O
  O2       1.0000 0.03799  0.06417  0.46483  Biso   1.000  O
  O3       1.0000 0.46379  0.43436  0.19437  Biso   1.000  O
  O4       1.0000 0.46573  0.31926  0.44629  Biso   1.000  O
  O5       1.0000 0.25313  0.11335  0.25007  Biso   1.000  O
  O6       1.0000 0.27387  0.13257  0.50114  Biso   1.000  O
  O7       1.0000 0.23546  0.38447  0.50081  Biso   1.000  O
  O8       1.0000 0.23078  0.36704  0.25337  Biso   1.000  O
  Zr5      1.0000 0.13830  0.01188  0.63105  Biso   1.000  Zr
  Zr6      1.0000 0.13699  0.23139  0.86612  Biso   1.000  Zr
  Zr7      1.0000 0.37081  0.26664  0.62604  Biso   1.000  Zr
  Zr8      1.0000 0.36978  0.48681  0.87184  Biso   1.000  Zr
  O9       1.0000 0.03657  0.18120  0.69470  Biso   1.000  O
  O10      1.0000 0.04266  0.05821  0.93469  Biso   1.000  O
  O11      1.0000 0.46994  0.43272  0.69573  Biso   1.000  O
  O12      1.0000 0.46633  0.31618  0.94244  Biso   1.000  O
  O13      1.0000 0.27348  0.11630  0.74739  Biso   1.000  O
  O14      1.0000 0.28316  0.12618  0.99256  Biso   1.000  O
  O15      1.0000 0.23639  0.39150  0.99590  Biso   1.000  O
  O16      1.0000 0.23505  0.36610  0.74660  Biso   1.000  O
  Zr9      1.0000 0.13481  0.52500  0.12462  Biso   1.000  Zr
  Zr10     1.0000 0.13437  0.73661  0.37645  Biso   1.000  Zr
  Zr11     1.0000 0.36927  0.76260  0.12414  Biso   1.000  Zr
  Zr12     1.0000 0.36491  0.98602  0.37363  Biso   1.000  Zr
  O17      1.0000 0.03582  0.68523  0.19567  Biso   1.000  O
  O18      1.0000 0.03432  0.57119  0.44420  Biso   1.000  O
  O19      1.0000 0.46105  0.93325  0.19473  Biso   1.000  O
  O20      1.0000 0.46754  0.81840  0.44338  Biso   1.000  O
  O21      1.0000 0.27113  0.61756  0.24744  Biso   1.000  O
  O22      1.0000 0.27005  0.63367  0.49668  Biso   1.000  O
  O23      1.0000 0.23342  0.88368  0.49768  Biso   1.000  O
  O24      1.0000 0.23281  0.86300  0.24595  Biso   1.000  O
  Zr13     1.0000 0.13236  0.51322  0.62308  Biso   1.000  Zr
  Zr14     1.0000 0.13263  0.73255  0.86964  Biso   1.000  Zr
  Zr15     1.0000 0.37040  0.76368  0.62145  Biso   1.000  Zr
  Zr16     1.0000 0.37273  0.98158  0.87112  Biso   1.000  Zr
  O25      1.0000 0.03667  0.68323  0.69049  Biso   1.000  O
  O26      1.0000 0.03470  0.56746  0.94691  Biso   1.000  O
  O27      1.0000 0.47060  0.93128  0.69292  Biso   1.000  O
  O28      1.0000 0.47322  0.81852  0.94904  Biso   1.000  O
  O29      1.0000 0.26827  0.61375  0.74559  Biso   1.000  O
  O30      1.0000 0.26884  0.63620  0.99606  Biso   1.000  O
  O31      1.0000 0.23693  0.87810  0.99355  Biso   1.000  O
  O32      1.0000 0.23791  0.86297  0.74692  Biso   1.000  O
  Zr17     1.0000 0.62793  0.00821  0.11949  Biso   1.000  Zr
  Zr18     1.0000 0.62898  0.23195  0.37821  Biso   1.000  Zr
  Zr19     1.0000 0.83843  0.26291  0.12796  Biso   1.000  Zr
  Zr20     1.0000 0.86800  0.48489  0.37533  Biso   1.000  Zr
  O33      1.0000 0.52512  0.17999  0.19681  Biso   1.000  O
  O34      1.0000 0.53225  0.06697  0.44756  Biso   1.000  O
  O35      1.0000 0.96149  0.43236  0.19265  Biso   1.000  O
  O36      1.0000 0.97580  0.33147  0.46505  Biso   1.000  O
  O37      1.0000 0.74464  0.11145  0.24612  Biso   1.000  O
  O38      1.0000 0.77171  0.13911  0.49536  Biso   1.000  O
  O39      1.0000 0.73366  0.38491  0.49931  Biso   1.000  O
  O40      1.0000 0.72270  0.36916  0.25293  Biso   1.000  O
  Zr21     1.0000 0.63904  0.01429  0.62167  Biso   1.000  Zr
  Zr22     1.0000 0.63308  0.23357  0.87105  Biso   1.000  Zr
  Zr23     1.0000 0.86765  0.26810  0.62835  Biso   1.000  Zr
  Zr24     1.0000 0.86647  0.48220  0.87815  Biso   1.000  Zr
  O41      1.0000 0.53917  0.18309  0.69210  Biso   1.000  O
  O42      1.0000 0.53955  0.06524  0.93969  Biso   1.000  O
  O43      1.0000 0.96818  0.43382  0.70384  Biso   1.000  O
  O44      1.0000 0.95582  0.31196  0.93819  Biso   1.000  O
  O45      1.0000 0.77194  0.11543  0.74691  Biso   1.000  O
  O46      1.0000 0.76771  0.13059  0.99738  Biso   1.000  O
  O47      1.0000 0.72279  0.38259  0.00074  Biso   1.000  O
  O48      1.0000 0.73178  0.36791  0.74899  Biso   1.000  O
  Zr25     1.0000 0.63192  0.51932  0.12731  Biso   1.000  Zr
  Zr26     1.0000 0.63801  0.73859  0.37526  Biso   1.000  Zr
  Zr27     1.0000 0.86638  0.76540  0.12412  Biso   1.000  Zr
  Zr28     1.0000 0.87769  0.99985  0.36258  Biso   1.000  Zr
  O49      1.0000 0.53679  0.68508  0.19741  Biso   1.000  O
  O50      1.0000 0.53602  0.56930  0.44605  Biso   1.000  O
  O51      1.0000 0.96683  0.93717  0.18519  Biso   1.000  O
  O52      1.0000 0.96740  0.82310  0.43910  Biso   1.000  O
  O53      1.0000 0.77029  0.61734  0.24903  Biso   1.000  O
  O54      1.0000 0.77092  0.63544  0.49719  Biso   1.000  O
  O55      1.0000 0.73589  0.88874  0.49393  Biso   1.000  O
  O56      1.0000 0.73374  0.86635  0.24449  Biso   1.000  O
  Zr29     1.0000 0.63726  0.51686  0.62420  Biso   1.000  Zr
  Zr30     1.0000 0.63785  0.73365  0.87330  Biso   1.000  Zr
  Zr31     1.0000 0.86932  0.76869  0.61948  Biso   1.000  Zr
  Zr32     1.0000 0.86945  0.98273  0.87260  Biso   1.000  Zr
  O57      1.0000 0.53548  0.68172  0.69709  Biso   1.000  O
  O58      1.0000 0.53410  0.56961  0.94850  Biso   1.000  O
  O59      1.0000 0.97014  0.92832  0.69885  Biso   1.000  O
  O60      1.0000 0.96827  0.81462  0.94594  Biso   1.000  O
  O61      1.0000 0.77142  0.61670  0.74777  Biso   1.000  O
  O62      1.0000 0.76925  0.63261  0.99930  Biso   1.000  O
  O63      1.0000 0.73424  0.88123  0.99552  Biso   1.000  O
  O64      1.0000 0.73448  0.86585  0.74513  Biso   1.000  O
  Ag1      1.0000 0.09133  0.25750  0.11824  Biso   1.000  Ag
