data_image0
_cell_length_a       5.32351
_cell_length_b       10.077
_cell_length_c       10.0465
_cell_angle_alpha    91.7473
_cell_angle_beta     89.6354
_cell_angle_gamma    91.9714

_symmetry_space_group_name_H-M    "P 1"
_symmetry_int_tables_number       1

loop_
  _symmetry_equiv_pos_as_xyz
  'x, y, z'

loop_
  _atom_site_label
  _atom_site_occupancy
  _atom_site_fract_x
  _atom_site_fract_y
  _atom_site_fract_z
  _atom_site_thermal_displace_type
  _atom_site_B_iso_or_equiv
  _atom_site_type_symbol
  Zr1      1.0000 0.20085  0.97424  0.14068  Biso   1.000  Zr
  Zr2      1.0000 0.19884  0.21244  0.41022  Biso   1.000  Zr
  Zr3      1.0000 0.92178  0.25851  0.12258  Biso   1.000  Zr
  Zr4      1.0000 0.68682  0.99813  0.36082  Biso   1.000  Zr
  O1       1.0000 0.20477  0.16210  0.02412  Biso   1.000  O
  O2       1.0000 0.96420  0.11361  0.26122  Biso   1.000  O
  O3       1.0000 0.21665  0.35300  0.22356  Biso   1.000  O
  O4       1.0000 0.99868  0.40124  0.98265  Biso   1.000  O
  O5       1.0000 0.43939  0.12146  0.25381  Biso   1.000  O
  O6       1.0000 0.66769  0.15416  0.02176  Biso   1.000  O
  O7       1.0000 0.47286  0.39184  0.99219  Biso   1.000  O
  O8       1.0000 0.67867  0.35904  0.22623  Biso   1.000  O
  Zr5      1.0000 0.19761  0.01699  0.65757  Biso   1.000  Zr
  Zr6      1.0000 0.21342  0.27983  0.84043  Biso   1.000  Zr
  Zr7      1.0000 0.66627  0.24547  0.62147  Biso   1.000  Zr
  Zr8      1.0000 0.70124  0.99749  0.87984  Biso   1.000  Zr
  O9       1.0000 0.92220  0.09775  0.51649  Biso   1.000  O
  O10      1.0000 0.96025  0.12662  0.78157  Biso   1.000  O
  O11      1.0000 0.92209  0.37646  0.73596  Biso   1.000  O
  O12      1.0000 0.95068  0.35971  0.47279  Biso   1.000  O
  O13      1.0000 0.47416  0.13889  0.77320  Biso   1.000  O
  O14      1.0000 0.44705  0.08737  0.50632  Biso   1.000  O
  O15      1.0000 0.47154  0.35395  0.47660  Biso   1.000  O
  O16      1.0000 0.45696  0.40583  0.73737  Biso   1.000  O
  Zr9      1.0000 0.24048  0.53641  0.10277  Biso   1.000  Zr
  Zr10     1.0000 0.25667  0.74180  0.38624  Biso   1.000  Zr
  Zr11     1.0000 0.77150  0.74202  0.14298  Biso   1.000  Zr
  Zr12     1.0000 0.70075  0.49976  0.37962  Biso   1.000  Zr
  O17      1.0000 0.99321  0.64990  0.98722  Biso   1.000  O
  O18      1.0000 0.98557  0.60299  0.24471  Biso   1.000  O
  O19      1.0000 0.98029  0.86518  0.28601  Biso   1.000  O
  O20      1.0000 0.87254  0.91179  0.04103  Biso   1.000  O
  O21      1.0000 0.49377  0.61294  0.25062  Biso   1.000  O
  O22      1.0000 0.49485  0.65328  0.00111  Biso   1.000  O
  O23      1.0000 0.37612  0.91317  0.97037  Biso   1.000  O
  O24      1.0000 0.46865  0.86059  0.23052  Biso   1.000  O
  Zr13     1.0000 0.18936  0.47461  0.59798  Biso   1.000  Zr
  Zr14     1.0000 0.27715  0.74916  0.84978  Biso   1.000  Zr
  Zr15     1.0000 0.78079  0.75590  0.62359  Biso   1.000  Zr
  Zr16     1.0000 0.73350  0.51043  0.87061  Biso   1.000  Zr
  O25      1.0000 0.95476  0.61452  0.49128  Biso   1.000  O
  O26      1.0000 0.05482  0.61833  0.73588  Biso   1.000  O
  O27      1.0000 0.97220  0.87380  0.77683  Biso   1.000  O
  O28      1.0000 0.10728  0.85126  0.53825  Biso   1.000  O
  O29      1.0000 0.57484  0.65185  0.76144  Biso   1.000  O
  O30      1.0000 0.44620  0.60175  0.50433  Biso   1.000  O
  O31      1.0000 0.59767  0.83402  0.46711  Biso   1.000  O
  O32      1.0000 0.48943  0.88817  0.72702  Biso   1.000  O
  Al1      1.0000 0.44176  0.25662  0.12388  Biso   1.000  Al
