data_image0
_cell_length_a       10.3088
_cell_length_b       10.4206
_cell_length_c       5.19675
_cell_angle_alpha    88.7139
_cell_angle_beta     88.2401
_cell_angle_gamma    93.4202

_symmetry_space_group_name_H-M    "P 1"
_symmetry_int_tables_number       1

loop_
  _symmetry_equiv_pos_as_xyz
  'x, y, z'

loop_
  _atom_site_label
  _atom_site_occupancy
  _atom_site_fract_x
  _atom_site_fract_y
  _atom_site_fract_z
  _atom_site_thermal_displace_type
  _atom_site_B_iso_or_equiv
  _atom_site_type_symbol
  Zr1      1.0000 0.14070  0.89871  0.24781  Biso   1.000  Zr
  Zr2      1.0000 0.13273  0.31815  0.76293  Biso   1.000  Zr
  Zr3      1.0000 0.40371  0.24410  0.28171  Biso   1.000  Zr
  Zr4      1.0000 0.35363  0.01248  0.77349  Biso   1.000  Zr
  O1       1.0000 0.98380  0.16955  0.86816  Biso   1.000  O
  O2       1.0000 0.93834  0.06398  0.36951  Biso   1.000  O
  O3       1.0000 0.99213  0.37335  0.49297  Biso   1.000  O
  O4       1.0000 0.02642  0.42883  0.00583  Biso   1.000  O
  O5       1.0000 0.28031  0.19011  0.62825  Biso   1.000  O
  O6       1.0000 0.27727  0.05025  0.13092  Biso   1.000  O
  O7       1.0000 0.28721  0.34371  0.02215  Biso   1.000  O
  O8       1.0000 0.25007  0.45503  0.54460  Biso   1.000  O
  Zr5      1.0000 0.12081  0.53561  0.28808  Biso   1.000  Zr
  Zr6      1.0000 0.10278  0.76497  0.74880  Biso   1.000  Zr
  Zr7      1.0000 0.39849  0.73621  0.20349  Biso   1.000  Zr
  Zr8      1.0000 0.40296  0.48338  0.81017  Biso   1.000  Zr
  O9       1.0000 0.03752  0.68970  0.10634  Biso   1.000  O
  O10      1.0000 0.01869  0.60256  0.60328  Biso   1.000  O
  O11      1.0000 0.97223  0.83718  0.49518  Biso   1.000  O
  O12      1.0000 0.99975  0.90486  0.97637  Biso   1.000  O
  O13      1.0000 0.22380  0.73050  0.42705  Biso   1.000  O
  O14      1.0000 0.28205  0.58804  0.03863  Biso   1.000  O
  O15      1.0000 0.26628  0.83047  0.96331  Biso   1.000  O
  O16      1.0000 0.18560  0.95607  0.59989  Biso   1.000  O
  Zr9      1.0000 0.60099  0.00477  0.25223  Biso   1.000  Zr
  Zr10     1.0000 0.62752  0.23956  0.74861  Biso   1.000  Zr
  Zr11     1.0000 0.84706  0.22942  0.22525  Biso   1.000  Zr
  Zr12     1.0000 0.88214  0.01091  0.72476  Biso   1.000  Zr
  O17      1.0000 0.49875  0.13651  0.00135  Biso   1.000  O
  O18      1.0000 0.49555  0.10642  0.50885  Biso   1.000  O
  O19      1.0000 0.50365  0.36372  0.54487  Biso   1.000  O
  O20      1.0000 0.53163  0.38256  0.03926  Biso   1.000  O
  O21      1.0000 0.73139  0.12606  0.51196  Biso   1.000  O
  O22      1.0000 0.74079  0.09157  0.99782  Biso   1.000  O
  O23      1.0000 0.77306  0.33732  0.93137  Biso   1.000  O
  O24      1.0000 0.74703  0.37742  0.45115  Biso   1.000  O
  Zr13     1.0000 0.63163  0.50762  0.27826  Biso   1.000  Zr
  Zr14     1.0000 0.61053  0.76624  0.69465  Biso   1.000  Zr
  Zr15     1.0000 0.85257  0.76039  0.20333  Biso   1.000  Zr
  Zr16     1.0000 0.86270  0.48574  0.71960  Biso   1.000  Zr
  O25      1.0000 0.53065  0.63002  0.98083  Biso   1.000  O
  O26      1.0000 0.49457  0.61557  0.48162  Biso   1.000  O
  O27      1.0000 0.46791  0.86492  0.49211  Biso   1.000  O
  O28      1.0000 0.51063  0.88064  0.98336  Biso   1.000  O
  O29      1.0000 0.74795  0.62917  0.53023  Biso   1.000  O
  O30      1.0000 0.78787  0.58589  0.04907  Biso   1.000  O
  O31      1.0000 0.76497  0.83938  0.89349  Biso   1.000  O
  O32      1.0000 0.71654  0.86911  0.39949  Biso   1.000  O
  Ba1      1.0000 0.12174  0.20225  0.27183  Biso   1.000  Ba
