data_image0
_cell_length_a       10.0722
_cell_length_b       10.4671
_cell_length_c       10.1469
_cell_angle_alpha    90.0195
_cell_angle_beta     89.7818
_cell_angle_gamma    90.07

_symmetry_space_group_name_H-M    "P 1"
_symmetry_int_tables_number       1

loop_
  _symmetry_equiv_pos_as_xyz
  'x, y, z'

loop_
  _atom_site_label
  _atom_site_occupancy
  _atom_site_fract_x
  _atom_site_fract_y
  _atom_site_fract_z
  _atom_site_thermal_displace_type
  _atom_site_B_iso_or_equiv
  _atom_site_type_symbol
  Ba1      1.0000 0.09733  0.99341  0.13242  Biso   1.000  Ba
  Zr1      1.0000 0.13456  0.01805  0.62654  Biso   1.000  Zr
  Zr2      1.0000 0.13871  0.51473  0.12980  Biso   1.000  Zr
  Zr3      1.0000 0.13628  0.51639  0.62510  Biso   1.000  Zr
  Zr4      1.0000 0.63628  0.01960  0.11850  Biso   1.000  Zr
  Zr5      1.0000 0.62894  0.01681  0.62620  Biso   1.000  Zr
  Zr6      1.0000 0.62945  0.51258  0.12595  Biso   1.000  Zr
  Zr7      1.0000 0.63418  0.51515  0.62455  Biso   1.000  Zr
  Zr8      1.0000 0.13637  0.23611  0.37696  Biso   1.000  Zr
  Zr9      1.0000 0.13544  0.23351  0.87243  Biso   1.000  Zr
  Zr10     1.0000 0.13992  0.73446  0.38171  Biso   1.000  Zr
  Zr11     1.0000 0.14343  0.73428  0.87440  Biso   1.000  Zr
  Zr12     1.0000 0.63362  0.23474  0.37249  Biso   1.000  Zr
  Zr13     1.0000 0.63346  0.23448  0.87452  Biso   1.000  Zr
  Zr14     1.0000 0.63180  0.73005  0.37594  Biso   1.000  Zr
  Zr15     1.0000 0.63015  0.73514  0.87153  Biso   1.000  Zr
  Zr16     1.0000 0.36169  0.26023  0.12620  Biso   1.000  Zr
  Zr17     1.0000 0.36608  0.26506  0.62526  Biso   1.000  Zr
  Zr18     1.0000 0.37094  0.76176  0.12418  Biso   1.000  Zr
  Zr19     1.0000 0.36799  0.76884  0.62554  Biso   1.000  Zr
  Zr20     1.0000 0.86593  0.27142  0.12588  Biso   1.000  Zr
  Zr21     1.0000 0.86947  0.27027  0.62220  Biso   1.000  Zr
  Zr22     1.0000 0.88695  0.72521  0.08779  Biso   1.000  Zr
  Zr23     1.0000 0.86935  0.76393  0.62310  Biso   1.000  Zr
  Zr24     1.0000 0.36782  0.48225  0.37555  Biso   1.000  Zr
  Zr25     1.0000 0.36707  0.48073  0.87650  Biso   1.000  Zr
  Zr26     1.0000 0.36804  0.98590  0.37308  Biso   1.000  Zr
  Zr27     1.0000 0.36352  0.98588  0.87852  Biso   1.000  Zr
  Zr28     1.0000 0.86694  0.48806  0.37394  Biso   1.000  Zr
  Zr29     1.0000 0.86348  0.47925  0.87218  Biso   1.000  Zr
  Zr30     1.0000 0.86117  0.99075  0.39580  Biso   1.000  Zr
  Zr31     1.0000 0.86017  0.98456  0.86618  Biso   1.000  Zr
  O1       1.0000 0.02719  0.20587  0.20634  Biso   1.000  O
  O2       1.0000 0.04164  0.19136  0.67767  Biso   1.000  O
  O3       1.0000 0.04882  0.69653  0.19806  Biso   1.000  O
  O4       1.0000 0.03671  0.68362  0.69861  Biso   1.000  O
  O5       1.0000 0.53960  0.18417  0.19052  Biso   1.000  O
  O6       1.0000 0.53411  0.18388  0.69527  Biso   1.000  O
  O7       1.0000 0.53621  0.67953  0.20031  Biso   1.000  O
  O8       1.0000 0.53419  0.68215  0.69445  Biso   1.000  O
  O9       1.0000 0.03779  0.06518  0.43699  Biso   1.000  O
  O10      1.0000 0.02812  0.07522  0.90539  Biso   1.000  O
  O11      1.0000 0.03600  0.56910  0.44782  Biso   1.000  O
  O12      1.0000 0.01306  0.58912  0.96644  Biso   1.000  O
  O13      1.0000 0.53756  0.06747  0.44588  Biso   1.000  O
  O14      1.0000 0.53865  0.06638  0.94185  Biso   1.000  O
  O15      1.0000 0.53702  0.56679  0.44484  Biso   1.000  O
  O16      1.0000 0.52675  0.56988  0.95072  Biso   1.000  O
  O17      1.0000 0.46482  0.42891  0.19712  Biso   1.000  O
  O18      1.0000 0.46720  0.43292  0.69604  Biso   1.000  O
  O19      1.0000 0.47893  0.92893  0.19928  Biso   1.000  O
  O20      1.0000 0.46568  0.93300  0.69995  Biso   1.000  O
  O21      1.0000 0.96072  0.44830  0.19261  Biso   1.000  O
  O22      1.0000 0.96826  0.43545  0.69891  Biso   1.000  O
  O23      1.0000 0.87161  0.88687  0.21418  Biso   1.000  O
  O24      1.0000 0.95802  0.93699  0.68171  Biso   1.000  O
  O25      1.0000 0.46698  0.31629  0.44584  Biso   1.000  O
  O26      1.0000 0.46551  0.31635  0.94422  Biso   1.000  O
  O27      1.0000 0.47099  0.81810  0.45219  Biso   1.000  O
  O28      1.0000 0.47289  0.82051  0.94828  Biso   1.000  O
  O29      1.0000 0.96595  0.32308  0.44581  Biso   1.000  O
  O30      1.0000 0.96873  0.32505  0.94713  Biso   1.000  O
  O31      1.0000 0.97000  0.82041  0.44705  Biso   1.000  O
  O32      1.0000 0.97833  0.83076  0.94334  Biso   1.000  O
  O33      1.0000 0.28101  0.12562  0.25715  Biso   1.000  O
  O34      1.0000 0.27137  0.11772  0.74781  Biso   1.000  O
  O35      1.0000 0.27241  0.61122  0.25084  Biso   1.000  O
  O36      1.0000 0.27030  0.61717  0.75073  Biso   1.000  O
  O37      1.0000 0.77273  0.11618  0.25103  Biso   1.000  O
  O38      1.0000 0.76704  0.11862  0.74588  Biso   1.000  O
  O39      1.0000 0.76990  0.61899  0.24244  Biso   1.000  O
  O40      1.0000 0.77064  0.61567  0.74379  Biso   1.000  O
  O41      1.0000 0.26955  0.13259  0.50213  Biso   1.000  O
  O42      1.0000 0.27130  0.13502  0.99347  Biso   1.000  O
  O43      1.0000 0.27341  0.63292  0.50170  Biso   1.000  O
  O44      1.0000 0.26645  0.62654  0.00012  Biso   1.000  O
  O45      1.0000 0.76792  0.13699  0.50142  Biso   1.000  O
  O46      1.0000 0.77432  0.13344  0.99744  Biso   1.000  O
  O47      1.0000 0.77004  0.63462  0.49468  Biso   1.000  O
  O48      1.0000 0.75746  0.62017  0.98740  Biso   1.000  O
  O49      1.0000 0.23307  0.38448  0.49929  Biso   1.000  O
  O50      1.0000 0.22906  0.38332  0.00023  Biso   1.000  O
  O51      1.0000 0.23352  0.88562  0.50141  Biso   1.000  O
  O52      1.0000 0.24397  0.86893  0.99250  Biso   1.000  O
  O53      1.0000 0.73153  0.38540  0.49760  Biso   1.000  O
  O54      1.0000 0.72730  0.38127  0.99688  Biso   1.000  O
  O55      1.0000 0.72909  0.88173  0.50088  Biso   1.000  O
  O56      1.0000 0.73662  0.87286  0.99746  Biso   1.000  O
  O57      1.0000 0.22977  0.36882  0.25020  Biso   1.000  O
  O58      1.0000 0.23172  0.36830  0.74778  Biso   1.000  O
  O59      1.0000 0.25411  0.85252  0.26068  Biso   1.000  O
  O60      1.0000 0.22955  0.87007  0.74776  Biso   1.000  O
  O61      1.0000 0.73094  0.36921  0.24916  Biso   1.000  O
  O62      1.0000 0.73194  0.36711  0.74766  Biso   1.000  O
  O63      1.0000 0.73197  0.87841  0.24637  Biso   1.000  O
  O64      1.0000 0.73032  0.86515  0.74597  Biso   1.000  O
