data_image0
_cell_length_a       4.98463
_cell_length_b       10.3921
_cell_length_c       10.0693
_cell_angle_alpha    90.3899
_cell_angle_beta     89.6454
_cell_angle_gamma    90.0014

_symmetry_space_group_name_H-M    "P 1"
_symmetry_int_tables_number       1

loop_
  _symmetry_equiv_pos_as_xyz
  'x, y, z'

loop_
  _atom_site_label
  _atom_site_occupancy
  _atom_site_fract_x
  _atom_site_fract_y
  _atom_site_fract_z
  _atom_site_thermal_displace_type
  _atom_site_B_iso_or_equiv
  _atom_site_type_symbol
  Hf1      1.0000 0.26203  0.02874  0.11663  Biso   1.000  Hf
  Hf2      1.0000 0.26592  0.22390  0.39573  Biso   1.000  Hf
  Hf3      1.0000 0.67577  0.26007  0.11481  Biso   1.000  Hf
  Hf4      1.0000 0.74056  0.48009  0.37557  Biso   1.000  Hf
  O1       1.0000 0.01984  0.17979  0.22533  Biso   1.000  O
  O2       1.0000 0.07543  0.06035  0.45479  Biso   1.000  O
  O3       1.0000 0.94372  0.41622  0.18103  Biso   1.000  O
  O4       1.0000 0.93106  0.31838  0.45045  Biso   1.000  O
  O5       1.0000 0.51681  0.11761  0.25419  Biso   1.000  O
  O6       1.0000 0.55460  0.12872  0.50439  Biso   1.000  O
  O7       1.0000 0.46592  0.38031  0.49884  Biso   1.000  O
  O8       1.0000 0.41482  0.36335  0.24663  Biso   1.000  O
  Hf5      1.0000 0.27808  0.01510  0.63112  Biso   1.000  Hf
  Hf6      1.0000 0.27154  0.23394  0.88292  Biso   1.000  Hf
  Hf7      1.0000 0.73787  0.26583  0.63211  Biso   1.000  Hf
  Hf8      1.0000 0.74102  0.48588  0.87161  Biso   1.000  Hf
  O9       1.0000 0.08009  0.18358  0.69245  Biso   1.000  O
  O10      1.0000 0.08822  0.06251  0.93603  Biso   1.000  O
  O11      1.0000 0.93175  0.43580  0.69252  Biso   1.000  O
  O12      1.0000 0.91488  0.31440  0.93420  Biso   1.000  O
  O13      1.0000 0.54813  0.11791  0.75093  Biso   1.000  O
  O14      1.0000 0.58014  0.11779  0.99105  Biso   1.000  O
  O15      1.0000 0.46416  0.39324  0.99430  Biso   1.000  O
  O16      1.0000 0.45860  0.36957  0.74948  Biso   1.000  O
  Hf9      1.0000 0.27165  0.53153  0.11976  Biso   1.000  Hf
  Hf10     1.0000 0.27668  0.73460  0.37575  Biso   1.000  Hf
  Hf11     1.0000 0.73353  0.77129  0.12469  Biso   1.000  Hf
  Hf12     1.0000 0.73764  0.98445  0.37202  Biso   1.000  Hf
  O17      1.0000 0.07249  0.68455  0.19624  Biso   1.000  O
  O18      1.0000 0.07311  0.56417  0.44089  Biso   1.000  O
  O19      1.0000 0.93132  0.93624  0.19195  Biso   1.000  O
  O20      1.0000 0.93287  0.81467  0.44031  Biso   1.000  O
  O21      1.0000 0.55423  0.61343  0.24625  Biso   1.000  O
  O22      1.0000 0.54608  0.62861  0.49606  Biso   1.000  O
  O23      1.0000 0.46673  0.88137  0.49917  Biso   1.000  O
  O24      1.0000 0.46547  0.86547  0.25043  Biso   1.000  O
  Hf13     1.0000 0.27471  0.51477  0.62510  Biso   1.000  Hf
  Hf14     1.0000 0.27481  0.73656  0.87277  Biso   1.000  Hf
  Hf15     1.0000 0.74095  0.76476  0.62113  Biso   1.000  Hf
  Hf16     1.0000 0.74087  0.97796  0.87219  Biso   1.000  Hf
  O25      1.0000 0.07899  0.68315  0.69104  Biso   1.000  O
  O26      1.0000 0.07511  0.57089  0.94346  Biso   1.000  O
  O27      1.0000 0.93915  0.92869  0.69315  Biso   1.000  O
  O28      1.0000 0.93450  0.81539  0.94539  Biso   1.000  O
  O29      1.0000 0.54594  0.61847  0.74663  Biso   1.000  O
  O30      1.0000 0.54364  0.63690  0.99712  Biso   1.000  O
  O31      1.0000 0.46030  0.88079  0.99976  Biso   1.000  O
  O32      1.0000 0.46982  0.86626  0.74784  Biso   1.000  O
  Be1      1.0000 0.16901  0.29312  0.16053  Biso   1.000  Be
