data_image0
_cell_length_a       10.0382
_cell_length_b       5.20419
_cell_length_c       10.1234
_cell_angle_alpha    89.2646
_cell_angle_beta     88.9302
_cell_angle_gamma    89.5947

_symmetry_space_group_name_H-M    "P 1"
_symmetry_int_tables_number       1

loop_
  _symmetry_equiv_pos_as_xyz
  'x, y, z'

loop_
  _atom_site_label
  _atom_site_occupancy
  _atom_site_fract_x
  _atom_site_fract_y
  _atom_site_fract_z
  _atom_site_thermal_displace_type
  _atom_site_B_iso_or_equiv
  _atom_site_type_symbol
  Be1      1.0000 0.07224  0.87843  0.03720  Biso   1.000  Be
  Zr1      1.0000 0.13291  0.03275  0.62937  Biso   1.000  Zr
  Zr2      1.0000 0.63350  0.03154  0.12184  Biso   1.000  Zr
  Zr3      1.0000 0.62544  0.02242  0.61815  Biso   1.000  Zr
  Zr4      1.0000 0.14939  0.48393  0.38393  Biso   1.000  Zr
  Zr5      1.0000 0.13920  0.44605  0.88760  Biso   1.000  Zr
  Zr6      1.0000 0.63051  0.47824  0.37293  Biso   1.000  Zr
  Zr7      1.0000 0.62040  0.47165  0.86574  Biso   1.000  Zr
  Zr8      1.0000 0.36078  0.52541  0.13255  Biso   1.000  Zr
  Zr9      1.0000 0.36303  0.53890  0.63259  Biso   1.000  Zr
  Zr10     1.0000 0.85119  0.52199  0.10705  Biso   1.000  Zr
  Zr11     1.0000 0.86759  0.52313  0.62069  Biso   1.000  Zr
  Zr12     1.0000 0.36302  0.98052  0.37044  Biso   1.000  Zr
  Zr13     1.0000 0.35902  0.96832  0.88799  Biso   1.000  Zr
  Zr14     1.0000 0.87164  0.97097  0.37836  Biso   1.000  Zr
  Zr15     1.0000 0.86328  0.98321  0.86120  Biso   1.000  Zr
  O1       1.0000 0.03102  0.53816  0.20216  Biso   1.000  O
  O2       1.0000 0.02165  0.34508  0.71606  Biso   1.000  O
  O3       1.0000 0.54486  0.36965  0.19441  Biso   1.000  O
  O4       1.0000 0.52784  0.35730  0.69536  Biso   1.000  O
  O5       1.0000 0.03444  0.14922  0.44815  Biso   1.000  O
  O6       1.0000 0.02027  0.13675  0.96957  Biso   1.000  O
  O7       1.0000 0.53685  0.13969  0.44136  Biso   1.000  O
  O8       1.0000 0.53245  0.13281  0.94707  Biso   1.000  O
  O9       1.0000 0.47653  0.85969  0.20167  Biso   1.000  O
  O10      1.0000 0.46570  0.86033  0.70725  Biso   1.000  O
  O11      1.0000 0.00065  0.81221  0.18719  Biso   1.000  O
  O12      1.0000 0.96465  0.85628  0.69355  Biso   1.000  O
  O13      1.0000 0.47392  0.64617  0.45953  Biso   1.000  O
  O14      1.0000 0.46224  0.64000  0.95197  Biso   1.000  O
  O15      1.0000 0.97343  0.64868  0.45145  Biso   1.000  O
  O16      1.0000 0.97674  0.66662  0.95131  Biso   1.000  O
  O17      1.0000 0.27340  0.25414  0.25940  Biso   1.000  O
  O18      1.0000 0.26332  0.22741  0.75393  Biso   1.000  O
  O19      1.0000 0.79082  0.21422  0.23178  Biso   1.000  O
  O20      1.0000 0.75924  0.22294  0.73578  Biso   1.000  O
  O21      1.0000 0.27129  0.26951  0.50992  Biso   1.000  O
  O22      1.0000 0.27853  0.26987  0.99810  Biso   1.000  O
  O23      1.0000 0.77025  0.27188  0.48814  Biso   1.000  O
  O24      1.0000 0.76210  0.27943  0.98127  Biso   1.000  O
  O25      1.0000 0.23370  0.77224  0.50719  Biso   1.000  O
  O26      1.0000 0.21703  0.75897  0.00878  Biso   1.000  O
  O27      1.0000 0.73506  0.77112  0.49505  Biso   1.000  O
  O28      1.0000 0.73330  0.77636  0.99143  Biso   1.000  O
  O29      1.0000 0.25187  0.72808  0.26546  Biso   1.000  O
  O30      1.0000 0.22563  0.73128  0.75764  Biso   1.000  O
  O31      1.0000 0.74374  0.73017  0.24489  Biso   1.000  O
  O32      1.0000 0.73199  0.72389  0.74355  Biso   1.000  O
