data_image0
_cell_length_a       10.1064
_cell_length_b       10.293
_cell_length_c       5.04419
_cell_angle_alpha    89.7393
_cell_angle_beta     89.1349
_cell_angle_gamma    88.883

_symmetry_space_group_name_H-M    "P 1"
_symmetry_int_tables_number       1

loop_
  _symmetry_equiv_pos_as_xyz
  'x, y, z'

loop_
  _atom_site_label
  _atom_site_occupancy
  _atom_site_fract_x
  _atom_site_fract_y
  _atom_site_fract_z
  _atom_site_thermal_displace_type
  _atom_site_B_iso_or_equiv
  _atom_site_type_symbol
  Hf1      1.0000 0.12090  0.99645  0.28150  Biso   1.000  Hf
  Hf2      1.0000 0.14227  0.22417  0.73706  Biso   1.000  Hf
  Hf3      1.0000 0.34844  0.26597  0.21910  Biso   1.000  Hf
  Hf4      1.0000 0.38814  0.99677  0.78470  Biso   1.000  Hf
  O1       1.0000 0.02937  0.17139  0.13003  Biso   1.000  O
  O2       1.0000 0.02280  0.08071  0.61970  Biso   1.000  O
  O3       1.0000 0.02002  0.32776  0.45290  Biso   1.000  O
  O4       1.0000 0.97678  0.39190  0.95506  Biso   1.000  O
  O5       1.0000 0.32253  0.16739  0.57755  Biso   1.000  O
  O6       1.0000 0.25271  0.10436  0.03225  Biso   1.000  O
  O7       1.0000 0.24218  0.37550  0.90369  Biso   1.000  O
  O8       1.0000 0.27790  0.42982  0.41176  Biso   1.000  O
  Hf5      1.0000 0.11220  0.47923  0.19395  Biso   1.000  Hf
  Hf6      1.0000 0.13266  0.77180  0.79459  Biso   1.000  Hf
  Hf7      1.0000 0.38112  0.74167  0.26773  Biso   1.000  Hf
  Hf8      1.0000 0.35439  0.52051  0.74072  Biso   1.000  Hf
  O9       1.0000 0.98594  0.65105  0.93880  Biso   1.000  O
  O10      1.0000 0.98143  0.58276  0.42847  Biso   1.000  O
  O11      1.0000 0.99580  0.84111  0.51089  Biso   1.000  O
  O12      1.0000 0.99485  0.90625  0.02391  Biso   1.000  O
  O13      1.0000 0.24980  0.67097  0.53941  Biso   1.000  O
  O14      1.0000 0.23825  0.61805  0.02461  Biso   1.000  O
  O15      1.0000 0.24901  0.86109  0.06910  Biso   1.000  O
  O16      1.0000 0.23314  0.92502  0.57916  Biso   1.000  O
  Hf9      1.0000 0.64023  0.01023  0.22932  Biso   1.000  Hf
  Hf10     1.0000 0.60685  0.23625  0.72915  Biso   1.000  Hf
  Hf11     1.0000 0.84784  0.27093  0.20158  Biso   1.000  Hf
  Hf12     1.0000 0.86335  0.98305  0.72351  Biso   1.000  Hf
  O17      1.0000 0.50292  0.14173  0.03405  Biso   1.000  O
  O18      1.0000 0.54834  0.06024  0.57231  Biso   1.000  O
  O19      1.0000 0.52446  0.32382  0.41903  Biso   1.000  O
  O20      1.0000 0.48290  0.38825  0.94251  Biso   1.000  O
  O21      1.0000 0.76736  0.14878  0.48214  Biso   1.000  O
  O22      1.0000 0.76639  0.11380  0.98333  Biso   1.000  O
  O23      1.0000 0.72941  0.36128  0.93323  Biso   1.000  O
  O24      1.0000 0.76534  0.41198  0.43041  Biso   1.000  O
  Hf13     1.0000 0.60309  0.48273  0.20531  Biso   1.000  Hf
  Hf14     1.0000 0.62085  0.74854  0.77055  Biso   1.000  Hf
  Hf15     1.0000 0.87497  0.74134  0.24898  Biso   1.000  Hf
  Hf16     1.0000 0.85864  0.51667  0.73157  Biso   1.000  Hf
  O25      1.0000 0.48940  0.63605  0.98624  Biso   1.000  O
  O26      1.0000 0.49956  0.58949  0.47883  Biso   1.000  O
  O27      1.0000 0.46993  0.83121  0.57514  Biso   1.000  O
  O28      1.0000 0.50500  0.88697  0.06544  Biso   1.000  O
  O29      1.0000 0.75045  0.65865  0.52849  Biso   1.000  O
  O30      1.0000 0.73975  0.60811  0.02131  Biso   1.000  O
  O31      1.0000 0.75131  0.85911  0.97429  Biso   1.000  O
  O32      1.0000 0.74844  0.89004  0.46480  Biso   1.000  O
  C1       1.0000 0.11111  0.25170  0.29291  Biso   1.000  C
