data_image0
_cell_length_a       10.0489
_cell_length_b       10.4332
_cell_length_c       5.06297
_cell_angle_alpha    90.2661
_cell_angle_beta     89.1779
_cell_angle_gamma    90.9339

_symmetry_space_group_name_H-M    "P 1"
_symmetry_int_tables_number       1

loop_
  _symmetry_equiv_pos_as_xyz
  'x, y, z'

loop_
  _atom_site_label
  _atom_site_occupancy
  _atom_site_fract_x
  _atom_site_fract_y
  _atom_site_fract_z
  _atom_site_thermal_displace_type
  _atom_site_B_iso_or_equiv
  _atom_site_type_symbol
  Zr1      1.0000 0.14796  0.01782  0.25881  Biso   1.000  Zr
  Zr2      1.0000 0.13521  0.23093  0.81365  Biso   1.000  Zr
  Zr3      1.0000 0.36459  0.25905  0.24319  Biso   1.000  Zr
  Zr4      1.0000 0.38059  0.49350  0.74699  Biso   1.000  Zr
  O1       1.0000 0.03042  0.17751  0.44280  Biso   1.000  O
  O2       1.0000 0.03290  0.07072  0.93115  Biso   1.000  O
  O3       1.0000 0.45450  0.42918  0.38802  Biso   1.000  O
  O4       1.0000 0.46780  0.31726  0.88279  Biso   1.000  O
  O5       1.0000 0.27162  0.11690  0.52183  Biso   1.000  O
  O6       1.0000 0.29455  0.11540  0.99739  Biso   1.000  O
  O7       1.0000 0.24045  0.38989  0.96716  Biso   1.000  O
  O8       1.0000 0.18412  0.34254  0.44133  Biso   1.000  O
  Zr5      1.0000 0.12503  0.51708  0.22809  Biso   1.000  Zr
  Zr6      1.0000 0.13338  0.73445  0.74608  Biso   1.000  Zr
  Zr7      1.0000 0.36780  0.76001  0.24948  Biso   1.000  Zr
  Zr8      1.0000 0.37437  0.97727  0.74953  Biso   1.000  Zr
  O9       1.0000 0.03784  0.68702  0.37804  Biso   1.000  O
  O10      1.0000 0.03207  0.56851  0.87852  Biso   1.000  O
  O11      1.0000 0.47054  0.92816  0.38395  Biso   1.000  O
  O12      1.0000 0.46948  0.81361  0.89879  Biso   1.000  O
  O13      1.0000 0.26178  0.60409  0.49151  Biso   1.000  O
  O14      1.0000 0.26866  0.63534  0.98859  Biso   1.000  O
  O15      1.0000 0.23104  0.87922  0.99979  Biso   1.000  O
  O16      1.0000 0.23865  0.86203  0.49868  Biso   1.000  O
  Zr9      1.0000 0.63726  0.01976  0.24796  Biso   1.000  Zr
  Zr10     1.0000 0.63654  0.23349  0.74725  Biso   1.000  Zr
  Zr11     1.0000 0.87482  0.27390  0.23185  Biso   1.000  Zr
  Zr12     1.0000 0.86002  0.48748  0.74408  Biso   1.000  Zr
  O17      1.0000 0.53360  0.18158  0.38325  Biso   1.000  O
  O18      1.0000 0.54626  0.06174  0.87739  Biso   1.000  O
  O19      1.0000 0.94714  0.45060  0.36879  Biso   1.000  O
  O20      1.0000 0.95462  0.32103  0.84786  Biso   1.000  O
  O21      1.0000 0.77302  0.11983  0.49031  Biso   1.000  O
  O22      1.0000 0.77336  0.13698  0.99171  Biso   1.000  O
  O23      1.0000 0.72777  0.38431  0.99755  Biso   1.000  O
  O24      1.0000 0.72441  0.37053  0.49332  Biso   1.000  O
  Zr13     1.0000 0.63511  0.51515  0.25920  Biso   1.000  Zr
  Zr14     1.0000 0.63984  0.73846  0.75559  Biso   1.000  Zr
  Zr15     1.0000 0.87133  0.77082  0.24973  Biso   1.000  Zr
  Zr16     1.0000 0.86782  0.98867  0.74649  Biso   1.000  Zr
  O25      1.0000 0.52633  0.67403  0.42047  Biso   1.000  O
  O26      1.0000 0.53698  0.57059  0.91221  Biso   1.000  O
  O27      1.0000 0.97414  0.93351  0.40291  Biso   1.000  O
  O28      1.0000 0.96576  0.81952  0.88629  Biso   1.000  O
  O29      1.0000 0.76602  0.62319  0.50089  Biso   1.000  O
  O30      1.0000 0.76804  0.63525  0.00421  Biso   1.000  O
  O31      1.0000 0.73590  0.88596  0.99881  Biso   1.000  O
  O32      1.0000 0.73369  0.87040  0.49738  Biso   1.000  O
  C1       1.0000 0.10883  0.25487  0.27384  Biso   1.000  C
