data_image0
_cell_length_a       10.0959
_cell_length_b       10.4434
_cell_length_c       10.1406
_cell_angle_alpha    89.6053
_cell_angle_beta     89.8076
_cell_angle_gamma    90.3885

_symmetry_space_group_name_H-M    "P 1"
_symmetry_int_tables_number       1

loop_
  _symmetry_equiv_pos_as_xyz
  'x, y, z'

loop_
  _atom_site_label
  _atom_site_occupancy
  _atom_site_fract_x
  _atom_site_fract_y
  _atom_site_fract_z
  _atom_site_thermal_displace_type
  _atom_site_B_iso_or_equiv
  _atom_site_type_symbol
  Zr1      1.0000 0.14383  0.00038  0.10781  Biso   1.000  Zr
  Zr2      1.0000 0.13023  0.23073  0.40232  Biso   1.000  Zr
  Zr3      1.0000 0.36916  0.26525  0.12057  Biso   1.000  Zr
  Zr4      1.0000 0.36842  0.48521  0.37505  Biso   1.000  Zr
  O1       1.0000 0.96203  0.18463  0.28223  Biso   1.000  O
  O2       1.0000 0.03946  0.06221  0.46624  Biso   1.000  O
  O3       1.0000 0.46197  0.43392  0.19380  Biso   1.000  O
  O4       1.0000 0.46614  0.31909  0.44623  Biso   1.000  O
  O5       1.0000 0.24976  0.11356  0.25207  Biso   1.000  O
  O6       1.0000 0.27562  0.13141  0.50390  Biso   1.000  O
  O7       1.0000 0.23759  0.38412  0.50204  Biso   1.000  O
  O8       1.0000 0.22590  0.36533  0.25378  Biso   1.000  O
  Zr5      1.0000 0.13914  0.01211  0.63390  Biso   1.000  Zr
  Zr6      1.0000 0.13563  0.22991  0.87024  Biso   1.000  Zr
  Zr7      1.0000 0.37069  0.26691  0.62840  Biso   1.000  Zr
  Zr8      1.0000 0.36862  0.48671  0.87111  Biso   1.000  Zr
  O9       1.0000 0.03831  0.18309  0.69233  Biso   1.000  O
  O10      1.0000 0.04935  0.05113  0.92236  Biso   1.000  O
  O11      1.0000 0.46927  0.43311  0.69541  Biso   1.000  O
  O12      1.0000 0.46495  0.31500  0.94083  Biso   1.000  O
  O13      1.0000 0.27475  0.11727  0.74916  Biso   1.000  O
  O14      1.0000 0.28907  0.12147  0.99314  Biso   1.000  O
  O15      1.0000 0.23586  0.39209  0.99635  Biso   1.000  O
  O16      1.0000 0.23315  0.36574  0.74788  Biso   1.000  O
  Zr9      1.0000 0.13564  0.52830  0.12306  Biso   1.000  Zr
  Zr10     1.0000 0.13447  0.73773  0.37607  Biso   1.000  Zr
  Zr11     1.0000 0.37009  0.76256  0.12353  Biso   1.000  Zr
  Zr12     1.0000 0.36404  0.98644  0.37323  Biso   1.000  Zr
  O17      1.0000 0.03648  0.68716  0.19352  Biso   1.000  O
  O18      1.0000 0.03409  0.57222  0.44092  Biso   1.000  O
  O19      1.0000 0.46071  0.93353  0.19415  Biso   1.000  O
  O20      1.0000 0.46712  0.81799  0.44160  Biso   1.000  O
  O21      1.0000 0.27196  0.61776  0.24673  Biso   1.000  O
  O22      1.0000 0.26953  0.63315  0.49554  Biso   1.000  O
  O23      1.0000 0.23308  0.88366  0.49729  Biso   1.000  O
  O24      1.0000 0.23284  0.86305  0.24430  Biso   1.000  O
  Zr13     1.0000 0.13043  0.51198  0.62141  Biso   1.000  Zr
  Zr14     1.0000 0.13275  0.73186  0.86751  Biso   1.000  Zr
  Zr15     1.0000 0.37046  0.76286  0.61962  Biso   1.000  Zr
  Zr16     1.0000 0.37429  0.98035  0.86960  Biso   1.000  Zr
  O25      1.0000 0.03721  0.68409  0.68753  Biso   1.000  O
  O26      1.0000 0.03490  0.56769  0.94566  Biso   1.000  O
  O27      1.0000 0.47119  0.93075  0.69099  Biso   1.000  O
  O28      1.0000 0.47537  0.81854  0.94956  Biso   1.000  O
  O29      1.0000 0.26733  0.61292  0.74431  Biso   1.000  O
  O30      1.0000 0.26943  0.63598  0.99481  Biso   1.000  O
  O31      1.0000 0.23873  0.87490  0.99078  Biso   1.000  O
  O32      1.0000 0.23875  0.86254  0.74543  Biso   1.000  O
  Zr17     1.0000 0.62792  0.00686  0.11791  Biso   1.000  Zr
  Zr18     1.0000 0.62898  0.23190  0.37837  Biso   1.000  Zr
  Zr19     1.0000 0.83474  0.26248  0.12591  Biso   1.000  Zr
  Zr20     1.0000 0.86758  0.48448  0.37450  Biso   1.000  Zr
  O33      1.0000 0.52471  0.18006  0.19547  Biso   1.000  O
  O34      1.0000 0.53265  0.06656  0.44627  Biso   1.000  O
  O35      1.0000 0.96320  0.42971  0.18729  Biso   1.000  O
  O36      1.0000 0.97963  0.33764  0.47220  Biso   1.000  O
  O37      1.0000 0.74306  0.11134  0.24452  Biso   1.000  O
  O38      1.0000 0.77194  0.14011  0.49572  Biso   1.000  O
  O39      1.0000 0.73457  0.38497  0.49876  Biso   1.000  O
  O40      1.0000 0.72187  0.37025  0.25266  Biso   1.000  O
  Zr21     1.0000 0.63971  0.01452  0.62082  Biso   1.000  Zr
  Zr22     1.0000 0.63295  0.23291  0.87023  Biso   1.000  Zr
  Zr23     1.0000 0.86780  0.26969  0.63072  Biso   1.000  Zr
  Zr24     1.0000 0.86569  0.48224  0.87815  Biso   1.000  Zr
  O41      1.0000 0.53987  0.18304  0.69132  Biso   1.000  O
  O42      1.0000 0.54193  0.06391  0.93755  Biso   1.000  O
  O43      1.0000 0.96563  0.43736  0.70383  Biso   1.000  O
  O44      1.0000 0.94976  0.31107  0.93036  Biso   1.000  O
  O45      1.0000 0.77248  0.11572  0.74665  Biso   1.000  O
  O46      1.0000 0.76885  0.12899  0.99623  Biso   1.000  O
  O47      1.0000 0.72018  0.38170  0.00097  Biso   1.000  O
  O48      1.0000 0.72940  0.36911  0.74855  Biso   1.000  O
  Zr25     1.0000 0.63121  0.51974  0.12715  Biso   1.000  Zr
  Zr26     1.0000 0.63836  0.73898  0.37458  Biso   1.000  Zr
  Zr27     1.0000 0.86657  0.76681  0.12331  Biso   1.000  Zr
  Zr28     1.0000 0.87803  0.00303  0.36175  Biso   1.000  Zr
  O49      1.0000 0.53756  0.68522  0.19704  Biso   1.000  O
  O50      1.0000 0.53544  0.56935  0.44540  Biso   1.000  O
  O51      1.0000 0.96633  0.94362  0.18176  Biso   1.000  O
  O52      1.0000 0.96651  0.82356  0.43565  Biso   1.000  O
  O53      1.0000 0.77160  0.61735  0.24821  Biso   1.000  O
  O54      1.0000 0.77087  0.63466  0.49583  Biso   1.000  O
  O55      1.0000 0.73544  0.88866  0.49316  Biso   1.000  O
  O56      1.0000 0.73422  0.86680  0.24372  Biso   1.000  O
  Zr29     1.0000 0.63706  0.51691  0.62374  Biso   1.000  Zr
  Zr30     1.0000 0.63853  0.73302  0.87260  Biso   1.000  Zr
  Zr31     1.0000 0.86936  0.76878  0.61738  Biso   1.000  Zr
  Zr32     1.0000 0.87023  0.98179  0.87049  Biso   1.000  Zr
  O57      1.0000 0.53520  0.68147  0.69651  Biso   1.000  O
  O58      1.0000 0.53382  0.56916  0.94831  Biso   1.000  O
  O59      1.0000 0.96882  0.92796  0.69564  Biso   1.000  O
  O60      1.0000 0.96845  0.81375  0.94498  Biso   1.000  O
  O61      1.0000 0.77108  0.61720  0.74696  Biso   1.000  O
  O62      1.0000 0.76906  0.63256  0.99963  Biso   1.000  O
  O63      1.0000 0.73523  0.88055  0.99470  Biso   1.000  O
  O64      1.0000 0.73481  0.86593  0.74447  Biso   1.000  O
  Cd1      1.0000 0.09028  0.25430  0.12705  Biso   1.000  Cd
