data_image0
_cell_length_a       10.0143
_cell_length_b       10.4011
_cell_length_c       5.02553
_cell_angle_alpha    90.2488
_cell_angle_beta     90.3276
_cell_angle_gamma    90.0174

_symmetry_space_group_name_H-M    "P 1"
_symmetry_int_tables_number       1

loop_
  _symmetry_equiv_pos_as_xyz
  'x, y, z'

loop_
  _atom_site_label
  _atom_site_occupancy
  _atom_site_fract_x
  _atom_site_fract_y
  _atom_site_fract_z
  _atom_site_thermal_displace_type
  _atom_site_B_iso_or_equiv
  _atom_site_type_symbol
  Ce1      1.0000 0.12557  0.01000  0.24087  Biso   1.000  Ce
  Hf1      1.0000 0.13508  0.23717  0.74598  Biso   1.000  Hf
  Hf2      1.0000 0.36583  0.26578  0.25060  Biso   1.000  Hf
  Hf3      1.0000 0.36602  0.48266  0.75107  Biso   1.000  Hf
  O1       1.0000 0.03404  0.19306  0.38419  Biso   1.000  O
  O2       1.0000 0.03238  0.07203  0.85133  Biso   1.000  O
  O3       1.0000 0.46485  0.43274  0.39113  Biso   1.000  O
  O4       1.0000 0.46478  0.31589  0.88823  Biso   1.000  O
  O5       1.0000 0.27666  0.12338  0.50217  Biso   1.000  O
  O6       1.0000 0.27255  0.13430  0.99035  Biso   1.000  O
  O7       1.0000 0.23028  0.38343  0.99769  Biso   1.000  O
  O8       1.0000 0.22932  0.36901  0.49513  Biso   1.000  O
  Hf4      1.0000 0.13317  0.51655  0.25114  Biso   1.000  Hf
  Hf5      1.0000 0.13505  0.73214  0.75329  Biso   1.000  Hf
  Hf6      1.0000 0.36930  0.76368  0.24908  Biso   1.000  Hf
  Hf7      1.0000 0.36969  0.98369  0.74502  Biso   1.000  Hf
  O9       1.0000 0.03554  0.68528  0.39405  Biso   1.000  O
  O10      1.0000 0.03466  0.56861  0.89196  Biso   1.000  O
  O11      1.0000 0.46432  0.93446  0.38483  Biso   1.000  O
  O12      1.0000 0.46931  0.81677  0.89218  Biso   1.000  O
  O13      1.0000 0.26993  0.61474  0.49852  Biso   1.000  O
  O14      1.0000 0.27049  0.63090  0.99928  Biso   1.000  O
  O15      1.0000 0.23949  0.87661  0.98764  Biso   1.000  O
  O16      1.0000 0.23805  0.85955  0.50362  Biso   1.000  O
  Hf8      1.0000 0.63349  0.01670  0.25249  Biso   1.000  Hf
  Hf9      1.0000 0.63346  0.23398  0.75020  Biso   1.000  Hf
  Hf10     1.0000 0.86392  0.26956  0.25035  Biso   1.000  Hf
  Hf11     1.0000 0.86647  0.48338  0.75274  Biso   1.000  Hf
  O17      1.0000 0.53721  0.18437  0.38588  Biso   1.000  O
  O18      1.0000 0.53878  0.06550  0.88619  Biso   1.000  O
  O19      1.0000 0.96276  0.43740  0.39064  Biso   1.000  O
  O20      1.0000 0.96476  0.31925  0.89183  Biso   1.000  O
  O21      1.0000 0.76950  0.11777  0.50097  Biso   1.000  O
  O22      1.0000 0.77011  0.13301  0.00172  Biso   1.000  O
  O23      1.0000 0.72920  0.38299  0.99820  Biso   1.000  O
  O24      1.0000 0.72929  0.36794  0.49985  Biso   1.000  O
  Hf12     1.0000 0.63282  0.51491  0.25218  Biso   1.000  Hf
  Hf13     1.0000 0.63348  0.73161  0.75483  Biso   1.000  Hf
  Hf14     1.0000 0.86254  0.76335  0.25718  Biso   1.000  Hf
  Hf15     1.0000 0.85909  0.98257  0.75695  Biso   1.000  Hf
  O25      1.0000 0.53638  0.68171  0.39261  Biso   1.000  O
  O26      1.0000 0.53469  0.56561  0.89333  Biso   1.000  O
  O27      1.0000 0.95044  0.92914  0.40753  Biso   1.000  O
  O28      1.0000 0.97216  0.82371  0.91400  Biso   1.000  O
  O29      1.0000 0.76977  0.61660  0.50001  Biso   1.000  O
  O30      1.0000 0.77037  0.63132  0.99902  Biso   1.000  O
  O31      1.0000 0.73025  0.87990  0.00727  Biso   1.000  O
  O32      1.0000 0.72399  0.86634  0.50624  Biso   1.000  O
