data_image0
_cell_length_a       9.92599
_cell_length_b       10.3379
_cell_length_c       5.00137
_cell_angle_alpha    90.2487
_cell_angle_beta     88.873
_cell_angle_gamma    89.8926

_symmetry_space_group_name_H-M    "P 1"
_symmetry_int_tables_number       1

loop_
  _symmetry_equiv_pos_as_xyz
  'x, y, z'

loop_
  _atom_site_label
  _atom_site_occupancy
  _atom_site_fract_x
  _atom_site_fract_y
  _atom_site_fract_z
  _atom_site_thermal_displace_type
  _atom_site_B_iso_or_equiv
  _atom_site_type_symbol
  Cu1      1.0000 0.11654  0.02545  0.20354  Biso   1.000  Cu
  Hf1      1.0000 0.13912  0.23222  0.75052  Biso   1.000  Hf
  Hf2      1.0000 0.36646  0.26622  0.26146  Biso   1.000  Hf
  Hf3      1.0000 0.36642  0.48476  0.75620  Biso   1.000  Hf
  O1       1.0000 0.04184  0.17387  0.37191  Biso   1.000  O
  O2       1.0000 0.03798  0.06480  0.84387  Biso   1.000  O
  O3       1.0000 0.46360  0.43414  0.39269  Biso   1.000  O
  O4       1.0000 0.46186  0.31462  0.88848  Biso   1.000  O
  O5       1.0000 0.29117  0.13315  0.53644  Biso   1.000  O
  O6       1.0000 0.25631  0.12537  0.03296  Biso   1.000  O
  O7       1.0000 0.23016  0.38032  0.00217  Biso   1.000  O
  O8       1.0000 0.22639  0.37126  0.50095  Biso   1.000  O
  Hf4      1.0000 0.13566  0.51651  0.25512  Biso   1.000  Hf
  Hf5      1.0000 0.13406  0.73357  0.75979  Biso   1.000  Hf
  Hf6      1.0000 0.36384  0.76916  0.26746  Biso   1.000  Hf
  Hf7      1.0000 0.35809  0.98360  0.76535  Biso   1.000  Hf
  O9       1.0000 0.03626  0.68398  0.39190  Biso   1.000  O
  O10      1.0000 0.03453  0.56377  0.89500  Biso   1.000  O
  O11      1.0000 0.46791  0.93396  0.40473  Biso   1.000  O
  O12      1.0000 0.46161  0.81814  0.90475  Biso   1.000  O
  O13      1.0000 0.26957  0.61534  0.50484  Biso   1.000  O
  O14      1.0000 0.27068  0.63435  0.00624  Biso   1.000  O
  O15      1.0000 0.21698  0.88639  0.03590  Biso   1.000  O
  O16      1.0000 0.23975  0.86125  0.53685  Biso   1.000  O
  Hf8      1.0000 0.63200  0.01602  0.24540  Biso   1.000  Hf
  Hf9      1.0000 0.63290  0.23248  0.74924  Biso   1.000  Hf
  Hf10     1.0000 0.86459  0.26438  0.24354  Biso   1.000  Hf
  Hf11     1.0000 0.86610  0.48276  0.74917  Biso   1.000  Hf
  O17      1.0000 0.54270  0.18822  0.38010  Biso   1.000  O
  O18      1.0000 0.53251  0.06748  0.89300  Biso   1.000  O
  O19      1.0000 0.96611  0.42675  0.38705  Biso   1.000  O
  O20      1.0000 0.96344  0.31401  0.88078  Biso   1.000  O
  O21      1.0000 0.77093  0.11694  0.48915  Biso   1.000  O
  O22      1.0000 0.77248  0.13092  0.98783  Biso   1.000  O
  O23      1.0000 0.72953  0.38088  0.00044  Biso   1.000  O
  O24      1.0000 0.72967  0.36791  0.49897  Biso   1.000  O
  Hf12     1.0000 0.63441  0.51742  0.25500  Biso   1.000  Hf
  Hf13     1.0000 0.63274  0.73526  0.75191  Biso   1.000  Hf
  Hf14     1.0000 0.87097  0.76571  0.23775  Biso   1.000  Hf
  Hf15     1.0000 0.86580  0.98431  0.73629  Biso   1.000  Hf
  O25      1.0000 0.53505  0.68441  0.39766  Biso   1.000  O
  O26      1.0000 0.53685  0.56615  0.89248  Biso   1.000  O
  O27      1.0000 0.97074  0.93901  0.35623  Biso   1.000  O
  O28      1.0000 0.95948  0.81510  0.87002  Biso   1.000  O
  O29      1.0000 0.77164  0.61654  0.49678  Biso   1.000  O
  O30      1.0000 0.76929  0.63292  0.99719  Biso   1.000  O
  O31      1.0000 0.72758  0.88264  0.98877  Biso   1.000  O
  O32      1.0000 0.73702  0.86661  0.48767  Biso   1.000  O
