data_image0
_cell_length_a       10.0563
_cell_length_b       10.1857
_cell_length_c       5.03033
_cell_angle_alpha    89.4651
_cell_angle_beta     88.8104
_cell_angle_gamma    90.5628

_symmetry_space_group_name_H-M    "P 1"
_symmetry_int_tables_number       1

loop_
  _symmetry_equiv_pos_as_xyz
  'x, y, z'

loop_
  _atom_site_label
  _atom_site_occupancy
  _atom_site_fract_x
  _atom_site_fract_y
  _atom_site_fract_z
  _atom_site_thermal_displace_type
  _atom_site_B_iso_or_equiv
  _atom_site_type_symbol
  Cu1      1.0000 0.12084  0.96938  0.26269  Biso   1.000  Cu
  Zr1      1.0000 0.12473  0.50420  0.25042  Biso   1.000  Zr
  Zr2      1.0000 0.62409  0.00140  0.25984  Biso   1.000  Zr
  Zr3      1.0000 0.62361  0.49593  0.25036  Biso   1.000  Zr
  Zr4      1.0000 0.12113  0.25518  0.75118  Biso   1.000  Zr
  Zr5      1.0000 0.13016  0.75291  0.74517  Biso   1.000  Zr
  Zr6      1.0000 0.62256  0.24727  0.75388  Biso   1.000  Zr
  Zr7      1.0000 0.62713  0.75038  0.74971  Biso   1.000  Zr
  Zr8      1.0000 0.36750  0.24467  0.27195  Biso   1.000  Zr
  Zr9      1.0000 0.38358  0.75114  0.25235  Biso   1.000  Zr
  Zr10     1.0000 0.87726  0.25095  0.24129  Biso   1.000  Zr
  Zr11     1.0000 0.87217  0.75103  0.23805  Biso   1.000  Zr
  Zr12     1.0000 0.36906  0.00169  0.77974  Biso   1.000  Zr
  Zr13     1.0000 0.37740  0.49534  0.75346  Biso   1.000  Zr
  Zr14     1.0000 0.87813  0.00626  0.73776  Biso   1.000  Zr
  Zr15     1.0000 0.87234  0.50017  0.74640  Biso   1.000  Zr
  O1       1.0000 0.97284  0.15883  0.93988  Biso   1.000  O
  O2       1.0000 0.99995  0.65205  0.99466  Biso   1.000  O
  O3       1.0000 0.48523  0.14382  0.00688  Biso   1.000  O
  O4       1.0000 0.49947  0.64156  0.99725  Biso   1.000  O
  O5       1.0000 0.01331  0.10437  0.45740  Biso   1.000  O
  O6       1.0000 0.99975  0.60907  0.49860  Biso   1.000  O
  O7       1.0000 0.50902  0.10323  0.51395  Biso   1.000  O
  O8       1.0000 0.50099  0.60429  0.49841  Biso   1.000  O
  O9       1.0000 0.99535  0.35628  0.49918  Biso   1.000  O
  O10      1.0000 0.00888  0.85907  0.47103  Biso   1.000  O
  O11      1.0000 0.49620  0.35299  0.50297  Biso   1.000  O
  O12      1.0000 0.49537  0.85406  0.51883  Biso   1.000  O
  O13      1.0000 0.00158  0.40293  0.99898  Biso   1.000  O
  O14      1.0000 0.01258  0.90733  0.97749  Biso   1.000  O
  O15      1.0000 0.50165  0.39250  0.99966  Biso   1.000  O
  O16      1.0000 0.50962  0.89257  0.01264  Biso   1.000  O
  O17      1.0000 0.27362  0.15727  0.58904  Biso   1.000  O
  O18      1.0000 0.24964  0.65006  0.48619  Biso   1.000  O
  O19      1.0000 0.75761  0.14576  0.50010  Biso   1.000  O
  O20      1.0000 0.75137  0.64439  0.49879  Biso   1.000  O
  O21      1.0000 0.23126  0.08671  0.07392  Biso   1.000  O
  O22      1.0000 0.24670  0.60025  0.98386  Biso   1.000  O
  O23      1.0000 0.73679  0.10323  0.98980  Biso   1.000  O
  O24      1.0000 0.74942  0.60595  0.00152  Biso   1.000  O
  O25      1.0000 0.24982  0.34702  0.00992  Biso   1.000  O
  O26      1.0000 0.26407  0.84491  0.98337  Biso   1.000  O
  O27      1.0000 0.74999  0.35483  0.00053  Biso   1.000  O
  O28      1.0000 0.76285  0.85424  0.97192  Biso   1.000  O
  O29      1.0000 0.24533  0.40019  0.50302  Biso   1.000  O
  O30      1.0000 0.24998  0.90640  0.49650  Biso   1.000  O
  O31      1.0000 0.74548  0.39500  0.50394  Biso   1.000  O
  O32      1.0000 0.75312  0.89347  0.48044  Biso   1.000  O
