data_image0
_cell_length_a       10.0988
_cell_length_b       10.4747
_cell_length_c       5.04051
_cell_angle_alpha    90.3317
_cell_angle_beta     90.3514
_cell_angle_gamma    94.0782

_symmetry_space_group_name_H-M    "P 1"
_symmetry_int_tables_number       1

loop_
  _symmetry_equiv_pos_as_xyz
  'x, y, z'

loop_
  _atom_site_label
  _atom_site_occupancy
  _atom_site_fract_x
  _atom_site_fract_y
  _atom_site_fract_z
  _atom_site_thermal_displace_type
  _atom_site_B_iso_or_equiv
  _atom_site_type_symbol
  Hf1      1.0000 0.11348  0.96522  0.28263  Biso   1.000  Hf
  Hf2      1.0000 0.14118  0.27730  0.80204  Biso   1.000  Hf
  Hf3      1.0000 0.36496  0.23848  0.28339  Biso   1.000  Hf
  Hf4      1.0000 0.34633  0.01991  0.78005  Biso   1.000  Hf
  O1       1.0000 0.97188  0.18052  0.96723  Biso   1.000  O
  O2       1.0000 0.96227  0.07394  0.46283  Biso   1.000  O
  O3       1.0000 0.02649  0.32495  0.46465  Biso   1.000  O
  O4       1.0000 0.03997  0.42923  0.95762  Biso   1.000  O
  O5       1.0000 0.22012  0.14022  0.53236  Biso   1.000  O
  O6       1.0000 0.21955  0.11195  0.03952  Biso   1.000  O
  O7       1.0000 0.29755  0.37826  0.02125  Biso   1.000  O
  O8       1.0000 0.28123  0.38741  0.53541  Biso   1.000  O
  Hf5      1.0000 0.15681  0.47657  0.27839  Biso   1.000  Hf
  Hf6      1.0000 0.13894  0.72676  0.70698  Biso   1.000  Hf
  Hf7      1.0000 0.36442  0.76689  0.20675  Biso   1.000  Hf
  Hf8      1.0000 0.38973  0.52154  0.78104  Biso   1.000  Hf
  O9       1.0000 0.98657  0.67666  0.96455  Biso   1.000  O
  O10      1.0000 0.03391  0.57036  0.51567  Biso   1.000  O
  O11      1.0000 0.01082  0.81619  0.46901  Biso   1.000  O
  O12      1.0000 0.96801  0.92275  0.01027  Biso   1.000  O
  O13      1.0000 0.28147  0.63577  0.49104  Biso   1.000  O
  O14      1.0000 0.24503  0.61431  0.99731  Biso   1.000  O
  O15      1.0000 0.22165  0.86006  0.99554  Biso   1.000  O
  O16      1.0000 0.25995  0.88224  0.50505  Biso   1.000  O
  Hf9      1.0000 0.61216  0.98741  0.28764  Biso   1.000  Hf
  Hf10     1.0000 0.62691  0.27022  0.78231  Biso   1.000  Hf
  Hf11     1.0000 0.85530  0.23775  0.29058  Biso   1.000  Hf
  Hf12     1.0000 0.84681  0.01948  0.78309  Biso   1.000  Hf
  O17      1.0000 0.46274  0.18101  0.94139  Biso   1.000  O
  O18      1.0000 0.46033  0.07849  0.45939  Biso   1.000  O
  O19      1.0000 0.53643  0.32671  0.43559  Biso   1.000  O
  O20      1.0000 0.54638  0.43101  0.94139  Biso   1.000  O
  O21      1.0000 0.72139  0.13724  0.53801  Biso   1.000  O
  O22      1.0000 0.72100  0.11615  0.03433  Biso   1.000  O
  O23      1.0000 0.77732  0.36482  0.02653  Biso   1.000  O
  O24      1.0000 0.77673  0.38909  0.52861  Biso   1.000  O
  Hf13     1.0000 0.65418  0.48587  0.27593  Biso   1.000  Hf
  Hf14     1.0000 0.63977  0.73468  0.70121  Biso   1.000  Hf
  Hf15     1.0000 0.86009  0.76717  0.20183  Biso   1.000  Hf
  Hf16     1.0000 0.88812  0.51642  0.78342  Biso   1.000  Hf
  O25      1.0000 0.48971  0.68129  0.96135  Biso   1.000  O
  O26      1.0000 0.53213  0.57962  0.50309  Biso   1.000  O
  O27      1.0000 0.51548  0.82738  0.46395  Biso   1.000  O
  O28      1.0000 0.46713  0.92978  0.01516  Biso   1.000  O
  O29      1.0000 0.78096  0.63852  0.49125  Biso   1.000  O
  O30      1.0000 0.74471  0.61535  0.99366  Biso   1.000  O
  O31      1.0000 0.71931  0.86571  0.99382  Biso   1.000  O
  O32      1.0000 0.75774  0.88979  0.49823  Biso   1.000  O
  Fe1      1.0000 0.09760  0.19107  0.26241  Biso   1.000  Fe
