data_image0
_cell_length_a       10.1547
_cell_length_b       10.4026
_cell_length_c       5.14513
_cell_angle_alpha    89.9906
_cell_angle_beta     89.9881
_cell_angle_gamma    90.5797

_symmetry_space_group_name_H-M    "P 1"
_symmetry_int_tables_number       1

loop_
  _symmetry_equiv_pos_as_xyz
  'x, y, z'

loop_
  _atom_site_label
  _atom_site_occupancy
  _atom_site_fract_x
  _atom_site_fract_y
  _atom_site_fract_z
  _atom_site_thermal_displace_type
  _atom_site_B_iso_or_equiv
  _atom_site_type_symbol
  Zr1      1.0000 0.15561  0.97404  0.28415  Biso   1.000  Zr
  Zr2      1.0000 0.12525  0.24998  0.58757  Biso   1.000  Zr
  Zr3      1.0000 0.38562  0.23003  0.22108  Biso   1.000  Zr
  Zr4      1.0000 0.40293  0.99715  0.75015  Biso   1.000  Zr
  O1       1.0000 0.99228  0.19078  0.88641  Biso   1.000  O
  O2       1.0000 0.00355  0.10090  0.42862  Biso   1.000  O
  O3       1.0000 0.97722  0.38074  0.52548  Biso   1.000  O
  O4       1.0000 0.96116  0.43504  0.04353  Biso   1.000  O
  O5       1.0000 0.27327  0.11924  0.52541  Biso   1.000  O
  O6       1.0000 0.28933  0.06501  0.04344  Biso   1.000  O
  O7       1.0000 0.25824  0.30924  0.88629  Biso   1.000  O
  O8       1.0000 0.24695  0.39909  0.42841  Biso   1.000  O
  Zr5      1.0000 0.09491  0.52596  0.28410  Biso   1.000  Zr
  Zr6      1.0000 0.12533  0.74999  0.78842  Biso   1.000  Zr
  Zr7      1.0000 0.38731  0.74503  0.31404  Biso   1.000  Zr
  Zr8      1.0000 0.35092  0.48686  0.73693  Biso   1.000  Zr
  O9       1.0000 0.00226  0.68113  0.07796  Biso   1.000  O
  O10      1.0000 0.98611  0.62096  0.56886  Biso   1.000  O
  O11      1.0000 0.01120  0.85794  0.50596  Biso   1.000  O
  O12      1.0000 0.03304  0.93079  0.97170  Biso   1.000  O
  O13      1.0000 0.23938  0.64206  0.50572  Biso   1.000  O
  O14      1.0000 0.21750  0.56922  0.97149  Biso   1.000  O
  O15      1.0000 0.24840  0.81893  0.07778  Biso   1.000  O
  O16      1.0000 0.26450  0.87902  0.56871  Biso   1.000  O
  Zr9      1.0000 0.65222  0.00503  0.24249  Biso   1.000  Zr
  Zr10     1.0000 0.62515  0.25009  0.70970  Biso   1.000  Zr
  Zr11     1.0000 0.86484  0.26997  0.22131  Biso   1.000  Zr
  Zr12     1.0000 0.89957  0.01316  0.73737  Biso   1.000  Zr
  O17      1.0000 0.52262  0.14196  0.97923  Biso   1.000  O
  O18      1.0000 0.51498  0.09918  0.47795  Biso   1.000  O
  O19      1.0000 0.49076  0.34393  0.49349  Biso   1.000  O
  O20      1.0000 0.47693  0.39338  0.00454  Biso   1.000  O
  O21      1.0000 0.75971  0.15610  0.49408  Biso   1.000  O
  O22      1.0000 0.77371  0.10657  0.00530  Biso   1.000  O
  O23      1.0000 0.72792  0.35800  0.97917  Biso   1.000  O
  O24      1.0000 0.73548  0.40089  0.47782  Biso   1.000  O
  Zr13     1.0000 0.59828  0.49494  0.24198  Biso   1.000  Zr
  Zr14     1.0000 0.62540  0.75009  0.82138  Biso   1.000  Zr
  Zr15     1.0000 0.86337  0.75504  0.31424  Biso   1.000  Zr
  Zr16     1.0000 0.84757  0.50279  0.75006  Biso   1.000  Zr
  O25      1.0000 0.48735  0.64343  0.02383  Biso   1.000  O
  O26      1.0000 0.48707  0.59167  0.51474  Biso   1.000  O
  O27      1.0000 0.51215  0.84683  0.54935  Biso   1.000  O
  O28      1.0000 0.51220  0.89266  0.04358  Biso   1.000  O
  O29      1.0000 0.73847  0.65320  0.54939  Biso   1.000  O
  O30      1.0000 0.73841  0.60739  0.04351  Biso   1.000  O
  O31      1.0000 0.76329  0.85663  0.02419  Biso   1.000  O
  O32      1.0000 0.76345  0.90830  0.51525  Biso   1.000  O
  Ga1      1.0000 0.12524  0.25002  0.10316  Biso   1.000  Ga
