data_image0
_cell_length_a       9.94494
_cell_length_b       5.20273
_cell_length_c       9.96617
_cell_angle_alpha    91.7813
_cell_angle_beta     89.4553
_cell_angle_gamma    90.0527

_symmetry_space_group_name_H-M    "P 1"
_symmetry_int_tables_number       1

loop_
  _symmetry_equiv_pos_as_xyz
  'x, y, z'

loop_
  _atom_site_label
  _atom_site_occupancy
  _atom_site_fract_x
  _atom_site_fract_y
  _atom_site_fract_z
  _atom_site_thermal_displace_type
  _atom_site_B_iso_or_equiv
  _atom_site_type_symbol
  Ge1      1.0000 0.11621  0.05746  0.11129  Biso   1.000  Ge
  Hf1      1.0000 0.13637  0.43996  0.37260  Biso   1.000  Hf
  Hf2      1.0000 0.38593  0.53259  0.11098  Biso   1.000  Hf
  Hf3      1.0000 0.36343  0.94298  0.37214  Biso   1.000  Hf
  O1       1.0000 0.03731  0.36823  0.18528  Biso   1.000  O
  O2       1.0000 0.02999  0.13513  0.45909  Biso   1.000  O
  O3       1.0000 0.46937  0.87567  0.18944  Biso   1.000  O
  O4       1.0000 0.47447  0.64326  0.45954  Biso   1.000  O
  O5       1.0000 0.22622  0.11778  0.25506  Biso   1.000  O
  O6       1.0000 0.27500  0.25707  0.49925  Biso   1.000  O
  O7       1.0000 0.22634  0.75638  0.50455  Biso   1.000  O
  O8       1.0000 0.27426  0.62498  0.26776  Biso   1.000  O
  Hf4      1.0000 0.13640  0.03745  0.62951  Biso   1.000  Hf
  Hf5      1.0000 0.13200  0.48495  0.88286  Biso   1.000  Hf
  Hf6      1.0000 0.36429  0.54099  0.62931  Biso   1.000  Hf
  Hf7      1.0000 0.35886  0.98767  0.88355  Biso   1.000  Hf
  O9       1.0000 0.03438  0.37118  0.70366  Biso   1.000  O
  O10      1.0000 0.03289  0.13554  0.94786  Biso   1.000  O
  O11      1.0000 0.45947  0.88187  0.69984  Biso   1.000  O
  O12      1.0000 0.46114  0.65679  0.93227  Biso   1.000  O
  O13      1.0000 0.26987  0.24983  0.75598  Biso   1.000  O
  O14      1.0000 0.25900  0.28095  0.01013  Biso   1.000  O
  O15      1.0000 0.22131  0.79478  0.01836  Biso   1.000  O
  O16      1.0000 0.22637  0.74731  0.75952  Biso   1.000  O
  Hf8      1.0000 0.63817  0.04287  0.12687  Biso   1.000  Hf
  Hf9      1.0000 0.63773  0.46969  0.37887  Biso   1.000  Hf
  Hf10     1.0000 0.86918  0.53923  0.12132  Biso   1.000  Hf
  Hf11     1.0000 0.87073  0.96925  0.37368  Biso   1.000  Hf
  O17      1.0000 0.53849  0.37341  0.20233  Biso   1.000  O
  O18      1.0000 0.53666  0.13209  0.43772  Biso   1.000  O
  O19      1.0000 0.97843  0.87314  0.18819  Biso   1.000  O
  O20      1.0000 0.96612  0.62789  0.43637  Biso   1.000  O
  O21      1.0000 0.77705  0.23834  0.24765  Biso   1.000  O
  O22      1.0000 0.76865  0.26618  0.49779  Biso   1.000  O
  O23      1.0000 0.73727  0.76978  0.49648  Biso   1.000  O
  O24      1.0000 0.73494  0.73895  0.24611  Biso   1.000  O
  Hf12     1.0000 0.62641  0.02917  0.61739  Biso   1.000  Hf
  Hf13     1.0000 0.63531  0.47273  0.86879  Biso   1.000  Hf
  Hf14     1.0000 0.87198  0.53059  0.61950  Biso   1.000  Hf
  Hf15     1.0000 0.86216  0.97244  0.86954  Biso   1.000  Hf
  O25      1.0000 0.53370  0.37096  0.69287  Biso   1.000  O
  O26      1.0000 0.52393  0.16919  0.95715  Biso   1.000  O
  O27      1.0000 0.96607  0.86828  0.69314  Biso   1.000  O
  O28      1.0000 0.95755  0.63948  0.93998  Biso   1.000  O
  O29      1.0000 0.76505  0.22878  0.74550  Biso   1.000  O
  O30      1.0000 0.76760  0.27404  0.99612  Biso   1.000  O
  O31      1.0000 0.72511  0.77546  0.99430  Biso   1.000  O
  O32      1.0000 0.73057  0.73040  0.74329  Biso   1.000  O
