data_image0
_cell_length_a       5.10145
_cell_length_b       10.3079
_cell_length_c       10.1182
_cell_angle_alpha    89.9993
_cell_angle_beta     95.4417
_cell_angle_gamma    89.9993

_symmetry_space_group_name_H-M    "P 1"
_symmetry_int_tables_number       1

loop_
  _symmetry_equiv_pos_as_xyz
  'x, y, z'

loop_
  _atom_site_label
  _atom_site_occupancy
  _atom_site_fract_x
  _atom_site_fract_y
  _atom_site_fract_z
  _atom_site_thermal_displace_type
  _atom_site_B_iso_or_equiv
  _atom_site_type_symbol
  Hf1      1.0000 0.24980  0.98399  0.12503  Biso   1.000  Hf
  Hf2      1.0000 0.17904  0.25058  0.37476  Biso   1.000  Hf
  Hf3      1.0000 0.74983  0.20648  0.12503  Biso   1.000  Hf
  Hf4      1.0000 0.71160  0.01084  0.38957  Biso   1.000  Hf
  O1       1.0000 0.03499  0.13745  0.99281  Biso   1.000  O
  O2       1.0000 0.98106  0.08245  0.25970  Biso   1.000  O
  O3       1.0000 0.82331  0.33433  0.28213  Biso   1.000  O
  O4       1.0000 0.14715  0.42397  0.99060  Biso   1.000  O
  O5       1.0000 0.46463  0.13745  0.25723  Biso   1.000  O
  O6       1.0000 0.51856  0.08246  0.99036  Biso   1.000  O
  O7       1.0000 0.67630  0.33434  0.96793  Biso   1.000  O
  O8       1.0000 0.35246  0.42397  0.25945  Biso   1.000  O
  Hf5      1.0000 0.24977  0.00138  0.62503  Biso   1.000  Hf
  Hf6      1.0000 0.32057  0.25060  0.87532  Biso   1.000  Hf
  Hf7      1.0000 0.74981  0.25897  0.62505  Biso   1.000  Hf
  Hf8      1.0000 0.78797  0.01084  0.86049  Biso   1.000  Hf
  O9       1.0000 0.95938  0.14618  0.50258  Biso   1.000  O
  O10      1.0000 0.04414  0.10623  0.74812  Biso   1.000  O
  O11      1.0000 0.02011  0.35355  0.75429  Biso   1.000  O
  O12      1.0000 0.98156  0.39466  0.50527  Biso   1.000  O
  O13      1.0000 0.54014  0.14618  0.74747  Biso   1.000  O
  O14      1.0000 0.45534  0.10621  0.50191  Biso   1.000  O
  O15      1.0000 0.47950  0.35353  0.49578  Biso   1.000  O
  O16      1.0000 0.51805  0.39467  0.74480  Biso   1.000  O
  Hf9      1.0000 0.24980  0.56994  0.12502  Biso   1.000  Hf
  Hf10     1.0000 0.21974  0.74051  0.39449  Biso   1.000  Hf
  Hf11     1.0000 0.74980  0.76127  0.12502  Biso   1.000  Hf
  Hf12     1.0000 0.70446  0.49655  0.37158  Biso   1.000  Hf
  O17      1.0000 0.00492  0.66295  0.98541  Biso   1.000  O
  O18      1.0000 0.95529  0.60236  0.24621  Biso   1.000  O
  O19      1.0000 0.09081  0.83439  0.23236  Biso   1.000  O
  O20      1.0000 0.91449  0.90526  0.01542  Biso   1.000  O
  O21      1.0000 0.49468  0.66294  0.26463  Biso   1.000  O
  O22      1.0000 0.54429  0.60237  0.00382  Biso   1.000  O
  O23      1.0000 0.40880  0.83441  0.01768  Biso   1.000  O
  O24      1.0000 0.58510  0.90526  0.23463  Biso   1.000  O
  Hf13     1.0000 0.24981  0.49127  0.62502  Biso   1.000  Hf
  Hf14     1.0000 0.27990  0.74051  0.85556  Biso   1.000  Hf
  Hf15     1.0000 0.74983  0.74389  0.62502  Biso   1.000  Hf
  Hf16     1.0000 0.79517  0.49655  0.87846  Biso   1.000  Hf
  O25      1.0000 0.95664  0.64138  0.49607  Biso   1.000  O
  O26      1.0000 0.03349  0.60212  0.74430  Biso   1.000  O
  O27      1.0000 0.99582  0.85610  0.75266  Biso   1.000  O
  O28      1.0000 0.00398  0.89055  0.49555  Biso   1.000  O
  O29      1.0000 0.54300  0.64138  0.75398  Biso   1.000  O
  O30      1.0000 0.46614  0.60212  0.50574  Biso   1.000  O
  O31      1.0000 0.50380  0.85609  0.49739  Biso   1.000  O
  O32      1.0000 0.49562  0.89055  0.75449  Biso   1.000  O
  Ge1      1.0000 0.24984  0.29024  0.12505  Biso   1.000  Ge
