data_image0
_cell_length_a       10.136
_cell_length_b       10.0065
_cell_length_c       4.99895
_cell_angle_alpha    90.0009
_cell_angle_beta     90.0016
_cell_angle_gamma    90.0037

_symmetry_space_group_name_H-M    "P 1"
_symmetry_int_tables_number       1

loop_
  _symmetry_equiv_pos_as_xyz
  'x, y, z'

loop_
  _atom_site_label
  _atom_site_occupancy
  _atom_site_fract_x
  _atom_site_fract_y
  _atom_site_fract_z
  _atom_site_thermal_displace_type
  _atom_site_B_iso_or_equiv
  _atom_site_type_symbol
  Ge1      1.0000 0.12503  0.00006  0.24889  Biso   1.000  Ge
  Hf1      1.0000 0.12504  0.24904  0.74889  Biso   1.000  Hf
  Hf2      1.0000 0.37424  0.24875  0.25905  Biso   1.000  Hf
  Hf3      1.0000 0.37740  0.00005  0.74887  Biso   1.000  Hf
  O1       1.0000 0.97200  0.14756  0.94216  Biso   1.000  O
  O2       1.0000 0.02755  0.10615  0.45526  Biso   1.000  O
  O3       1.0000 0.98159  0.35730  0.51437  Biso   1.000  O
  O4       1.0000 0.01728  0.38803  0.00308  Biso   1.000  O
  O5       1.0000 0.27807  0.14757  0.55564  Biso   1.000  O
  O6       1.0000 0.22253  0.10616  0.04253  Biso   1.000  O
  O7       1.0000 0.26848  0.35730  0.98342  Biso   1.000  O
  O8       1.0000 0.23279  0.38804  0.49470  Biso   1.000  O
  Hf4      1.0000 0.12505  0.50006  0.24888  Biso   1.000  Hf
  Hf5      1.0000 0.12503  0.75108  0.74886  Biso   1.000  Hf
  Hf6      1.0000 0.37425  0.75136  0.23869  Biso   1.000  Hf
  Hf7      1.0000 0.37352  0.50006  0.74886  Biso   1.000  Hf
  O9       1.0000 0.98159  0.64281  0.98337  Biso   1.000  O
  O10      1.0000 0.01727  0.61208  0.49464  Biso   1.000  O
  O11      1.0000 0.97200  0.85255  0.55559  Biso   1.000  O
  O12      1.0000 0.02756  0.89395  0.04250  Biso   1.000  O
  O13      1.0000 0.26848  0.64281  0.51431  Biso   1.000  O
  O14      1.0000 0.23279  0.61207  0.00302  Biso   1.000  O
  O15      1.0000 0.27807  0.85255  0.94214  Biso   1.000  O
  O16      1.0000 0.22253  0.89396  0.45525  Biso   1.000  O
  Hf8      1.0000 0.62505  0.00007  0.24890  Biso   1.000  Hf
  Hf9      1.0000 0.62503  0.25265  0.74889  Biso   1.000  Hf
  Hf10     1.0000 0.87582  0.24876  0.23869  Biso   1.000  Hf
  Hf11     1.0000 0.87268  0.00005  0.74885  Biso   1.000  Hf
  O17      1.0000 0.47635  0.12993  0.99753  Biso   1.000  O
  O18      1.0000 0.52276  0.12061  0.49952  Biso   1.000  O
  O19      1.0000 0.48178  0.36994  0.50586  Biso   1.000  O
  O20      1.0000 0.51778  0.38009  0.00097  Biso   1.000  O
  O21      1.0000 0.77373  0.12992  0.50022  Biso   1.000  O
  O22      1.0000 0.72731  0.12062  0.99822  Biso   1.000  O
  O23      1.0000 0.76829  0.36994  0.99186  Biso   1.000  O
  O24      1.0000 0.73229  0.38007  0.49673  Biso   1.000  O
  Hf12     1.0000 0.62503  0.50007  0.24891  Biso   1.000  Hf
  Hf13     1.0000 0.62504  0.74748  0.74891  Biso   1.000  Hf
  Hf14     1.0000 0.87581  0.75134  0.25903  Biso   1.000  Hf
  Hf15     1.0000 0.87656  0.50005  0.74886  Biso   1.000  Hf
  O25      1.0000 0.48178  0.63018  0.99191  Biso   1.000  O
  O26      1.0000 0.51778  0.62003  0.49680  Biso   1.000  O
  O27      1.0000 0.47635  0.87019  0.50023  Biso   1.000  O
  O28      1.0000 0.52276  0.87952  0.99823  Biso   1.000  O
  O29      1.0000 0.76829  0.63018  0.50591  Biso   1.000  O
  O30      1.0000 0.73229  0.62005  0.00104  Biso   1.000  O
  O31      1.0000 0.77373  0.87020  0.99752  Biso   1.000  O
  O32      1.0000 0.72731  0.87950  0.49952  Biso   1.000  O
