data_image0
_cell_length_a       4.96859
_cell_length_b       10.3859
_cell_length_c       10.0552
_cell_angle_alpha    90.0852
_cell_angle_beta     88.7806
_cell_angle_gamma    89.8816

_symmetry_space_group_name_H-M    "P 1"
_symmetry_int_tables_number       1

loop_
  _symmetry_equiv_pos_as_xyz
  'x, y, z'

loop_
  _atom_site_label
  _atom_site_occupancy
  _atom_site_fract_x
  _atom_site_fract_y
  _atom_site_fract_z
  _atom_site_thermal_displace_type
  _atom_site_B_iso_or_equiv
  _atom_site_type_symbol
  Hg1      1.0000 0.24561  0.02198  0.11057  Biso   1.000  Hg
  Hf1      1.0000 0.28003  0.22909  0.38139  Biso   1.000  Hf
  Hf2      1.0000 0.72106  0.26802  0.13066  Biso   1.000  Hf
  Hf3      1.0000 0.73456  0.48314  0.37769  Biso   1.000  Hf
  O1       1.0000 0.09222  0.18815  0.18795  Biso   1.000  O
  O2       1.0000 0.07895  0.06410  0.44417  Biso   1.000  O
  O3       1.0000 0.92769  0.42916  0.19469  Biso   1.000  O
  O4       1.0000 0.92813  0.31590  0.44017  Biso   1.000  O
  O5       1.0000 0.58023  0.13171  0.26294  Biso   1.000  O
  O6       1.0000 0.54241  0.12963  0.50718  Biso   1.000  O
  O7       1.0000 0.46131  0.38140  0.50184  Biso   1.000  O
  O8       1.0000 0.45045  0.37139  0.25310  Biso   1.000  O
  Hf4      1.0000 0.26221  0.01889  0.63386  Biso   1.000  Hf
  Hf5      1.0000 0.26229  0.23685  0.86949  Biso   1.000  Hf
  Hf6      1.0000 0.73496  0.26808  0.62401  Biso   1.000  Hf
  Hf7      1.0000 0.72745  0.48301  0.87647  Biso   1.000  Hf
  O9       1.0000 0.09190  0.19732  0.67722  Biso   1.000  O
  O10      1.0000 0.07766  0.06398  0.88923  Biso   1.000  O
  O11      1.0000 0.92509  0.43630  0.69612  Biso   1.000  O
  O12      1.0000 0.91568  0.31081  0.94248  Biso   1.000  O
  O13      1.0000 0.55295  0.12323  0.75196  Biso   1.000  O
  O14      1.0000 0.53267  0.12701  0.00317  Biso   1.000  O
  O15      1.0000 0.45413  0.37969  0.00234  Biso   1.000  O
  O16      1.0000 0.45702  0.37160  0.75048  Biso   1.000  O
  Hf8      1.0000 0.27006  0.51580  0.12988  Biso   1.000  Hf
  Hf9      1.0000 0.27370  0.73532  0.37874  Biso   1.000  Hf
  Hf10     1.0000 0.73613  0.76088  0.12761  Biso   1.000  Hf
  Hf11     1.0000 0.73169  0.98513  0.38129  Biso   1.000  Hf
  O17      1.0000 0.07866  0.68473  0.19737  Biso   1.000  O
  O18      1.0000 0.07372  0.56499  0.44632  Biso   1.000  O
  O19      1.0000 0.92679  0.93512  0.19259  Biso   1.000  O
  O20      1.0000 0.93031  0.81469  0.44649  Biso   1.000  O
  O21      1.0000 0.54596  0.61284  0.24958  Biso   1.000  O
  O22      1.0000 0.54047  0.63208  0.50063  Biso   1.000  O
  O23      1.0000 0.45284  0.88284  0.50703  Biso   1.000  O
  O24      1.0000 0.50277  0.85767  0.26198  Biso   1.000  O
  Hf12     1.0000 0.26669  0.51769  0.62668  Biso   1.000  Hf
  Hf13     1.0000 0.25932  0.73033  0.87834  Biso   1.000  Hf
  Hf14     1.0000 0.72855  0.76588  0.62517  Biso   1.000  Hf
  Hf15     1.0000 0.72470  0.98099  0.87036  Biso   1.000  Hf
  O25      1.0000 0.06746  0.68463  0.69832  Biso   1.000  O
  O26      1.0000 0.06471  0.56390  0.94909  Biso   1.000  O
  O27      1.0000 0.90975  0.93469  0.68400  Biso   1.000  O
  O28      1.0000 0.91460  0.81631  0.94303  Biso   1.000  O
  O29      1.0000 0.53521  0.61770  0.75178  Biso   1.000  O
  O30      1.0000 0.53574  0.63132  0.00075  Biso   1.000  O
  O31      1.0000 0.44491  0.87742  0.00898  Biso   1.000  O
  O32      1.0000 0.45125  0.86766  0.75556  Biso   1.000  O
