data_image0
_cell_length_a       10.4866
_cell_length_b       5.44235
_cell_length_c       10.4866
_cell_angle_alpha    102.779
_cell_angle_beta     81.6742
_cell_angle_gamma    102.78

_symmetry_space_group_name_H-M    "P 1"
_symmetry_int_tables_number       1

loop_
  _symmetry_equiv_pos_as_xyz
  'x, y, z'

loop_
  _atom_site_label
  _atom_site_occupancy
  _atom_site_fract_x
  _atom_site_fract_y
  _atom_site_fract_z
  _atom_site_thermal_displace_type
  _atom_site_B_iso_or_equiv
  _atom_site_type_symbol
  Zr1      1.0000 0.16630  0.94539  0.16627  Biso   1.000  Zr
  Zr2      1.0000 0.11283  0.51618  0.36534  Biso   1.000  Zr
  Zr3      1.0000 0.36537  0.51618  0.11279  Biso   1.000  Zr
  Zr4      1.0000 0.40590  0.98100  0.40587  Biso   1.000  Zr
  O1       1.0000 0.90271  0.43082  0.90267  Biso   1.000  O
  O2       1.0000 0.01897  0.15474  0.26361  Biso   1.000  O
  O3       1.0000 0.00821  0.67340  0.25767  Biso   1.000  O
  O4       1.0000 0.02913  0.79208  0.02911  Biso   1.000  O
  O5       1.0000 0.25631  0.32144  0.25628  Biso   1.000  O
  O6       1.0000 0.26363  0.15474  0.01894  Biso   1.000  O
  O7       1.0000 0.25770  0.67340  0.00817  Biso   1.000  O
  O8       1.0000 0.26821  0.79523  0.26818  Biso   1.000  O
  Zr5      1.0000 0.15127  0.98564  0.65428  Biso   1.000  Zr
  Zr6      1.0000 0.09741  0.55360  0.85130  Biso   1.000  Zr
  Zr7      1.0000 0.35453  0.52052  0.61058  Biso   1.000  Zr
  Zr8      1.0000 0.40220  0.96751  0.90348  Biso   1.000  Zr
  O9       1.0000 0.99804  0.32851  0.50204  Biso   1.000  O
  O10      1.0000 0.01110  0.19362  0.73447  Biso   1.000  O
  O11      1.0000 0.99554  0.72886  0.74570  Biso   1.000  O
  O12      1.0000 0.00970  0.81119  0.50718  Biso   1.000  O
  O13      1.0000 0.24577  0.34139  0.75256  Biso   1.000  O
  O14      1.0000 0.26114  0.16913  0.50787  Biso   1.000  O
  O15      1.0000 0.25085  0.68842  0.50770  Biso   1.000  O
  O16      1.0000 0.25360  0.82234  0.76418  Biso   1.000  O
  Zr9      1.0000 0.65431  0.98564  0.15123  Biso   1.000  Zr
  Zr10     1.0000 0.61061  0.52053  0.35450  Biso   1.000  Zr
  Zr11     1.0000 0.85132  0.55360  0.09737  Biso   1.000  Zr
  Zr12     1.0000 0.90351  0.96750  0.40217  Biso   1.000  Zr
  O17      1.0000 0.50207  0.32851  0.99801  Biso   1.000  O
  O18      1.0000 0.50791  0.16913  0.26111  Biso   1.000  O
  O19      1.0000 0.50773  0.68842  0.25081  Biso   1.000  O
  O20      1.0000 0.50721  0.81119  0.00966  Biso   1.000  O
  O21      1.0000 0.75259  0.34139  0.24573  Biso   1.000  O
  O22      1.0000 0.73451  0.19360  0.01106  Biso   1.000  O
  O23      1.0000 0.74572  0.72884  0.99551  Biso   1.000  O
  O24      1.0000 0.76422  0.82234  0.25357  Biso   1.000  O
  Zr13     1.0000 0.64125  0.98573  0.64122  Biso   1.000  Zr
  Zr14     1.0000 0.60143  0.52662  0.85722  Biso   1.000  Zr
  Zr15     1.0000 0.85726  0.52662  0.60140  Biso   1.000  Zr
  Zr16     1.0000 0.86630  0.04619  0.86625  Biso   1.000  Zr
  O25      1.0000 0.50314  0.33625  0.50311  Biso   1.000  O
  O26      1.0000 0.50165  0.16629  0.75914  Biso   1.000  O
  O27      1.0000 0.49365  0.68542  0.75265  Biso   1.000  O
  O28      1.0000 0.50664  0.81092  0.50660  Biso   1.000  O
  O29      1.0000 0.74053  0.33635  0.74050  Biso   1.000  O
  O30      1.0000 0.75918  0.16629  0.50162  Biso   1.000  O
  O31      1.0000 0.75268  0.68541  0.49362  Biso   1.000  O
  O32      1.0000 0.74236  0.81349  0.74233  Biso   1.000  O
  Hg1      1.0000 0.04857  0.24943  0.04855  Biso   1.000  Hg
