data_image0
_cell_length_a       10.101
_cell_length_b       5.09471
_cell_length_c       10.101
_cell_angle_alpha    89.9974
_cell_angle_beta     89.9949
_cell_angle_gamma    89.9964

_symmetry_space_group_name_H-M    "P 1"
_symmetry_int_tables_number       1

loop_
  _symmetry_equiv_pos_as_xyz
  'x, y, z'

loop_
  _atom_site_label
  _atom_site_occupancy
  _atom_site_fract_x
  _atom_site_fract_y
  _atom_site_fract_z
  _atom_site_thermal_displace_type
  _atom_site_B_iso_or_equiv
  _atom_site_type_symbol
  In1      1.0000 0.12497  0.00073  0.12498  Biso   1.000  In
  Zr1      1.0000 0.12507  0.00076  0.62508  Biso   1.000  Zr
  Zr2      1.0000 0.62508  0.00076  0.12507  Biso   1.000  Zr
  Zr3      1.0000 0.62508  0.00077  0.62508  Biso   1.000  Zr
  Zr4      1.0000 0.12502  0.50087  0.37705  Biso   1.000  Zr
  Zr5      1.0000 0.12501  0.50067  0.87318  Biso   1.000  Zr
  Zr6      1.0000 0.62509  0.50080  0.37554  Biso   1.000  Zr
  Zr7      1.0000 0.62508  0.50076  0.87458  Biso   1.000  Zr
  Zr8      1.0000 0.37704  0.50087  0.12503  Biso   1.000  Zr
  Zr9      1.0000 0.37553  0.50080  0.62510  Biso   1.000  Zr
  Zr10     1.0000 0.87318  0.50068  0.12502  Biso   1.000  Zr
  Zr11     1.0000 0.87457  0.50077  0.62509  Biso   1.000  Zr
  Zr12     1.0000 0.37562  0.00142  0.37562  Biso   1.000  Zr
  Zr13     1.0000 0.37556  0.00026  0.87454  Biso   1.000  Zr
  Zr14     1.0000 0.87454  0.00027  0.37556  Biso   1.000  Zr
  Zr15     1.0000 0.87459  0.00113  0.87459  Biso   1.000  Zr
  O1       1.0000 0.99363  0.29974  0.99363  Biso   1.000  O
  O2       1.0000 0.99827  0.29287  0.49955  Biso   1.000  O
  O3       1.0000 0.49955  0.29287  0.99828  Biso   1.000  O
  O4       1.0000 0.49875  0.29289  0.49876  Biso   1.000  O
  O5       1.0000 0.99939  0.21195  0.25086  Biso   1.000  O
  O6       1.0000 0.00086  0.20809  0.74839  Biso   1.000  O
  O7       1.0000 0.50181  0.20814  0.24925  Biso   1.000  O
  O8       1.0000 0.50119  0.20907  0.74893  Biso   1.000  O
  O9       1.0000 0.99357  0.70135  0.25653  Biso   1.000  O
  O10      1.0000 0.99829  0.70866  0.75060  Biso   1.000  O
  O11      1.0000 0.49952  0.70872  0.25188  Biso   1.000  O
  O12      1.0000 0.49877  0.70872  0.75138  Biso   1.000  O
  O13      1.0000 0.99930  0.78921  0.99930  Biso   1.000  O
  O14      1.0000 0.00089  0.79347  0.50175  Biso   1.000  O
  O15      1.0000 0.50175  0.79347  0.00090  Biso   1.000  O
  O16      1.0000 0.50121  0.79255  0.50122  Biso   1.000  O
  O17      1.0000 0.25662  0.30063  0.25663  Biso   1.000  O
  O18      1.0000 0.25185  0.29282  0.75065  Biso   1.000  O
  O19      1.0000 0.75065  0.29283  0.25185  Biso   1.000  O
  O20      1.0000 0.75136  0.29277  0.75136  Biso   1.000  O
  O21      1.0000 0.25086  0.21193  0.99939  Biso   1.000  O
  O22      1.0000 0.24925  0.20814  0.50182  Biso   1.000  O
  O23      1.0000 0.74839  0.20810  0.00086  Biso   1.000  O
  O24      1.0000 0.74892  0.20908  0.50119  Biso   1.000  O
  O25      1.0000 0.25653  0.70134  0.99356  Biso   1.000  O
  O26      1.0000 0.25187  0.70872  0.49952  Biso   1.000  O
  O27      1.0000 0.75059  0.70866  0.99830  Biso   1.000  O
  O28      1.0000 0.75138  0.70871  0.49877  Biso   1.000  O
  O29      1.0000 0.25080  0.79001  0.25080  Biso   1.000  O
  O30      1.0000 0.24927  0.79343  0.74836  Biso   1.000  O
  O31      1.0000 0.74835  0.79342  0.24927  Biso   1.000  O
  O32      1.0000 0.74894  0.79246  0.74894  Biso   1.000  O
