data_image0
_cell_length_a       10.0225
_cell_length_b       5.23238
_cell_length_c       10.0873
_cell_angle_alpha    91.6
_cell_angle_beta     89.3182
_cell_angle_gamma    90.076

_symmetry_space_group_name_H-M    "P 1"
_symmetry_int_tables_number       1

loop_
  _symmetry_equiv_pos_as_xyz
  'x, y, z'

loop_
  _atom_site_label
  _atom_site_occupancy
  _atom_site_fract_x
  _atom_site_fract_y
  _atom_site_fract_z
  _atom_site_thermal_displace_type
  _atom_site_B_iso_or_equiv
  _atom_site_type_symbol
  Ir1      1.0000 0.11803  0.07480  0.10403  Biso   1.000  Ir
  Zr1      1.0000 0.13576  0.03734  0.63142  Biso   1.000  Zr
  Zr2      1.0000 0.63828  0.04231  0.12655  Biso   1.000  Zr
  Zr3      1.0000 0.62607  0.02663  0.61605  Biso   1.000  Zr
  Zr4      1.0000 0.13794  0.44459  0.37783  Biso   1.000  Zr
  Zr5      1.0000 0.13059  0.48709  0.87957  Biso   1.000  Zr
  Zr6      1.0000 0.63682  0.47133  0.37852  Biso   1.000  Zr
  Zr7      1.0000 0.63668  0.46908  0.86809  Biso   1.000  Zr
  Zr8      1.0000 0.38735  0.53589  0.11079  Biso   1.000  Zr
  Zr9      1.0000 0.36498  0.53760  0.63004  Biso   1.000  Zr
  Zr10     1.0000 0.86589  0.54062  0.12157  Biso   1.000  Zr
  Zr11     1.0000 0.87204  0.52809  0.61689  Biso   1.000  Zr
  Zr12     1.0000 0.36315  0.94380  0.37351  Biso   1.000  Zr
  Zr13     1.0000 0.36013  0.98362  0.88183  Biso   1.000  Zr
  Zr14     1.0000 0.87112  0.97265  0.37362  Biso   1.000  Zr
  Zr15     1.0000 0.86085  0.96761  0.86664  Biso   1.000  Zr
  O1       1.0000 0.03440  0.37727  0.19030  Biso   1.000  O
  O2       1.0000 0.03683  0.37756  0.69758  Biso   1.000  O
  O3       1.0000 0.53863  0.37348  0.20287  Biso   1.000  O
  O4       1.0000 0.53322  0.36791  0.69460  Biso   1.000  O
  O5       1.0000 0.02830  0.13793  0.46040  Biso   1.000  O
  O6       1.0000 0.03609  0.12701  0.92510  Biso   1.000  O
  O7       1.0000 0.53499  0.13467  0.43944  Biso   1.000  O
  O8       1.0000 0.52203  0.17073  0.95908  Biso   1.000  O
  O9       1.0000 0.46920  0.87710  0.19037  Biso   1.000  O
  O10      1.0000 0.46114  0.87905  0.70090  Biso   1.000  O
  O11      1.0000 0.97467  0.87714  0.18602  Biso   1.000  O
  O12      1.0000 0.96438  0.86668  0.68945  Biso   1.000  O
  O13      1.0000 0.47531  0.64450  0.46122  Biso   1.000  O
  O14      1.0000 0.46370  0.65617  0.93253  Biso   1.000  O
  O15      1.0000 0.96600  0.63098  0.43470  Biso   1.000  O
  O16      1.0000 0.95686  0.63479  0.94015  Biso   1.000  O
  O17      1.0000 0.22252  0.11569  0.26511  Biso   1.000  O
  O18      1.0000 0.27035  0.24897  0.75713  Biso   1.000  O
  O19      1.0000 0.77560  0.23949  0.24680  Biso   1.000  O
  O20      1.0000 0.76466  0.22563  0.74355  Biso   1.000  O
  O21      1.0000 0.27428  0.25726  0.50276  Biso   1.000  O
  O22      1.0000 0.25819  0.27852  0.01142  Biso   1.000  O
  O23      1.0000 0.76671  0.26775  0.49621  Biso   1.000  O
  O24      1.0000 0.76879  0.26932  0.99488  Biso   1.000  O
  O25      1.0000 0.22711  0.75738  0.50519  Biso   1.000  O
  O26      1.0000 0.22602  0.78450  0.01286  Biso   1.000  O
  O27      1.0000 0.73770  0.77078  0.49521  Biso   1.000  O
  O28      1.0000 0.72448  0.77175  0.99413  Biso   1.000  O
  O29      1.0000 0.27507  0.62213  0.26761  Biso   1.000  O
  O30      1.0000 0.22776  0.74567  0.75678  Biso   1.000  O
  O31      1.0000 0.73406  0.74134  0.24597  Biso   1.000  O
  O32      1.0000 0.73101  0.72627  0.74195  Biso   1.000  O
