data_image0
_cell_length_a       10.1671
_cell_length_b       10.3055
_cell_length_c       10.1419
_cell_angle_alpha    90.1703
_cell_angle_beta     87.9568
_cell_angle_gamma    90.4194

_symmetry_space_group_name_H-M    "P 1"
_symmetry_int_tables_number       1

loop_
  _symmetry_equiv_pos_as_xyz
  'x, y, z'

loop_
  _atom_site_label
  _atom_site_occupancy
  _atom_site_fract_x
  _atom_site_fract_y
  _atom_site_fract_z
  _atom_site_thermal_displace_type
  _atom_site_B_iso_or_equiv
  _atom_site_type_symbol
  Zr1      1.0000 0.12662  0.98817  0.12576  Biso   1.000  Zr
  Zr2      1.0000 0.13085  0.23874  0.39134  Biso   1.000  Zr
  Zr3      1.0000 0.40310  0.23310  0.12702  Biso   1.000  Zr
  Zr4      1.0000 0.38384  0.00733  0.38036  Biso   1.000  Zr
  O1       1.0000 0.04223  0.15886  0.03370  Biso   1.000  O
  O2       1.0000 0.04377  0.08201  0.28802  Biso   1.000  O
  O3       1.0000 0.99911  0.33973  0.26189  Biso   1.000  O
  O4       1.0000 0.97929  0.40911  0.99466  Biso   1.000  O
  O5       1.0000 0.30814  0.17181  0.30217  Biso   1.000  O
  O6       1.0000 0.29665  0.06943  0.04439  Biso   1.000  O
  O7       1.0000 0.28319  0.31152  0.97481  Biso   1.000  O
  O8       1.0000 0.24565  0.42604  0.23774  Biso   1.000  O
  Zr5      1.0000 0.12031  0.99952  0.63688  Biso   1.000  Zr
  Zr6      1.0000 0.11711  0.26183  0.86361  Biso   1.000  Zr
  Zr7      1.0000 0.37088  0.24617  0.62808  Biso   1.000  Zr
  Zr8      1.0000 0.37307  0.99312  0.87606  Biso   1.000  Zr
  O9       1.0000 0.00181  0.14130  0.52416  Biso   1.000  O
  O10      1.0000 0.00575  0.10482  0.77526  Biso   1.000  O
  O11      1.0000 0.99104  0.35805  0.74682  Biso   1.000  O
  O12      1.0000 0.00605  0.39014  0.50201  Biso   1.000  O
  O13      1.0000 0.25444  0.14441  0.76915  Biso   1.000  O
  O14      1.0000 0.25243  0.10277  0.52225  Biso   1.000  O
  O15      1.0000 0.25716  0.35677  0.50329  Biso   1.000  O
  O16      1.0000 0.24200  0.39953  0.74667  Biso   1.000  O
  Zr9      1.0000 0.10304  0.53453  0.11909  Biso   1.000  Zr
  Zr10     1.0000 0.13317  0.76310  0.38230  Biso   1.000  Zr
  Zr11     1.0000 0.37746  0.75856  0.13238  Biso   1.000  Zr
  Zr12     1.0000 0.37938  0.48656  0.37666  Biso   1.000  Zr
  O17      1.0000 0.97975  0.65683  0.99075  Biso   1.000  O
  O18      1.0000 0.95598  0.60396  0.23834  Biso   1.000  O
  O19      1.0000 0.00127  0.84938  0.25136  Biso   1.000  O
  O20      1.0000 0.99691  0.90358  0.00006  Biso   1.000  O
  O21      1.0000 0.21377  0.67323  0.21954  Biso   1.000  O
  O22      1.0000 0.21970  0.58310  0.96357  Biso   1.000  O
  O23      1.0000 0.24381  0.83695  0.00117  Biso   1.000  O
  O24      1.0000 0.25726  0.90696  0.25989  Biso   1.000  O
  Zr13     1.0000 0.12814  0.50462  0.61870  Biso   1.000  Zr
  Zr14     1.0000 0.12273  0.74757  0.86801  Biso   1.000  Zr
  Zr15     1.0000 0.37855  0.75018  0.62068  Biso   1.000  Zr
  Zr16     1.0000 0.37716  0.48911  0.87915  Biso   1.000  Zr
  O25      1.0000 0.99878  0.64180  0.49091  Biso   1.000  O
  O26      1.0000 0.99245  0.60510  0.74106  Biso   1.000  O
  O27      1.0000 0.99082  0.85274  0.74994  Biso   1.000  O
  O28      1.0000 0.00719  0.89412  0.50467  Biso   1.000  O
  O29      1.0000 0.23650  0.65335  0.72365  Biso   1.000  O
  O30      1.0000 0.24642  0.60684  0.47626  Biso   1.000  O
  O31      1.0000 0.25753  0.85857  0.50519  Biso   1.000  O
  O32      1.0000 0.24137  0.89755  0.75935  Biso   1.000  O
  Zr17     1.0000 0.62955  0.98845  0.11547  Biso   1.000  Zr
  Zr18     1.0000 0.63072  0.24898  0.37581  Biso   1.000  Zr
  Zr19     1.0000 0.86792  0.25982  0.11945  Biso   1.000  Zr
  Zr20     1.0000 0.88050  0.00289  0.37960  Biso   1.000  Zr
  O33      1.0000 0.53520  0.13556  0.00203  Biso   1.000  O
  O34      1.0000 0.53379  0.10297  0.25439  Biso   1.000  O
  O35      1.0000 0.50893  0.35545  0.25341  Biso   1.000  O
  O36      1.0000 0.50225  0.39348  0.00126  Biso   1.000  O
  O37      1.0000 0.78813  0.16108  0.27819  Biso   1.000  O
  O38      1.0000 0.78793  0.09240  0.02759  Biso   1.000  O
  O39      1.0000 0.74178  0.34699  0.99849  Biso   1.000  O
  O40      1.0000 0.75203  0.40608  0.24606  Biso   1.000  O
  Zr21     1.0000 0.62227  0.99909  0.62868  Biso   1.000  Zr
  Zr22     1.0000 0.61879  0.25912  0.86641  Biso   1.000  Zr
  Zr23     1.0000 0.86844  0.24969  0.62918  Biso   1.000  Zr
  Zr24     1.0000 0.86570  0.98777  0.87141  Biso   1.000  Zr
  O41      1.0000 0.50467  0.14554  0.50585  Biso   1.000  O
  O42      1.0000 0.50083  0.10462  0.75390  Biso   1.000  O
  O43      1.0000 0.49223  0.35422  0.75017  Biso   1.000  O
  O44      1.0000 0.50548  0.39273  0.49961  Biso   1.000  O
  O45      1.0000 0.75466  0.14333  0.76659  Biso   1.000  O
  O46      1.0000 0.75394  0.10230  0.51520  Biso   1.000  O
  O47      1.0000 0.75548  0.35293  0.50114  Biso   1.000  O
  O48      1.0000 0.74048  0.39713  0.74582  Biso   1.000  O
  Zr25     1.0000 0.61916  0.50281  0.12856  Biso   1.000  Zr
  Zr26     1.0000 0.62818  0.75638  0.37675  Biso   1.000  Zr
  Zr27     1.0000 0.87109  0.76082  0.13046  Biso   1.000  Zr
  Zr28     1.0000 0.88227  0.48616  0.38315  Biso   1.000  Zr
  O49      1.0000 0.47453  0.64275  0.99140  Biso   1.000  O
  O50      1.0000 0.47144  0.60416  0.24015  Biso   1.000  O
  O51      1.0000 0.50356  0.85820  0.25137  Biso   1.000  O
  O52      1.0000 0.50086  0.88739  0.99900  Biso   1.000  O
  O53      1.0000 0.71269  0.66497  0.21948  Biso   1.000  O
  O54      1.0000 0.72224  0.59452  0.97574  Biso   1.000  O
  O55      1.0000 0.74496  0.84646  0.99364  Biso   1.000  O
  O56      1.0000 0.75725  0.90676  0.24969  Biso   1.000  O
  Zr29     1.0000 0.62387  0.50434  0.61837  Biso   1.000  Zr
  Zr30     1.0000 0.61495  0.74122  0.87249  Biso   1.000  Zr
  Zr31     1.0000 0.87780  0.74853  0.61862  Biso   1.000  Zr
  Zr32     1.0000 0.86615  0.50302  0.86730  Biso   1.000  Zr
  O57      1.0000 0.49939  0.64289  0.49484  Biso   1.000  O
  O58      1.0000 0.49274  0.60134  0.74466  Biso   1.000  O
  O59      1.0000 0.49119  0.85175  0.75073  Biso   1.000  O
  O60      1.0000 0.50890  0.89528  0.50183  Biso   1.000  O
  O61      1.0000 0.74050  0.64758  0.73168  Biso   1.000  O
  O62      1.0000 0.74555  0.60279  0.48067  Biso   1.000  O
  O63      1.0000 0.75795  0.85211  0.49485  Biso   1.000  O
  O64      1.0000 0.74175  0.89320  0.74831  Biso   1.000  O
  Ir1      1.0000 0.15159  0.29579  0.12935  Biso   1.000  Ir
