data_image0
_cell_length_a       10.164
_cell_length_b       5.08544
_cell_length_c       10.1637
_cell_angle_alpha    90.0003
_cell_angle_beta     89.9979
_cell_angle_gamma    89.9982

_symmetry_space_group_name_H-M    "P 1"
_symmetry_int_tables_number       1

loop_
  _symmetry_equiv_pos_as_xyz
  'x, y, z'

loop_
  _atom_site_label
  _atom_site_occupancy
  _atom_site_fract_x
  _atom_site_fract_y
  _atom_site_fract_z
  _atom_site_thermal_displace_type
  _atom_site_B_iso_or_equiv
  _atom_site_type_symbol
  K1       1.0000 0.12566  0.00096  0.12572  Biso   1.000  K
  Zr1      1.0000 0.12566  0.00099  0.62571  Biso   1.000  Zr
  Zr2      1.0000 0.62566  0.00098  0.12571  Biso   1.000  Zr
  Zr3      1.0000 0.62566  0.00098  0.62572  Biso   1.000  Zr
  Zr4      1.0000 0.12566  0.50099  0.37865  Biso   1.000  Zr
  Zr5      1.0000 0.12565  0.50097  0.87279  Biso   1.000  Zr
  Zr6      1.0000 0.62566  0.50099  0.37568  Biso   1.000  Zr
  Zr7      1.0000 0.62566  0.50098  0.87576  Biso   1.000  Zr
  Zr8      1.0000 0.37859  0.50098  0.12573  Biso   1.000  Zr
  Zr9      1.0000 0.37563  0.50099  0.62572  Biso   1.000  Zr
  Zr10     1.0000 0.87272  0.50098  0.12572  Biso   1.000  Zr
  Zr11     1.0000 0.87569  0.50099  0.62572  Biso   1.000  Zr
  Zr12     1.0000 0.37736  0.00455  0.37740  Biso   1.000  Zr
  Zr13     1.0000 0.37735  0.99739  0.87403  Biso   1.000  Zr
  Zr14     1.0000 0.87396  0.99739  0.37740  Biso   1.000  Zr
  Zr15     1.0000 0.87397  0.00456  0.87403  Biso   1.000  Zr
  O1       1.0000 0.99194  0.29430  0.99200  Biso   1.000  O
  O2       1.0000 0.00562  0.28784  0.50962  Biso   1.000  O
  O3       1.0000 0.50955  0.28785  0.00567  Biso   1.000  O
  O4       1.0000 0.50400  0.29102  0.50404  Biso   1.000  O
  O5       1.0000 0.98570  0.24715  0.26569  Biso   1.000  O
  O6       1.0000 0.99807  0.21324  0.75157  Biso   1.000  O
  O7       1.0000 0.49981  0.21320  0.25330  Biso   1.000  O
  O8       1.0000 0.49941  0.21252  0.75195  Biso   1.000  O
  O9       1.0000 0.99193  0.70764  0.25943  Biso   1.000  O
  O10      1.0000 0.00562  0.71416  0.74183  Biso   1.000  O
  O11      1.0000 0.50954  0.71413  0.24578  Biso   1.000  O
  O12      1.0000 0.50399  0.71096  0.74740  Biso   1.000  O
  O13      1.0000 0.98569  0.75481  0.98576  Biso   1.000  O
  O14      1.0000 0.99807  0.78877  0.49986  Biso   1.000  O
  O15      1.0000 0.49980  0.78879  0.99814  Biso   1.000  O
  O16      1.0000 0.49941  0.78946  0.49950  Biso   1.000  O
  O17      1.0000 0.25938  0.29430  0.25943  Biso   1.000  O
  O18      1.0000 0.24571  0.28782  0.74183  Biso   1.000  O
  O19      1.0000 0.74178  0.28784  0.24578  Biso   1.000  O
  O20      1.0000 0.74733  0.29102  0.74740  Biso   1.000  O
  O21      1.0000 0.26562  0.24714  0.98575  Biso   1.000  O
  O22      1.0000 0.25327  0.21323  0.49986  Biso   1.000  O
  O23      1.0000 0.75151  0.21319  0.99814  Biso   1.000  O
  O24      1.0000 0.75192  0.21253  0.49949  Biso   1.000  O
  O25      1.0000 0.25938  0.70763  0.99200  Biso   1.000  O
  O26      1.0000 0.24571  0.71415  0.50961  Biso   1.000  O
  O27      1.0000 0.74177  0.71412  0.00566  Biso   1.000  O
  O28      1.0000 0.74733  0.71096  0.50404  Biso   1.000  O
  O29      1.0000 0.26562  0.75481  0.26569  Biso   1.000  O
  O30      1.0000 0.25326  0.78875  0.75157  Biso   1.000  O
  O31      1.0000 0.75150  0.78878  0.25330  Biso   1.000  O
  O32      1.0000 0.75191  0.78945  0.75195  Biso   1.000  O
