data_image0
_cell_length_a       5.04303
_cell_length_b       10.3832
_cell_length_c       10.0686
_cell_angle_alpha    91.4102
_cell_angle_beta     90.9845
_cell_angle_gamma    89.9776

_symmetry_space_group_name_H-M    "P 1"
_symmetry_int_tables_number       1

loop_
  _symmetry_equiv_pos_as_xyz
  'x, y, z'

loop_
  _atom_site_label
  _atom_site_occupancy
  _atom_site_fract_x
  _atom_site_fract_y
  _atom_site_fract_z
  _atom_site_thermal_displace_type
  _atom_site_B_iso_or_equiv
  _atom_site_type_symbol
  Hf1      1.0000 0.25000  0.99839  0.13445  Biso   1.000  Hf
  Hf2      1.0000 0.25934  0.22773  0.39930  Biso   1.000  Hf
  Hf3      1.0000 0.86641  0.26569  0.06629  Biso   1.000  Hf
  Hf4      1.0000 0.72205  0.47362  0.37439  Biso   1.000  Hf
  O1       1.0000 0.06448  0.17483  0.21073  Biso   1.000  O
  O2       1.0000 0.06887  0.05915  0.45082  Biso   1.000  O
  O3       1.0000 0.92222  0.42612  0.18304  Biso   1.000  O
  O4       1.0000 0.92056  0.31410  0.45056  Biso   1.000  O
  O5       1.0000 0.50057  0.10559  0.26257  Biso   1.000  O
  O6       1.0000 0.54836  0.12959  0.51190  Biso   1.000  O
  O7       1.0000 0.46283  0.37828  0.50837  Biso   1.000  O
  O8       1.0000 0.40941  0.37841  0.26890  Biso   1.000  O
  Hf5      1.0000 0.26557  0.01229  0.62971  Biso   1.000  Hf
  Hf6      1.0000 0.27773  0.24208  0.86540  Biso   1.000  Hf
  Hf7      1.0000 0.74021  0.27189  0.63880  Biso   1.000  Hf
  Hf8      1.0000 0.72532  0.49640  0.86358  Biso   1.000  Hf
  O9       1.0000 0.09301  0.18525  0.67870  Biso   1.000  O
  O10      1.0000 0.04764  0.08163  0.96025  Biso   1.000  O
  O11      1.0000 0.90463  0.45215  0.67480  Biso   1.000  O
  O12      1.0000 0.89092  0.30920  0.86570  Biso   1.000  O
  O13      1.0000 0.54094  0.11827  0.75705  Biso   1.000  O
  O14      1.0000 0.53818  0.13161  0.00644  Biso   1.000  O
  O15      1.0000 0.51709  0.38792  0.00397  Biso   1.000  O
  O16      1.0000 0.43670  0.38144  0.75015  Biso   1.000  O
  Hf9      1.0000 0.26675  0.51711  0.12389  Biso   1.000  Hf
  Hf10     1.0000 0.26048  0.72983  0.37689  Biso   1.000  Hf
  Hf11     1.0000 0.72671  0.76148  0.12971  Biso   1.000  Hf
  Hf12     1.0000 0.72229  0.98449  0.38221  Biso   1.000  Hf
  O17      1.0000 0.07104  0.68127  0.19349  Biso   1.000  O
  O18      1.0000 0.06685  0.56475  0.43711  Biso   1.000  O
  O19      1.0000 0.91642  0.92945  0.20413  Biso   1.000  O
  O20      1.0000 0.92730  0.81470  0.44993  Biso   1.000  O
  O21      1.0000 0.54856  0.61527  0.24757  Biso   1.000  O
  O22      1.0000 0.53426  0.63003  0.49747  Biso   1.000  O
  O23      1.0000 0.45909  0.88059  0.50186  Biso   1.000  O
  O24      1.0000 0.45390  0.85938  0.25211  Biso   1.000  O
  Hf13     1.0000 0.25801  0.51951  0.61889  Biso   1.000  Hf
  Hf14     1.0000 0.26054  0.73688  0.87524  Biso   1.000  Hf
  Hf15     1.0000 0.72881  0.76858  0.62580  Biso   1.000  Hf
  Hf16     1.0000 0.72376  0.98537  0.88396  Biso   1.000  Hf
  O25      1.0000 0.06418  0.68773  0.69697  Biso   1.000  O
  O26      1.0000 0.07280  0.56150  0.94083  Biso   1.000  O
  O27      1.0000 0.92983  0.93565  0.70573  Biso   1.000  O
  O28      1.0000 0.93430  0.82091  0.95512  Biso   1.000  O
  O29      1.0000 0.53019  0.62595  0.74563  Biso   1.000  O
  O30      1.0000 0.53174  0.63687  0.99606  Biso   1.000  O
  O31      1.0000 0.45844  0.88246  0.00285  Biso   1.000  O
  O32      1.0000 0.45976  0.86895  0.75390  Biso   1.000  O
  Mg1      1.0000 0.38820  0.25094  0.13707  Biso   1.000  Mg
