data_image0
_cell_length_a       10.0019
_cell_length_b       10.2064
_cell_length_c       10.0019
_cell_angle_alpha    89.9998
_cell_angle_beta     89.9995
_cell_angle_gamma    89.9997

_symmetry_space_group_name_H-M    "P 1"
_symmetry_int_tables_number       1

loop_
  _symmetry_equiv_pos_as_xyz
  'x, y, z'

loop_
  _atom_site_label
  _atom_site_occupancy
  _atom_site_fract_x
  _atom_site_fract_y
  _atom_site_fract_z
  _atom_site_thermal_displace_type
  _atom_site_B_iso_or_equiv
  _atom_site_type_symbol
  Mg1      1.0000 0.12488  0.00008  0.12476  Biso   1.000  Mg
  Hf1      1.0000 0.12488  0.00008  0.62476  Biso   1.000  Hf
  Hf2      1.0000 0.12488  0.50009  0.12476  Biso   1.000  Hf
  Hf3      1.0000 0.12488  0.50008  0.62476  Biso   1.000  Hf
  Hf4      1.0000 0.62488  0.00008  0.12476  Biso   1.000  Hf
  Hf5      1.0000 0.62488  0.00008  0.62476  Biso   1.000  Hf
  Hf6      1.0000 0.62488  0.50008  0.12476  Biso   1.000  Hf
  Hf7      1.0000 0.62488  0.50008  0.62476  Biso   1.000  Hf
  Hf8      1.0000 0.12503  0.25006  0.37189  Biso   1.000  Hf
  Hf9      1.0000 0.12472  0.25006  0.87763  Biso   1.000  Hf
  Hf10     1.0000 0.12472  0.75011  0.37189  Biso   1.000  Hf
  Hf11     1.0000 0.12503  0.75011  0.87763  Biso   1.000  Hf
  Hf12     1.0000 0.62533  0.24891  0.37445  Biso   1.000  Hf
  Hf13     1.0000 0.62442  0.24891  0.87507  Biso   1.000  Hf
  Hf14     1.0000 0.62442  0.75126  0.37445  Biso   1.000  Hf
  Hf15     1.0000 0.62533  0.75126  0.87507  Biso   1.000  Hf
  Hf16     1.0000 0.37200  0.25006  0.12491  Biso   1.000  Hf
  Hf17     1.0000 0.37456  0.24891  0.62521  Biso   1.000  Hf
  Hf18     1.0000 0.37200  0.75011  0.12460  Biso   1.000  Hf
  Hf19     1.0000 0.37457  0.75126  0.62430  Biso   1.000  Hf
  Hf20     1.0000 0.87775  0.25006  0.12461  Biso   1.000  Hf
  Hf21     1.0000 0.87519  0.24891  0.62430  Biso   1.000  Hf
  Hf22     1.0000 0.87775  0.75011  0.12491  Biso   1.000  Hf
  Hf23     1.0000 0.87519  0.75126  0.62521  Biso   1.000  Hf
  Hf24     1.0000 0.36908  0.99744  0.36896  Biso   1.000  Hf
  Hf25     1.0000 0.36908  0.00273  0.88056  Biso   1.000  Hf
  Hf26     1.0000 0.37522  0.49916  0.37510  Biso   1.000  Hf
  Hf27     1.0000 0.37522  0.50101  0.87441  Biso   1.000  Hf
  Hf28     1.0000 0.88068  0.00273  0.36896  Biso   1.000  Hf
  Hf29     1.0000 0.88067  0.99744  0.88056  Biso   1.000  Hf
  Hf30     1.0000 0.87453  0.50101  0.37510  Biso   1.000  Hf
  Hf31     1.0000 0.87453  0.49916  0.87442  Biso   1.000  Hf
  O1       1.0000 0.98975  0.14950  0.98963  Biso   1.000  O
  O2       1.0000 0.00222  0.14769  0.49815  Biso   1.000  O
  O3       1.0000 0.00021  0.64474  0.00009  Biso   1.000  O
  O4       1.0000 0.99955  0.64820  0.49984  Biso   1.000  O
  O5       1.0000 0.49827  0.14769  0.00211  Biso   1.000  O
  O6       1.0000 0.50406  0.14868  0.50394  Biso   1.000  O
  O7       1.0000 0.49996  0.64820  0.99943  Biso   1.000  O
  O8       1.0000 0.49955  0.64743  0.49943  Biso   1.000  O
  O9       1.0000 0.00302  0.10758  0.24662  Biso   1.000  O
  O10      1.0000 0.99644  0.10162  0.74567  Biso   1.000  O
  O11      1.0000 0.00022  0.60306  0.24941  Biso   1.000  O
  O12      1.0000 0.99983  0.60219  0.74997  Biso   1.000  O
  O13      1.0000 0.50396  0.10162  0.25319  Biso   1.000  O
  O14      1.0000 0.49753  0.10170  0.75210  Biso   1.000  O
  O15      1.0000 0.49966  0.60219  0.24981  Biso   1.000  O
  O16      1.0000 0.50011  0.60278  0.74953  Biso   1.000  O
  O17      1.0000 0.00021  0.35543  0.24943  Biso   1.000  O
  O18      1.0000 0.99955  0.35197  0.74968  Biso   1.000  O
  O19      1.0000 0.98975  0.85067  0.25988  Biso   1.000  O
  O20      1.0000 0.00223  0.85247  0.75136  Biso   1.000  O
  O21      1.0000 0.49996  0.35197  0.25008  Biso   1.000  O
  O22      1.0000 0.49955  0.35273  0.75008  Biso   1.000  O
  O23      1.0000 0.49828  0.85248  0.24741  Biso   1.000  O
  O24      1.0000 0.50406  0.85148  0.74557  Biso   1.000  O
  O25      1.0000 0.00022  0.39711  0.00011  Biso   1.000  O
  O26      1.0000 0.99983  0.39797  0.49954  Biso   1.000  O
  O27      1.0000 0.00301  0.89259  0.00289  Biso   1.000  O
  O28      1.0000 0.99644  0.89855  0.50384  Biso   1.000  O
  O29      1.0000 0.49966  0.39798  0.99971  Biso   1.000  O
  O30      1.0000 0.50010  0.39738  0.49998  Biso   1.000  O
  O31      1.0000 0.50396  0.89855  0.99632  Biso   1.000  O
  O32      1.0000 0.49754  0.89847  0.49741  Biso   1.000  O
  O33      1.0000 0.26001  0.14950  0.25989  Biso   1.000  O
  O34      1.0000 0.24753  0.14769  0.75136  Biso   1.000  O
  O35      1.0000 0.24955  0.64474  0.24943  Biso   1.000  O
  O36      1.0000 0.25021  0.64820  0.74968  Biso   1.000  O
  O37      1.0000 0.75148  0.14769  0.24741  Biso   1.000  O
  O38      1.0000 0.74569  0.14868  0.74557  Biso   1.000  O
  O39      1.0000 0.74980  0.64820  0.25009  Biso   1.000  O
  O40      1.0000 0.75021  0.64743  0.75009  Biso   1.000  O
  O41      1.0000 0.24674  0.10758  0.00290  Biso   1.000  O
  O42      1.0000 0.25331  0.10162  0.50384  Biso   1.000  O
  O43      1.0000 0.24953  0.60306  0.00011  Biso   1.000  O
  O44      1.0000 0.24993  0.60219  0.49955  Biso   1.000  O
  O45      1.0000 0.74579  0.10162  0.99632  Biso   1.000  O
  O46      1.0000 0.75222  0.10170  0.49741  Biso   1.000  O
  O47      1.0000 0.75009  0.60219  0.99971  Biso   1.000  O
  O48      1.0000 0.74965  0.60279  0.49999  Biso   1.000  O
  O49      1.0000 0.24955  0.35543  0.00009  Biso   1.000  O
  O50      1.0000 0.25021  0.35197  0.49984  Biso   1.000  O
  O51      1.0000 0.26000  0.85067  0.98963  Biso   1.000  O
  O52      1.0000 0.24753  0.85248  0.49816  Biso   1.000  O
  O53      1.0000 0.74980  0.35197  0.99943  Biso   1.000  O
  O54      1.0000 0.75021  0.35273  0.49943  Biso   1.000  O
  O55      1.0000 0.75148  0.85247  0.00211  Biso   1.000  O
  O56      1.0000 0.74569  0.85148  0.50394  Biso   1.000  O
  O57      1.0000 0.24953  0.39711  0.24941  Biso   1.000  O
  O58      1.0000 0.24992  0.39797  0.74997  Biso   1.000  O
  O59      1.0000 0.24674  0.89259  0.24662  Biso   1.000  O
  O60      1.0000 0.25331  0.89855  0.74568  Biso   1.000  O
  O61      1.0000 0.75009  0.39798  0.24981  Biso   1.000  O
  O62      1.0000 0.74965  0.39738  0.74954  Biso   1.000  O
  O63      1.0000 0.74580  0.89855  0.25319  Biso   1.000  O
  O64      1.0000 0.75222  0.89847  0.75210  Biso   1.000  O
