data_image0
_cell_length_a       5.03314
_cell_length_b       10.3425
_cell_length_c       10.1119
_cell_angle_alpha    90.1768
_cell_angle_beta     89.8247
_cell_angle_gamma    90.1725

_symmetry_space_group_name_H-M    "P 1"
_symmetry_int_tables_number       1

loop_
  _symmetry_equiv_pos_as_xyz
  'x, y, z'

loop_
  _atom_site_label
  _atom_site_occupancy
  _atom_site_fract_x
  _atom_site_fract_y
  _atom_site_fract_z
  _atom_site_thermal_displace_type
  _atom_site_B_iso_or_equiv
  _atom_site_type_symbol
  Mg1      1.0000 0.26344  0.01846  0.11450  Biso   1.000  Mg
  Zr1      1.0000 0.26669  0.01555  0.62450  Biso   1.000  Zr
  Zr2      1.0000 0.27092  0.51474  0.12533  Biso   1.000  Zr
  Zr3      1.0000 0.26919  0.51651  0.62554  Biso   1.000  Zr
  Zr4      1.0000 0.26869  0.23006  0.37263  Biso   1.000  Zr
  Zr5      1.0000 0.26815  0.23232  0.87520  Biso   1.000  Zr
  Zr6      1.0000 0.27276  0.73723  0.37497  Biso   1.000  Zr
  Zr7      1.0000 0.27278  0.73739  0.87802  Biso   1.000  Zr
  Zr8      1.0000 0.72268  0.26028  0.12526  Biso   1.000  Zr
  Zr9      1.0000 0.73085  0.26533  0.62361  Biso   1.000  Zr
  Zr10     1.0000 0.72987  0.76957  0.12491  Biso   1.000  Zr
  Zr11     1.0000 0.73450  0.76739  0.62553  Biso   1.000  Zr
  Zr12     1.0000 0.73116  0.48431  0.37552  Biso   1.000  Zr
  Zr13     1.0000 0.73075  0.48465  0.87515  Biso   1.000  Zr
  Zr14     1.0000 0.73010  0.98588  0.36734  Biso   1.000  Zr
  Zr15     1.0000 0.72264  0.98501  0.87788  Biso   1.000  Zr
  O1       1.0000 0.05402  0.18005  0.20038  Biso   1.000  O
  O2       1.0000 0.07084  0.18577  0.69259  Biso   1.000  O
  O3       1.0000 0.06493  0.68124  0.19756  Biso   1.000  O
  O4       1.0000 0.07023  0.68380  0.69624  Biso   1.000  O
  O5       1.0000 0.06361  0.06753  0.44900  Biso   1.000  O
  O6       1.0000 0.06228  0.06938  0.93740  Biso   1.000  O
  O7       1.0000 0.06763  0.56731  0.44681  Biso   1.000  O
  O8       1.0000 0.06823  0.56807  0.94668  Biso   1.000  O
  O9       1.0000 0.93395  0.43055  0.19660  Biso   1.000  O
  O10      1.0000 0.93082  0.43407  0.69559  Biso   1.000  O
  O11      1.0000 0.94967  0.92963  0.19799  Biso   1.000  O
  O12      1.0000 0.92987  0.93394  0.69626  Biso   1.000  O
  O13      1.0000 0.93207  0.31798  0.44549  Biso   1.000  O
  O14      1.0000 0.93322  0.31862  0.94627  Biso   1.000  O
  O15      1.0000 0.93751  0.81819  0.44874  Biso   1.000  O
  O16      1.0000 0.92902  0.81733  0.94329  Biso   1.000  O
  O17      1.0000 0.53642  0.11795  0.24774  Biso   1.000  O
  O18      1.0000 0.53890  0.11722  0.74616  Biso   1.000  O
  O19      1.0000 0.53806  0.61377  0.24772  Biso   1.000  O
  O20      1.0000 0.53977  0.61807  0.74892  Biso   1.000  O
  O21      1.0000 0.53695  0.13372  0.49731  Biso   1.000  O
  O22      1.0000 0.53967  0.13446  0.99450  Biso   1.000  O
  O23      1.0000 0.53911  0.63431  0.49824  Biso   1.000  O
  O24      1.0000 0.54020  0.63194  0.99876  Biso   1.000  O
  O25      1.0000 0.46121  0.38375  0.49774  Biso   1.000  O
  O26      1.0000 0.46033  0.38316  0.99778  Biso   1.000  O
  O27      1.0000 0.46579  0.88495  0.49878  Biso   1.000  O
  O28      1.0000 0.45874  0.88160  0.00050  Biso   1.000  O
  O29      1.0000 0.45857  0.36623  0.24753  Biso   1.000  O
  O30      1.0000 0.46174  0.36775  0.74785  Biso   1.000  O
  O31      1.0000 0.47862  0.85998  0.25322  Biso   1.000  O
  O32      1.0000 0.45889  0.86748  0.74793  Biso   1.000  O
