data_image0
_cell_length_a       10.1397
_cell_length_b       10.5925
_cell_length_c       5.10397
_cell_angle_alpha    89.8465
_cell_angle_beta     90.5459
_cell_angle_gamma    84.7021

_symmetry_space_group_name_H-M    "P 1"
_symmetry_int_tables_number       1

loop_
  _symmetry_equiv_pos_as_xyz
  'x, y, z'

loop_
  _atom_site_label
  _atom_site_occupancy
  _atom_site_fract_x
  _atom_site_fract_y
  _atom_site_fract_z
  _atom_site_thermal_displace_type
  _atom_site_B_iso_or_equiv
  _atom_site_type_symbol
  Zr1      1.0000 0.13964  0.03134  0.22572  Biso   1.000  Zr
  Zr2      1.0000 0.14727  0.27384  0.78312  Biso   1.000  Zr
  Zr3      1.0000 0.40564  0.22898  0.23068  Biso   1.000  Zr
  Zr4      1.0000 0.38977  0.98010  0.75785  Biso   1.000  Zr
  O1       1.0000 0.02604  0.20308  0.06193  Biso   1.000  O
  O2       1.0000 0.97136  0.06824  0.44969  Biso   1.000  O
  O3       1.0000 0.97297  0.31584  0.55344  Biso   1.000  O
  O4       1.0000 0.02689  0.44508  0.98376  Biso   1.000  O
  O5       1.0000 0.22110  0.19060  0.44338  Biso   1.000  O
  O6       1.0000 0.26620  0.12141  0.96281  Biso   1.000  O
  O7       1.0000 0.26197  0.37020  0.04417  Biso   1.000  O
  O8       1.0000 0.21010  0.43519  0.53973  Biso   1.000  O
  Zr5      1.0000 0.14456  0.56534  0.21808  Biso   1.000  Zr
  Zr6      1.0000 0.14388  0.79139  0.77150  Biso   1.000  Zr
  Zr7      1.0000 0.39772  0.73687  0.23300  Biso   1.000  Zr
  Zr8      1.0000 0.38195  0.48219  0.73692  Biso   1.000  Zr
  O9       1.0000 0.02324  0.70466  0.04038  Biso   1.000  O
  O10      1.0000 0.97527  0.57069  0.45490  Biso   1.000  O
  O11      1.0000 0.97676  0.81843  0.54071  Biso   1.000  O
  O12      1.0000 0.02924  0.94979  0.95028  Biso   1.000  O
  O13      1.0000 0.23212  0.69179  0.44742  Biso   1.000  O
  O14      1.0000 0.27057  0.63083  0.94864  Biso   1.000  O
  O15      1.0000 0.27051  0.87484  0.03880  Biso   1.000  O
  O16      1.0000 0.22347  0.93829  0.55207  Biso   1.000  O
  Zr9      1.0000 0.63560  0.00841  0.22065  Biso   1.000  Zr
  Zr10     1.0000 0.63628  0.24711  0.80561  Biso   1.000  Zr
  Zr11     1.0000 0.84276  0.22127  0.29379  Biso   1.000  Zr
  Zr12     1.0000 0.86672  0.97393  0.71352  Biso   1.000  Zr
  O17      1.0000 0.51101  0.11363  0.92425  Biso   1.000  O
  O18      1.0000 0.46406  0.05753  0.41978  Biso   1.000  O
  O19      1.0000 0.46591  0.31279  0.56627  Biso   1.000  O
  O20      1.0000 0.50665  0.38135  0.02291  Biso   1.000  O
  O21      1.0000 0.72784  0.11234  0.52992  Biso   1.000  O
  O22      1.0000 0.77925  0.09927  0.00545  Biso   1.000  O
  O23      1.0000 0.77221  0.35907  0.00629  Biso   1.000  O
  O24      1.0000 0.72707  0.37170  0.51653  Biso   1.000  O
  Zr13     1.0000 0.63951  0.49409  0.22154  Biso   1.000  Zr
  Zr14     1.0000 0.64162  0.74824  0.78178  Biso   1.000  Zr
  Zr15     1.0000 0.86207  0.72881  0.28772  Biso   1.000  Zr
  Zr16     1.0000 0.87094  0.47788  0.72524  Biso   1.000  Zr
  O25      1.0000 0.52023  0.62488  0.96851  Biso   1.000  O
  O26      1.0000 0.47094  0.56038  0.43292  Biso   1.000  O
  O27      1.0000 0.47447  0.81027  0.56202  Biso   1.000  O
  O28      1.0000 0.51920  0.87079  0.03438  Biso   1.000  O
  O29      1.0000 0.72724  0.61962  0.50302  Biso   1.000  O
  O30      1.0000 0.77003  0.60377  0.00652  Biso   1.000  O
  O31      1.0000 0.76979  0.85330  0.99466  Biso   1.000  O
  O32      1.0000 0.72742  0.86822  0.49355  Biso   1.000  O
  Mg1      1.0000 0.10182  0.32781  0.28177  Biso   1.000  Mg
