data_image0
_cell_length_a       9.98206
_cell_length_b       10.1583
_cell_length_c       4.99301
_cell_angle_alpha    90.003
_cell_angle_beta     90.7388
_cell_angle_gamma    89.9963

_symmetry_space_group_name_H-M    "P 1"
_symmetry_int_tables_number       1

loop_
  _symmetry_equiv_pos_as_xyz
  'x, y, z'

loop_
  _atom_site_label
  _atom_site_occupancy
  _atom_site_fract_x
  _atom_site_fract_y
  _atom_site_fract_z
  _atom_site_thermal_displace_type
  _atom_site_B_iso_or_equiv
  _atom_site_type_symbol
  Mn1      1.0000 0.12533  0.01870  0.25000  Biso   1.000  Mn
  Hf1      1.0000 0.12531  0.49641  0.25008  Biso   1.000  Hf
  Hf2      1.0000 0.62533  0.99815  0.25003  Biso   1.000  Hf
  Hf3      1.0000 0.62532  0.50347  0.25003  Biso   1.000  Hf
  Hf4      1.0000 0.12532  0.24824  0.75005  Biso   1.000  Hf
  Hf5      1.0000 0.12530  0.74274  0.75013  Biso   1.000  Hf
  Hf6      1.0000 0.62531  0.24808  0.75005  Biso   1.000  Hf
  Hf7      1.0000 0.62531  0.75292  0.75005  Biso   1.000  Hf
  Hf8      1.0000 0.37751  0.24932  0.25383  Biso   1.000  Hf
  Hf9      1.0000 0.36983  0.75203  0.23362  Biso   1.000  Hf
  Hf10     1.0000 0.87313  0.24932  0.24627  Biso   1.000  Hf
  Hf11     1.0000 0.88077  0.75202  0.26654  Biso   1.000  Hf
  Hf12     1.0000 0.37142  0.99821  0.73366  Biso   1.000  Hf
  Hf13     1.0000 0.37896  0.50106  0.74747  Biso   1.000  Hf
  Hf14     1.0000 0.87923  0.99822  0.76639  Biso   1.000  Hf
  Hf15     1.0000 0.87167  0.50103  0.75262  Biso   1.000  Hf
  O1       1.0000 0.98900  0.14824  0.97885  Biso   1.000  O
  O2       1.0000 0.99785  0.64854  0.00710  Biso   1.000  O
  O3       1.0000 0.48328  0.14606  0.97348  Biso   1.000  O
  O4       1.0000 0.49723  0.64640  0.99970  Biso   1.000  O
  O5       1.0000 0.01516  0.09244  0.48300  Biso   1.000  O
  O6       1.0000 0.00421  0.59830  0.50438  Biso   1.000  O
  O7       1.0000 0.50940  0.10780  0.48589  Biso   1.000  O
  O8       1.0000 0.50489  0.60682  0.50411  Biso   1.000  O
  O9       1.0000 0.00002  0.34791  0.49605  Biso   1.000  O
  O10      1.0000 0.97393  0.84203  0.57842  Biso   1.000  O
  O11      1.0000 0.49834  0.35673  0.50439  Biso   1.000  O
  O12      1.0000 0.48353  0.85634  0.50190  Biso   1.000  O
  O13      1.0000 0.00158  0.39679  0.99506  Biso   1.000  O
  O14      1.0000 0.02176  0.90615  0.06407  Biso   1.000  O
  O15      1.0000 0.50221  0.39511  0.00353  Biso   1.000  O
  O16      1.0000 0.51379  0.89630  0.99041  Biso   1.000  O
  O17      1.0000 0.26164  0.14825  0.52120  Biso   1.000  O
  O18      1.0000 0.25277  0.64856  0.49308  Biso   1.000  O
  O19      1.0000 0.76736  0.14605  0.52660  Biso   1.000  O
  O20      1.0000 0.75340  0.64638  0.50040  Biso   1.000  O
  O21      1.0000 0.23547  0.09243  0.01700  Biso   1.000  O
  O22      1.0000 0.24641  0.59830  0.99583  Biso   1.000  O
  O23      1.0000 0.74124  0.10780  0.01419  Biso   1.000  O
  O24      1.0000 0.74573  0.60682  0.99599  Biso   1.000  O
  O25      1.0000 0.25056  0.34791  0.00414  Biso   1.000  O
  O26      1.0000 0.27675  0.84201  0.92157  Biso   1.000  O
  O27      1.0000 0.75226  0.35672  0.99575  Biso   1.000  O
  O28      1.0000 0.76714  0.85635  0.99815  Biso   1.000  O
  O29      1.0000 0.24901  0.39681  0.50515  Biso   1.000  O
  O30      1.0000 0.22895  0.90618  0.43587  Biso   1.000  O
  O31      1.0000 0.74838  0.39510  0.49662  Biso   1.000  O
  O32      1.0000 0.73687  0.89628  0.50964  Biso   1.000  O
