data_image0
_cell_length_a       10.0763
_cell_length_b       10.3435
_cell_length_c       5.05608
_cell_angle_alpha    88.5386
_cell_angle_beta     87.4032
_cell_angle_gamma    90.6868

_symmetry_space_group_name_H-M    "P 1"
_symmetry_int_tables_number       1

loop_
  _symmetry_equiv_pos_as_xyz
  'x, y, z'

loop_
  _atom_site_label
  _atom_site_occupancy
  _atom_site_fract_x
  _atom_site_fract_y
  _atom_site_fract_z
  _atom_site_thermal_displace_type
  _atom_site_B_iso_or_equiv
  _atom_site_type_symbol
  Hf1      1.0000 0.11463  0.96130  0.21728  Biso   1.000  Hf
  Hf2      1.0000 0.13730  0.28193  0.75729  Biso   1.000  Hf
  Hf3      1.0000 0.38758  0.26521  0.28958  Biso   1.000  Hf
  Hf4      1.0000 0.35661  0.99866  0.75448  Biso   1.000  Hf
  O1       1.0000 0.02544  0.14521  0.97553  Biso   1.000  O
  O2       1.0000 0.99328  0.08371  0.45146  Biso   1.000  O
  O3       1.0000 0.02966  0.32825  0.43891  Biso   1.000  O
  O4       1.0000 0.99832  0.39818  0.97503  Biso   1.000  O
  O5       1.0000 0.26204  0.15807  0.56458  Biso   1.000  O
  O6       1.0000 0.27144  0.08954  0.07519  Biso   1.000  O
  O7       1.0000 0.26929  0.35515  0.00883  Biso   1.000  O
  O8       1.0000 0.26570  0.41596  0.50232  Biso   1.000  O
  Hf5      1.0000 0.12714  0.49936  0.24931  Biso   1.000  Hf
  Hf6      1.0000 0.11600  0.73279  0.72522  Biso   1.000  Hf
  Hf7      1.0000 0.37860  0.76761  0.25424  Biso   1.000  Hf
  Hf8      1.0000 0.38734  0.50368  0.77874  Biso   1.000  Hf
  O9       1.0000 0.98096  0.64255  0.01773  Biso   1.000  O
  O10      1.0000 0.00503  0.57650  0.53433  Biso   1.000  O
  O11      1.0000 0.98767  0.83043  0.46645  Biso   1.000  O
  O12      1.0000 0.98653  0.88536  0.95401  Biso   1.000  O
  O13      1.0000 0.22912  0.65926  0.41111  Biso   1.000  O
  O14      1.0000 0.21849  0.58616  0.91427  Biso   1.000  O
  O15      1.0000 0.24295  0.83919  0.98104  Biso   1.000  O
  O16      1.0000 0.23965  0.89686  0.50223  Biso   1.000  O
  Hf9      1.0000 0.61534  0.01637  0.25339  Biso   1.000  Hf
  Hf10     1.0000 0.64487  0.24466  0.75371  Biso   1.000  Hf
  Hf11     1.0000 0.88719  0.24058  0.22002  Biso   1.000  Hf
  Hf12     1.0000 0.86801  0.98957  0.70918  Biso   1.000  Hf
  O17      1.0000 0.52937  0.17362  0.06090  Biso   1.000  O
  O18      1.0000 0.50674  0.10928  0.55154  Biso   1.000  O
  O19      1.0000 0.51315  0.36224  0.56277  Biso   1.000  O
  O20      1.0000 0.49624  0.42516  0.06974  Biso   1.000  O
  O21      1.0000 0.75130  0.14349  0.48096  Biso   1.000  O
  O22      1.0000 0.76706  0.10357  0.98136  Biso   1.000  O
  O23      1.0000 0.74812  0.35880  0.02439  Biso   1.000  O
  O24      1.0000 0.76938  0.39106  0.52308  Biso   1.000  O
  Hf13     1.0000 0.63569  0.49170  0.30221  Biso   1.000  Hf
  Hf14     1.0000 0.61442  0.75684  0.73457  Biso   1.000  Hf
  Hf15     1.0000 0.85197  0.75611  0.21861  Biso   1.000  Hf
  Hf16     1.0000 0.86129  0.50955  0.78997  Biso   1.000  Hf
  O25      1.0000 0.46630  0.67041  0.95533  Biso   1.000  O
  O26      1.0000 0.49785  0.61658  0.47622  Biso   1.000  O
  O27      1.0000 0.49187  0.86739  0.50927  Biso   1.000  O
  O28      1.0000 0.49035  0.91826  0.01411  Biso   1.000  O
  O29      1.0000 0.74985  0.64438  0.51891  Biso   1.000  O
  O30      1.0000 0.72603  0.61316  0.01777  Biso   1.000  O
  O31      1.0000 0.73559  0.85785  0.97302  Biso   1.000  O
  O32      1.0000 0.74164  0.89554  0.47152  Biso   1.000  O
  Mn1      1.0000 0.14176  0.18842  0.27156  Biso   1.000  Mn
