data_image0
_cell_length_a       9.99423
_cell_length_b       10.1895
_cell_length_c       9.99421
_cell_angle_alpha    90.0048
_cell_angle_beta     90.5256
_cell_angle_gamma    89.9988

_symmetry_space_group_name_H-M    "P 1"
_symmetry_int_tables_number       1

loop_
  _symmetry_equiv_pos_as_xyz
  'x, y, z'

loop_
  _atom_site_label
  _atom_site_occupancy
  _atom_site_fract_x
  _atom_site_fract_y
  _atom_site_fract_z
  _atom_site_thermal_displace_type
  _atom_site_B_iso_or_equiv
  _atom_site_type_symbol
  Mn1      1.0000 0.12524  0.02036  0.12520  Biso   1.000  Mn
  Hf1      1.0000 0.12519  0.00491  0.62521  Biso   1.000  Hf
  Hf2      1.0000 0.12519  0.49573  0.12523  Biso   1.000  Hf
  Hf3      1.0000 0.12520  0.50046  0.62523  Biso   1.000  Hf
  Hf4      1.0000 0.62523  0.00491  0.12521  Biso   1.000  Hf
  Hf5      1.0000 0.62523  0.99785  0.62522  Biso   1.000  Hf
  Hf6      1.0000 0.62516  0.50046  0.12522  Biso   1.000  Hf
  Hf7      1.0000 0.62519  0.50293  0.62521  Biso   1.000  Hf
  Hf8      1.0000 0.12710  0.25065  0.37652  Biso   1.000  Hf
  Hf9      1.0000 0.12328  0.25067  0.87389  Biso   1.000  Hf
  Hf10     1.0000 0.12065  0.74655  0.37295  Biso   1.000  Hf
  Hf11     1.0000 0.12967  0.74658  0.87755  Biso   1.000  Hf
  Hf12     1.0000 0.62583  0.24852  0.37665  Biso   1.000  Hf
  Hf13     1.0000 0.62455  0.24853  0.87373  Biso   1.000  Hf
  Hf14     1.0000 0.62114  0.75319  0.37328  Biso   1.000  Hf
  Hf15     1.0000 0.62922  0.75319  0.87717  Biso   1.000  Hf
  Hf16     1.0000 0.37650  0.25065  0.12710  Biso   1.000  Hf
  Hf17     1.0000 0.37665  0.24851  0.62585  Biso   1.000  Hf
  Hf18     1.0000 0.37285  0.74658  0.12073  Biso   1.000  Hf
  Hf19     1.0000 0.37324  0.75320  0.62118  Biso   1.000  Hf
  Hf20     1.0000 0.87387  0.25067  0.12328  Biso   1.000  Hf
  Hf21     1.0000 0.87373  0.24853  0.62456  Biso   1.000  Hf
  Hf22     1.0000 0.87744  0.74654  0.12976  Biso   1.000  Hf
  Hf23     1.0000 0.87713  0.75318  0.62925  Biso   1.000  Hf
  Hf24     1.0000 0.36740  0.99989  0.36738  Biso   1.000  Hf
  Hf25     1.0000 0.37649  0.99572  0.87393  Biso   1.000  Hf
  Hf26     1.0000 0.37689  0.50187  0.37691  Biso   1.000  Hf
  Hf27     1.0000 0.37798  0.50062  0.87243  Biso   1.000  Hf
  Hf28     1.0000 0.87396  0.99572  0.37645  Biso   1.000  Hf
  Hf29     1.0000 0.88306  0.99988  0.88304  Biso   1.000  Hf
  Hf30     1.0000 0.87241  0.50054  0.37800  Biso   1.000  Hf
  Hf31     1.0000 0.87350  0.50188  0.87352  Biso   1.000  Hf
  O1       1.0000 0.99558  0.14859  0.99558  Biso   1.000  O
  O2       1.0000 0.99255  0.14689  0.48994  Biso   1.000  O
  O3       1.0000 0.00097  0.65017  0.00103  Biso   1.000  O
  O4       1.0000 0.99834  0.64691  0.50142  Biso   1.000  O
  O5       1.0000 0.48994  0.14693  0.99255  Biso   1.000  O
  O6       1.0000 0.49264  0.14782  0.49264  Biso   1.000  O
  O7       1.0000 0.50138  0.64696  0.99837  Biso   1.000  O
  O8       1.0000 0.49811  0.64780  0.49812  Biso   1.000  O
  O9       1.0000 0.00989  0.09106  0.24053  Biso   1.000  O
  O10      1.0000 0.00403  0.10524  0.74701  Biso   1.000  O
  O11      1.0000 0.00062  0.59650  0.24976  Biso   1.000  O
  O12      1.0000 0.00167  0.60374  0.75030  Biso   1.000  O
  O13      1.0000 0.50340  0.10523  0.24634  Biso   1.000  O
  O14      1.0000 0.50461  0.10384  0.74575  Biso   1.000  O
  O15      1.0000 0.50008  0.60374  0.24873  Biso   1.000  O
  O16      1.0000 0.50157  0.60486  0.74884  Biso   1.000  O
  O17      1.0000 0.00271  0.34656  0.24769  Biso   1.000  O
  O18      1.0000 0.99839  0.35412  0.74916  Biso   1.000  O
  O19      1.0000 0.97167  0.84040  0.27872  Biso   1.000  O
  O20      1.0000 0.99476  0.85400  0.77045  Biso   1.000  O
  O21      1.0000 0.50125  0.35411  0.25200  Biso   1.000  O
  O22      1.0000 0.49813  0.35457  0.75225  Biso   1.000  O
  O23      1.0000 0.47994  0.85398  0.25567  Biso   1.000  O
  O24      1.0000 0.49778  0.85298  0.75264  Biso   1.000  O
  O25      1.0000 0.99864  0.39832  0.99875  Biso   1.000  O
  O26      1.0000 0.00237  0.39661  0.49853  Biso   1.000  O
  O27      1.0000 0.02452  0.90745  0.02434  Biso   1.000  O
  O28      1.0000 0.99876  0.89710  0.51656  Biso   1.000  O
  O29      1.0000 0.49841  0.39664  0.00243  Biso   1.000  O
  O30      1.0000 0.50187  0.39691  0.50191  Biso   1.000  O
  O31      1.0000 0.51666  0.89716  0.99868  Biso   1.000  O
  O32      1.0000 0.50040  0.89861  0.50035  Biso   1.000  O
  O33      1.0000 0.25484  0.14858  0.25485  Biso   1.000  O
  O34      1.0000 0.25783  0.14693  0.76048  Biso   1.000  O
  O35      1.0000 0.24935  0.65016  0.24941  Biso   1.000  O
  O36      1.0000 0.25204  0.64696  0.74901  Biso   1.000  O
  O37      1.0000 0.76047  0.14689  0.25783  Biso   1.000  O
  O38      1.0000 0.75771  0.14781  0.75772  Biso   1.000  O
  O39      1.0000 0.74896  0.64691  0.25207  Biso   1.000  O
  O40      1.0000 0.75229  0.64780  0.75231  Biso   1.000  O
  O41      1.0000 0.24056  0.09106  0.00988  Biso   1.000  O
  O42      1.0000 0.24634  0.10521  0.50340  Biso   1.000  O
  O43      1.0000 0.24970  0.59651  0.00068  Biso   1.000  O
  O44      1.0000 0.24871  0.60373  0.50016  Biso   1.000  O
  O45      1.0000 0.74703  0.10522  0.00403  Biso   1.000  O
  O46      1.0000 0.74577  0.10383  0.50460  Biso   1.000  O
  O47      1.0000 0.75023  0.60373  0.00170  Biso   1.000  O
  O48      1.0000 0.74882  0.60484  0.50160  Biso   1.000  O
  O49      1.0000 0.24757  0.34656  0.00283  Biso   1.000  O
  O50      1.0000 0.25195  0.35410  0.50133  Biso   1.000  O
  O51      1.0000 0.27884  0.84035  0.97156  Biso   1.000  O
  O52      1.0000 0.25573  0.85396  0.47985  Biso   1.000  O
  O53      1.0000 0.74907  0.35410  0.99845  Biso   1.000  O
  O54      1.0000 0.75221  0.35454  0.49818  Biso   1.000  O
  O55      1.0000 0.77055  0.85396  0.99470  Biso   1.000  O
  O56      1.0000 0.75269  0.85297  0.49773  Biso   1.000  O
  O57      1.0000 0.25166  0.39830  0.25176  Biso   1.000  O
  O58      1.0000 0.24796  0.39664  0.75198  Biso   1.000  O
  O59      1.0000 0.22606  0.90744  0.22590  Biso   1.000  O
  O60      1.0000 0.25174  0.89717  0.73374  Biso   1.000  O
  O61      1.0000 0.75188  0.39661  0.24802  Biso   1.000  O
  O62      1.0000 0.74848  0.39692  0.74853  Biso   1.000  O
  O63      1.0000 0.73382  0.89710  0.25166  Biso   1.000  O
  O64      1.0000 0.75008  0.89860  0.75003  Biso   1.000  O
