data_image0
_cell_length_a       10.1323
_cell_length_b       10.3408
_cell_length_c       5.08964
_cell_angle_alpha    90.0393
_cell_angle_beta     87.7008
_cell_angle_gamma    91.4635

_symmetry_space_group_name_H-M    "P 1"
_symmetry_int_tables_number       1

loop_
  _symmetry_equiv_pos_as_xyz
  'x, y, z'

loop_
  _atom_site_label
  _atom_site_occupancy
  _atom_site_fract_x
  _atom_site_fract_y
  _atom_site_fract_z
  _atom_site_thermal_displace_type
  _atom_site_B_iso_or_equiv
  _atom_site_type_symbol
  Zr1      1.0000 0.12669  0.96129  0.24682  Biso   1.000  Zr
  Zr2      1.0000 0.12676  0.27623  0.73414  Biso   1.000  Zr
  Zr3      1.0000 0.38004  0.25283  0.28834  Biso   1.000  Zr
  Zr4      1.0000 0.37335  0.00621  0.77435  Biso   1.000  Zr
  O1       1.0000 0.99950  0.14507  0.94366  Biso   1.000  O
  O2       1.0000 0.00546  0.09209  0.44284  Biso   1.000  O
  O3       1.0000 0.02245  0.33429  0.41813  Biso   1.000  O
  O4       1.0000 0.99182  0.40213  0.95576  Biso   1.000  O
  O5       1.0000 0.27366  0.15677  0.60543  Biso   1.000  O
  O6       1.0000 0.26773  0.09080  0.09450  Biso   1.000  O
  O7       1.0000 0.23718  0.33755  0.04873  Biso   1.000  O
  O8       1.0000 0.25981  0.41339  0.51584  Biso   1.000  O
  Zr5      1.0000 0.12420  0.50303  0.24479  Biso   1.000  Zr
  Zr6      1.0000 0.12268  0.73612  0.74172  Biso   1.000  Zr
  Zr7      1.0000 0.38350  0.76293  0.26476  Biso   1.000  Zr
  Zr8      1.0000 0.38891  0.50012  0.77128  Biso   1.000  Zr
  O9       1.0000 0.98989  0.64507  0.02586  Biso   1.000  O
  O10      1.0000 0.00260  0.58507  0.53142  Biso   1.000  O
  O11      1.0000 0.99358  0.83724  0.49288  Biso   1.000  O
  O12      1.0000 0.99977  0.88841  0.97491  Biso   1.000  O
  O13      1.0000 0.23174  0.65801  0.42481  Biso   1.000  O
  O14      1.0000 0.22674  0.58536  0.92565  Biso   1.000  O
  O15      1.0000 0.25373  0.83964  0.99889  Biso   1.000  O
  O16      1.0000 0.25058  0.89631  0.52432  Biso   1.000  O
  Zr9      1.0000 0.62893  0.01032  0.24849  Biso   1.000  Zr
  Zr10     1.0000 0.63640  0.24162  0.74028  Biso   1.000  Zr
  Zr11     1.0000 0.87584  0.25090  0.20032  Biso   1.000  Zr
  Zr12     1.0000 0.88654  0.99891  0.72492  Biso   1.000  Zr
  O17      1.0000 0.50971  0.15635  0.01490  Biso   1.000  O
  O18      1.0000 0.50967  0.10878  0.51284  Biso   1.000  O
  O19      1.0000 0.50992  0.36070  0.54899  Biso   1.000  O
  O20      1.0000 0.48465  0.41085  0.06262  Biso   1.000  O
  O21      1.0000 0.75749  0.14756  0.47801  Biso   1.000  O
  O22      1.0000 0.75459  0.10688  0.97431  Biso   1.000  O
  O23      1.0000 0.73887  0.36260  0.00096  Biso   1.000  O
  O24      1.0000 0.76286  0.39733  0.49681  Biso   1.000  O
  Zr13     1.0000 0.62775  0.49509  0.28463  Biso   1.000  Zr
  Zr14     1.0000 0.61908  0.76121  0.75210  Biso   1.000  Zr
  Zr15     1.0000 0.85991  0.75700  0.23608  Biso   1.000  Zr
  Zr16     1.0000 0.85890  0.51242  0.77464  Biso   1.000  Zr
  O25      1.0000 0.48252  0.65873  0.98122  Biso   1.000  O
  O26      1.0000 0.49485  0.61300  0.49277  Biso   1.000  O
  O27      1.0000 0.49986  0.86436  0.51671  Biso   1.000  O
  O28      1.0000 0.50344  0.90530  0.01621  Biso   1.000  O
  O29      1.0000 0.74714  0.64882  0.51959  Biso   1.000  O
  O30      1.0000 0.73460  0.61534  0.02119  Biso   1.000  O
  O31      1.0000 0.75075  0.86103  0.98357  Biso   1.000  O
  O32      1.0000 0.74959  0.90078  0.48327  Biso   1.000  O
  Mn1      1.0000 0.12816  0.20078  0.23341  Biso   1.000  Mn
