data_image0
_cell_length_a       10.1689
_cell_length_b       10.4169
_cell_length_c       5.09161
_cell_angle_alpha    89.9947
_cell_angle_beta     87.7535
_cell_angle_gamma    90.0129

_symmetry_space_group_name_H-M    "P 1"
_symmetry_int_tables_number       1

loop_
  _symmetry_equiv_pos_as_xyz
  'x, y, z'

loop_
  _atom_site_label
  _atom_site_occupancy
  _atom_site_fract_x
  _atom_site_fract_y
  _atom_site_fract_z
  _atom_site_thermal_displace_type
  _atom_site_B_iso_or_equiv
  _atom_site_type_symbol
  Zr1      1.0000 0.12545  0.95524  0.25060  Biso   1.000  Zr
  Zr2      1.0000 0.12550  0.29111  0.75057  Biso   1.000  Zr
  Zr3      1.0000 0.38471  0.25275  0.28651  Biso   1.000  Zr
  Zr4      1.0000 0.36982  0.00190  0.76936  Biso   1.000  Zr
  O1       1.0000 0.99456  0.15973  0.93425  Biso   1.000  O
  O2       1.0000 0.98652  0.08287  0.43437  Biso   1.000  O
  O3       1.0000 0.00444  0.34217  0.44931  Biso   1.000  O
  O4       1.0000 0.99331  0.41564  0.97869  Biso   1.000  O
  O5       1.0000 0.25643  0.15976  0.56712  Biso   1.000  O
  O6       1.0000 0.26450  0.08286  0.06698  Biso   1.000  O
  O7       1.0000 0.24668  0.34220  0.05171  Biso   1.000  O
  O8       1.0000 0.25765  0.41576  0.52242  Biso   1.000  O
  Zr5      1.0000 0.12540  0.50691  0.25066  Biso   1.000  Zr
  Zr6      1.0000 0.12539  0.73728  0.75059  Biso   1.000  Zr
  Zr7      1.0000 0.38546  0.75745  0.26166  Biso   1.000  Zr
  Zr8      1.0000 0.39032  0.50087  0.76084  Biso   1.000  Zr
  O9       1.0000 0.00968  0.65633  0.05647  Biso   1.000  O
  O10      1.0000 0.01139  0.58795  0.55393  Biso   1.000  O
  O11      1.0000 0.99559  0.83493  0.49920  Biso   1.000  O
  O12      1.0000 0.99686  0.89460  0.97549  Biso   1.000  O
  O13      1.0000 0.24076  0.65651  0.44416  Biso   1.000  O
  O14      1.0000 0.23917  0.58791  0.94681  Biso   1.000  O
  O15      1.0000 0.25525  0.83491  0.00201  Biso   1.000  O
  O16      1.0000 0.25401  0.89466  0.52579  Biso   1.000  O
  Zr9      1.0000 0.62547  0.00623  0.25073  Biso   1.000  Zr
  Zr10     1.0000 0.62557  0.24394  0.75072  Biso   1.000  Zr
  Zr11     1.0000 0.86634  0.25273  0.21485  Biso   1.000  Zr
  Zr12     1.0000 0.88111  0.00189  0.73198  Biso   1.000  Zr
  O17      1.0000 0.50744  0.15124  0.01913  Biso   1.000  O
  O18      1.0000 0.49966  0.10465  0.51663  Biso   1.000  O
  O19      1.0000 0.50757  0.35919  0.52748  Biso   1.000  O
  O20      1.0000 0.49541  0.40211  0.03152  Biso   1.000  O
  O21      1.0000 0.74359  0.15123  0.48229  Biso   1.000  O
  O22      1.0000 0.75134  0.10462  0.98477  Biso   1.000  O
  O23      1.0000 0.74335  0.35920  0.97444  Biso   1.000  O
  O24      1.0000 0.75559  0.40212  0.47047  Biso   1.000  O
  Zr13     1.0000 0.62542  0.50282  0.25116  Biso   1.000  Zr
  Zr14     1.0000 0.62536  0.76057  0.75085  Biso   1.000  Zr
  Zr15     1.0000 0.86534  0.75737  0.23987  Biso   1.000  Zr
  Zr16     1.0000 0.86051  0.50108  0.74131  Biso   1.000  Zr
  O25      1.0000 0.49974  0.65050  0.99429  Biso   1.000  O
  O26      1.0000 0.49944  0.61018  0.49566  Biso   1.000  O
  O27      1.0000 0.50455  0.85811  0.50388  Biso   1.000  O
  O28      1.0000 0.50131  0.90257  0.00585  Biso   1.000  O
  O29      1.0000 0.75089  0.65051  0.50737  Biso   1.000  O
  O30      1.0000 0.75114  0.61022  0.00610  Biso   1.000  O
  O31      1.0000 0.74628  0.85809  0.99771  Biso   1.000  O
  O32      1.0000 0.74955  0.90257  0.49571  Biso   1.000  O
  Mo1      1.0000 0.12554  0.19760  0.25062  Biso   1.000  Mo
