data_image0
_cell_length_a       10.076
_cell_length_b       5.19863
_cell_length_c       9.96571
_cell_angle_alpha    90.5906
_cell_angle_beta     90.9353
_cell_angle_gamma    90.4996

_symmetry_space_group_name_H-M    "P 1"
_symmetry_int_tables_number       1

loop_
  _symmetry_equiv_pos_as_xyz
  'x, y, z'

loop_
  _atom_site_label
  _atom_site_occupancy
  _atom_site_fract_x
  _atom_site_fract_y
  _atom_site_fract_z
  _atom_site_thermal_displace_type
  _atom_site_B_iso_or_equiv
  _atom_site_type_symbol
  Hf1      1.0000 0.11084  0.00829  0.14568  Biso   1.000  Hf
  Hf2      1.0000 0.10392  0.52272  0.36505  Biso   1.000  Hf
  Hf3      1.0000 0.35184  0.45755  0.13279  Biso   1.000  Hf
  Hf4      1.0000 0.35626  0.96311  0.36967  Biso   1.000  Hf
  O1       1.0000 0.98863  0.42690  0.00835  Biso   1.000  O
  O2       1.0000 0.97676  0.23296  0.25822  Biso   1.000  O
  O3       1.0000 0.97688  0.72463  0.22986  Biso   1.000  O
  O4       1.0000 0.04529  0.88929  0.96395  Biso   1.000  O
  O5       1.0000 0.23034  0.24742  0.27998  Biso   1.000  O
  O6       1.0000 0.30936  0.10221  0.04933  Biso   1.000  O
  O7       1.0000 0.30717  0.62904  0.95505  Biso   1.000  O
  O8       1.0000 0.23165  0.74493  0.23210  Biso   1.000  O
  Hf5      1.0000 0.10646  0.03747  0.63316  Biso   1.000  Hf
  Hf6      1.0000 0.11936  0.54814  0.85493  Biso   1.000  Hf
  Hf7      1.0000 0.36031  0.46782  0.63373  Biso   1.000  Hf
  Hf8      1.0000 0.36284  0.97291  0.86757  Biso   1.000  Hf
  O9       1.0000 0.03442  0.36698  0.53283  Biso   1.000  O
  O10      1.0000 0.98643  0.24187  0.76756  Biso   1.000  O
  O11      1.0000 0.98264  0.74804  0.72661  Biso   1.000  O
  O12      1.0000 0.04078  0.87033  0.45920  Biso   1.000  O
  O13      1.0000 0.23683  0.26763  0.76863  Biso   1.000  O
  O14      1.0000 0.28944  0.13115  0.53833  Biso   1.000  O
  O15      1.0000 0.28662  0.62847  0.46558  Biso   1.000  O
  O16      1.0000 0.23510  0.77135  0.72650  Biso   1.000  O
  Hf9      1.0000 0.59847  0.03605  0.13766  Biso   1.000  Hf
  Hf10     1.0000 0.60131  0.53677  0.37090  Biso   1.000  Hf
  Hf11     1.0000 0.83369  0.47425  0.14405  Biso   1.000  Hf
  Hf12     1.0000 0.85617  0.97040  0.37019  Biso   1.000  Hf
  O17      1.0000 0.54199  0.37937  0.04330  Biso   1.000  O
  O18      1.0000 0.47804  0.24000  0.27497  Biso   1.000  O
  O19      1.0000 0.47812  0.73508  0.23143  Biso   1.000  O
  O20      1.0000 0.54322  0.87834  0.96191  Biso   1.000  O
  O21      1.0000 0.72534  0.26293  0.28041  Biso   1.000  O
  O22      1.0000 0.78066  0.13741  0.04005  Biso   1.000  O
  O23      1.0000 0.78109  0.65185  0.97179  Biso   1.000  O
  O24      1.0000 0.72508  0.77242  0.23651  Biso   1.000  O
  Hf13     1.0000 0.60914  0.03555  0.63918  Biso   1.000  Hf
  Hf14     1.0000 0.60725  0.54060  0.87076  Biso   1.000  Hf
  Hf15     1.0000 0.85658  0.47139  0.63769  Biso   1.000  Hf
  Hf16     1.0000 0.85885  0.97704  0.87151  Biso   1.000  Hf
  O25      1.0000 0.53993  0.36968  0.54024  Biso   1.000  O
  O26      1.0000 0.48654  0.23980  0.77270  Biso   1.000  O
  O27      1.0000 0.48524  0.74048  0.73004  Biso   1.000  O
  O28      1.0000 0.53639  0.87010  0.46840  Biso   1.000  O
  O29      1.0000 0.73626  0.27273  0.77510  Biso   1.000  O
  O30      1.0000 0.78853  0.13250  0.53966  Biso   1.000  O
  O31      1.0000 0.78783  0.63567  0.46651  Biso   1.000  O
  O32      1.0000 0.73465  0.76997  0.73418  Biso   1.000  O
  N1       1.0000 0.11127  0.35865  0.03854  Biso   1.000  N
