data_image0
_cell_length_a       10.1099
_cell_length_b       10.1094
_cell_length_c       5.04658
_cell_angle_alpha    88.5114
_cell_angle_beta     91.491
_cell_angle_gamma    92.3689

_symmetry_space_group_name_H-M    "P 1"
_symmetry_int_tables_number       1

loop_
  _symmetry_equiv_pos_as_xyz
  'x, y, z'

loop_
  _atom_site_label
  _atom_site_occupancy
  _atom_site_fract_x
  _atom_site_fract_y
  _atom_site_fract_z
  _atom_site_thermal_displace_type
  _atom_site_B_iso_or_equiv
  _atom_site_type_symbol
  N1       1.0000 0.09092  0.03600  0.24442  Biso   1.000  N
  Zr1      1.0000 0.14014  0.49263  0.20492  Biso   1.000  Zr
  Zr2      1.0000 0.63429  0.98677  0.20493  Biso   1.000  Zr
  Zr3      1.0000 0.62959  0.49730  0.20968  Biso   1.000  Zr
  Zr4      1.0000 0.12648  0.25592  0.71577  Biso   1.000  Zr
  Zr5      1.0000 0.14329  0.74655  0.74552  Biso   1.000  Zr
  Zr6      1.0000 0.62005  0.24589  0.71373  Biso   1.000  Zr
  Zr7      1.0000 0.63283  0.74063  0.69842  Biso   1.000  Zr
  Zr8      1.0000 0.37008  0.23778  0.18841  Biso   1.000  Zr
  Zr9      1.0000 0.36633  0.76060  0.23882  Biso   1.000  Zr
  Zr10     1.0000 0.86898  0.25794  0.23200  Biso   1.000  Zr
  Zr11     1.0000 0.88914  0.75683  0.18837  Biso   1.000  Zr
  Zr12     1.0000 0.38627  0.49411  0.69844  Biso   1.000  Zr
  Zr13     1.0000 0.38037  0.98364  0.74555  Biso   1.000  Zr
  Zr14     1.0000 0.88104  0.50687  0.71367  Biso   1.000  Zr
  Zr15     1.0000 0.87099  0.00044  0.71578  Biso   1.000  Zr
  O1       1.0000 0.95952  0.16738  0.56151  Biso   1.000  O
  O2       1.0000 0.99139  0.66894  0.48983  Biso   1.000  O
  O3       1.0000 0.45793  0.13548  0.48980  Biso   1.000  O
  O4       1.0000 0.49589  0.63096  0.43251  Biso   1.000  O
  O5       1.0000 0.02151  0.10541  0.06254  Biso   1.000  O
  O6       1.0000 0.01826  0.61021  0.98559  Biso   1.000  O
  O7       1.0000 0.51675  0.10871  0.98560  Biso   1.000  O
  O8       1.0000 0.52800  0.59895  0.91975  Biso   1.000  O
  O9       1.0000 0.51405  0.38244  0.46352  Biso   1.000  O
  O10      1.0000 0.51977  0.88401  0.48048  Biso   1.000  O
  O11      1.0000 0.01294  0.40773  0.47161  Biso   1.000  O
  O12      1.0000 0.02073  0.94652  0.37820  Biso   1.000  O
  O13      1.0000 0.49047  0.35451  0.95721  Biso   1.000  O
  O14      1.0000 0.49761  0.85269  0.97297  Biso   1.000  O
  O15      1.0000 0.99494  0.35626  0.96728  Biso   1.000  O
  O16      1.0000 0.98542  0.85496  0.88130  Biso   1.000  O
  O17      1.0000 0.18037  0.10622  0.37825  Biso   1.000  O
  O18      1.0000 0.24286  0.60717  0.48046  Biso   1.000  O
  O19      1.0000 0.71914  0.11401  0.47168  Biso   1.000  O
  O20      1.0000 0.74442  0.61291  0.46347  Biso   1.000  O
  O21      1.0000 0.27196  0.14148  0.88134  Biso   1.000  O
  O22      1.0000 0.27428  0.62928  0.97291  Biso   1.000  O
  O23      1.0000 0.77068  0.13190  0.96738  Biso   1.000  O
  O24      1.0000 0.77246  0.63638  0.95718  Biso   1.000  O
  O25      1.0000 0.24529  0.38528  0.95592  Biso   1.000  O
  O26      1.0000 0.24815  0.87875  0.99187  Biso   1.000  O
  O27      1.0000 0.74265  0.38417  0.96893  Biso   1.000  O
  O28      1.0000 0.74160  0.88156  0.95587  Biso   1.000  O
  O29      1.0000 0.26169  0.34982  0.45656  Biso   1.000  O
  O30      1.0000 0.26855  0.85839  0.50557  Biso   1.000  O
  O31      1.0000 0.76149  0.36547  0.47857  Biso   1.000  O
  O32      1.0000 0.77712  0.86527  0.45649  Biso   1.000  O
