data_image0
_cell_length_a       5.04661
_cell_length_b       10.1094
_cell_length_c       10.1096
_cell_angle_alpha    87.63
_cell_angle_beta     88.5089
_cell_angle_gamma    88.5123

_symmetry_space_group_name_H-M    "P 1"
_symmetry_int_tables_number       1

loop_
  _symmetry_equiv_pos_as_xyz
  'x, y, z'

loop_
  _atom_site_label
  _atom_site_occupancy
  _atom_site_fract_x
  _atom_site_fract_y
  _atom_site_fract_z
  _atom_site_thermal_displace_type
  _atom_site_B_iso_or_equiv
  _atom_site_type_symbol
  N1       1.0000 0.27989  0.03596  0.16127  Biso   1.000  N
  Zr1      1.0000 0.24035  0.98676  0.61791  Biso   1.000  Zr
  Zr2      1.0000 0.24032  0.49260  0.11206  Biso   1.000  Zr
  Zr3      1.0000 0.24506  0.49729  0.62260  Biso   1.000  Zr
  Zr4      1.0000 0.26744  0.25792  0.38321  Biso   1.000  Zr
  Zr5      1.0000 0.22383  0.23778  0.88210  Biso   1.000  Zr
  Zr6      1.0000 0.22383  0.75681  0.36307  Biso   1.000  Zr
  Zr7      1.0000 0.27423  0.76058  0.88588  Biso   1.000  Zr
  Zr8      1.0000 0.75119  0.25589  0.12571  Biso   1.000  Zr
  Zr9      1.0000 0.74910  0.24587  0.63215  Biso   1.000  Zr
  Zr10     1.0000 0.78094  0.74654  0.10892  Biso   1.000  Zr
  Zr11     1.0000 0.73383  0.74062  0.61938  Biso   1.000  Zr
  Zr12     1.0000 0.75123  0.00041  0.38121  Biso   1.000  Zr
  Zr13     1.0000 0.78096  0.98362  0.87184  Biso   1.000  Zr
  Zr14     1.0000 0.74911  0.50685  0.37117  Biso   1.000  Zr
  Zr15     1.0000 0.73383  0.49409  0.86593  Biso   1.000  Zr
  O1       1.0000 0.91678  0.14147  0.98024  Biso   1.000  O
  O2       1.0000 0.00276  0.13191  0.48152  Biso   1.000  O
  O3       1.0000 0.00830  0.62927  0.97795  Biso   1.000  O
  O4       1.0000 0.99260  0.63638  0.47977  Biso   1.000  O
  O5       1.0000 0.09802  0.10537  0.23068  Biso   1.000  O
  O6       1.0000 0.02104  0.10868  0.73547  Biso   1.000  O
  O7       1.0000 0.02102  0.61018  0.23397  Biso   1.000  O
  O8       1.0000 0.95518  0.59894  0.72423  Biso   1.000  O
  O9       1.0000 0.00272  0.35622  0.25723  Biso   1.000  O
  O10      1.0000 0.99257  0.35449  0.76169  Biso   1.000  O
  O11      1.0000 0.91677  0.85494  0.26678  Biso   1.000  O
  O12      1.0000 0.00834  0.85266  0.75458  Biso   1.000  O
  O13      1.0000 0.99132  0.38527  0.00687  Biso   1.000  O
  O14      1.0000 0.00435  0.38419  0.50950  Biso   1.000  O
  O15      1.0000 0.02730  0.87874  0.00405  Biso   1.000  O
  O16      1.0000 0.99133  0.88156  0.51058  Biso   1.000  O
  O17      1.0000 0.59695  0.16736  0.29267  Biso   1.000  O
  O18      1.0000 0.52525  0.13548  0.79425  Biso   1.000  O
  O19      1.0000 0.52525  0.66894  0.26080  Biso   1.000  O
  O20      1.0000 0.46794  0.63097  0.75629  Biso   1.000  O
  O21      1.0000 0.41371  0.10617  0.07180  Biso   1.000  O
  O22      1.0000 0.50705  0.11399  0.53303  Biso   1.000  O
  O23      1.0000 0.51584  0.60714  0.00933  Biso   1.000  O
  O24      1.0000 0.49890  0.61288  0.50776  Biso   1.000  O
  O25      1.0000 0.49196  0.34979  0.99054  Biso   1.000  O
  O26      1.0000 0.51399  0.36544  0.49074  Biso   1.000  O
  O27      1.0000 0.54099  0.85836  0.98366  Biso   1.000  O
  O28      1.0000 0.49196  0.86524  0.47509  Biso   1.000  O
  O29      1.0000 0.50701  0.40772  0.23929  Biso   1.000  O
  O30      1.0000 0.49887  0.38244  0.73819  Biso   1.000  O
  O31      1.0000 0.41370  0.94649  0.23146  Biso   1.000  O
  O32      1.0000 0.51586  0.88402  0.73243  Biso   1.000  O
