data_image0
_cell_length_a       10.0482
_cell_length_b       10.4148
_cell_length_c       10.068
_cell_angle_alpha    89.8271
_cell_angle_beta     89.736
_cell_angle_gamma    90.0215

_symmetry_space_group_name_H-M    "P 1"
_symmetry_int_tables_number       1

loop_
  _symmetry_equiv_pos_as_xyz
  'x, y, z'

loop_
  _atom_site_label
  _atom_site_occupancy
  _atom_site_fract_x
  _atom_site_fract_y
  _atom_site_fract_z
  _atom_site_thermal_displace_type
  _atom_site_B_iso_or_equiv
  _atom_site_type_symbol
  N1       1.0000 0.03945  0.05195  0.11785  Biso   1.000  N
  Zr1      1.0000 0.13537  0.01440  0.62855  Biso   1.000  Zr
  Zr2      1.0000 0.13462  0.51506  0.12730  Biso   1.000  Zr
  Zr3      1.0000 0.13558  0.51761  0.62583  Biso   1.000  Zr
  Zr4      1.0000 0.63556  0.01630  0.12325  Biso   1.000  Zr
  Zr5      1.0000 0.62601  0.01186  0.62107  Biso   1.000  Zr
  Zr6      1.0000 0.63033  0.51805  0.12706  Biso   1.000  Zr
  Zr7      1.0000 0.63421  0.51473  0.62295  Biso   1.000  Zr
  Zr8      1.0000 0.14476  0.23118  0.37793  Biso   1.000  Zr
  Zr9      1.0000 0.14097  0.23662  0.88204  Biso   1.000  Zr
  Zr10     1.0000 0.13836  0.73591  0.37603  Biso   1.000  Zr
  Zr11     1.0000 0.13845  0.73546  0.88032  Biso   1.000  Zr
  Zr12     1.0000 0.63158  0.23421  0.37469  Biso   1.000  Zr
  Zr13     1.0000 0.63017  0.23151  0.87234  Biso   1.000  Zr
  Zr14     1.0000 0.63560  0.73654  0.37153  Biso   1.000  Zr
  Zr15     1.0000 0.63121  0.73408  0.87312  Biso   1.000  Zr
  Zr16     1.0000 0.36433  0.26095  0.12672  Biso   1.000  Zr
  Zr17     1.0000 0.36622  0.26586  0.62840  Biso   1.000  Zr
  Zr18     1.0000 0.36242  0.76714  0.12482  Biso   1.000  Zr
  Zr19     1.0000 0.36730  0.76781  0.62696  Biso   1.000  Zr
  Zr20     1.0000 0.85299  0.27373  0.12053  Biso   1.000  Zr
  Zr21     1.0000 0.86877  0.26172  0.62535  Biso   1.000  Zr
  Zr22     1.0000 0.86870  0.75998  0.11454  Biso   1.000  Zr
  Zr23     1.0000 0.86897  0.76254  0.62149  Biso   1.000  Zr
  Zr24     1.0000 0.36745  0.48435  0.37538  Biso   1.000  Zr
  Zr25     1.0000 0.36814  0.48447  0.87719  Biso   1.000  Zr
  Zr26     1.0000 0.36200  0.98336  0.36953  Biso   1.000  Zr
  Zr27     1.0000 0.35877  0.98346  0.88540  Biso   1.000  Zr
  Zr28     1.0000 0.86839  0.48261  0.37618  Biso   1.000  Zr
  Zr29     1.0000 0.86890  0.48313  0.87179  Biso   1.000  Zr
  Zr30     1.0000 0.86544  0.98968  0.38109  Biso   1.000  Zr
  Zr31     1.0000 0.85969  0.98114  0.86601  Biso   1.000  Zr
  O1       1.0000 0.03467  0.16590  0.17999  Biso   1.000  O
  O2       1.0000 0.02364  0.16987  0.72130  Biso   1.000  O
  O3       1.0000 0.03615  0.68853  0.19330  Biso   1.000  O
  O4       1.0000 0.03593  0.68212  0.69384  Biso   1.000  O
  O5       1.0000 0.54404  0.18684  0.18920  Biso   1.000  O
  O6       1.0000 0.53362  0.18250  0.69287  Biso   1.000  O
  O7       1.0000 0.53754  0.68464  0.19538  Biso   1.000  O
  O8       1.0000 0.53587  0.68198  0.69483  Biso   1.000  O
  O9       1.0000 0.03455  0.07027  0.44946  Biso   1.000  O
  O10      1.0000 0.02466  0.06384  0.98827  Biso   1.000  O
  O11      1.0000 0.03559  0.56653  0.44607  Biso   1.000  O
  O12      1.0000 0.03238  0.56860  0.94905  Biso   1.000  O
  O13      1.0000 0.53503  0.06697  0.44150  Biso   1.000  O
  O14      1.0000 0.53529  0.06585  0.94646  Biso   1.000  O
  O15      1.0000 0.53780  0.56658  0.44185  Biso   1.000  O
  O16      1.0000 0.53638  0.56665  0.94513  Biso   1.000  O
  O17      1.0000 0.46287  0.43301  0.19514  Biso   1.000  O
  O18      1.0000 0.46480  0.43413  0.69377  Biso   1.000  O
  O19      1.0000 0.47384  0.93129  0.19829  Biso   1.000  O
  O20      1.0000 0.46306  0.93310  0.70128  Biso   1.000  O
  O21      1.0000 0.96728  0.42361  0.19806  Biso   1.000  O
  O22      1.0000 0.96877  0.42812  0.69488  Biso   1.000  O
  O23      1.0000 0.97373  0.95987  0.17674  Biso   1.000  O
  O24      1.0000 0.96358  0.93050  0.69245  Biso   1.000  O
  O25      1.0000 0.46532  0.31672  0.44679  Biso   1.000  O
  O26      1.0000 0.46632  0.31810  0.94167  Biso   1.000  O
  O27      1.0000 0.47204  0.81876  0.45272  Biso   1.000  O
  O28      1.0000 0.47012  0.81855  0.94798  Biso   1.000  O
  O29      1.0000 0.96849  0.31369  0.44558  Biso   1.000  O
  O30      1.0000 0.96726  0.31758  0.94950  Biso   1.000  O
  O31      1.0000 0.96673  0.82074  0.43882  Biso   1.000  O
  O32      1.0000 0.96325  0.81825  0.93747  Biso   1.000  O
  O33      1.0000 0.28547  0.13118  0.26124  Biso   1.000  O
  O34      1.0000 0.26589  0.11698  0.75171  Biso   1.000  O
  O35      1.0000 0.26780  0.61282  0.24956  Biso   1.000  O
  O36      1.0000 0.27001  0.61819  0.75080  Biso   1.000  O
  O37      1.0000 0.77559  0.11978  0.24655  Biso   1.000  O
  O38      1.0000 0.76227  0.11152  0.74337  Biso   1.000  O
  O39      1.0000 0.77331  0.61513  0.24526  Biso   1.000  O
  O40      1.0000 0.77109  0.61364  0.74524  Biso   1.000  O
  O41      1.0000 0.26754  0.13209  0.50684  Biso   1.000  O
  O42      1.0000 0.27448  0.13842  0.99444  Biso   1.000  O
  O43      1.0000 0.27247  0.63246  0.49994  Biso   1.000  O
  O44      1.0000 0.27148  0.62741  0.00120  Biso   1.000  O
  O45      1.0000 0.76890  0.13291  0.49698  Biso   1.000  O
  O46      1.0000 0.77185  0.13324  0.99318  Biso   1.000  O
  O47      1.0000 0.76960  0.63379  0.49528  Biso   1.000  O
  O48      1.0000 0.76905  0.63331  0.99597  Biso   1.000  O
  O49      1.0000 0.23141  0.38118  0.50024  Biso   1.000  O
  O50      1.0000 0.23169  0.38387  0.00148  Biso   1.000  O
  O51      1.0000 0.23100  0.88288  0.50243  Biso   1.000  O
  O52      1.0000 0.23410  0.87157  0.99726  Biso   1.000  O
  O53      1.0000 0.73318  0.38178  0.49860  Biso   1.000  O
  O54      1.0000 0.72990  0.38425  0.99742  Biso   1.000  O
  O55      1.0000 0.73255  0.88402  0.49674  Biso   1.000  O
  O56      1.0000 0.73177  0.88359  0.99482  Biso   1.000  O
  O57      1.0000 0.22619  0.36759  0.24904  Biso   1.000  O
  O58      1.0000 0.23014  0.36659  0.75198  Biso   1.000  O
  O59      1.0000 0.24575  0.85626  0.25936  Biso   1.000  O
  O60      1.0000 0.22796  0.86902  0.74981  Biso   1.000  O
  O61      1.0000 0.72684  0.37111  0.24922  Biso   1.000  O
  O62      1.0000 0.73339  0.36305  0.74726  Biso   1.000  O
  O63      1.0000 0.74895  0.86797  0.24508  Biso   1.000  O
  O64      1.0000 0.73136  0.86395  0.74550  Biso   1.000  O
