data_image0
_cell_length_a       10.113
_cell_length_b       10.2564
_cell_length_c       5.07421
_cell_angle_alpha    89.9999
_cell_angle_beta     90.0002
_cell_angle_gamma    90.0005

_symmetry_space_group_name_H-M    "P 1"
_symmetry_int_tables_number       1

loop_
  _symmetry_equiv_pos_as_xyz
  'x, y, z'

loop_
  _atom_site_label
  _atom_site_occupancy
  _atom_site_fract_x
  _atom_site_fract_y
  _atom_site_fract_z
  _atom_site_thermal_displace_type
  _atom_site_B_iso_or_equiv
  _atom_site_type_symbol
  Zr1      1.0000 0.12541  0.98271  0.25081  Biso   1.000  Zr
  Zr2      1.0000 0.12540  0.25008  0.75077  Biso   1.000  Zr
  Zr3      1.0000 0.39464  0.25008  0.25079  Biso   1.000  Zr
  Zr4      1.0000 0.37134  0.00484  0.75428  Biso   1.000  Zr
  O1       1.0000 0.99089  0.14975  0.98471  Biso   1.000  O
  O2       1.0000 0.00628  0.10185  0.48578  Biso   1.000  O
  O3       1.0000 0.99090  0.35042  0.51681  Biso   1.000  O
  O4       1.0000 0.00630  0.39832  0.01575  Biso   1.000  O
  O5       1.0000 0.25989  0.14973  0.51681  Biso   1.000  O
  O6       1.0000 0.24449  0.10184  0.01575  Biso   1.000  O
  O7       1.0000 0.25990  0.35040  0.98471  Biso   1.000  O
  O8       1.0000 0.24451  0.39830  0.48579  Biso   1.000  O
  Zr5      1.0000 0.12539  0.51744  0.25081  Biso   1.000  Zr
  Zr6      1.0000 0.12539  0.75008  0.75081  Biso   1.000  Zr
  Zr7      1.0000 0.38082  0.75007  0.25080  Biso   1.000  Zr
  Zr8      1.0000 0.37134  0.49530  0.74731  Biso   1.000  Zr
  O9       1.0000 0.99986  0.64756  0.00078  Biso   1.000  O
  O10      1.0000 0.99980  0.60654  0.50336  Biso   1.000  O
  O11      1.0000 0.99986  0.85260  0.50084  Biso   1.000  O
  O12      1.0000 0.99980  0.89363  0.99825  Biso   1.000  O
  O13      1.0000 0.25093  0.64756  0.50084  Biso   1.000  O
  O14      1.0000 0.25099  0.60652  0.99825  Biso   1.000  O
  O15      1.0000 0.25093  0.85259  0.00078  Biso   1.000  O
  O16      1.0000 0.25100  0.89361  0.50336  Biso   1.000  O
  Zr9      1.0000 0.62539  0.99514  0.25080  Biso   1.000  Zr
  Zr10     1.0000 0.62540  0.25008  0.75080  Biso   1.000  Zr
  Zr11     1.0000 0.85615  0.25007  0.25080  Biso   1.000  Zr
  Zr12     1.0000 0.87946  0.00485  0.74731  Biso   1.000  Zr
  O17      1.0000 0.49674  0.14202  0.97965  Biso   1.000  O
  O18      1.0000 0.50292  0.10453  0.48945  Biso   1.000  O
  O19      1.0000 0.49674  0.35813  0.52194  Biso   1.000  O
  O20      1.0000 0.50293  0.39562  0.01214  Biso   1.000  O
  O21      1.0000 0.75405  0.14203  0.52194  Biso   1.000  O
  O22      1.0000 0.74787  0.10453  0.01214  Biso   1.000  O
  O23      1.0000 0.75406  0.35813  0.97966  Biso   1.000  O
  O24      1.0000 0.74787  0.39562  0.48945  Biso   1.000  O
  Zr13     1.0000 0.62540  0.50501  0.25080  Biso   1.000  Zr
  Zr14     1.0000 0.62539  0.75008  0.75080  Biso   1.000  Zr
  Zr15     1.0000 0.86997  0.75008  0.25080  Biso   1.000  Zr
  Zr16     1.0000 0.87945  0.49530  0.75428  Biso   1.000  Zr
  O25      1.0000 0.50092  0.64528  0.99563  Biso   1.000  O
  O26      1.0000 0.49831  0.60504  0.49505  Biso   1.000  O
  O27      1.0000 0.50092  0.85486  0.50595  Biso   1.000  O
  O28      1.0000 0.49830  0.89511  0.00653  Biso   1.000  O
  O29      1.0000 0.74987  0.64529  0.50596  Biso   1.000  O
  O30      1.0000 0.75249  0.60504  0.00653  Biso   1.000  O
  O31      1.0000 0.74987  0.85487  0.99564  Biso   1.000  O
  O32      1.0000 0.75249  0.89511  0.49505  Biso   1.000  O
  Na1      1.0000 0.12540  0.25008  0.25076  Biso   1.000  Na
