data_image0
_cell_length_a       10.1176
_cell_length_b       10.1379
_cell_length_c       5.12831
_cell_angle_alpha    89.9995
_cell_angle_beta     90.0012
_cell_angle_gamma    89.9998

_symmetry_space_group_name_H-M    "P 1"
_symmetry_int_tables_number       1

loop_
  _symmetry_equiv_pos_as_xyz
  'x, y, z'

loop_
  _atom_site_label
  _atom_site_occupancy
  _atom_site_fract_x
  _atom_site_fract_y
  _atom_site_fract_z
  _atom_site_thermal_displace_type
  _atom_site_B_iso_or_equiv
  _atom_site_type_symbol
  Zr1      1.0000 0.12540  0.98346  0.25080  Biso   1.000  Zr
  Zr2      1.0000 0.12540  0.25008  0.75079  Biso   1.000  Zr
  Zr3      1.0000 0.39748  0.25009  0.25079  Biso   1.000  Zr
  Zr4      1.0000 0.37293  0.00087  0.75082  Biso   1.000  Zr
  O1       1.0000 0.00429  0.12912  0.99113  Biso   1.000  O
  O2       1.0000 0.99894  0.12211  0.47926  Biso   1.000  O
  O3       1.0000 0.00429  0.37105  0.51044  Biso   1.000  O
  O4       1.0000 0.99893  0.37807  0.02230  Biso   1.000  O
  O5       1.0000 0.24650  0.12912  0.51045  Biso   1.000  O
  O6       1.0000 0.25185  0.12211  0.02232  Biso   1.000  O
  O7       1.0000 0.24650  0.37105  0.99113  Biso   1.000  O
  O8       1.0000 0.25186  0.37807  0.47926  Biso   1.000  O
  Zr5      1.0000 0.12540  0.51672  0.25080  Biso   1.000  Zr
  Zr6      1.0000 0.12540  0.75008  0.75080  Biso   1.000  Zr
  Zr7      1.0000 0.38053  0.75009  0.25080  Biso   1.000  Zr
  Zr8      1.0000 0.37292  0.49929  0.75076  Biso   1.000  Zr
  O9       1.0000 0.00599  0.62915  0.97168  Biso   1.000  O
  O10      1.0000 0.99147  0.62305  0.47446  Biso   1.000  O
  O11      1.0000 0.00600  0.87103  0.52993  Biso   1.000  O
  O12      1.0000 0.99147  0.87712  0.02715  Biso   1.000  O
  O13      1.0000 0.24480  0.62914  0.52991  Biso   1.000  O
  O14      1.0000 0.25932  0.62305  0.02713  Biso   1.000  O
  O15      1.0000 0.24479  0.87103  0.97168  Biso   1.000  O
  O16      1.0000 0.25933  0.87712  0.47446  Biso   1.000  O
  Zr9      1.0000 0.62540  0.00165  0.25079  Biso   1.000  Zr
  Zr10     1.0000 0.62540  0.25008  0.75079  Biso   1.000  Zr
  Zr11     1.0000 0.85331  0.25009  0.25080  Biso   1.000  Zr
  Zr12     1.0000 0.87788  0.00088  0.75078  Biso   1.000  Zr
  O17      1.0000 0.50133  0.13040  0.96805  Biso   1.000  O
  O18      1.0000 0.49616  0.11117  0.48141  Biso   1.000  O
  O19      1.0000 0.50133  0.36977  0.53353  Biso   1.000  O
  O20      1.0000 0.49616  0.38901  0.02017  Biso   1.000  O
  O21      1.0000 0.74946  0.13039  0.53353  Biso   1.000  O
  O22      1.0000 0.75462  0.11118  0.02017  Biso   1.000  O
  O23      1.0000 0.74945  0.36979  0.96806  Biso   1.000  O
  O24      1.0000 0.75462  0.38899  0.48142  Biso   1.000  O
  Zr13     1.0000 0.62540  0.49852  0.25079  Biso   1.000  Zr
  Zr14     1.0000 0.62541  0.75006  0.75079  Biso   1.000  Zr
  Zr15     1.0000 0.87026  0.75008  0.25079  Biso   1.000  Zr
  Zr16     1.0000 0.87790  0.49927  0.75082  Biso   1.000  Zr
  O25      1.0000 0.50411  0.63326  0.96631  Biso   1.000  O
  O26      1.0000 0.49178  0.61432  0.46479  Biso   1.000  O
  O27      1.0000 0.50413  0.86692  0.53529  Biso   1.000  O
  O28      1.0000 0.49177  0.88586  0.03681  Biso   1.000  O
  O29      1.0000 0.74668  0.63324  0.53526  Biso   1.000  O
  O30      1.0000 0.75900  0.61434  0.03678  Biso   1.000  O
  O31      1.0000 0.74667  0.86694  0.96629  Biso   1.000  O
  O32      1.0000 0.75902  0.88584  0.46477  Biso   1.000  O
  Nb1      1.0000 0.12539  0.25009  0.25079  Biso   1.000  Nb
