data_image0
_cell_length_a       10.01
_cell_length_b       5.20723
_cell_length_c       10.0514
_cell_angle_alpha    89.9284
_cell_angle_beta     89.9117
_cell_angle_gamma    89.9843

_symmetry_space_group_name_H-M    "P 1"
_symmetry_int_tables_number       1

loop_
  _symmetry_equiv_pos_as_xyz
  'x, y, z'

loop_
  _atom_site_label
  _atom_site_occupancy
  _atom_site_fract_x
  _atom_site_fract_y
  _atom_site_fract_z
  _atom_site_thermal_displace_type
  _atom_site_B_iso_or_equiv
  _atom_site_type_symbol
  Nb1      1.0000 0.13557  0.03645  0.12652  Biso   1.000  Nb
  Zr1      1.0000 0.13382  0.03132  0.62606  Biso   1.000  Zr
  Zr2      1.0000 0.63475  0.03268  0.12541  Biso   1.000  Zr
  Zr3      1.0000 0.63334  0.03116  0.62522  Biso   1.000  Zr
  Zr4      1.0000 0.13345  0.46829  0.37512  Biso   1.000  Zr
  Zr5      1.0000 0.13320  0.46719  0.87729  Biso   1.000  Zr
  Zr6      1.0000 0.63476  0.46943  0.37481  Biso   1.000  Zr
  Zr7      1.0000 0.63317  0.46799  0.87543  Biso   1.000  Zr
  Zr8      1.0000 0.36569  0.53492  0.12571  Biso   1.000  Zr
  Zr9      1.0000 0.36576  0.53188  0.62575  Biso   1.000  Zr
  Zr10     1.0000 0.86794  0.53138  0.12387  Biso   1.000  Zr
  Zr11     1.0000 0.86590  0.53064  0.62611  Biso   1.000  Zr
  Zr12     1.0000 0.36607  0.96842  0.37528  Biso   1.000  Zr
  Zr13     1.0000 0.36464  0.96845  0.87645  Biso   1.000  Zr
  Zr14     1.0000 0.86721  0.96874  0.37525  Biso   1.000  Zr
  Zr15     1.0000 0.86663  0.96868  0.87555  Biso   1.000  Zr
  O1       1.0000 0.03880  0.36195  0.19189  Biso   1.000  O
  O2       1.0000 0.03391  0.36333  0.69850  Biso   1.000  O
  O3       1.0000 0.53601  0.36903  0.19368  Biso   1.000  O
  O4       1.0000 0.53561  0.36850  0.69377  Biso   1.000  O
  O5       1.0000 0.03441  0.13508  0.44697  Biso   1.000  O
  O6       1.0000 0.03586  0.12855  0.95385  Biso   1.000  O
  O7       1.0000 0.53589  0.13317  0.44336  Biso   1.000  O
  O8       1.0000 0.53495  0.13164  0.94403  Biso   1.000  O
  O9       1.0000 0.46475  0.86759  0.19425  Biso   1.000  O
  O10      1.0000 0.46315  0.86867  0.69418  Biso   1.000  O
  O11      1.0000 0.97232  0.86543  0.19257  Biso   1.000  O
  O12      1.0000 0.96434  0.86625  0.69487  Biso   1.000  O
  O13      1.0000 0.46440  0.63294  0.44363  Biso   1.000  O
  O14      1.0000 0.46155  0.63118  0.94376  Biso   1.000  O
  O15      1.0000 0.96514  0.63337  0.44530  Biso   1.000  O
  O16      1.0000 0.96192  0.62923  0.94203  Biso   1.000  O
  O17      1.0000 0.26910  0.23440  0.24697  Biso   1.000  O
  O18      1.0000 0.26954  0.23469  0.74964  Biso   1.000  O
  O19      1.0000 0.77164  0.23479  0.24861  Biso   1.000  O
  O20      1.0000 0.76868  0.23319  0.74907  Biso   1.000  O
  O21      1.0000 0.26986  0.26577  0.49839  Biso   1.000  O
  O22      1.0000 0.26855  0.26277  0.00101  Biso   1.000  O
  O23      1.0000 0.76979  0.26580  0.49877  Biso   1.000  O
  O24      1.0000 0.76942  0.26529  0.99867  Biso   1.000  O
  O25      1.0000 0.23020  0.76566  0.49915  Biso   1.000  O
  O26      1.0000 0.22544  0.76816  0.00124  Biso   1.000  O
  O27      1.0000 0.73042  0.76603  0.49840  Biso   1.000  O
  O28      1.0000 0.72964  0.76579  0.99843  Biso   1.000  O
  O29      1.0000 0.22801  0.73990  0.24832  Biso   1.000  O
  O30      1.0000 0.22969  0.73321  0.75009  Biso   1.000  O
  O31      1.0000 0.73335  0.73599  0.24803  Biso   1.000  O
  O32      1.0000 0.72967  0.73391  0.74870  Biso   1.000  O
