data_image0
_cell_length_a       9.90797
_cell_length_b       10.3583
_cell_length_c       4.98892
_cell_angle_alpha    90.6379
_cell_angle_beta     88.9774
_cell_angle_gamma    90.4074

_symmetry_space_group_name_H-M    "P 1"
_symmetry_int_tables_number       1

loop_
  _symmetry_equiv_pos_as_xyz
  'x, y, z'

loop_
  _atom_site_label
  _atom_site_occupancy
  _atom_site_fract_x
  _atom_site_fract_y
  _atom_site_fract_z
  _atom_site_thermal_displace_type
  _atom_site_B_iso_or_equiv
  _atom_site_type_symbol
  Ni1      1.0000 0.12695  0.04097  0.20984  Biso   1.000  Ni
  Hf1      1.0000 0.13457  0.51468  0.25240  Biso   1.000  Hf
  Hf2      1.0000 0.63178  0.01484  0.24518  Biso   1.000  Hf
  Hf3      1.0000 0.63457  0.51933  0.25570  Biso   1.000  Hf
  Hf4      1.0000 0.13204  0.23298  0.74289  Biso   1.000  Hf
  Hf5      1.0000 0.13309  0.73237  0.76084  Biso   1.000  Hf
  Hf6      1.0000 0.63201  0.23263  0.75044  Biso   1.000  Hf
  Hf7      1.0000 0.63455  0.73675  0.75399  Biso   1.000  Hf
  Hf8      1.0000 0.36613  0.26399  0.25202  Biso   1.000  Hf
  Hf9      1.0000 0.36528  0.76749  0.26543  Biso   1.000  Hf
  Hf10     1.0000 0.86265  0.26544  0.24251  Biso   1.000  Hf
  Hf11     1.0000 0.87617  0.77109  0.24155  Biso   1.000  Hf
  Hf12     1.0000 0.36645  0.48481  0.75266  Biso   1.000  Hf
  Hf13     1.0000 0.35825  0.98127  0.76140  Biso   1.000  Hf
  Hf14     1.0000 0.86350  0.48498  0.74858  Biso   1.000  Hf
  Hf15     1.0000 0.86966  0.98642  0.73587  Biso   1.000  Hf
  O1       1.0000 0.03844  0.18224  0.36978  Biso   1.000  O
  O2       1.0000 0.03748  0.68371  0.39195  Biso   1.000  O
  O3       1.0000 0.53215  0.18286  0.39559  Biso   1.000  O
  O4       1.0000 0.53456  0.68368  0.40132  Biso   1.000  O
  O5       1.0000 0.03473  0.06516  0.89885  Biso   1.000  O
  O6       1.0000 0.03326  0.56304  0.89523  Biso   1.000  O
  O7       1.0000 0.52924  0.06964  0.90081  Biso   1.000  O
  O8       1.0000 0.53684  0.56694  0.89288  Biso   1.000  O
  O9       1.0000 0.46395  0.43242  0.38836  Biso   1.000  O
  O10      1.0000 0.47080  0.93142  0.41017  Biso   1.000  O
  O11      1.0000 0.96450  0.42897  0.38741  Biso   1.000  O
  O12      1.0000 0.98149  0.94373  0.37221  Biso   1.000  O
  O13      1.0000 0.45932  0.31413  0.88783  Biso   1.000  O
  O14      1.0000 0.46432  0.82000  0.90766  Biso   1.000  O
  O15      1.0000 0.95949  0.31277  0.87316  Biso   1.000  O
  O16      1.0000 0.96136  0.81750  0.87360  Biso   1.000  O
  O17      1.0000 0.25898  0.10596  0.49295  Biso   1.000  O
  O18      1.0000 0.26835  0.60954  0.50256  Biso   1.000  O
  O19      1.0000 0.76857  0.11794  0.49006  Biso   1.000  O
  O20      1.0000 0.77203  0.61811  0.50023  Biso   1.000  O
  O21      1.0000 0.25914  0.13296  0.00574  Biso   1.000  O
  O22      1.0000 0.27002  0.63555  0.00402  Biso   1.000  O
  O23      1.0000 0.76902  0.13305  0.98811  Biso   1.000  O
  O24      1.0000 0.77011  0.63623  0.00196  Biso   1.000  O
  O25      1.0000 0.22715  0.38199  0.99608  Biso   1.000  O
  O26      1.0000 0.22169  0.89591  0.04503  Biso   1.000  O
  O27      1.0000 0.72793  0.38263  0.99969  Biso   1.000  O
  O28      1.0000 0.73094  0.88604  0.98846  Biso   1.000  O
  O29      1.0000 0.23015  0.36351  0.49737  Biso   1.000  O
  O30      1.0000 0.24611  0.85101  0.54535  Biso   1.000  O
  O31      1.0000 0.72702  0.36778  0.49727  Biso   1.000  O
  O32      1.0000 0.73943  0.86759  0.48891  Biso   1.000  O
