data_image0
_cell_length_a       10.0694
_cell_length_b       5.23562
_cell_length_c       10.1114
_cell_angle_alpha    89.9501
_cell_angle_beta     89.309
_cell_angle_gamma    90.0436

_symmetry_space_group_name_H-M    "P 1"
_symmetry_int_tables_number       1

loop_
  _symmetry_equiv_pos_as_xyz
  'x, y, z'

loop_
  _atom_site_label
  _atom_site_occupancy
  _atom_site_fract_x
  _atom_site_fract_y
  _atom_site_fract_z
  _atom_site_thermal_displace_type
  _atom_site_B_iso_or_equiv
  _atom_site_type_symbol
  Zr1      1.0000 0.13635  0.07032  0.12344  Biso   1.000  Zr
  Zr2      1.0000 0.13883  0.46567  0.38696  Biso   1.000  Zr
  Zr3      1.0000 0.36941  0.52967  0.12614  Biso   1.000  Zr
  Zr4      1.0000 0.36866  0.96698  0.37808  Biso   1.000  Zr
  O1       1.0000 0.01701  0.34608  0.21809  Biso   1.000  O
  O2       1.0000 0.03851  0.12934  0.44972  Biso   1.000  O
  O3       1.0000 0.46558  0.86443  0.19541  Biso   1.000  O
  O4       1.0000 0.46796  0.63305  0.44671  Biso   1.000  O
  O5       1.0000 0.27203  0.24125  0.25418  Biso   1.000  O
  O6       1.0000 0.27373  0.26205  0.50323  Biso   1.000  O
  O7       1.0000 0.23411  0.76377  0.50469  Biso   1.000  O
  O8       1.0000 0.23580  0.74027  0.25695  Biso   1.000  O
  Zr5      1.0000 0.13509  0.02924  0.62892  Biso   1.000  Zr
  Zr6      1.0000 0.13312  0.46250  0.87510  Biso   1.000  Zr
  Zr7      1.0000 0.36855  0.53118  0.62820  Biso   1.000  Zr
  Zr8      1.0000 0.36774  0.96309  0.87523  Biso   1.000  Zr
  O9       1.0000 0.03677  0.36724  0.69229  Biso   1.000  O
  O10      1.0000 0.03518  0.12824  0.94419  Biso   1.000  O
  O11      1.0000 0.46620  0.86759  0.69391  Biso   1.000  O
  O12      1.0000 0.46379  0.63113  0.94364  Biso   1.000  O
  O13      1.0000 0.26932  0.23200  0.75049  Biso   1.000  O
  O14      1.0000 0.28118  0.25196  0.99516  Biso   1.000  O
  O15      1.0000 0.22333  0.75622  0.00496  Biso   1.000  O
  O16      1.0000 0.23240  0.73279  0.75276  Biso   1.000  O
  Zr9      1.0000 0.63258  0.02851  0.12450  Biso   1.000  Zr
  Zr10     1.0000 0.63604  0.46679  0.37464  Biso   1.000  Zr
  Zr11     1.0000 0.85634  0.52683  0.11727  Biso   1.000  Zr
  Zr12     1.0000 0.87161  0.96970  0.37158  Biso   1.000  Zr
  O17      1.0000 0.53620  0.36402  0.19490  Biso   1.000  O
  O18      1.0000 0.53806  0.13199  0.44368  Biso   1.000  O
  O19      1.0000 0.96823  0.85655  0.18777  Biso   1.000  O
  O20      1.0000 0.96935  0.63895  0.44625  Biso   1.000  O
  O21      1.0000 0.76648  0.22619  0.24605  Biso   1.000  O
  O22      1.0000 0.77259  0.26902  0.49558  Biso   1.000  O
  O23      1.0000 0.73504  0.76920  0.49539  Biso   1.000  O
  O24      1.0000 0.73176  0.73151  0.24688  Biso   1.000  O
  Zr13     1.0000 0.63623  0.03000  0.62233  Biso   1.000  Zr
  Zr14     1.0000 0.63314  0.46368  0.87199  Biso   1.000  Zr
  Zr15     1.0000 0.86812  0.53234  0.62428  Biso   1.000  Zr
  Zr16     1.0000 0.86481  0.96405  0.87173  Biso   1.000  Zr
  O25      1.0000 0.53649  0.36507  0.69344  Biso   1.000  O
  O26      1.0000 0.53695  0.12895  0.94178  Biso   1.000  O
  O27      1.0000 0.96448  0.86804  0.69298  Biso   1.000  O
  O28      1.0000 0.95173  0.62420  0.92745  Biso   1.000  O
  O29      1.0000 0.76959  0.23240  0.74536  Biso   1.000  O
  O30      1.0000 0.76707  0.25928  0.99536  Biso   1.000  O
  O31      1.0000 0.72550  0.76056  0.99686  Biso   1.000  O
  O32      1.0000 0.72892  0.73363  0.74538  Biso   1.000  O
  Ni1      1.0000 0.10599  0.59066  0.12587  Biso   1.000  Ni
