data_image0
_cell_length_a       9.98713
_cell_length_b       5.05616
_cell_length_c       9.98712
_cell_angle_alpha    90.0001
_cell_angle_beta     90
_cell_angle_gamma    89.9995

_symmetry_space_group_name_H-M    "P 1"
_symmetry_int_tables_number       1

loop_
  _symmetry_equiv_pos_as_xyz
  'x, y, z'

loop_
  _atom_site_label
  _atom_site_occupancy
  _atom_site_fract_x
  _atom_site_fract_y
  _atom_site_fract_z
  _atom_site_thermal_displace_type
  _atom_site_B_iso_or_equiv
  _atom_site_type_symbol
  Os1      1.0000 0.12491  0.00011  0.12491  Biso   1.000  Os
  Hf1      1.0000 0.12491  0.50011  0.37139  Biso   1.000  Hf
  Hf2      1.0000 0.37139  0.50011  0.12491  Biso   1.000  Hf
  Hf3      1.0000 0.37383  0.99634  0.37383  Biso   1.000  Hf
  O1       1.0000 0.99972  0.27036  0.99972  Biso   1.000  O
  O2       1.0000 0.00537  0.22011  0.24444  Biso   1.000  O
  O3       1.0000 0.99972  0.72985  0.25010  Biso   1.000  O
  O4       1.0000 0.00537  0.78010  0.00537  Biso   1.000  O
  O5       1.0000 0.25010  0.27036  0.25010  Biso   1.000  O
  O6       1.0000 0.24445  0.22012  0.00537  Biso   1.000  O
  O7       1.0000 0.25010  0.72985  0.99972  Biso   1.000  O
  O8       1.0000 0.24444  0.78010  0.24444  Biso   1.000  O
  Hf4      1.0000 0.12491  0.00011  0.62491  Biso   1.000  Hf
  Hf5      1.0000 0.12491  0.50011  0.87843  Biso   1.000  Hf
  Hf6      1.0000 0.37557  0.50011  0.62491  Biso   1.000  Hf
  Hf7      1.0000 0.37383  0.00388  0.87599  Biso   1.000  Hf
  O9       1.0000 0.99437  0.29325  0.49342  Biso   1.000  O
  O10      1.0000 0.00285  0.20950  0.74767  Biso   1.000  O
  O11      1.0000 0.99437  0.70697  0.75640  Biso   1.000  O
  O12      1.0000 0.00285  0.79072  0.50215  Biso   1.000  O
  O13      1.0000 0.25544  0.29325  0.75640  Biso   1.000  O
  O14      1.0000 0.24696  0.20950  0.50215  Biso   1.000  O
  O15      1.0000 0.25545  0.70697  0.49342  Biso   1.000  O
  O16      1.0000 0.24697  0.79071  0.74767  Biso   1.000  O
  Hf8      1.0000 0.62491  0.00011  0.12491  Biso   1.000  Hf
  Hf9      1.0000 0.62491  0.50011  0.37557  Biso   1.000  Hf
  Hf10     1.0000 0.87842  0.50011  0.12491  Biso   1.000  Hf
  Hf11     1.0000 0.87599  0.00388  0.37383  Biso   1.000  Hf
  O17      1.0000 0.49342  0.29325  0.99437  Biso   1.000  O
  O18      1.0000 0.50214  0.20950  0.24696  Biso   1.000  O
  O19      1.0000 0.49342  0.70697  0.25545  Biso   1.000  O
  O20      1.0000 0.50215  0.79071  0.00285  Biso   1.000  O
  O21      1.0000 0.75640  0.29325  0.25545  Biso   1.000  O
  O22      1.0000 0.74767  0.20950  0.00285  Biso   1.000  O
  O23      1.0000 0.75640  0.70697  0.99437  Biso   1.000  O
  O24      1.0000 0.74767  0.79071  0.24696  Biso   1.000  O
  Hf12     1.0000 0.62491  0.00011  0.62491  Biso   1.000  Hf
  Hf13     1.0000 0.62491  0.50011  0.87425  Biso   1.000  Hf
  Hf14     1.0000 0.87424  0.50011  0.62491  Biso   1.000  Hf
  Hf15     1.0000 0.87599  0.99634  0.87599  Biso   1.000  Hf
  O25      1.0000 0.49497  0.28914  0.49497  Biso   1.000  O
  O26      1.0000 0.50284  0.21139  0.74698  Biso   1.000  O
  O27      1.0000 0.49497  0.71107  0.75485  Biso   1.000  O
  O28      1.0000 0.50284  0.78882  0.50284  Biso   1.000  O
  O29      1.0000 0.75485  0.28914  0.75485  Biso   1.000  O
  O30      1.0000 0.74698  0.21139  0.50284  Biso   1.000  O
  O31      1.0000 0.75485  0.71107  0.49497  Biso   1.000  O
  O32      1.0000 0.74698  0.78882  0.74698  Biso   1.000  O
