data_image0
_cell_length_a       10.0402
_cell_length_b       5.06079
_cell_length_c       10.0402
_cell_angle_alpha    90.0004
_cell_angle_beta     89.9966
_cell_angle_gamma    89.9998

_symmetry_space_group_name_H-M    "P 1"
_symmetry_int_tables_number       1

loop_
  _symmetry_equiv_pos_as_xyz
  'x, y, z'

loop_
  _atom_site_label
  _atom_site_occupancy
  _atom_site_fract_x
  _atom_site_fract_y
  _atom_site_fract_z
  _atom_site_thermal_displace_type
  _atom_site_B_iso_or_equiv
  _atom_site_type_symbol
  Os1      1.0000 0.12522  0.00030  0.12521  Biso   1.000  Os
  Zr1      1.0000 0.12522  0.00030  0.62522  Biso   1.000  Zr
  Zr2      1.0000 0.62522  0.00030  0.12522  Biso   1.000  Zr
  Zr3      1.0000 0.62522  0.00030  0.62522  Biso   1.000  Zr
  Zr4      1.0000 0.12522  0.50032  0.37200  Biso   1.000  Zr
  Zr5      1.0000 0.12522  0.50031  0.87843  Biso   1.000  Zr
  Zr6      1.0000 0.62522  0.50031  0.37593  Biso   1.000  Zr
  Zr7      1.0000 0.62522  0.50031  0.87450  Biso   1.000  Zr
  Zr8      1.0000 0.37200  0.50032  0.12522  Biso   1.000  Zr
  Zr9      1.0000 0.37593  0.50031  0.62522  Biso   1.000  Zr
  Zr10     1.0000 0.87843  0.50031  0.12522  Biso   1.000  Zr
  Zr11     1.0000 0.87450  0.50031  0.62522  Biso   1.000  Zr
  Zr12     1.0000 0.37414  0.99727  0.37414  Biso   1.000  Zr
  Zr13     1.0000 0.37414  0.00336  0.87631  Biso   1.000  Zr
  Zr14     1.0000 0.87631  0.00336  0.37414  Biso   1.000  Zr
  Zr15     1.0000 0.87630  0.99727  0.87630  Biso   1.000  Zr
  O1       1.0000 0.99945  0.26686  0.99944  Biso   1.000  O
  O2       1.0000 0.99322  0.28785  0.49232  Biso   1.000  O
  O3       1.0000 0.49232  0.28785  0.99322  Biso   1.000  O
  O4       1.0000 0.49378  0.28393  0.49377  Biso   1.000  O
  O5       1.0000 0.00718  0.22194  0.24326  Biso   1.000  O
  O6       1.0000 0.00439  0.21597  0.74703  Biso   1.000  O
  O7       1.0000 0.50341  0.21600  0.24604  Biso   1.000  O
  O8       1.0000 0.50433  0.21771  0.74610  Biso   1.000  O
  O9       1.0000 0.99945  0.73375  0.25099  Biso   1.000  O
  O10      1.0000 0.99322  0.71274  0.75812  Biso   1.000  O
  O11      1.0000 0.49232  0.71277  0.25722  Biso   1.000  O
  O12      1.0000 0.49378  0.71668  0.75666  Biso   1.000  O
  O13      1.0000 0.00717  0.77869  0.00717  Biso   1.000  O
  O14      1.0000 0.00439  0.78464  0.50341  Biso   1.000  O
  O15      1.0000 0.50340  0.78463  0.00440  Biso   1.000  O
  O16      1.0000 0.50433  0.78292  0.50433  Biso   1.000  O
  O17      1.0000 0.25099  0.26687  0.25100  Biso   1.000  O
  O18      1.0000 0.25722  0.28785  0.75811  Biso   1.000  O
  O19      1.0000 0.75811  0.28784  0.25722  Biso   1.000  O
  O20      1.0000 0.75666  0.28393  0.75666  Biso   1.000  O
  O21      1.0000 0.24327  0.22194  0.00718  Biso   1.000  O
  O22      1.0000 0.24604  0.21600  0.50341  Biso   1.000  O
  O23      1.0000 0.74703  0.21598  0.00440  Biso   1.000  O
  O24      1.0000 0.74610  0.21771  0.50433  Biso   1.000  O
  O25      1.0000 0.25099  0.73374  0.99944  Biso   1.000  O
  O26      1.0000 0.25721  0.71277  0.49232  Biso   1.000  O
  O27      1.0000 0.75812  0.71274  0.99322  Biso   1.000  O
  O28      1.0000 0.75666  0.71668  0.49378  Biso   1.000  O
  O29      1.0000 0.24326  0.77869  0.24326  Biso   1.000  O
  O30      1.0000 0.24604  0.78463  0.74703  Biso   1.000  O
  O31      1.0000 0.74703  0.78463  0.24603  Biso   1.000  O
  O32      1.0000 0.74610  0.78291  0.74610  Biso   1.000  O
