data_image0
_cell_length_a       10.1912
_cell_length_b       10.5399
_cell_length_c       5.06993
_cell_angle_alpha    89.7155
_cell_angle_beta     89.1744
_cell_angle_gamma    90.6646

_symmetry_space_group_name_H-M    "P 1"
_symmetry_int_tables_number       1

loop_
  _symmetry_equiv_pos_as_xyz
  'x, y, z'

loop_
  _atom_site_label
  _atom_site_occupancy
  _atom_site_fract_x
  _atom_site_fract_y
  _atom_site_fract_z
  _atom_site_thermal_displace_type
  _atom_site_B_iso_or_equiv
  _atom_site_type_symbol
  Zr1      1.0000 0.11239  0.94488  0.23540  Biso   1.000  Zr
  Zr2      1.0000 0.14387  0.28579  0.79650  Biso   1.000  Zr
  Zr3      1.0000 0.37189  0.24919  0.29257  Biso   1.000  Zr
  Zr4      1.0000 0.36032  0.99632  0.76345  Biso   1.000  Zr
  O1       1.0000 0.99826  0.16229  0.96068  Biso   1.000  O
  O2       1.0000 0.96300  0.05460  0.43346  Biso   1.000  O
  O3       1.0000 0.01445  0.31630  0.48696  Biso   1.000  O
  O4       1.0000 0.01694  0.41330  0.99332  Biso   1.000  O
  O5       1.0000 0.25303  0.15390  0.58153  Biso   1.000  O
  O6       1.0000 0.25621  0.08139  0.08054  Biso   1.000  O
  O7       1.0000 0.30150  0.37281  0.99878  Biso   1.000  O
  O8       1.0000 0.26444  0.40391  0.51955  Biso   1.000  O
  Zr5      1.0000 0.14621  0.49212  0.25772  Biso   1.000  Zr
  Zr6      1.0000 0.12537  0.72845  0.72965  Biso   1.000  Zr
  Zr7      1.0000 0.38560  0.76373  0.25237  Biso   1.000  Zr
  Zr8      1.0000 0.38896  0.51728  0.75075  Biso   1.000  Zr
  O9       1.0000 0.98445  0.65218  0.99120  Biso   1.000  O
  O10      1.0000 0.02663  0.56550  0.53402  Biso   1.000  O
  O11      1.0000 0.00647  0.80487  0.44278  Biso   1.000  O
  O12      1.0000 0.98444  0.89223  0.94478  Biso   1.000  O
  O13      1.0000 0.26307  0.64617  0.47166  Biso   1.000  O
  O14      1.0000 0.23567  0.59586  0.96250  Biso   1.000  O
  O15      1.0000 0.24247  0.83540  0.99624  Biso   1.000  O
  O16      1.0000 0.24550  0.88998  0.51428  Biso   1.000  O
  Zr9      1.0000 0.61243  0.01796  0.27161  Biso   1.000  Zr
  Zr10     1.0000 0.62377  0.26781  0.76768  Biso   1.000  Zr
  Zr11     1.0000 0.86680  0.24275  0.25459  Biso   1.000  Zr
  Zr12     1.0000 0.85409  0.00704  0.75177  Biso   1.000  Zr
  O17      1.0000 0.51232  0.17667  0.04103  Biso   1.000  O
  O18      1.0000 0.49168  0.11023  0.53785  Biso   1.000  O
  O19      1.0000 0.51341  0.36443  0.48246  Biso   1.000  O
  O20      1.0000 0.54165  0.43617  0.95023  Biso   1.000  O
  O21      1.0000 0.73857  0.15196  0.51972  Biso   1.000  O
  O22      1.0000 0.74750  0.11136  0.01893  Biso   1.000  O
  O23      1.0000 0.76738  0.36181  0.00318  Biso   1.000  O
  O24      1.0000 0.76820  0.39677  0.50293  Biso   1.000  O
  Zr13     1.0000 0.64344  0.49544  0.26815  Biso   1.000  Zr
  Zr14     1.0000 0.63208  0.74898  0.71145  Biso   1.000  Zr
  Zr15     1.0000 0.85573  0.75964  0.20049  Biso   1.000  Zr
  Zr16     1.0000 0.87769  0.50806  0.77481  Biso   1.000  Zr
  O25      1.0000 0.47998  0.68048  0.94414  Biso   1.000  O
  O26      1.0000 0.51609  0.61839  0.45609  Biso   1.000  O
  O27      1.0000 0.49586  0.86500  0.52892  Biso   1.000  O
  O28      1.0000 0.47743  0.92754  0.05005  Biso   1.000  O
  O29      1.0000 0.76740  0.64399  0.49250  Biso   1.000  O
  O30      1.0000 0.73918  0.61732  0.98946  Biso   1.000  O
  O31      1.0000 0.72983  0.86615  0.97589  Biso   1.000  O
  O32      1.0000 0.74563  0.89631  0.47808  Biso   1.000  O
  Os1      1.0000 0.12082  0.18158  0.28458  Biso   1.000  Os
