data_image0
_cell_length_a       9.93092
_cell_length_b       5.17721
_cell_length_c       9.99437
_cell_angle_alpha    90.1553
_cell_angle_beta     89.2508
_cell_angle_gamma    89.9056

_symmetry_space_group_name_H-M    "P 1"
_symmetry_int_tables_number       1

loop_
  _symmetry_equiv_pos_as_xyz
  'x, y, z'

loop_
  _atom_site_label
  _atom_site_occupancy
  _atom_site_fract_x
  _atom_site_fract_y
  _atom_site_fract_z
  _atom_site_thermal_displace_type
  _atom_site_B_iso_or_equiv
  _atom_site_type_symbol
  P1       1.0000 0.09108  0.06664  0.10726  Biso   1.000  P
  Hf1      1.0000 0.14707  0.46231  0.37876  Biso   1.000  Hf
  Hf2      1.0000 0.36020  0.53072  0.13050  Biso   1.000  Hf
  Hf3      1.0000 0.36268  0.96576  0.37313  Biso   1.000  Hf
  O1       1.0000 0.04228  0.34157  0.17921  Biso   1.000  O
  O2       1.0000 0.03888  0.13158  0.44735  Biso   1.000  O
  O3       1.0000 0.46990  0.86298  0.19774  Biso   1.000  O
  O4       1.0000 0.47036  0.63757  0.45352  Biso   1.000  O
  O5       1.0000 0.28444  0.25036  0.25987  Biso   1.000  O
  O6       1.0000 0.27321  0.26167  0.50859  Biso   1.000  O
  O7       1.0000 0.22960  0.75937  0.50624  Biso   1.000  O
  O8       1.0000 0.23835  0.72450  0.26037  Biso   1.000  O
  Hf4      1.0000 0.13636  0.03657  0.62958  Biso   1.000  Hf
  Hf5      1.0000 0.13806  0.47704  0.88150  Biso   1.000  Hf
  Hf6      1.0000 0.36701  0.53895  0.63094  Biso   1.000  Hf
  Hf7      1.0000 0.35962  0.96903  0.88650  Biso   1.000  Hf
  O9       1.0000 0.03323  0.36269  0.70214  Biso   1.000  O
  O10      1.0000 0.02969  0.12361  0.95979  Biso   1.000  O
  O11      1.0000 0.46224  0.87246  0.70030  Biso   1.000  O
  O12      1.0000 0.45948  0.63089  0.94298  Biso   1.000  O
  O13      1.0000 0.26965  0.24057  0.75712  Biso   1.000  O
  O14      1.0000 0.26178  0.26395  0.00618  Biso   1.000  O
  O15      1.0000 0.22268  0.76127  0.00684  Biso   1.000  O
  O16      1.0000 0.22684  0.74301  0.75561  Biso   1.000  O
  Hf8      1.0000 0.63352  0.03674  0.12746  Biso   1.000  Hf
  Hf9      1.0000 0.63461  0.47089  0.37314  Biso   1.000  Hf
  Hf10     1.0000 0.86302  0.53053  0.11701  Biso   1.000  Hf
  Hf11     1.0000 0.87083  0.97205  0.37645  Biso   1.000  Hf
  O17      1.0000 0.54365  0.37692  0.19155  Biso   1.000  O
  O18      1.0000 0.53890  0.13360  0.43965  Biso   1.000  O
  O19      1.0000 0.97811  0.88108  0.17648  Biso   1.000  O
  O20      1.0000 0.96691  0.62885  0.43423  Biso   1.000  O
  O21      1.0000 0.77877  0.23535  0.24529  Biso   1.000  O
  O22      1.0000 0.77182  0.26563  0.49518  Biso   1.000  O
  O23      1.0000 0.73476  0.76766  0.49717  Biso   1.000  O
  O24      1.0000 0.74184  0.73993  0.24666  Biso   1.000  O
  Hf12     1.0000 0.62887  0.02895  0.62037  Biso   1.000  Hf
  Hf13     1.0000 0.62814  0.46324  0.87399  Biso   1.000  Hf
  Hf14     1.0000 0.86897  0.52682  0.62072  Biso   1.000  Hf
  Hf15     1.0000 0.85796  0.95921  0.86760  Biso   1.000  Hf
  O25      1.0000 0.53582  0.36693  0.69392  Biso   1.000  O
  O26      1.0000 0.53353  0.13116  0.94820  Biso   1.000  O
  O27      1.0000 0.96399  0.86384  0.69178  Biso   1.000  O
  O28      1.0000 0.95953  0.62865  0.93853  Biso   1.000  O
  O29      1.0000 0.76696  0.22685  0.74425  Biso   1.000  O
  O30      1.0000 0.77019  0.26372  0.99482  Biso   1.000  O
  O31      1.0000 0.72665  0.76143  0.99764  Biso   1.000  O
  O32      1.0000 0.72926  0.72701  0.74664  Biso   1.000  O
