data_image0
_cell_length_a       10.098
_cell_length_b       5.18735
_cell_length_c       10.2596
_cell_angle_alpha    89.9258
_cell_angle_beta     90.6412
_cell_angle_gamma    85.5199

_symmetry_space_group_name_H-M    "P 1"
_symmetry_int_tables_number       1

loop_
  _symmetry_equiv_pos_as_xyz
  'x, y, z'

loop_
  _atom_site_label
  _atom_site_occupancy
  _atom_site_fract_x
  _atom_site_fract_y
  _atom_site_fract_z
  _atom_site_thermal_displace_type
  _atom_site_B_iso_or_equiv
  _atom_site_type_symbol
  Hf1      1.0000 0.13766  0.00384  0.10228  Biso   1.000  Hf
  Hf2      1.0000 0.14156  0.52420  0.40836  Biso   1.000  Hf
  Hf3      1.0000 0.34107  0.48184  0.13771  Biso   1.000  Hf
  Hf4      1.0000 0.35042  0.98682  0.36843  Biso   1.000  Hf
  O1       1.0000 0.05790  0.33849  0.98149  Biso   1.000  O
  O2       1.0000 0.96482  0.09021  0.20216  Biso   1.000  O
  O3       1.0000 0.95680  0.57548  0.31778  Biso   1.000  O
  O4       1.0000 0.03415  0.86439  0.94322  Biso   1.000  O
  O5       1.0000 0.22299  0.26665  0.27132  Biso   1.000  O
  O6       1.0000 0.31065  0.14482  0.03496  Biso   1.000  O
  O7       1.0000 0.27279  0.67975  0.96975  Biso   1.000  O
  O8       1.0000 0.22821  0.77746  0.25280  Biso   1.000  O
  Hf5      1.0000 0.10464  0.05355  0.63476  Biso   1.000  Hf
  Hf6      1.0000 0.11239  0.55468  0.82734  Biso   1.000  Hf
  Hf7      1.0000 0.37999  0.43653  0.64058  Biso   1.000  Hf
  Hf8      1.0000 0.37418  0.94249  0.86071  Biso   1.000  Hf
  O9       1.0000 0.03815  0.40958  0.55860  Biso   1.000  O
  O10      1.0000 0.97661  0.25435  0.76738  Biso   1.000  O
  O11      1.0000 0.97270  0.77157  0.71494  Biso   1.000  O
  O12      1.0000 0.05463  0.90129  0.46226  Biso   1.000  O
  O13      1.0000 0.24277  0.25551  0.76827  Biso   1.000  O
  O14      1.0000 0.26386  0.19539  0.51936  Biso   1.000  O
  O15      1.0000 0.31416  0.66198  0.47868  Biso   1.000  O
  O16      1.0000 0.23895  0.76506  0.71850  Biso   1.000  O
  Hf9      1.0000 0.59418  0.04706  0.14159  Biso   1.000  Hf
  Hf10     1.0000 0.59826  0.55090  0.36416  Biso   1.000  Hf
  Hf11     1.0000 0.84219  0.44804  0.15253  Biso   1.000  Hf
  Hf12     1.0000 0.87341  0.94133  0.36257  Biso   1.000  Hf
  O17      1.0000 0.52620  0.38994  0.04825  Biso   1.000  O
  O18      1.0000 0.47213  0.26378  0.27714  Biso   1.000  O
  O19      1.0000 0.47395  0.76088  0.22616  Biso   1.000  O
  O20      1.0000 0.54868  0.88295  0.96880  Biso   1.000  O
  O21      1.0000 0.72522  0.25033  0.28137  Biso   1.000  O
  O22      1.0000 0.75727  0.19174  0.01770  Biso   1.000  O
  O23      1.0000 0.80155  0.66905  0.98432  Biso   1.000  O
  O24      1.0000 0.72775  0.76064  0.23588  Biso   1.000  O
  Hf13     1.0000 0.64360  0.02052  0.60094  Biso   1.000  Hf
  Hf14     1.0000 0.63672  0.51935  0.90380  Biso   1.000  Hf
  Hf15     1.0000 0.84781  0.48348  0.63871  Biso   1.000  Hf
  Hf16     1.0000 0.84996  0.98100  0.86661  Biso   1.000  Hf
  O25      1.0000 0.55459  0.38275  0.53539  Biso   1.000  O
  O26      1.0000 0.47722  0.08994  0.71118  Biso   1.000  O
  O27      1.0000 0.47343  0.59648  0.78907  Biso   1.000  O
  O28      1.0000 0.53128  0.89247  0.45658  Biso   1.000  O
  O29      1.0000 0.72597  0.27073  0.76093  Biso   1.000  O
  O30      1.0000 0.81393  0.16587  0.52684  Biso   1.000  O
  O31      1.0000 0.75978  0.70186  0.48968  Biso   1.000  O
  O32      1.0000 0.72636  0.76922  0.74738  Biso   1.000  O
  P1       1.0000 0.06913  0.53353  0.10621  Biso   1.000  P
