data_image0
_cell_length_a       10.0847
_cell_length_b       5.23384
_cell_length_c       10.1985
_cell_angle_alpha    89.6471
_cell_angle_beta     89.5626
_cell_angle_gamma    90.9798

_symmetry_space_group_name_H-M    "P 1"
_symmetry_int_tables_number       1

loop_
  _symmetry_equiv_pos_as_xyz
  'x, y, z'

loop_
  _atom_site_label
  _atom_site_occupancy
  _atom_site_fract_x
  _atom_site_fract_y
  _atom_site_fract_z
  _atom_site_thermal_displace_type
  _atom_site_B_iso_or_equiv
  _atom_site_type_symbol
  Zr1      1.0000 0.13468  0.03518  0.11667  Biso   1.000  Zr
  Zr2      1.0000 0.13869  0.46270  0.39983  Biso   1.000  Zr
  Zr3      1.0000 0.36669  0.51634  0.12010  Biso   1.000  Zr
  Zr4      1.0000 0.37032  0.96778  0.37387  Biso   1.000  Zr
  O1       1.0000 0.02090  0.38144  0.22742  Biso   1.000  O
  O2       1.0000 0.03703  0.13134  0.45244  Biso   1.000  O
  O3       1.0000 0.46000  0.85997  0.19325  Biso   1.000  O
  O4       1.0000 0.46664  0.63093  0.44562  Biso   1.000  O
  O5       1.0000 0.26293  0.22288  0.25335  Biso   1.000  O
  O6       1.0000 0.27698  0.25801  0.50398  Biso   1.000  O
  O7       1.0000 0.23700  0.76489  0.50286  Biso   1.000  O
  O8       1.0000 0.22635  0.72073  0.25669  Biso   1.000  O
  Zr5      1.0000 0.13730  0.02121  0.62769  Biso   1.000  Zr
  Zr6      1.0000 0.13432  0.45419  0.86821  Biso   1.000  Zr
  Zr7      1.0000 0.37260  0.52868  0.62771  Biso   1.000  Zr
  Zr8      1.0000 0.37526  0.96469  0.87104  Biso   1.000  Zr
  O9       1.0000 0.03997  0.36576  0.68802  Biso   1.000  O
  O10      1.0000 0.03686  0.11745  0.94203  Biso   1.000  O
  O11      1.0000 0.46901  0.86359  0.69126  Biso   1.000  O
  O12      1.0000 0.46976  0.62740  0.94255  Biso   1.000  O
  O13      1.0000 0.26910  0.22668  0.74810  Biso   1.000  O
  O14      1.0000 0.28648  0.24344  0.98845  Biso   1.000  O
  O15      1.0000 0.23876  0.76781  0.99301  Biso   1.000  O
  O16      1.0000 0.23440  0.72607  0.74842  Biso   1.000  O
  Zr9      1.0000 0.63130  0.03683  0.12833  Biso   1.000  Zr
  Zr10     1.0000 0.63499  0.46992  0.37668  Biso   1.000  Zr
  Zr11     1.0000 0.85225  0.55031  0.11838  Biso   1.000  Zr
  Zr12     1.0000 0.86799  0.97839  0.37499  Biso   1.000  Zr
  O17      1.0000 0.53046  0.35723  0.19988  Biso   1.000  O
  O18      1.0000 0.53771  0.13035  0.44533  Biso   1.000  O
  O19      1.0000 0.95071  0.90324  0.19598  Biso   1.000  O
  O20      1.0000 0.97095  0.64435  0.45295  Biso   1.000  O
  O21      1.0000 0.76534  0.24828  0.24986  Biso   1.000  O
  O22      1.0000 0.77141  0.27274  0.49879  Biso   1.000  O
  O23      1.0000 0.73389  0.76763  0.49778  Biso   1.000  O
  O24      1.0000 0.72402  0.74482  0.24899  Biso   1.000  O
  Zr13     1.0000 0.63854  0.03128  0.62289  Biso   1.000  Zr
  Zr14     1.0000 0.63653  0.46458  0.87394  Biso   1.000  Zr
  Zr15     1.0000 0.86914  0.53717  0.62762  Biso   1.000  Zr
  Zr16     1.0000 0.86412  0.96632  0.87090  Biso   1.000  Zr
  O25      1.0000 0.53658  0.35926  0.69688  Biso   1.000  O
  O26      1.0000 0.54189  0.12856  0.94537  Biso   1.000  O
  O27      1.0000 0.96407  0.87334  0.69320  Biso   1.000  O
  O28      1.0000 0.94757  0.61773  0.91528  Biso   1.000  O
  O29      1.0000 0.77106  0.23525  0.74750  Biso   1.000  O
  O30      1.0000 0.76929  0.26687  0.00057  Biso   1.000  O
  O31      1.0000 0.72704  0.76846  0.99926  Biso   1.000  O
  O32      1.0000 0.72788  0.73742  0.74597  Biso   1.000  O
  P1       1.0000 0.10718  0.54872  0.11788  Biso   1.000  P
