data_image0
_cell_length_a       5.03689
_cell_length_b       10.4978
_cell_length_c       10.1814
_cell_angle_alpha    89.593
_cell_angle_beta     91.6979
_cell_angle_gamma    90.0084

_symmetry_space_group_name_H-M    "P 1"
_symmetry_int_tables_number       1

loop_
  _symmetry_equiv_pos_as_xyz
  'x, y, z'

loop_
  _atom_site_label
  _atom_site_occupancy
  _atom_site_fract_x
  _atom_site_fract_y
  _atom_site_fract_z
  _atom_site_thermal_displace_type
  _atom_site_B_iso_or_equiv
  _atom_site_type_symbol
  Zr1      1.0000 0.25702  0.01295  0.12450  Biso   1.000  Zr
  Zr2      1.0000 0.26006  0.22995  0.39180  Biso   1.000  Zr
  Zr3      1.0000 0.67189  0.26109  0.14818  Biso   1.000  Zr
  Zr4      1.0000 0.73557  0.48291  0.38500  Biso   1.000  Zr
  O1       1.0000 0.03292  0.17428  0.21379  Biso   1.000  O
  O2       1.0000 0.08077  0.05787  0.44583  Biso   1.000  O
  O3       1.0000 0.91378  0.43680  0.20491  Biso   1.000  O
  O4       1.0000 0.92277  0.31254  0.44762  Biso   1.000  O
  O5       1.0000 0.50591  0.11370  0.25773  Biso   1.000  O
  O6       1.0000 0.55610  0.13008  0.50373  Biso   1.000  O
  O7       1.0000 0.46136  0.37926  0.50605  Biso   1.000  O
  O8       1.0000 0.43815  0.37164  0.26501  Biso   1.000  O
  Zr5      1.0000 0.27826  0.00635  0.62407  Biso   1.000  Zr
  Zr6      1.0000 0.29513  0.22178  0.85289  Biso   1.000  Zr
  Zr7      1.0000 0.74904  0.26978  0.63259  Biso   1.000  Zr
  Zr8      1.0000 0.74107  0.48488  0.87096  Biso   1.000  Zr
  O9       1.0000 0.10316  0.17898  0.67118  Biso   1.000  O
  O10      1.0000 0.08711  0.06109  0.93858  Biso   1.000  O
  O11      1.0000 0.91226  0.44920  0.66796  Biso   1.000  O
  O12      1.0000 0.93462  0.31211  0.86604  Biso   1.000  O
  O13      1.0000 0.56142  0.11012  0.74809  Biso   1.000  O
  O14      1.0000 0.56228  0.12768  0.00314  Biso   1.000  O
  O15      1.0000 0.50325  0.38671  0.00531  Biso   1.000  O
  O16      1.0000 0.45748  0.37090  0.74872  Biso   1.000  O
  Zr9      1.0000 0.26715  0.52535  0.13304  Biso   1.000  Zr
  Zr10     1.0000 0.27214  0.73566  0.37838  Biso   1.000  Zr
  Zr11     1.0000 0.72704  0.76544  0.13052  Biso   1.000  Zr
  Zr12     1.0000 0.73574  0.98368  0.37802  Biso   1.000  Zr
  O17      1.0000 0.07481  0.68597  0.19735  Biso   1.000  O
  O18      1.0000 0.08216  0.56826  0.44108  Biso   1.000  O
  O19      1.0000 0.92537  0.93335  0.19632  Biso   1.000  O
  O20      1.0000 0.93750  0.81608  0.44975  Biso   1.000  O
  O21      1.0000 0.54685  0.62051  0.25659  Biso   1.000  O
  O22      1.0000 0.54378  0.63330  0.50427  Biso   1.000  O
  O23      1.0000 0.47423  0.88095  0.50038  Biso   1.000  O
  O24      1.0000 0.46064  0.86736  0.25083  Biso   1.000  O
  Zr13     1.0000 0.27401  0.51724  0.62403  Biso   1.000  Zr
  Zr14     1.0000 0.27107  0.73509  0.87808  Biso   1.000  Zr
  Zr15     1.0000 0.74220  0.76486  0.63022  Biso   1.000  Zr
  Zr16     1.0000 0.74100  0.97909  0.88193  Biso   1.000  Zr
  O25      1.0000 0.08016  0.68322  0.69877  Biso   1.000  O
  O26      1.0000 0.07413  0.56531  0.94793  Biso   1.000  O
  O27      1.0000 0.94549  0.92975  0.70141  Biso   1.000  O
  O28      1.0000 0.93574  0.81334  0.95235  Biso   1.000  O
  O29      1.0000 0.54517  0.61862  0.75377  Biso   1.000  O
  O30      1.0000 0.53619  0.63565  0.00462  Biso   1.000  O
  O31      1.0000 0.46328  0.88215  0.00262  Biso   1.000  O
  O32      1.0000 0.47608  0.86344  0.75259  Biso   1.000  O
  Pd1      1.0000 0.11463  0.30275  0.05921  Biso   1.000  Pd
