data_image0
_cell_length_a       10.0959
_cell_length_b       5.13249
_cell_length_c       10.0959
_cell_angle_alpha    90.9315
_cell_angle_beta     87.9306
_cell_angle_gamma    90.9306

_symmetry_space_group_name_H-M    "P 1"
_symmetry_int_tables_number       1

loop_
  _symmetry_equiv_pos_as_xyz
  'x, y, z'

loop_
  _atom_site_label
  _atom_site_occupancy
  _atom_site_fract_x
  _atom_site_fract_y
  _atom_site_fract_z
  _atom_site_thermal_displace_type
  _atom_site_B_iso_or_equiv
  _atom_site_type_symbol
  Pt1      1.0000 0.12928  0.90694  0.12928  Biso   1.000  Pt
  Zr1      1.0000 0.12932  0.48709  0.37393  Biso   1.000  Zr
  Zr2      1.0000 0.37393  0.48709  0.12932  Biso   1.000  Zr
  Zr3      1.0000 0.38302  0.00743  0.38302  Biso   1.000  Zr
  O1       1.0000 0.98080  0.32404  0.98080  Biso   1.000  O
  O2       1.0000 0.03570  0.15438  0.25230  Biso   1.000  O
  O3       1.0000 0.00874  0.66620  0.23646  Biso   1.000  O
  O4       1.0000 0.99294  0.83402  0.99294  Biso   1.000  O
  O5       1.0000 0.28630  0.32093  0.28629  Biso   1.000  O
  O6       1.0000 0.25230  0.15436  0.03569  Biso   1.000  O
  O7       1.0000 0.23645  0.66617  0.00875  Biso   1.000  O
  O8       1.0000 0.25820  0.81239  0.25820  Biso   1.000  O
  Zr4      1.0000 0.11846  0.98563  0.61963  Biso   1.000  Zr
  Zr5      1.0000 0.10873  0.51787  0.86294  Biso   1.000  Zr
  Zr6      1.0000 0.37157  0.50171  0.62822  Biso   1.000  Zr
  Zr7      1.0000 0.36773  0.00528  0.87947  Biso   1.000  Zr
  O9       1.0000 0.99743  0.28528  0.49286  Biso   1.000  O
  O10      1.0000 0.00243  0.22356  0.73926  Biso   1.000  O
  O11      1.0000 0.98763  0.72182  0.74426  Biso   1.000  O
  O12      1.0000 0.00338  0.78364  0.49079  Biso   1.000  O
  O13      1.0000 0.25957  0.31081  0.77743  Biso   1.000  O
  O14      1.0000 0.25473  0.20323  0.52098  Biso   1.000  O
  O15      1.0000 0.25210  0.70116  0.50394  Biso   1.000  O
  O16      1.0000 0.23834  0.80712  0.75392  Biso   1.000  O
  Zr8      1.0000 0.61962  0.98562  0.11846  Biso   1.000  Zr
  Zr9      1.0000 0.62822  0.50171  0.37157  Biso   1.000  Zr
  Zr10     1.0000 0.86294  0.51788  0.10874  Biso   1.000  Zr
  Zr11     1.0000 0.87948  0.00529  0.36773  Biso   1.000  Zr
  O17      1.0000 0.49287  0.28526  0.99743  Biso   1.000  O
  O18      1.0000 0.52098  0.20323  0.25473  Biso   1.000  O
  O19      1.0000 0.50394  0.70116  0.25210  Biso   1.000  O
  O20      1.0000 0.49079  0.78363  0.00337  Biso   1.000  O
  O21      1.0000 0.77745  0.31085  0.25959  Biso   1.000  O
  O22      1.0000 0.73926  0.22356  0.00244  Biso   1.000  O
  O23      1.0000 0.74426  0.72181  0.98763  Biso   1.000  O
  O24      1.0000 0.75392  0.80714  0.23834  Biso   1.000  O
  Zr12     1.0000 0.62459  0.00529  0.62459  Biso   1.000  Zr
  Zr13     1.0000 0.61472  0.50595  0.86934  Biso   1.000  Zr
  Zr14     1.0000 0.86934  0.50596  0.61472  Biso   1.000  Zr
  Zr15     1.0000 0.86987  0.02492  0.86988  Biso   1.000  Zr
  O25      1.0000 0.50183  0.29873  0.50183  Biso   1.000  O
  O26      1.0000 0.50065  0.21221  0.75116  Biso   1.000  O
  O27      1.0000 0.48983  0.71487  0.75615  Biso   1.000  O
  O28      1.0000 0.50414  0.79245  0.50413  Biso   1.000  O
  O29      1.0000 0.75130  0.30328  0.75130  Biso   1.000  O
  O30      1.0000 0.75116  0.21221  0.50066  Biso   1.000  O
  O31      1.0000 0.75615  0.71488  0.48983  Biso   1.000  O
  O32      1.0000 0.74264  0.80124  0.74264  Biso   1.000  O
