data_image0
_cell_length_a       10.1544
_cell_length_b       5.13715
_cell_length_c       10.1545
_cell_angle_alpha    89.9993
_cell_angle_beta     90.0486
_cell_angle_gamma    90.0001

_symmetry_space_group_name_H-M    "P 1"
_symmetry_int_tables_number       1

loop_
  _symmetry_equiv_pos_as_xyz
  'x, y, z'

loop_
  _atom_site_label
  _atom_site_occupancy
  _atom_site_fract_x
  _atom_site_fract_y
  _atom_site_fract_z
  _atom_site_thermal_displace_type
  _atom_site_B_iso_or_equiv
  _atom_site_type_symbol
  Rb1      1.0000 0.12548  0.99947  0.12548  Biso   1.000  Rb
  Zr1      1.0000 0.12548  0.99947  0.62549  Biso   1.000  Zr
  Zr2      1.0000 0.62548  0.99948  0.12548  Biso   1.000  Zr
  Zr3      1.0000 0.62547  0.99934  0.62548  Biso   1.000  Zr
  Zr4      1.0000 0.12474  0.49931  0.37816  Biso   1.000  Zr
  Zr5      1.0000 0.12621  0.49931  0.87280  Biso   1.000  Zr
  Zr6      1.0000 0.62526  0.49941  0.37552  Biso   1.000  Zr
  Zr7      1.0000 0.62571  0.49940  0.87544  Biso   1.000  Zr
  Zr8      1.0000 0.37816  0.49932  0.12474  Biso   1.000  Zr
  Zr9      1.0000 0.37551  0.49942  0.62525  Biso   1.000  Zr
  Zr10     1.0000 0.87281  0.49932  0.12622  Biso   1.000  Zr
  Zr11     1.0000 0.87543  0.49940  0.62571  Biso   1.000  Zr
  Zr12     1.0000 0.37786  0.00401  0.37787  Biso   1.000  Zr
  Zr13     1.0000 0.37802  0.99464  0.87295  Biso   1.000  Zr
  Zr14     1.0000 0.87295  0.99463  0.37803  Biso   1.000  Zr
  Zr15     1.0000 0.87309  0.00399  0.87309  Biso   1.000  Zr
  O1       1.0000 0.99277  0.29860  0.99277  Biso   1.000  O
  O2       1.0000 0.00575  0.29161  0.51054  Biso   1.000  O
  O3       1.0000 0.51054  0.29162  0.00576  Biso   1.000  O
  O4       1.0000 0.50318  0.29370  0.50318  Biso   1.000  O
  O5       1.0000 0.98411  0.24428  0.26684  Biso   1.000  O
  O6       1.0000 0.99813  0.20544  0.75235  Biso   1.000  O
  O7       1.0000 0.49860  0.20544  0.25282  Biso   1.000  O
  O8       1.0000 0.49970  0.20637  0.75124  Biso   1.000  O
  O9       1.0000 0.99171  0.70190  0.25924  Biso   1.000  O
  O10      1.0000 0.00582  0.70701  0.74128  Biso   1.000  O
  O11      1.0000 0.50966  0.70701  0.24514  Biso   1.000  O
  O12      1.0000 0.50365  0.70456  0.74731  Biso   1.000  O
  O13      1.0000 0.98509  0.75421  0.98508  Biso   1.000  O
  O14      1.0000 0.99768  0.79286  0.49952  Biso   1.000  O
  O15      1.0000 0.49952  0.79286  0.99767  Biso   1.000  O
  O16      1.0000 0.49948  0.79236  0.49947  Biso   1.000  O
  O17      1.0000 0.25818  0.29860  0.25818  Biso   1.000  O
  O18      1.0000 0.24517  0.29165  0.74039  Biso   1.000  O
  O19      1.0000 0.74040  0.29165  0.24517  Biso   1.000  O
  O20      1.0000 0.74776  0.29366  0.74776  Biso   1.000  O
  O21      1.0000 0.26683  0.24429  0.98410  Biso   1.000  O
  O22      1.0000 0.25281  0.20545  0.49860  Biso   1.000  O
  O23      1.0000 0.75233  0.20543  0.99812  Biso   1.000  O
  O24      1.0000 0.75123  0.20636  0.49970  Biso   1.000  O
  O25      1.0000 0.25923  0.70190  0.99171  Biso   1.000  O
  O26      1.0000 0.24514  0.70702  0.50966  Biso   1.000  O
  O27      1.0000 0.74129  0.70700  0.00583  Biso   1.000  O
  O28      1.0000 0.74732  0.70455  0.50365  Biso   1.000  O
  O29      1.0000 0.26587  0.75421  0.26587  Biso   1.000  O
  O30      1.0000 0.25330  0.79289  0.75142  Biso   1.000  O
  O31      1.0000 0.75142  0.79289  0.25330  Biso   1.000  O
  O32      1.0000 0.75148  0.79234  0.75149  Biso   1.000  O
