data_image0
_cell_length_a       10.172
_cell_length_b       5.2556
_cell_length_c       10.1704
_cell_angle_alpha    90.3105
_cell_angle_beta     89.5847
_cell_angle_gamma    90.045

_symmetry_space_group_name_H-M    "P 1"
_symmetry_int_tables_number       1

loop_
  _symmetry_equiv_pos_as_xyz
  'x, y, z'

loop_
  _atom_site_label
  _atom_site_occupancy
  _atom_site_fract_x
  _atom_site_fract_y
  _atom_site_fract_z
  _atom_site_thermal_displace_type
  _atom_site_B_iso_or_equiv
  _atom_site_type_symbol
  Rb1      1.0000 0.09057  0.97715  0.14720  Biso   1.000  Rb
  Zr1      1.0000 0.13931  0.03532  0.62305  Biso   1.000  Zr
  Zr2      1.0000 0.62946  0.03301  0.11246  Biso   1.000  Zr
  Zr3      1.0000 0.63065  0.02792  0.62440  Biso   1.000  Zr
  Zr4      1.0000 0.14237  0.47761  0.37640  Biso   1.000  Zr
  Zr5      1.0000 0.14448  0.46631  0.87649  Biso   1.000  Zr
  Zr6      1.0000 0.63264  0.45641  0.37603  Biso   1.000  Zr
  Zr7      1.0000 0.62901  0.47622  0.86550  Biso   1.000  Zr
  Zr8      1.0000 0.36642  0.51296  0.12406  Biso   1.000  Zr
  Zr9      1.0000 0.36794  0.53687  0.62403  Biso   1.000  Zr
  Zr10     1.0000 0.88756  0.47999  0.07960  Biso   1.000  Zr
  Zr11     1.0000 0.87525  0.53997  0.62313  Biso   1.000  Zr
  Zr12     1.0000 0.37104  0.96952  0.36895  Biso   1.000  Zr
  Zr13     1.0000 0.36210  0.96268  0.88068  Biso   1.000  Zr
  Zr14     1.0000 0.86737  0.99271  0.39182  Biso   1.000  Zr
  Zr15     1.0000 0.86386  0.97808  0.86596  Biso   1.000  Zr
  O1       1.0000 0.03564  0.45662  0.20569  Biso   1.000  O
  O2       1.0000 0.03880  0.37118  0.69357  Biso   1.000  O
  O3       1.0000 0.53963  0.35433  0.19942  Biso   1.000  O
  O4       1.0000 0.53353  0.36321  0.69264  Biso   1.000  O
  O5       1.0000 0.03895  0.14371  0.44242  Biso   1.000  O
  O6       1.0000 0.99726  0.22332  0.94978  Biso   1.000  O
  O7       1.0000 0.53981  0.13096  0.44687  Biso   1.000  O
  O8       1.0000 0.52755  0.14742  0.94251  Biso   1.000  O
  O9       1.0000 0.47334  0.85842  0.19541  Biso   1.000  O
  O10      1.0000 0.47093  0.86006  0.70284  Biso   1.000  O
  O11      1.0000 0.83907  0.71716  0.24227  Biso   1.000  O
  O12      1.0000 0.96788  0.87889  0.69283  Biso   1.000  O
  O13      1.0000 0.47777  0.63549  0.45382  Biso   1.000  O
  O14      1.0000 0.48072  0.65231  0.95317  Biso   1.000  O
  O15      1.0000 0.98022  0.66051  0.45589  Biso   1.000  O
  O16      1.0000 0.98677  0.69744  0.94244  Biso   1.000  O
  O17      1.0000 0.28461  0.23749  0.25562  Biso   1.000  O
  O18      1.0000 0.27051  0.23426  0.74858  Biso   1.000  O
  O19      1.0000 0.78111  0.20377  0.23729  Biso   1.000  O
  O20      1.0000 0.76858  0.23597  0.73926  Biso   1.000  O
  O21      1.0000 0.27315  0.27081  0.50182  Biso   1.000  O
  O22      1.0000 0.27177  0.25406  0.99314  Biso   1.000  O
  O23      1.0000 0.77168  0.27879  0.49626  Biso   1.000  O
  O24      1.0000 0.75341  0.25942  0.98518  Biso   1.000  O
  O25      1.0000 0.24055  0.77656  0.50047  Biso   1.000  O
  O26      1.0000 0.24645  0.72959  0.99430  Biso   1.000  O
  O27      1.0000 0.73738  0.77241  0.49662  Biso   1.000  O
  O28      1.0000 0.74555  0.75948  0.99441  Biso   1.000  O
  O29      1.0000 0.25962  0.70317  0.26275  Biso   1.000  O
  O30      1.0000 0.23173  0.74004  0.74680  Biso   1.000  O
  O31      1.0000 0.69887  0.73856  0.23836  Biso   1.000  O
  O32      1.0000 0.73470  0.73515  0.74391  Biso   1.000  O
