data_image0
_cell_length_a       10.0531
_cell_length_b       5.04298
_cell_length_c       10.0531
_cell_angle_alpha    90.0003
_cell_angle_beta     89.9991
_cell_angle_gamma    89.9998

_symmetry_space_group_name_H-M    "P 1"
_symmetry_int_tables_number       1

loop_
  _symmetry_equiv_pos_as_xyz
  'x, y, z'

loop_
  _atom_site_label
  _atom_site_occupancy
  _atom_site_fract_x
  _atom_site_fract_y
  _atom_site_fract_z
  _atom_site_thermal_displace_type
  _atom_site_B_iso_or_equiv
  _atom_site_type_symbol
  Ru1      1.0000 0.12523  0.00013  0.12519  Biso   1.000  Ru
  Zr1      1.0000 0.12523  0.00013  0.62520  Biso   1.000  Zr
  Zr2      1.0000 0.62523  0.00013  0.12520  Biso   1.000  Zr
  Zr3      1.0000 0.62523  0.00013  0.62520  Biso   1.000  Zr
  Zr4      1.0000 0.12523  0.50014  0.37220  Biso   1.000  Zr
  Zr5      1.0000 0.12523  0.50013  0.87819  Biso   1.000  Zr
  Zr6      1.0000 0.62523  0.50013  0.37582  Biso   1.000  Zr
  Zr7      1.0000 0.62523  0.50013  0.87458  Biso   1.000  Zr
  Zr8      1.0000 0.37224  0.50013  0.12520  Biso   1.000  Zr
  Zr9      1.0000 0.37585  0.50013  0.62520  Biso   1.000  Zr
  Zr10     1.0000 0.87823  0.50013  0.12520  Biso   1.000  Zr
  Zr11     1.0000 0.87461  0.50013  0.62520  Biso   1.000  Zr
  Zr12     1.0000 0.37412  0.99954  0.37410  Biso   1.000  Zr
  Zr13     1.0000 0.37413  0.00072  0.87631  Biso   1.000  Zr
  Zr14     1.0000 0.87634  0.00072  0.37409  Biso   1.000  Zr
  Zr15     1.0000 0.87633  0.99955  0.87630  Biso   1.000  Zr
  O1       1.0000 0.99430  0.26861  0.99426  Biso   1.000  O
  O2       1.0000 0.98952  0.28095  0.48781  Biso   1.000  O
  O3       1.0000 0.48785  0.28095  0.98949  Biso   1.000  O
  O4       1.0000 0.49003  0.27702  0.48999  Biso   1.000  O
  O5       1.0000 0.01088  0.22306  0.23955  Biso   1.000  O
  O6       1.0000 0.00731  0.22498  0.74309  Biso   1.000  O
  O7       1.0000 0.50733  0.22499  0.24312  Biso   1.000  O
  O8       1.0000 0.50753  0.22680  0.74290  Biso   1.000  O
  O9       1.0000 0.99431  0.73167  0.25612  Biso   1.000  O
  O10      1.0000 0.98952  0.71932  0.76258  Biso   1.000  O
  O11      1.0000 0.48785  0.71932  0.26091  Biso   1.000  O
  O12      1.0000 0.49003  0.72324  0.76041  Biso   1.000  O
  O13      1.0000 0.01087  0.77722  0.01084  Biso   1.000  O
  O14      1.0000 0.00731  0.77529  0.50730  Biso   1.000  O
  O15      1.0000 0.50733  0.77528  0.00728  Biso   1.000  O
  O16      1.0000 0.50753  0.77346  0.50751  Biso   1.000  O
  O17      1.0000 0.25617  0.26863  0.25614  Biso   1.000  O
  O18      1.0000 0.26094  0.28095  0.76258  Biso   1.000  O
  O19      1.0000 0.76261  0.28095  0.26091  Biso   1.000  O
  O20      1.0000 0.76043  0.27701  0.76040  Biso   1.000  O
  O21      1.0000 0.23959  0.22306  0.01085  Biso   1.000  O
  O22      1.0000 0.24315  0.22499  0.50731  Biso   1.000  O
  O23      1.0000 0.74313  0.22498  0.00728  Biso   1.000  O
  O24      1.0000 0.74293  0.22680  0.50750  Biso   1.000  O
  O25      1.0000 0.25616  0.73167  0.99427  Biso   1.000  O
  O26      1.0000 0.26094  0.71932  0.48782  Biso   1.000  O
  O27      1.0000 0.76261  0.71932  0.98948  Biso   1.000  O
  O28      1.0000 0.76043  0.72325  0.48999  Biso   1.000  O
  O29      1.0000 0.23959  0.77723  0.23955  Biso   1.000  O
  O30      1.0000 0.24315  0.77528  0.74310  Biso   1.000  O
  O31      1.0000 0.74313  0.77529  0.24311  Biso   1.000  O
  O32      1.0000 0.74293  0.77346  0.74289  Biso   1.000  O
