data_image0
_cell_length_a       5.11696
_cell_length_b       10.3685
_cell_length_c       10.2061
_cell_angle_alpha    88.2771
_cell_angle_beta     87.0066
_cell_angle_gamma    91.5733

_symmetry_space_group_name_H-M    "P 1"
_symmetry_int_tables_number       1

loop_
  _symmetry_equiv_pos_as_xyz
  'x, y, z'

loop_
  _atom_site_label
  _atom_site_occupancy
  _atom_site_fract_x
  _atom_site_fract_y
  _atom_site_fract_z
  _atom_site_thermal_displace_type
  _atom_site_B_iso_or_equiv
  _atom_site_type_symbol
  Zr1      1.0000 0.26955  0.95200  0.12390  Biso   1.000  Zr
  Zr2      1.0000 0.33009  0.23435  0.36309  Biso   1.000  Zr
  Zr3      1.0000 0.75100  0.28225  0.12023  Biso   1.000  Zr
  Zr4      1.0000 0.79767  0.99622  0.37472  Biso   1.000  Zr
  O1       1.0000 0.87135  0.15822  0.97431  Biso   1.000  O
  O2       1.0000 0.13621  0.07620  0.26420  Biso   1.000  O
  O3       1.0000 0.08204  0.32889  0.22861  Biso   1.000  O
  O4       1.0000 0.97614  0.41638  0.98881  Biso   1.000  O
  O5       1.0000 0.66776  0.15548  0.27945  Biso   1.000  O
  O6       1.0000 0.38870  0.07811  0.96870  Biso   1.000  O
  O7       1.0000 0.44709  0.34115  0.99806  Biso   1.000  O
  O8       1.0000 0.53955  0.40271  0.25431  Biso   1.000  O
  Zr5      1.0000 0.23918  0.02079  0.63490  Biso   1.000  Zr
  Zr6      1.0000 0.18592  0.26158  0.85976  Biso   1.000  Zr
  Zr7      1.0000 0.75043  0.24325  0.60399  Biso   1.000  Zr
  Zr8      1.0000 0.73110  0.99744  0.88557  Biso   1.000  Zr
  O9       1.0000 0.03010  0.14796  0.49574  Biso   1.000  O
  O10      1.0000 0.95165  0.11300  0.74009  Biso   1.000  O
  O11      1.0000 0.92441  0.36295  0.74091  Biso   1.000  O
  O12      1.0000 0.96603  0.39854  0.49192  Biso   1.000  O
  O13      1.0000 0.44068  0.17565  0.72851  Biso   1.000  O
  O14      1.0000 0.52850  0.09951  0.50127  Biso   1.000  O
  O15      1.0000 0.47295  0.36059  0.50676  Biso   1.000  O
  O16      1.0000 0.41084  0.42458  0.76334  Biso   1.000  O
  Zr9      1.0000 0.24837  0.50275  0.12734  Biso   1.000  Zr
  Zr10     1.0000 0.28271  0.76097  0.39466  Biso   1.000  Zr
  Zr11     1.0000 0.76660  0.73277  0.13120  Biso   1.000  Zr
  Zr12     1.0000 0.71040  0.51203  0.39251  Biso   1.000  Zr
  O17      1.0000 0.08430  0.65872  0.01989  Biso   1.000  O
  O18      1.0000 0.95598  0.57841  0.24385  Biso   1.000  O
  O19      1.0000 0.02454  0.83080  0.25971  Biso   1.000  O
  O20      1.0000 0.97563  0.89232  0.00590  Biso   1.000  O
  O21      1.0000 0.46849  0.64413  0.26389  Biso   1.000  O
  O22      1.0000 0.57840  0.58385  0.02767  Biso   1.000  O
  O23      1.0000 0.50621  0.83504  0.99810  Biso   1.000  O
  O24      1.0000 0.55056  0.89088  0.24777  Biso   1.000  O
  Zr13     1.0000 0.19541  0.49503  0.61638  Biso   1.000  Zr
  Zr14     1.0000 0.23820  0.76344  0.86543  Biso   1.000  Zr
  Zr15     1.0000 0.76389  0.76118  0.63140  Biso   1.000  Zr
  Zr16     1.0000 0.71261  0.50207  0.86137  Biso   1.000  Zr
  O25      1.0000 0.98274  0.64822  0.50006  Biso   1.000  O
  O26      1.0000 0.00944  0.61619  0.75334  Biso   1.000  O
  O27      1.0000 0.98636  0.86885  0.75587  Biso   1.000  O
  O28      1.0000 0.05072  0.89864  0.50627  Biso   1.000  O
  O29      1.0000 0.53286  0.66728  0.77540  Biso   1.000  O
  O30      1.0000 0.47754  0.61598  0.52095  Biso   1.000  O
  O31      1.0000 0.55894  0.85592  0.49458  Biso   1.000  O
  O32      1.0000 0.48727  0.91255  0.74699  Biso   1.000  O
  Ru1      1.0000 0.25045  0.19799  0.10937  Biso   1.000  Ru
