data_image0
_cell_length_a       10.1304
_cell_length_b       10.1304
_cell_length_c       5.11154
_cell_angle_alpha    89.9999
_cell_angle_beta     89.9997
_cell_angle_gamma    90.0007

_symmetry_space_group_name_H-M    "P 1"
_symmetry_int_tables_number       1

loop_
  _symmetry_equiv_pos_as_xyz
  'x, y, z'

loop_
  _atom_site_label
  _atom_site_occupancy
  _atom_site_fract_x
  _atom_site_fract_y
  _atom_site_fract_z
  _atom_site_thermal_displace_type
  _atom_site_B_iso_or_equiv
  _atom_site_type_symbol
  Zr1      1.0000 0.12517  0.98225  0.21338  Biso   1.000  Zr
  Zr2      1.0000 0.12518  0.24998  0.71339  Biso   1.000  Zr
  Zr3      1.0000 0.39291  0.24998  0.21338  Biso   1.000  Zr
  Zr4      1.0000 0.36986  0.49466  0.71107  Biso   1.000  Zr
  O1       1.0000 0.00221  0.12701  0.47660  Biso   1.000  O
  O2       1.0000 0.99704  0.12185  0.98906  Biso   1.000  O
  O3       1.0000 0.50046  0.38283  0.43500  Biso   1.000  O
  O4       1.0000 0.50221  0.37024  0.93045  Biso   1.000  O
  O5       1.0000 0.25331  0.12185  0.43771  Biso   1.000  O
  O6       1.0000 0.24815  0.12701  0.95016  Biso   1.000  O
  O7       1.0000 0.25331  0.37812  0.98905  Biso   1.000  O
  O8       1.0000 0.24815  0.37296  0.47661  Biso   1.000  O
  Zr5      1.0000 0.12518  0.51772  0.21337  Biso   1.000  Zr
  Zr6      1.0000 0.12517  0.74998  0.71338  Biso   1.000  Zr
  Zr7      1.0000 0.38003  0.74999  0.21338  Biso   1.000  Zr
  Zr8      1.0000 0.36986  0.00530  0.71568  Biso   1.000  Zr
  O9       1.0000 0.00493  0.62701  0.49630  Biso   1.000  O
  O10      1.0000 0.99234  0.62527  0.99176  Biso   1.000  O
  O11      1.0000 0.49394  0.88121  0.42566  Biso   1.000  O
  O12      1.0000 0.50398  0.87118  0.92629  Biso   1.000  O
  O13      1.0000 0.25802  0.62527  0.43500  Biso   1.000  O
  O14      1.0000 0.24543  0.62701  0.93045  Biso   1.000  O
  O15      1.0000 0.25802  0.87470  0.99174  Biso   1.000  O
  O16      1.0000 0.24542  0.87295  0.49629  Biso   1.000  O
  Zr9      1.0000 0.62517  0.99512  0.21338  Biso   1.000  Zr
  Zr10     1.0000 0.62518  0.24999  0.71338  Biso   1.000  Zr
  Zr11     1.0000 0.85744  0.24999  0.21339  Biso   1.000  Zr
  Zr12     1.0000 0.88049  0.49468  0.71567  Biso   1.000  Zr
  O17      1.0000 0.50221  0.12973  0.49629  Biso   1.000  O
  O18      1.0000 0.50046  0.11714  0.99174  Biso   1.000  O
  O19      1.0000 0.99704  0.37812  0.43772  Biso   1.000  O
  O20      1.0000 0.00220  0.37296  0.95016  Biso   1.000  O
  O21      1.0000 0.74990  0.11714  0.43501  Biso   1.000  O
  O22      1.0000 0.74814  0.12974  0.93046  Biso   1.000  O
  O23      1.0000 0.74989  0.38283  0.99177  Biso   1.000  O
  O24      1.0000 0.74815  0.37023  0.49632  Biso   1.000  O
  Zr13     1.0000 0.62517  0.50485  0.21337  Biso   1.000  Zr
  Zr14     1.0000 0.62517  0.74999  0.71338  Biso   1.000  Zr
  Zr15     1.0000 0.87031  0.74999  0.21338  Biso   1.000  Zr
  Zr16     1.0000 0.88049  0.00530  0.71108  Biso   1.000  Zr
  O25      1.0000 0.50398  0.62878  0.50049  Biso   1.000  O
  O26      1.0000 0.49395  0.61876  0.00111  Biso   1.000  O
  O27      1.0000 0.99232  0.87470  0.43502  Biso   1.000  O
  O28      1.0000 0.00493  0.87296  0.93047  Biso   1.000  O
  O29      1.0000 0.75641  0.61876  0.42564  Biso   1.000  O
  O30      1.0000 0.74638  0.62879  0.92627  Biso   1.000  O
  O31      1.0000 0.75641  0.88122  0.00112  Biso   1.000  O
  O32      1.0000 0.74637  0.87118  0.50048  Biso   1.000  O
  Sc1      1.0000 0.12517  0.24998  0.21339  Biso   1.000  Sc
