data_image0
_cell_length_a       5.13648
_cell_length_b       10.1741
_cell_length_c       10.3109
_cell_angle_alpha    89.9999
_cell_angle_beta     90
_cell_angle_gamma    95.5975

_symmetry_space_group_name_H-M    "P 1"
_symmetry_int_tables_number       1

loop_
  _symmetry_equiv_pos_as_xyz
  'x, y, z'

loop_
  _atom_site_label
  _atom_site_occupancy
  _atom_site_fract_x
  _atom_site_fract_y
  _atom_site_fract_z
  _atom_site_thermal_displace_type
  _atom_site_B_iso_or_equiv
  _atom_site_type_symbol
  Zr1      1.0000 0.31951  0.00428  0.12771  Biso   1.000  Zr
  Zr2      1.0000 0.25079  0.25007  0.38765  Biso   1.000  Zr
  Zr3      1.0000 0.75079  0.25007  0.16711  Biso   1.000  Zr
  Zr4      1.0000 0.79121  0.98517  0.36405  Biso   1.000  Zr
  O1       1.0000 0.14353  0.12944  0.96034  Biso   1.000  O
  O2       1.0000 0.03532  0.11849  0.23655  Biso   1.000  O
  O3       1.0000 0.98150  0.38455  0.29393  Biso   1.000  O
  O4       1.0000 0.83062  0.40703  0.03847  Biso   1.000  O
  O5       1.0000 0.52009  0.11560  0.29394  Biso   1.000  O
  O6       1.0000 0.67097  0.09311  0.03848  Biso   1.000  O
  O7       1.0000 0.35805  0.37071  0.96034  Biso   1.000  O
  O8       1.0000 0.46627  0.38166  0.23655  Biso   1.000  O
  Zr5      1.0000 0.28531  0.97997  0.63508  Biso   1.000  Zr
  Zr6      1.0000 0.25080  0.25008  0.80084  Biso   1.000  Zr
  Zr7      1.0000 0.75080  0.25008  0.61332  Biso   1.000  Zr
  Zr8      1.0000 0.79435  0.00063  0.87976  Biso   1.000  Zr
  O9       1.0000 0.91501  0.14045  0.47047  Biso   1.000  O
  O10      1.0000 0.00362  0.10830  0.71558  Biso   1.000  O
  O11      1.0000 0.96101  0.37303  0.77201  Biso   1.000  O
  O12      1.0000 0.09522  0.35623  0.54151  Biso   1.000  O
  O13      1.0000 0.54060  0.12713  0.77202  Biso   1.000  O
  O14      1.0000 0.40635  0.14393  0.54153  Biso   1.000  O
  O15      1.0000 0.58658  0.35970  0.47047  Biso   1.000  O
  O16      1.0000 0.49797  0.39185  0.71558  Biso   1.000  O
  Zr9      1.0000 0.18208  0.49587  0.12770  Biso   1.000  Zr
  Zr10     1.0000 0.25079  0.75007  0.37289  Biso   1.000  Zr
  Zr11     1.0000 0.75081  0.75008  0.11664  Biso   1.000  Zr
  Zr12     1.0000 0.71037  0.51497  0.36405  Biso   1.000  Zr
  O17      1.0000 0.98576  0.63283  0.98415  Biso   1.000  O
  O18      1.0000 0.96162  0.62744  0.23183  Biso   1.000  O
  O19      1.0000 0.04401  0.87248  0.26645  Biso   1.000  O
  O20      1.0000 0.01564  0.88393  0.01873  Biso   1.000  O
  O21      1.0000 0.45756  0.62766  0.26645  Biso   1.000  O
  O22      1.0000 0.48600  0.61623  0.01872  Biso   1.000  O
  O23      1.0000 0.51586  0.86731  0.98415  Biso   1.000  O
  O24      1.0000 0.53996  0.87271  0.23182  Biso   1.000  O
  Zr13     1.0000 0.21625  0.52018  0.63509  Biso   1.000  Zr
  Zr14     1.0000 0.25079  0.75008  0.88432  Biso   1.000  Zr
  Zr15     1.0000 0.75077  0.75007  0.62942  Biso   1.000  Zr
  Zr16     1.0000 0.70723  0.49953  0.87976  Biso   1.000  Zr
  O25      1.0000 0.00267  0.62204  0.48776  Biso   1.000  O
  O26      1.0000 0.95403  0.62100  0.73700  Biso   1.000  O
  O27      1.0000 0.03719  0.86843  0.77088  Biso   1.000  O
  O28      1.0000 0.99905  0.87777  0.51688  Biso   1.000  O
  O29      1.0000 0.46437  0.63173  0.77087  Biso   1.000  O
  O30      1.0000 0.50251  0.62238  0.51687  Biso   1.000  O
  O31      1.0000 0.49890  0.87811  0.48776  Biso   1.000  O
  O32      1.0000 0.54752  0.87915  0.73699  Biso   1.000  O
  Si1      1.0000 0.25079  0.25008  0.07393  Biso   1.000  Si
