data_image0
_cell_length_a       10.0296
_cell_length_b       10.4329
_cell_length_c       5.03406
_cell_angle_alpha    90.1441
_cell_angle_beta     89.7668
_cell_angle_gamma    89.9964

_symmetry_space_group_name_H-M    "P 1"
_symmetry_int_tables_number       1

loop_
  _symmetry_equiv_pos_as_xyz
  'x, y, z'

loop_
  _atom_site_label
  _atom_site_occupancy
  _atom_site_fract_x
  _atom_site_fract_y
  _atom_site_fract_z
  _atom_site_thermal_displace_type
  _atom_site_B_iso_or_equiv
  _atom_site_type_symbol
  Sn1      1.0000 0.13093  0.01880  0.24209  Biso   1.000  Sn
  Zr1      1.0000 0.13392  0.51573  0.25138  Biso   1.000  Zr
  Zr2      1.0000 0.63359  0.01540  0.25042  Biso   1.000  Zr
  Zr3      1.0000 0.63410  0.51615  0.25157  Biso   1.000  Zr
  Zr4      1.0000 0.13374  0.23540  0.74886  Biso   1.000  Zr
  Zr5      1.0000 0.13341  0.73497  0.75289  Biso   1.000  Zr
  Zr6      1.0000 0.63387  0.23416  0.75071  Biso   1.000  Zr
  Zr7      1.0000 0.63343  0.73493  0.75133  Biso   1.000  Zr
  Zr8      1.0000 0.36694  0.26601  0.24975  Biso   1.000  Zr
  Zr9      1.0000 0.36613  0.76533  0.25539  Biso   1.000  Zr
  Zr10     1.0000 0.86536  0.26563  0.24930  Biso   1.000  Zr
  Zr11     1.0000 0.86775  0.76519  0.24886  Biso   1.000  Zr
  Zr12     1.0000 0.36641  0.48505  0.75116  Biso   1.000  Zr
  Zr13     1.0000 0.36578  0.98461  0.75177  Biso   1.000  Zr
  Zr14     1.0000 0.86615  0.48468  0.75048  Biso   1.000  Zr
  Zr15     1.0000 0.86595  0.98453  0.74913  Biso   1.000  Zr
  O1       1.0000 0.03469  0.18356  0.38912  Biso   1.000  O
  O2       1.0000 0.03530  0.68283  0.39127  Biso   1.000  O
  O3       1.0000 0.53478  0.18374  0.38989  Biso   1.000  O
  O4       1.0000 0.53568  0.68362  0.39182  Biso   1.000  O
  O5       1.0000 0.03408  0.06685  0.88745  Biso   1.000  O
  O6       1.0000 0.03466  0.56608  0.89148  Biso   1.000  O
  O7       1.0000 0.53543  0.06654  0.88945  Biso   1.000  O
  O8       1.0000 0.53528  0.56692  0.89039  Biso   1.000  O
  O9       1.0000 0.46481  0.43388  0.38878  Biso   1.000  O
  O10      1.0000 0.46623  0.93298  0.39181  Biso   1.000  O
  O11      1.0000 0.96516  0.43239  0.38987  Biso   1.000  O
  O12      1.0000 0.96679  0.93281  0.38746  Biso   1.000  O
  O13      1.0000 0.46418  0.31639  0.88818  Biso   1.000  O
  O14      1.0000 0.46241  0.81650  0.89042  Biso   1.000  O
  O15      1.0000 0.96407  0.31627  0.88767  Biso   1.000  O
  O16      1.0000 0.96361  0.81641  0.88828  Biso   1.000  O
  O17      1.0000 0.26768  0.11439  0.49339  Biso   1.000  O
  O18      1.0000 0.26918  0.61552  0.49894  Biso   1.000  O
  O19      1.0000 0.76860  0.11674  0.49707  Biso   1.000  O
  O20      1.0000 0.76959  0.61671  0.49789  Biso   1.000  O
  O21      1.0000 0.26916  0.13412  0.99425  Biso   1.000  O
  O22      1.0000 0.26901  0.63431  0.99901  Biso   1.000  O
  O23      1.0000 0.76939  0.13314  0.99696  Biso   1.000  O
  O24      1.0000 0.76889  0.63347  0.99750  Biso   1.000  O
  O25      1.0000 0.23048  0.38377  0.99694  Biso   1.000  O
  O26      1.0000 0.22853  0.88531  0.00978  Biso   1.000  O
  O27      1.0000 0.73030  0.38322  0.99749  Biso   1.000  O
  O28      1.0000 0.72978  0.88323  0.99617  Biso   1.000  O
  O29      1.0000 0.23140  0.36639  0.49722  Biso   1.000  O
  O30      1.0000 0.23355  0.86375  0.50755  Biso   1.000  O
  O31      1.0000 0.73023  0.36685  0.49731  Biso   1.000  O
  O32      1.0000 0.73280  0.86667  0.49605  Biso   1.000  O
