data_image0
_cell_length_a       5.16358
_cell_length_b       10.3865
_cell_length_c       10.2675
_cell_angle_alpha    90.9801
_cell_angle_beta     90.5161
_cell_angle_gamma    95.7983

_symmetry_space_group_name_H-M    "P 1"
_symmetry_int_tables_number       1

loop_
  _symmetry_equiv_pos_as_xyz
  'x, y, z'

loop_
  _atom_site_label
  _atom_site_occupancy
  _atom_site_fract_x
  _atom_site_fract_y
  _atom_site_fract_z
  _atom_site_thermal_displace_type
  _atom_site_B_iso_or_equiv
  _atom_site_type_symbol
  Zr1      1.0000 0.30933  0.96757  0.07752  Biso   1.000  Zr
  Zr2      1.0000 0.24480  0.23624  0.39648  Biso   1.000  Zr
  Zr3      1.0000 0.63130  0.27320  0.12714  Biso   1.000  Zr
  Zr4      1.0000 0.73361  0.50163  0.35429  Biso   1.000  Zr
  O1       1.0000 0.86824  0.21424  0.29415  Biso   1.000  O
  O2       1.0000 0.04392  0.06653  0.46088  Biso   1.000  O
  O3       1.0000 0.88948  0.44042  0.18173  Biso   1.000  O
  O4       1.0000 0.02935  0.34017  0.51360  Biso   1.000  O
  O5       1.0000 0.40885  0.11727  0.24143  Biso   1.000  O
  O6       1.0000 0.52432  0.13477  0.49572  Biso   1.000  O
  O7       1.0000 0.52355  0.38862  0.48856  Biso   1.000  O
  O8       1.0000 0.38301  0.37926  0.24690  Biso   1.000  O
  Zr5      1.0000 0.27165  0.98322  0.59732  Biso   1.000  Zr
  Zr6      1.0000 0.18695  0.25780  0.82978  Biso   1.000  Zr
  Zr7      1.0000 0.71202  0.26927  0.62382  Biso   1.000  Zr
  Zr8      1.0000 0.72294  0.47890  0.88349  Biso   1.000  Zr
  O9       1.0000 0.95111  0.14796  0.70681  Biso   1.000  O
  O10      1.0000 0.10253  0.07722  0.93466  Biso   1.000  O
  O11      1.0000 0.98060  0.40746  0.73802  Biso   1.000  O
  O12      1.0000 0.86481  0.31212  0.94869  Biso   1.000  O
  O13      1.0000 0.46439  0.12303  0.74492  Biso   1.000  O
  O14      1.0000 0.60442  0.10280  0.01295  Biso   1.000  O
  O15      1.0000 0.39710  0.37481  0.99138  Biso   1.000  O
  O16      1.0000 0.47135  0.37345  0.73410  Biso   1.000  O
  Zr9      1.0000 0.25166  0.53074  0.12320  Biso   1.000  Zr
  Zr10     1.0000 0.31122  0.74157  0.37713  Biso   1.000  Zr
  Zr11     1.0000 0.77754  0.77299  0.12046  Biso   1.000  Zr
  Zr12     1.0000 0.71725  0.02729  0.33961  Biso   1.000  Zr
  O17      1.0000 0.06583  0.68391  0.21489  Biso   1.000  O
  O18      1.0000 0.07276  0.57144  0.44121  Biso   1.000  O
  O19      1.0000 0.96027  0.95382  0.19321  Biso   1.000  O
  O20      1.0000 0.05794  0.82220  0.49397  Biso   1.000  O
  O21      1.0000 0.54600  0.62917  0.24556  Biso   1.000  O
  O22      1.0000 0.54936  0.63743  0.49369  Biso   1.000  O
  O23      1.0000 0.55059  0.89152  0.48008  Biso   1.000  O
  O24      1.0000 0.49143  0.86895  0.22886  Biso   1.000  O
  Zr13     1.0000 0.25634  0.50449  0.60743  Biso   1.000  Zr
  Zr14     1.0000 0.30994  0.72439  0.86083  Biso   1.000  Zr
  Zr15     1.0000 0.77604  0.76040  0.62803  Biso   1.000  Zr
  Zr16     1.0000 0.74175  0.01663  0.84080  Biso   1.000  Zr
  O25      1.0000 0.08394  0.65754  0.69682  Biso   1.000  O
  O26      1.0000 0.06437  0.57290  0.95156  Biso   1.000  O
  O27      1.0000 0.99301  0.90726  0.72887  Biso   1.000  O
  O28      1.0000 0.07853  0.81754  0.98881  Biso   1.000  O
  O29      1.0000 0.56291  0.61336  0.74709  Biso   1.000  O
  O30      1.0000 0.55036  0.62714  0.99825  Biso   1.000  O
  O31      1.0000 0.57545  0.86663  0.96740  Biso   1.000  O
  O32      1.0000 0.49790  0.86468  0.72582  Biso   1.000  O
  Sr1      1.0000 0.10588  0.21719  0.10984  Biso   1.000  Sr
