data_image0
_cell_length_a       10.1549
_cell_length_b       10.281
_cell_length_c       5.04586
_cell_angle_alpha    89.9974
_cell_angle_beta     90.001
_cell_angle_gamma    89.9979

_symmetry_space_group_name_H-M    "P 1"
_symmetry_int_tables_number       1

loop_
  _symmetry_equiv_pos_as_xyz
  'x, y, z'

loop_
  _atom_site_label
  _atom_site_occupancy
  _atom_site_fract_x
  _atom_site_fract_y
  _atom_site_fract_z
  _atom_site_thermal_displace_type
  _atom_site_B_iso_or_equiv
  _atom_site_type_symbol
  Sr1      1.0000 0.12543  0.00043  0.25255  Biso   1.000  Sr
  Zr1      1.0000 0.12543  0.50043  0.25254  Biso   1.000  Zr
  Zr2      1.0000 0.62543  0.00042  0.25257  Biso   1.000  Zr
  Zr3      1.0000 0.62542  0.50043  0.25255  Biso   1.000  Zr
  Zr4      1.0000 0.12544  0.25520  0.75257  Biso   1.000  Zr
  Zr5      1.0000 0.12544  0.74564  0.75257  Biso   1.000  Zr
  Zr6      1.0000 0.62544  0.24931  0.75256  Biso   1.000  Zr
  Zr7      1.0000 0.62545  0.75154  0.75257  Biso   1.000  Zr
  Zr8      1.0000 0.37703  0.25299  0.24953  Biso   1.000  Zr
  Zr9      1.0000 0.37703  0.74787  0.25560  Biso   1.000  Zr
  Zr10     1.0000 0.87385  0.25299  0.25560  Biso   1.000  Zr
  Zr11     1.0000 0.87385  0.74785  0.24952  Biso   1.000  Zr
  Zr12     1.0000 0.37749  0.00043  0.75256  Biso   1.000  Zr
  Zr13     1.0000 0.37597  0.50043  0.75254  Biso   1.000  Zr
  Zr14     1.0000 0.87337  0.00043  0.75255  Biso   1.000  Zr
  Zr15     1.0000 0.87489  0.50042  0.75254  Biso   1.000  Zr
  O1       1.0000 0.99621  0.15118  0.00080  Biso   1.000  O
  O2       1.0000 0.00531  0.63993  0.01862  Biso   1.000  O
  O3       1.0000 0.50980  0.14771  0.01897  Biso   1.000  O
  O4       1.0000 0.50519  0.64550  0.00570  Biso   1.000  O
  O5       1.0000 0.98639  0.12279  0.52877  Biso   1.000  O
  O6       1.0000 0.99863  0.60518  0.51362  Biso   1.000  O
  O7       1.0000 0.49955  0.10388  0.51138  Biso   1.000  O
  O8       1.0000 0.49693  0.60426  0.50292  Biso   1.000  O
  O9       1.0000 0.00530  0.36092  0.48651  Biso   1.000  O
  O10      1.0000 0.99620  0.84967  0.50432  Biso   1.000  O
  O11      1.0000 0.50518  0.35537  0.49943  Biso   1.000  O
  O12      1.0000 0.50981  0.85315  0.48616  Biso   1.000  O
  O13      1.0000 0.99863  0.39566  0.99152  Biso   1.000  O
  O14      1.0000 0.98639  0.87805  0.97636  Biso   1.000  O
  O15      1.0000 0.49692  0.39660  0.00221  Biso   1.000  O
  O16      1.0000 0.49955  0.89698  0.99376  Biso   1.000  O
  O17      1.0000 0.25466  0.15119  0.50433  Biso   1.000  O
  O18      1.0000 0.24556  0.63994  0.48648  Biso   1.000  O
  O19      1.0000 0.74107  0.14770  0.48616  Biso   1.000  O
  O20      1.0000 0.74568  0.64548  0.49942  Biso   1.000  O
  O21      1.0000 0.26448  0.12280  0.97637  Biso   1.000  O
  O22      1.0000 0.25224  0.60519  0.99149  Biso   1.000  O
  O23      1.0000 0.75132  0.10388  0.99375  Biso   1.000  O
  O24      1.0000 0.75394  0.60427  0.00219  Biso   1.000  O
  O25      1.0000 0.24556  0.36093  0.01861  Biso   1.000  O
  O26      1.0000 0.25466  0.84968  0.00078  Biso   1.000  O
  O27      1.0000 0.74568  0.35536  0.00569  Biso   1.000  O
  O28      1.0000 0.74106  0.85315  0.01898  Biso   1.000  O
  O29      1.0000 0.25224  0.39567  0.51362  Biso   1.000  O
  O30      1.0000 0.26449  0.87805  0.52876  Biso   1.000  O
  O31      1.0000 0.75393  0.39658  0.50292  Biso   1.000  O
  O32      1.0000 0.75132  0.89697  0.51140  Biso   1.000  O
