data_image0
_cell_length_a       10.0644
_cell_length_b       10.1491
_cell_length_c       5.02594
_cell_angle_alpha    89.9996
_cell_angle_beta     89.9907
_cell_angle_gamma    90.0012

_symmetry_space_group_name_H-M    "P 1"
_symmetry_int_tables_number       1

loop_
  _symmetry_equiv_pos_as_xyz
  'x, y, z'

loop_
  _atom_site_label
  _atom_site_occupancy
  _atom_site_fract_x
  _atom_site_fract_y
  _atom_site_fract_z
  _atom_site_thermal_displace_type
  _atom_site_B_iso_or_equiv
  _atom_site_type_symbol
  V1       1.0000 0.12549  0.00007  0.25076  Biso   1.000  V
  Zr1      1.0000 0.12549  0.50027  0.25076  Biso   1.000  Zr
  Zr2      1.0000 0.62549  0.00026  0.25076  Biso   1.000  Zr
  Zr3      1.0000 0.62549  0.50022  0.25076  Biso   1.000  Zr
  Zr4      1.0000 0.12549  0.25123  0.75075  Biso   1.000  Zr
  Zr5      1.0000 0.12549  0.74934  0.75074  Biso   1.000  Zr
  Zr6      1.0000 0.62550  0.24938  0.75075  Biso   1.000  Zr
  Zr7      1.0000 0.62549  0.75111  0.75075  Biso   1.000  Zr
  Zr8      1.0000 0.37472  0.24953  0.25918  Biso   1.000  Zr
  Zr9      1.0000 0.37478  0.75097  0.24244  Biso   1.000  Zr
  Zr10     1.0000 0.87627  0.24954  0.24232  Biso   1.000  Zr
  Zr11     1.0000 0.87621  0.75097  0.25906  Biso   1.000  Zr
  Zr12     1.0000 0.37428  0.00026  0.75091  Biso   1.000  Zr
  Zr13     1.0000 0.37721  0.50024  0.75079  Biso   1.000  Zr
  Zr14     1.0000 0.87671  0.00026  0.75061  Biso   1.000  Zr
  Zr15     1.0000 0.87378  0.50025  0.75073  Biso   1.000  Zr
  O1       1.0000 0.98011  0.15033  0.95222  Biso   1.000  O
  O2       1.0000 0.99394  0.64760  0.99456  Biso   1.000  O
  O3       1.0000 0.48342  0.14154  0.98582  Biso   1.000  O
  O4       1.0000 0.49400  0.64135  0.99289  Biso   1.000  O
  O5       1.0000 0.01951  0.09882  0.46184  Biso   1.000  O
  O6       1.0000 0.00570  0.60468  0.49849  Biso   1.000  O
  O7       1.0000 0.51343  0.11049  0.49563  Biso   1.000  O
  O8       1.0000 0.50661  0.60956  0.49824  Biso   1.000  O
  O9       1.0000 0.99394  0.35294  0.50688  Biso   1.000  O
  O10      1.0000 0.98029  0.85030  0.54870  Biso   1.000  O
  O11      1.0000 0.49399  0.35914  0.50863  Biso   1.000  O
  O12      1.0000 0.48343  0.85894  0.51591  Biso   1.000  O
  O13      1.0000 0.00571  0.39588  0.00300  Biso   1.000  O
  O14      1.0000 0.01939  0.90172  0.03918  Biso   1.000  O
  O15      1.0000 0.50661  0.39094  0.00324  Biso   1.000  O
  O16      1.0000 0.51338  0.88998  0.00608  Biso   1.000  O
  O17      1.0000 0.27088  0.15033  0.54933  Biso   1.000  O
  O18      1.0000 0.25705  0.64760  0.50693  Biso   1.000  O
  O19      1.0000 0.76757  0.14154  0.51569  Biso   1.000  O
  O20      1.0000 0.75699  0.64135  0.50862  Biso   1.000  O
  O21      1.0000 0.23149  0.09881  0.03970  Biso   1.000  O
  O22      1.0000 0.24528  0.60468  0.00300  Biso   1.000  O
  O23      1.0000 0.73756  0.11049  0.00587  Biso   1.000  O
  O24      1.0000 0.74437  0.60956  0.00326  Biso   1.000  O
  O25      1.0000 0.25705  0.35293  0.99464  Biso   1.000  O
  O26      1.0000 0.27070  0.85029  0.95279  Biso   1.000  O
  O27      1.0000 0.75699  0.35914  0.99290  Biso   1.000  O
  O28      1.0000 0.76756  0.85894  0.98561  Biso   1.000  O
  O29      1.0000 0.24527  0.39588  0.49852  Biso   1.000  O
  O30      1.0000 0.23160  0.90173  0.46230  Biso   1.000  O
  O31      1.0000 0.74437  0.39094  0.49827  Biso   1.000  O
  O32      1.0000 0.73761  0.88998  0.49544  Biso   1.000  O
