data_image0
_cell_length_a       4.9658
_cell_length_b       10.3407
_cell_length_c       9.99006
_cell_angle_alpha    89.8524
_cell_angle_beta     89.8611
_cell_angle_gamma    90.0058

_symmetry_space_group_name_H-M    "P 1"
_symmetry_int_tables_number       1

loop_
  _symmetry_equiv_pos_as_xyz
  'x, y, z'

loop_
  _atom_site_label
  _atom_site_occupancy
  _atom_site_fract_x
  _atom_site_fract_y
  _atom_site_fract_z
  _atom_site_thermal_displace_type
  _atom_site_B_iso_or_equiv
  _atom_site_type_symbol
  W1       1.0000 0.27875  0.01960  0.12360  Biso   1.000  W
  Hf1      1.0000 0.26654  0.23280  0.37588  Biso   1.000  Hf
  Hf2      1.0000 0.73401  0.26633  0.12575  Biso   1.000  Hf
  Hf3      1.0000 0.73194  0.48413  0.37609  Biso   1.000  Hf
  O1       1.0000 0.07477  0.17967  0.19465  Biso   1.000  O
  O2       1.0000 0.06755  0.06797  0.44931  Biso   1.000  O
  O3       1.0000 0.92989  0.43224  0.19446  Biso   1.000  O
  O4       1.0000 0.92761  0.31639  0.44496  Biso   1.000  O
  O5       1.0000 0.53724  0.11750  0.24797  Biso   1.000  O
  O6       1.0000 0.54123  0.13252  0.49867  Biso   1.000  O
  O7       1.0000 0.45818  0.38215  0.50010  Biso   1.000  O
  O8       1.0000 0.46035  0.36824  0.25031  Biso   1.000  O
  Hf4      1.0000 0.26894  0.01601  0.62613  Biso   1.000  Hf
  Hf5      1.0000 0.26760  0.23322  0.87715  Biso   1.000  Hf
  Hf6      1.0000 0.73170  0.26572  0.62632  Biso   1.000  Hf
  Hf7      1.0000 0.73038  0.48375  0.87588  Biso   1.000  Hf
  O9       1.0000 0.06974  0.18251  0.69920  Biso   1.000  O
  O10      1.0000 0.07229  0.06391  0.95647  Biso   1.000  O
  O11      1.0000 0.92604  0.43389  0.69385  Biso   1.000  O
  O12      1.0000 0.92469  0.31405  0.94388  Biso   1.000  O
  O13      1.0000 0.54036  0.11719  0.75042  Biso   1.000  O
  O14      1.0000 0.54196  0.12984  0.99978  Biso   1.000  O
  O15      1.0000 0.45740  0.38110  0.00062  Biso   1.000  O
  O16      1.0000 0.45727  0.36695  0.75042  Biso   1.000  O
  Hf8      1.0000 0.27028  0.51748  0.12678  Biso   1.000  Hf
  Hf9      1.0000 0.27015  0.73524  0.37441  Biso   1.000  Hf
  Hf10     1.0000 0.73410  0.76998  0.12459  Biso   1.000  Hf
  Hf11     1.0000 0.73711  0.98461  0.37287  Biso   1.000  Hf
  O17      1.0000 0.07266  0.68454  0.19318  Biso   1.000  O
  O18      1.0000 0.07411  0.56662  0.44285  Biso   1.000  O
  O19      1.0000 0.94371  0.93564  0.19144  Biso   1.000  O
  O20      1.0000 0.93008  0.81711  0.44421  Biso   1.000  O
  O21      1.0000 0.54374  0.61990  0.24977  Biso   1.000  O
  O22      1.0000 0.54192  0.63293  0.49945  Biso   1.000  O
  O23      1.0000 0.46081  0.88340  0.49753  Biso   1.000  O
  O24      1.0000 0.45741  0.87255  0.24592  Biso   1.000  O
  Hf12     1.0000 0.26742  0.51648  0.62527  Biso   1.000  Hf
  Hf13     1.0000 0.26565  0.73256  0.87555  Biso   1.000  Hf
  Hf14     1.0000 0.73228  0.76705  0.62539  Biso   1.000  Hf
  Hf15     1.0000 0.73135  0.98242  0.87725  Biso   1.000  Hf
  O25      1.0000 0.07177  0.68393  0.69345  Biso   1.000  O
  O26      1.0000 0.07271  0.56414  0.94429  Biso   1.000  O
  O27      1.0000 0.92841  0.93417  0.69630  Biso   1.000  O
  O28      1.0000 0.91848  0.81407  0.94143  Biso   1.000  O
  O29      1.0000 0.54032  0.61736  0.74951  Biso   1.000  O
  O30      1.0000 0.54155  0.63211  0.00002  Biso   1.000  O
  O31      1.0000 0.44114  0.88185  0.99828  Biso   1.000  O
  O32      1.0000 0.45905  0.86725  0.74914  Biso   1.000  O
