data_image0
_cell_length_a       10.0989
_cell_length_b       10.1878
_cell_length_c       10.1088
_cell_angle_alpha    90
_cell_angle_beta     90.0001
_cell_angle_gamma    90

_symmetry_space_group_name_H-M    "P 1"
_symmetry_int_tables_number       1

loop_
  _symmetry_equiv_pos_as_xyz
  'x, y, z'

loop_
  _atom_site_label
  _atom_site_occupancy
  _atom_site_fract_x
  _atom_site_fract_y
  _atom_site_fract_z
  _atom_site_thermal_displace_type
  _atom_site_B_iso_or_equiv
  _atom_site_type_symbol
  Zr1      1.0000 0.12540  0.98468  0.12540  Biso   1.000  Zr
  Zr2      1.0000 0.12539  0.25007  0.39131  Biso   1.000  Zr
  Zr3      1.0000 0.40021  0.25007  0.12540  Biso   1.000  Zr
  Zr4      1.0000 0.37501  0.99847  0.37838  Biso   1.000  Zr
  O1       1.0000 0.99937  0.14236  0.00029  Biso   1.000  O
  O2       1.0000 0.00890  0.11593  0.24427  Biso   1.000  O
  O3       1.0000 0.99937  0.35779  0.25050  Biso   1.000  O
  O4       1.0000 0.00890  0.38421  0.00652  Biso   1.000  O
  O5       1.0000 0.25142  0.14235  0.25050  Biso   1.000  O
  O6       1.0000 0.24189  0.11593  0.00652  Biso   1.000  O
  O7       1.0000 0.25142  0.35778  0.00029  Biso   1.000  O
  O8       1.0000 0.24190  0.38421  0.24427  Biso   1.000  O
  Zr5      1.0000 0.12540  0.99841  0.62540  Biso   1.000  Zr
  Zr6      1.0000 0.12540  0.25007  0.85948  Biso   1.000  Zr
  Zr7      1.0000 0.38247  0.25007  0.62540  Biso   1.000  Zr
  Zr8      1.0000 0.37451  0.99786  0.87474  Biso   1.000  Zr
  O9       1.0000 0.99407  0.13963  0.50014  Biso   1.000  O
  O10      1.0000 0.00346  0.10742  0.74845  Biso   1.000  O
  O11      1.0000 0.99407  0.36051  0.75065  Biso   1.000  O
  O12      1.0000 0.00346  0.39272  0.50234  Biso   1.000  O
  O13      1.0000 0.25672  0.13963  0.75065  Biso   1.000  O
  O14      1.0000 0.24733  0.10742  0.50234  Biso   1.000  O
  O15      1.0000 0.25672  0.36051  0.50014  Biso   1.000  O
  O16      1.0000 0.24733  0.39272  0.74845  Biso   1.000  O
  Zr9      1.0000 0.12540  0.51546  0.12540  Biso   1.000  Zr
  Zr10     1.0000 0.12540  0.75007  0.37759  Biso   1.000  Zr
  Zr11     1.0000 0.38081  0.75007  0.12540  Biso   1.000  Zr
  Zr12     1.0000 0.37450  0.50227  0.37605  Biso   1.000  Zr
  O17      1.0000 0.99803  0.64026  0.99740  Biso   1.000  O
  O18      1.0000 0.99952  0.61320  0.25095  Biso   1.000  O
  O19      1.0000 0.99803  0.85988  0.25340  Biso   1.000  O
  O20      1.0000 0.99952  0.88694  0.99984  Biso   1.000  O
  O21      1.0000 0.25276  0.64026  0.25340  Biso   1.000  O
  O22      1.0000 0.25127  0.61320  0.99984  Biso   1.000  O
  O23      1.0000 0.25276  0.85988  0.99740  Biso   1.000  O
  O24      1.0000 0.25127  0.88694  0.25095  Biso   1.000  O
  Zr13     1.0000 0.12540  0.50173  0.62540  Biso   1.000  Zr
  Zr14     1.0000 0.12540  0.75007  0.87320  Biso   1.000  Zr
  Zr15     1.0000 0.37640  0.75007  0.62540  Biso   1.000  Zr
  Zr16     1.0000 0.37501  0.50167  0.87242  Biso   1.000  Zr
  O25      1.0000 0.99605  0.64254  0.49837  Biso   1.000  O
  O26      1.0000 0.00549  0.60960  0.74851  Biso   1.000  O
  O27      1.0000 0.99605  0.85760  0.75242  Biso   1.000  O
  O28      1.0000 0.00549  0.89053  0.50228  Biso   1.000  O
  O29      1.0000 0.25474  0.64254  0.75242  Biso   1.000  O
  O30      1.0000 0.24530  0.60960  0.50228  Biso   1.000  O
  O31      1.0000 0.25475  0.85759  0.49838  Biso   1.000  O
  O32      1.0000 0.24530  0.89053  0.74851  Biso   1.000  O
  Zr17     1.0000 0.62540  0.00564  0.12540  Biso   1.000  Zr
  Zr18     1.0000 0.62540  0.25007  0.36569  Biso   1.000  Zr
  Zr19     1.0000 0.85058  0.25007  0.12540  Biso   1.000  Zr
  Zr20     1.0000 0.87629  0.99786  0.37605  Biso   1.000  Zr
  O33      1.0000 0.49169  0.13236  0.98655  Biso   1.000  O
  O34      1.0000 0.49848  0.10599  0.24989  Biso   1.000  O
  O35      1.0000 0.49169  0.36777  0.26425  Biso   1.000  O
  O36      1.0000 0.49849  0.39415  0.00090  Biso   1.000  O
  O37      1.0000 0.75910  0.13236  0.26425  Biso   1.000  O
  O38      1.0000 0.75231  0.10599  0.00090  Biso   1.000  O
  O39      1.0000 0.75910  0.36777  0.98655  Biso   1.000  O
  O40      1.0000 0.75231  0.39415  0.24989  Biso   1.000  O
  Zr21     1.0000 0.62540  0.00321  0.62540  Biso   1.000  Zr
  Zr22     1.0000 0.62540  0.25007  0.88510  Biso   1.000  Zr
  Zr23     1.0000 0.86832  0.25007  0.62540  Biso   1.000  Zr
  Zr24     1.0000 0.87578  0.99847  0.87241  Biso   1.000  Zr
  O41      1.0000 0.49704  0.14454  0.49351  Biso   1.000  O
  O42      1.0000 0.50097  0.10550  0.74379  Biso   1.000  O
  O43      1.0000 0.49704  0.35559  0.75728  Biso   1.000  O
  O44      1.0000 0.50097  0.39463  0.50700  Biso   1.000  O
  O45      1.0000 0.75375  0.14454  0.75728  Biso   1.000  O
  O46      1.0000 0.74982  0.10550  0.50700  Biso   1.000  O
  O47      1.0000 0.75375  0.35559  0.49351  Biso   1.000  O
  O48      1.0000 0.74982  0.39463  0.74379  Biso   1.000  O
  Zr25     1.0000 0.62540  0.49450  0.12540  Biso   1.000  Zr
  Zr26     1.0000 0.62540  0.75007  0.37294  Biso   1.000  Zr
  Zr27     1.0000 0.86998  0.75007  0.12540  Biso   1.000  Zr
  Zr28     1.0000 0.87578  0.50167  0.37838  Biso   1.000  Zr
  O49      1.0000 0.49826  0.64137  0.99384  Biso   1.000  O
  O50      1.0000 0.50069  0.60981  0.24347  Biso   1.000  O
  O51      1.0000 0.49826  0.85877  0.25695  Biso   1.000  O
  O52      1.0000 0.50069  0.89032  0.00733  Biso   1.000  O
  O53      1.0000 0.75253  0.64137  0.25695  Biso   1.000  O
  O54      1.0000 0.75011  0.60981  0.00732  Biso   1.000  O
  O55      1.0000 0.75253  0.85877  0.99384  Biso   1.000  O
  O56      1.0000 0.75010  0.89032  0.24347  Biso   1.000  O
  Zr29     1.0000 0.62540  0.49692  0.62540  Biso   1.000  Zr
  Zr30     1.0000 0.62540  0.75007  0.87785  Biso   1.000  Zr
  Zr31     1.0000 0.87439  0.75007  0.62540  Biso   1.000  Zr
  Zr32     1.0000 0.87629  0.50227  0.87474  Biso   1.000  Zr
  O57      1.0000 0.49373  0.64425  0.49185  Biso   1.000  O
  O58      1.0000 0.50233  0.60630  0.74481  Biso   1.000  O
  O59      1.0000 0.49373  0.85588  0.75895  Biso   1.000  O
  O60      1.0000 0.50233  0.89383  0.50599  Biso   1.000  O
  O61      1.0000 0.75706  0.64425  0.75894  Biso   1.000  O
  O62      1.0000 0.74846  0.60630  0.50599  Biso   1.000  O
  O63      1.0000 0.75706  0.85588  0.49185  Biso   1.000  O
  O64      1.0000 0.74846  0.89383  0.74481  Biso   1.000  O
  W1       1.0000 0.12540  0.25007  0.12540  Biso   1.000  W
