data_image0
_cell_length_a       10.0768
_cell_length_b       10.2226
_cell_length_c       10.0768
_cell_angle_alpha    90.0011
_cell_angle_beta     89.9985
_cell_angle_gamma    90.0008

_symmetry_space_group_name_H-M    "P 1"
_symmetry_int_tables_number       1

loop_
  _symmetry_equiv_pos_as_xyz
  'x, y, z'

loop_
  _atom_site_label
  _atom_site_occupancy
  _atom_site_fract_x
  _atom_site_fract_y
  _atom_site_fract_z
  _atom_site_thermal_displace_type
  _atom_site_B_iso_or_equiv
  _atom_site_type_symbol
  Y1       1.0000 0.12528  0.00011  0.12526  Biso   1.000  Y
  Zr1      1.0000 0.12528  0.00011  0.62526  Biso   1.000  Zr
  Zr2      1.0000 0.12528  0.50012  0.12527  Biso   1.000  Zr
  Zr3      1.0000 0.12527  0.50012  0.62526  Biso   1.000  Zr
  Zr4      1.0000 0.62528  0.00012  0.12526  Biso   1.000  Zr
  Zr5      1.0000 0.62528  0.00012  0.62526  Biso   1.000  Zr
  Zr6      1.0000 0.62528  0.50012  0.12526  Biso   1.000  Zr
  Zr7      1.0000 0.62527  0.50012  0.62526  Biso   1.000  Zr
  Zr8      1.0000 0.12439  0.25046  0.37496  Biso   1.000  Zr
  Zr9      1.0000 0.12616  0.25046  0.87556  Biso   1.000  Zr
  Zr10     1.0000 0.12616  0.74977  0.37496  Biso   1.000  Zr
  Zr11     1.0000 0.12439  0.74977  0.87556  Biso   1.000  Zr
  Zr12     1.0000 0.62497  0.25010  0.37515  Biso   1.000  Zr
  Zr13     1.0000 0.62558  0.25011  0.87537  Biso   1.000  Zr
  Zr14     1.0000 0.62558  0.75013  0.37515  Biso   1.000  Zr
  Zr15     1.0000 0.62497  0.75013  0.87537  Biso   1.000  Zr
  Zr16     1.0000 0.37497  0.25047  0.12437  Biso   1.000  Zr
  Zr17     1.0000 0.37516  0.25010  0.62495  Biso   1.000  Zr
  Zr18     1.0000 0.37498  0.74977  0.12615  Biso   1.000  Zr
  Zr19     1.0000 0.37516  0.75013  0.62557  Biso   1.000  Zr
  Zr20     1.0000 0.87557  0.25047  0.12614  Biso   1.000  Zr
  Zr21     1.0000 0.87538  0.25011  0.62556  Biso   1.000  Zr
  Zr22     1.0000 0.87557  0.74977  0.12438  Biso   1.000  Zr
  Zr23     1.0000 0.87538  0.75013  0.62495  Biso   1.000  Zr
  Zr24     1.0000 0.37507  0.99977  0.37506  Biso   1.000  Zr
  Zr25     1.0000 0.37507  0.00046  0.87547  Biso   1.000  Zr
  Zr26     1.0000 0.37511  0.49946  0.37510  Biso   1.000  Zr
  Zr27     1.0000 0.37511  0.50077  0.87543  Biso   1.000  Zr
  Zr28     1.0000 0.87549  0.00046  0.37506  Biso   1.000  Zr
  Zr29     1.0000 0.87548  0.99977  0.87547  Biso   1.000  Zr
  Zr30     1.0000 0.87544  0.50077  0.37510  Biso   1.000  Zr
  Zr31     1.0000 0.87544  0.49946  0.87543  Biso   1.000  Zr
  O1       1.0000 0.99861  0.14679  0.99860  Biso   1.000  O
  O2       1.0000 0.00411  0.14602  0.50560  Biso   1.000  O
  O3       1.0000 0.00291  0.64217  0.00290  Biso   1.000  O
  O4       1.0000 0.00153  0.64547  0.50249  Biso   1.000  O
  O5       1.0000 0.50561  0.14603  0.00410  Biso   1.000  O
  O6       1.0000 0.50305  0.14594  0.50303  Biso   1.000  O
  O7       1.0000 0.50250  0.64547  0.00151  Biso   1.000  O
  O8       1.0000 0.50136  0.64587  0.50135  Biso   1.000  O
  O9       1.0000 0.99286  0.11423  0.25767  Biso   1.000  O
  O10      1.0000 0.99855  0.10435  0.75167  Biso   1.000  O
  O11      1.0000 0.99899  0.60548  0.25155  Biso   1.000  O
  O12      1.0000 0.99976  0.60436  0.75200  Biso   1.000  O
  O13      1.0000 0.49887  0.10435  0.25198  Biso   1.000  O
  O14      1.0000 0.49893  0.10474  0.75160  Biso   1.000  O
  O15      1.0000 0.49855  0.60436  0.25078  Biso   1.000  O
  O16      1.0000 0.49963  0.60434  0.75091  Biso   1.000  O
  O17      1.0000 0.00291  0.35806  0.24763  Biso   1.000  O
  O18      1.0000 0.00152  0.35476  0.74804  Biso   1.000  O
  O19      1.0000 0.99861  0.85344  0.25193  Biso   1.000  O
  O20      1.0000 0.00412  0.85421  0.74492  Biso   1.000  O
  O21      1.0000 0.50250  0.35476  0.24902  Biso   1.000  O
  O22      1.0000 0.50136  0.35436  0.74918  Biso   1.000  O
  O23      1.0000 0.50562  0.85421  0.24643  Biso   1.000  O
  O24      1.0000 0.50305  0.85429  0.74749  Biso   1.000  O
  O25      1.0000 0.99899  0.39475  0.99898  Biso   1.000  O
  O26      1.0000 0.99976  0.39588  0.49854  Biso   1.000  O
  O27      1.0000 0.99286  0.88600  0.99285  Biso   1.000  O
  O28      1.0000 0.99855  0.89589  0.49886  Biso   1.000  O
  O29      1.0000 0.49855  0.39588  0.99974  Biso   1.000  O
  O30      1.0000 0.49963  0.39589  0.49961  Biso   1.000  O
  O31      1.0000 0.49887  0.89589  0.99854  Biso   1.000  O
  O32      1.0000 0.49894  0.89549  0.49892  Biso   1.000  O
  O33      1.0000 0.25194  0.14679  0.25193  Biso   1.000  O
  O34      1.0000 0.24644  0.14603  0.74493  Biso   1.000  O
  O35      1.0000 0.24764  0.64217  0.24763  Biso   1.000  O
  O36      1.0000 0.24903  0.64547  0.74804  Biso   1.000  O
  O37      1.0000 0.74494  0.14603  0.24642  Biso   1.000  O
  O38      1.0000 0.74750  0.14594  0.74748  Biso   1.000  O
  O39      1.0000 0.74805  0.64547  0.24902  Biso   1.000  O
  O40      1.0000 0.74919  0.64587  0.74918  Biso   1.000  O
  O41      1.0000 0.25769  0.11424  0.99285  Biso   1.000  O
  O42      1.0000 0.25200  0.10435  0.49886  Biso   1.000  O
  O43      1.0000 0.25156  0.60548  0.99898  Biso   1.000  O
  O44      1.0000 0.25080  0.60436  0.49853  Biso   1.000  O
  O45      1.0000 0.75168  0.10435  0.99854  Biso   1.000  O
  O46      1.0000 0.75161  0.10474  0.49892  Biso   1.000  O
  O47      1.0000 0.75201  0.60436  0.99975  Biso   1.000  O
  O48      1.0000 0.75093  0.60434  0.49962  Biso   1.000  O
  O49      1.0000 0.24764  0.35806  0.00289  Biso   1.000  O
  O50      1.0000 0.24903  0.35476  0.50248  Biso   1.000  O
  O51      1.0000 0.25194  0.85344  0.99860  Biso   1.000  O
  O52      1.0000 0.24644  0.85420  0.50560  Biso   1.000  O
  O53      1.0000 0.74805  0.35476  0.00151  Biso   1.000  O
  O54      1.0000 0.74919  0.35436  0.50134  Biso   1.000  O
  O55      1.0000 0.74494  0.85420  0.00410  Biso   1.000  O
  O56      1.0000 0.74750  0.85429  0.50304  Biso   1.000  O
  O57      1.0000 0.25156  0.39475  0.25154  Biso   1.000  O
  O58      1.0000 0.25079  0.39588  0.75198  Biso   1.000  O
  O59      1.0000 0.25769  0.88600  0.25768  Biso   1.000  O
  O60      1.0000 0.25200  0.89589  0.75167  Biso   1.000  O
  O61      1.0000 0.75200  0.39588  0.25078  Biso   1.000  O
  O62      1.0000 0.75092  0.39590  0.75091  Biso   1.000  O
  O63      1.0000 0.75168  0.89589  0.25199  Biso   1.000  O
  O64      1.0000 0.75161  0.89549  0.75160  Biso   1.000  O
