data_image0
_cell_length_a       10.125
_cell_length_b       10.2782
_cell_length_c       10.144
_cell_angle_alpha    89.7335
_cell_angle_beta     88.2064
_cell_angle_gamma    89.5609

_symmetry_space_group_name_H-M    "P 1"
_symmetry_int_tables_number       1

loop_
  _symmetry_equiv_pos_as_xyz
  'x, y, z'

loop_
  _atom_site_label
  _atom_site_occupancy
  _atom_site_fract_x
  _atom_site_fract_y
  _atom_site_fract_z
  _atom_site_thermal_displace_type
  _atom_site_B_iso_or_equiv
  _atom_site_type_symbol
  Zr1      1.0000 0.12567  0.98258  0.12528  Biso   1.000  Zr
  Zr2      1.0000 0.13606  0.26601  0.39747  Biso   1.000  Zr
  Zr3      1.0000 0.39411  0.26399  0.14089  Biso   1.000  Zr
  Zr4      1.0000 0.37389  0.99588  0.38025  Biso   1.000  Zr
  O1       1.0000 0.94432  0.17201  0.93051  Biso   1.000  O
  O2       1.0000 0.96069  0.07577  0.20548  Biso   1.000  O
  O3       1.0000 0.00952  0.34444  0.25123  Biso   1.000  O
  O4       1.0000 0.99964  0.41441  0.00268  Biso   1.000  O
  O5       1.0000 0.23794  0.15137  0.24083  Biso   1.000  O
  O6       1.0000 0.21781  0.08289  0.96875  Biso   1.000  O
  O7       1.0000 0.25012  0.34635  0.01823  Biso   1.000  O
  O8       1.0000 0.26021  0.40073  0.26601  Biso   1.000  O
  Zr5      1.0000 0.13164  0.99233  0.62728  Biso   1.000  Zr
  Zr6      1.0000 0.12297  0.25462  0.87902  Biso   1.000  Zr
  Zr7      1.0000 0.37645  0.25150  0.63744  Biso   1.000  Zr
  Zr8      1.0000 0.37406  0.99408  0.88215  Biso   1.000  Zr
  O9       1.0000 0.98048  0.15891  0.46056  Biso   1.000  O
  O10      1.0000 0.97398  0.08811  0.70394  Biso   1.000  O
  O11      1.0000 0.99978  0.35175  0.74190  Biso   1.000  O
  O12      1.0000 0.00633  0.40379  0.50262  Biso   1.000  O
  O13      1.0000 0.23076  0.14896  0.73275  Biso   1.000  O
  O14      1.0000 0.23826  0.10545  0.48868  Biso   1.000  O
  O15      1.0000 0.25384  0.36091  0.51963  Biso   1.000  O
  O16      1.0000 0.24939  0.39778  0.76866  Biso   1.000  O
  Zr9      1.0000 0.13058  0.51237  0.13293  Biso   1.000  Zr
  Zr10     1.0000 0.12615  0.74921  0.38216  Biso   1.000  Zr
  Zr11     1.0000 0.38277  0.74760  0.12717  Biso   1.000  Zr
  Zr12     1.0000 0.38428  0.50690  0.38204  Biso   1.000  Zr
  O17      1.0000 0.02940  0.66383  0.03631  Biso   1.000  O
  O18      1.0000 0.02017  0.59428  0.28349  Biso   1.000  O
  O19      1.0000 0.00234  0.84233  0.25114  Biso   1.000  O
  O20      1.0000 0.99636  0.90380  0.99222  Biso   1.000  O
  O21      1.0000 0.26072  0.64944  0.25914  Biso   1.000  O
  O22      1.0000 0.27137  0.59753  0.01405  Biso   1.000  O
  O23      1.0000 0.25214  0.84404  0.00682  Biso   1.000  O
  O24      1.0000 0.25129  0.89698  0.25687  Biso   1.000  O
  Zr13     1.0000 0.12718  0.50399  0.63674  Biso   1.000  Zr
  Zr14     1.0000 0.12341  0.75232  0.87672  Biso   1.000  Zr
  Zr15     1.0000 0.37782  0.74885  0.62847  Biso   1.000  Zr
  Zr16     1.0000 0.38170  0.49982  0.87685  Biso   1.000  Zr
  O25      1.0000 0.01940  0.65472  0.53206  Biso   1.000  O
  O26      1.0000 0.01512  0.59944  0.78276  Biso   1.000  O
  O27      1.0000 0.00052  0.84963  0.74930  Biso   1.000  O
  O28      1.0000 0.00326  0.90129  0.49424  Biso   1.000  O
  O29      1.0000 0.25923  0.64568  0.75966  Biso   1.000  O
  O30      1.0000 0.26167  0.60580  0.51063  Biso   1.000  O
  O31      1.0000 0.25380  0.85351  0.50624  Biso   1.000  O
  O32      1.0000 0.25009  0.89346  0.75423  Biso   1.000  O
  Zr17     1.0000 0.62171  0.99994  0.13108  Biso   1.000  Zr
  Zr18     1.0000 0.62715  0.24621  0.38174  Biso   1.000  Zr
  Zr19     1.0000 0.87234  0.24429  0.11213  Biso   1.000  Zr
  Zr20     1.0000 0.87602  0.00065  0.37148  Biso   1.000  Zr
  O33      1.0000 0.47810  0.14901  0.99692  Biso   1.000  O
  O34      1.0000 0.48810  0.10771  0.25025  Biso   1.000  O
  O35      1.0000 0.51361  0.36142  0.25817  Biso   1.000  O
  O36      1.0000 0.50059  0.39963  0.01058  Biso   1.000  O
  O37      1.0000 0.73301  0.14677  0.24307  Biso   1.000  O
  O38      1.0000 0.72705  0.10161  0.99326  Biso   1.000  O
  O39      1.0000 0.74306  0.35703  0.99163  Biso   1.000  O
  O40      1.0000 0.76346  0.39492  0.23922  Biso   1.000  O
  Zr21     1.0000 0.61980  0.00150  0.62556  Biso   1.000  Zr
  Zr22     1.0000 0.62081  0.24609  0.87866  Biso   1.000  Zr
  Zr23     1.0000 0.87461  0.24623  0.62143  Biso   1.000  Zr
  Zr24     1.0000 0.86867  0.00365  0.86495  Biso   1.000  Zr
  O41      1.0000 0.49205  0.14714  0.50124  Biso   1.000  O
  O42      1.0000 0.48720  0.10164  0.74895  Biso   1.000  O
  O43      1.0000 0.49760  0.35260  0.75760  Biso   1.000  O
  O44      1.0000 0.50324  0.39820  0.50758  Biso   1.000  O
  O45      1.0000 0.73381  0.14569  0.74132  Biso   1.000  O
  O46      1.0000 0.74070  0.10171  0.49464  Biso   1.000  O
  O47      1.0000 0.75243  0.35319  0.49256  Biso   1.000  O
  O48      1.0000 0.75012  0.39086  0.74175  Biso   1.000  O
  Zr25     1.0000 0.63744  0.50369  0.12269  Biso   1.000  Zr
  Zr26     1.0000 0.63098  0.75064  0.37126  Biso   1.000  Zr
  Zr27     1.0000 0.87211  0.75992  0.11896  Biso   1.000  Zr
  Zr28     1.0000 0.87498  0.48968  0.37052  Biso   1.000  Zr
  O49      1.0000 0.51772  0.64769  0.00457  Biso   1.000  O
  O50      1.0000 0.51061  0.60684  0.25334  Biso   1.000  O
  O51      1.0000 0.50124  0.85469  0.25502  Biso   1.000  O
  O52      1.0000 0.49813  0.89710  0.00533  Biso   1.000  O
  O53      1.0000 0.76082  0.64369  0.25049  Biso   1.000  O
  O54      1.0000 0.77016  0.60774  0.00177  Biso   1.000  O
  O55      1.0000 0.74912  0.85669  0.99453  Biso   1.000  O
  O56      1.0000 0.74789  0.89415  0.24585  Biso   1.000  O
  Zr29     1.0000 0.63090  0.50109  0.62117  Biso   1.000  Zr
  Zr30     1.0000 0.63048  0.75107  0.87102  Biso   1.000  Zr
  Zr31     1.0000 0.87295  0.75787  0.62144  Biso   1.000  Zr
  Zr32     1.0000 0.87095  0.48727  0.86732  Biso   1.000  Zr
  O57      1.0000 0.51053  0.64813  0.50365  Biso   1.000  O
  O58      1.0000 0.50853  0.60243  0.75308  Biso   1.000  O
  O59      1.0000 0.50011  0.85113  0.75406  Biso   1.000  O
  O60      1.0000 0.49963  0.89731  0.50202  Biso   1.000  O
  O61      1.0000 0.75858  0.64265  0.74992  Biso   1.000  O
  O62      1.0000 0.76184  0.60409  0.50037  Biso   1.000  O
  O63      1.0000 0.75281  0.85390  0.49420  Biso   1.000  O
  O64      1.0000 0.74596  0.89495  0.74256  Biso   1.000  O
  Zn1      1.0000 0.11993  0.23798  0.12722  Biso   1.000  Zn
