data_image0
_cell_length_a       9.96084
_cell_length_b       5.18398
_cell_length_c       10.0004
_cell_angle_alpha    90.0197
_cell_angle_beta     90.0349
_cell_angle_gamma    90.0026

_symmetry_space_group_name_H-M    "P 1"
_symmetry_int_tables_number       1

loop_
  _symmetry_equiv_pos_as_xyz
  'x, y, z'

loop_
  _atom_site_label
  _atom_site_occupancy
  _atom_site_fract_x
  _atom_site_fract_y
  _atom_site_fract_z
  _atom_site_thermal_displace_type
  _atom_site_B_iso_or_equiv
  _atom_site_type_symbol
  Zr1      1.0000 0.13339  0.03179  0.12618  Biso   1.000  Zr
  Hf1      1.0000 0.13395  0.46703  0.37634  Biso   1.000  Hf
  Hf2      1.0000 0.36619  0.53241  0.12586  Biso   1.000  Hf
  Hf3      1.0000 0.36602  0.96679  0.37599  Biso   1.000  Hf
  O1       1.0000 0.03610  0.37086  0.19455  Biso   1.000  O
  O2       1.0000 0.03646  0.13094  0.44385  Biso   1.000  O
  O3       1.0000 0.46351  0.86882  0.19406  Biso   1.000  O
  O4       1.0000 0.46354  0.63108  0.44424  Biso   1.000  O
  O5       1.0000 0.27102  0.23586  0.25009  Biso   1.000  O
  O6       1.0000 0.27066  0.26425  0.49989  Biso   1.000  O
  O7       1.0000 0.22934  0.76452  0.49988  Biso   1.000  O
  O8       1.0000 0.23008  0.73374  0.25030  Biso   1.000  O
  Hf4      1.0000 0.13402  0.03285  0.62600  Biso   1.000  Hf
  Hf5      1.0000 0.13420  0.46744  0.87573  Biso   1.000  Hf
  Hf6      1.0000 0.36601  0.53278  0.62599  Biso   1.000  Hf
  Hf7      1.0000 0.36627  0.96725  0.87590  Biso   1.000  Hf
  O9       1.0000 0.03677  0.36938  0.69347  Biso   1.000  O
  O10      1.0000 0.03633  0.13273  0.94259  Biso   1.000  O
  O11      1.0000 0.46367  0.86864  0.69407  Biso   1.000  O
  O12      1.0000 0.46422  0.63170  0.94412  Biso   1.000  O
  O13      1.0000 0.27076  0.23545  0.74967  Biso   1.000  O
  O14      1.0000 0.27113  0.26520  0.99928  Biso   1.000  O
  O15      1.0000 0.23039  0.76384  0.99931  Biso   1.000  O
  O16      1.0000 0.22949  0.73571  0.74964  Biso   1.000  O
  Hf8      1.0000 0.63391  0.03265  0.12608  Biso   1.000  Hf
  Hf9      1.0000 0.63382  0.46695  0.37618  Biso   1.000  Hf
  Hf10     1.0000 0.86539  0.53280  0.12626  Biso   1.000  Hf
  Hf11     1.0000 0.86551  0.96717  0.37657  Biso   1.000  Hf
  O17      1.0000 0.53658  0.36858  0.19410  Biso   1.000  O
  O18      1.0000 0.53647  0.13099  0.44417  Biso   1.000  O
  O19      1.0000 0.96211  0.86966  0.19463  Biso   1.000  O
  O20      1.0000 0.96339  0.63140  0.44417  Biso   1.000  O
  O21      1.0000 0.77049  0.23539  0.25005  Biso   1.000  O
  O22      1.0000 0.77055  0.26453  0.50001  Biso   1.000  O
  O23      1.0000 0.72918  0.76433  0.50015  Biso   1.000  O
  O24      1.0000 0.72882  0.73535  0.25015  Biso   1.000  O
  Hf12     1.0000 0.63395  0.03292  0.62615  Biso   1.000  Hf
  Hf13     1.0000 0.63413  0.46710  0.87603  Biso   1.000  Hf
  Hf14     1.0000 0.86606  0.53295  0.62604  Biso   1.000  Hf
  Hf15     1.0000 0.86586  0.96692  0.87598  Biso   1.000  Hf
  O25      1.0000 0.53650  0.36871  0.69415  Biso   1.000  O
  O26      1.0000 0.53672  0.13134  0.94409  Biso   1.000  O
  O27      1.0000 0.96353  0.86889  0.69410  Biso   1.000  O
  O28      1.0000 0.96420  0.63252  0.94489  Biso   1.000  O
  O29      1.0000 0.77080  0.23554  0.74986  Biso   1.000  O
  O30      1.0000 0.77081  0.26446  0.99992  Biso   1.000  O
  O31      1.0000 0.72951  0.76444  0.00002  Biso   1.000  O
  O32      1.0000 0.72949  0.73548  0.75002  Biso   1.000  O
