data_image0
_cell_length_a       10.1584
_cell_length_b       10.3612
_cell_length_c       5.30176
_cell_angle_alpha    89.8239
_cell_angle_beta     91.2206
_cell_angle_gamma    90.0588

_symmetry_space_group_name_H-M    "P 1"
_symmetry_int_tables_number       1

loop_
  _symmetry_equiv_pos_as_xyz
  'x, y, z'

loop_
  _atom_site_label
  _atom_site_occupancy
  _atom_site_fract_x
  _atom_site_fract_y
  _atom_site_fract_z
  _atom_site_thermal_displace_type
  _atom_site_B_iso_or_equiv
  _atom_site_type_symbol
  Zr1      1.0000 0.13850  0.01970  0.34914  Biso   1.000  Zr
  Zr2      1.0000 0.13701  0.22635  0.85567  Biso   1.000  Zr
  Zr3      1.0000 0.34920  0.26851  0.37595  Biso   1.000  Zr
  Zr4      1.0000 0.36033  0.48291  0.85145  Biso   1.000  Zr
  Zr5      1.0000 0.64368  0.01595  0.14839  Biso   1.000  Zr
  Zr6      1.0000 0.64775  0.22342  0.63079  Biso   1.000  Zr
  Zr7      1.0000 0.86179  0.27105  0.14966  Biso   1.000  Zr
  Zr8      1.0000 0.86666  0.48094  0.65574  Biso   1.000  Zr
  O1       1.0000 0.03200  0.16216  0.16696  Biso   1.000  O
  O2       1.0000 0.03415  0.08405  0.66566  Biso   1.000  O
  O3       1.0000 0.45788  0.43503  0.19999  Biso   1.000  O
  O4       1.0000 0.47062  0.33508  0.67324  Biso   1.000  O
  O5       1.0000 0.27158  0.12554  0.60693  Biso   1.000  O
  O6       1.0000 0.27571  0.12359  0.10436  Biso   1.000  O
  O7       1.0000 0.22314  0.37519  0.60701  Biso   1.000  O
  O8       1.0000 0.22505  0.37382  0.10402  Biso   1.000  O
  O9       1.0000 0.51564  0.13848  0.37631  Biso   1.000  O
  O10      1.0000 0.53371  0.07885  0.83627  Biso   1.000  O
  O11      1.0000 0.96958  0.41317  0.33774  Biso   1.000  O
  O12      1.0000 0.97195  0.33657  0.83773  Biso   1.000  O
  O13      1.0000 0.78550  0.12206  0.88750  Biso   1.000  O
  O14      1.0000 0.78173  0.12178  0.39613  Biso   1.000  O
  O15      1.0000 0.73602  0.38419  0.90116  Biso   1.000  O
  O16      1.0000 0.72823  0.37839  0.40849  Biso   1.000  O
  Zr9      1.0000 0.13925  0.52080  0.34410  Biso   1.000  Zr
  Zr10     1.0000 0.14049  0.72995  0.84515  Biso   1.000  Zr
  Zr11     1.0000 0.36306  0.77200  0.34888  Biso   1.000  Zr
  Zr12     1.0000 0.36274  0.97675  0.85297  Biso   1.000  Zr
  Zr13     1.0000 0.64208  0.53002  0.15881  Biso   1.000  Zr
  Zr14     1.0000 0.64077  0.73061  0.65666  Biso   1.000  Zr
  Zr15     1.0000 0.86550  0.77070  0.15839  Biso   1.000  Zr
  Zr16     1.0000 0.86406  0.97669  0.65635  Biso   1.000  Zr
  O17      1.0000 0.03432  0.66244  0.16393  Biso   1.000  O
  O18      1.0000 0.03599  0.58709  0.66405  Biso   1.000  O
  O19      1.0000 0.47161  0.90827  0.16230  Biso   1.000  O
  O20      1.0000 0.47026  0.83525  0.66674  Biso   1.000  O
  O21      1.0000 0.27726  0.62414  0.59304  Biso   1.000  O
  O22      1.0000 0.27518  0.62564  0.09154  Biso   1.000  O
  O23      1.0000 0.22727  0.87409  0.59707  Biso   1.000  O
  O24      1.0000 0.22579  0.87446  0.09873  Biso   1.000  O
  O25      1.0000 0.53610  0.66897  0.33593  Biso   1.000  O
  O26      1.0000 0.53305  0.58550  0.83689  Biso   1.000  O
  O27      1.0000 0.97114  0.91194  0.33701  Biso   1.000  O
  O28      1.0000 0.97084  0.83531  0.83969  Biso   1.000  O
  O29      1.0000 0.77697  0.62835  0.90821  Biso   1.000  O
  O30      1.0000 0.77868  0.62677  0.40845  Biso   1.000  O
  O31      1.0000 0.72827  0.87420  0.91143  Biso   1.000  O
  O32      1.0000 0.72860  0.87301  0.41013  Biso   1.000  O
  Ag1      1.0000 0.56198  0.27042  0.07780  Biso   1.000  Ag
