data_image0
_cell_length_a       10.1704
_cell_length_b       10.3503
_cell_length_c       10.4939
_cell_angle_alpha    89.9172
_cell_angle_beta     80.8012
_cell_angle_gamma    89.8426

_symmetry_space_group_name_H-M    "P 1"
_symmetry_int_tables_number       1

loop_
  _symmetry_equiv_pos_as_xyz
  'x, y, z'

loop_
  _atom_site_label
  _atom_site_occupancy
  _atom_site_fract_x
  _atom_site_fract_y
  _atom_site_fract_z
  _atom_site_thermal_displace_type
  _atom_site_B_iso_or_equiv
  _atom_site_type_symbol
  Ag1      1.0000 0.12498  0.01451  0.16743  Biso   1.000  Ag
  Zr1      1.0000 0.13868  0.23252  0.39504  Biso   1.000  Zr
  Zr2      1.0000 0.35937  0.26904  0.10032  Biso   1.000  Zr
  Zr3      1.0000 0.36135  0.47948  0.35317  Biso   1.000  Zr
  O1       1.0000 0.04298  0.16637  0.08438  Biso   1.000  O
  O2       1.0000 0.02720  0.08121  0.35112  Biso   1.000  O
  O3       1.0000 0.46366  0.41932  0.16877  Biso   1.000  O
  O4       1.0000 0.46331  0.33046  0.41878  Biso   1.000  O
  O5       1.0000 0.26883  0.12339  0.23449  Biso   1.000  O
  O6       1.0000 0.27640  0.12249  0.48542  Biso   1.000  O
  O7       1.0000 0.22456  0.38154  0.00829  Biso   1.000  O
  O8       1.0000 0.22555  0.36974  0.25794  Biso   1.000  O
  Zr4      1.0000 0.13804  0.02076  0.64199  Biso   1.000  Zr
  Zr5      1.0000 0.14324  0.22414  0.89486  Biso   1.000  Zr
  Zr6      1.0000 0.36084  0.27154  0.60392  Biso   1.000  Zr
  Zr7      1.0000 0.36153  0.47933  0.85445  Biso   1.000  Zr
  O9       1.0000 0.03701  0.17320  0.58174  Biso   1.000  O
  O10      1.0000 0.03712  0.07864  0.82908  Biso   1.000  O
  O11      1.0000 0.46433  0.41976  0.66903  Biso   1.000  O
  O12      1.0000 0.46893  0.33529  0.92020  Biso   1.000  O
  O13      1.0000 0.27508  0.12721  0.73412  Biso   1.000  O
  O14      1.0000 0.29154  0.13323  0.97472  Biso   1.000  O
  O15      1.0000 0.22330  0.37993  0.50857  Biso   1.000  O
  O16      1.0000 0.22564  0.36962  0.75924  Biso   1.000  O
  Zr8      1.0000 0.13935  0.52176  0.14438  Biso   1.000  Zr
  Zr9      1.0000 0.13610  0.72693  0.39605  Biso   1.000  Zr
  Zr10     1.0000 0.36050  0.77356  0.10104  Biso   1.000  Zr
  Zr11     1.0000 0.36055  0.97846  0.35243  Biso   1.000  Zr
  O17      1.0000 0.03782  0.67318  0.08223  Biso   1.000  O
  O18      1.0000 0.03648  0.57813  0.33090  Biso   1.000  O
  O19      1.0000 0.46403  0.91867  0.17012  Biso   1.000  O
  O20      1.0000 0.46349  0.82964  0.41767  Biso   1.000  O
  O21      1.0000 0.27584  0.63099  0.24041  Biso   1.000  O
  O22      1.0000 0.27557  0.62087  0.49058  Biso   1.000  O
  O23      1.0000 0.22832  0.88095  0.00395  Biso   1.000  O
  O24      1.0000 0.21869  0.86899  0.25660  Biso   1.000  O
  Zr12     1.0000 0.13975  0.52118  0.64666  Biso   1.000  Zr
  Zr13     1.0000 0.14088  0.73229  0.89474  Biso   1.000  Zr
  Zr14     1.0000 0.36127  0.77190  0.60383  Biso   1.000  Zr
  Zr15     1.0000 0.36061  0.98195  0.85406  Biso   1.000  Zr
  O25      1.0000 0.03554  0.66930  0.58167  Biso   1.000  O
  O26      1.0000 0.03833  0.57894  0.83291  Biso   1.000  O
  O27      1.0000 0.46429  0.92025  0.66805  Biso   1.000  O
  O28      1.0000 0.46572  0.83176  0.91800  Biso   1.000  O
  O29      1.0000 0.27663  0.62985  0.74012  Biso   1.000  O
  O30      1.0000 0.27653  0.62206  0.99000  Biso   1.000  O
  O31      1.0000 0.22398  0.87922  0.50631  Biso   1.000  O
  O32      1.0000 0.22365  0.87136  0.75615  Biso   1.000  O
  Zr16     1.0000 0.63863  0.02108  0.14475  Biso   1.000  Zr
  Zr17     1.0000 0.63748  0.22934  0.39577  Biso   1.000  Zr
  Zr18     1.0000 0.86404  0.26829  0.10725  Biso   1.000  Zr
  Zr19     1.0000 0.86022  0.47900  0.35466  Biso   1.000  Zr
  O33      1.0000 0.53652  0.16987  0.08060  Biso   1.000  O
  O34      1.0000 0.53421  0.08039  0.33019  Biso   1.000  O
  O35      1.0000 0.96477  0.41984  0.16982  Biso   1.000  O
  O36      1.0000 0.96337  0.33213  0.42128  Biso   1.000  O
  O37      1.0000 0.77438  0.12818  0.24300  Biso   1.000  O
  O38      1.0000 0.77395  0.12124  0.49299  Biso   1.000  O
  O39      1.0000 0.72718  0.37784  0.01085  Biso   1.000  O
  O40      1.0000 0.72502  0.36987  0.25969  Biso   1.000  O
  Zr20     1.0000 0.63787  0.02163  0.64700  Biso   1.000  Zr
  Zr21     1.0000 0.64016  0.22933  0.89620  Biso   1.000  Zr
  Zr22     1.0000 0.86061  0.27205  0.60614  Biso   1.000  Zr
  Zr23     1.0000 0.86472  0.47692  0.85679  Biso   1.000  Zr
  O41      1.0000 0.53517  0.17023  0.58039  Biso   1.000  O
  O42      1.0000 0.53879  0.08047  0.83021  Biso   1.000  O
  O43      1.0000 0.96552  0.41871  0.67228  Biso   1.000  O
  O44      1.0000 0.96685  0.32719  0.92472  Biso   1.000  O
  O45      1.0000 0.77754  0.12972  0.74132  Biso   1.000  O
  O46      1.0000 0.77725  0.12053  0.99198  Biso   1.000  O
  O47      1.0000 0.72327  0.37897  0.50990  Biso   1.000  O
  O48      1.0000 0.72559  0.37160  0.76047  Biso   1.000  O
  Zr24     1.0000 0.63747  0.51966  0.14433  Biso   1.000  Zr
  Zr25     1.0000 0.63801  0.72751  0.39472  Biso   1.000  Zr
  Zr26     1.0000 0.86101  0.76835  0.10256  Biso   1.000  Zr
  Zr27     1.0000 0.85478  0.97799  0.36015  Biso   1.000  Zr
  O49      1.0000 0.53618  0.66940  0.07898  Biso   1.000  O
  O50      1.0000 0.53640  0.57905  0.33008  Biso   1.000  O
  O51      1.0000 0.95522  0.92509  0.17005  Biso   1.000  O
  O52      1.0000 0.96117  0.82774  0.41896  Biso   1.000  O
  O53      1.0000 0.77554  0.62824  0.24010  Biso   1.000  O
  O54      1.0000 0.77572  0.62068  0.49087  Biso   1.000  O
  O55      1.0000 0.72388  0.87894  0.00912  Biso   1.000  O
  O56      1.0000 0.72545  0.87003  0.25854  Biso   1.000  O
  Zr28     1.0000 0.63872  0.52126  0.64601  Biso   1.000  Zr
  Zr29     1.0000 0.63907  0.72879  0.89481  Biso   1.000  Zr
  Zr30     1.0000 0.86030  0.77037  0.60580  Biso   1.000  Zr
  Zr31     1.0000 0.86221  0.97935  0.85481  Biso   1.000  Zr
  O57      1.0000 0.53593  0.66961  0.57932  Biso   1.000  O
  O58      1.0000 0.53573  0.58202  0.82888  Biso   1.000  O
  O59      1.0000 0.96298  0.92045  0.66767  Biso   1.000  O
  O60      1.0000 0.96318  0.82826  0.91833  Biso   1.000  O
  O61      1.0000 0.77708  0.62819  0.74139  Biso   1.000  O
  O62      1.0000 0.77720  0.62037  0.99083  Biso   1.000  O
  O63      1.0000 0.72153  0.87838  0.51018  Biso   1.000  O
  O64      1.0000 0.72475  0.87093  0.75935  Biso   1.000  O
