data_image0
_cell_length_a       10.1402
_cell_length_b       5.26043
_cell_length_c       10.1655
_cell_angle_alpha    88.7948
_cell_angle_beta     89.2814
_cell_angle_gamma    89.8693

_symmetry_space_group_name_H-M    "P 1"
_symmetry_int_tables_number       1

loop_
  _symmetry_equiv_pos_as_xyz
  'x, y, z'

loop_
  _atom_site_label
  _atom_site_occupancy
  _atom_site_fract_x
  _atom_site_fract_y
  _atom_site_fract_z
  _atom_site_thermal_displace_type
  _atom_site_B_iso_or_equiv
  _atom_site_type_symbol
  Zr1      1.0000 0.13699  0.07884  0.11968  Biso   1.000  Zr
  Zr2      1.0000 0.13672  0.46316  0.38776  Biso   1.000  Zr
  Zr3      1.0000 0.37244  0.53955  0.12285  Biso   1.000  Zr
  Zr4      1.0000 0.36608  0.96851  0.37721  Biso   1.000  Zr
  Zr5      1.0000 0.99915  0.32027  0.24082  Biso   1.000  Zr
  Zr6      1.0000 0.03977  0.12383  0.45691  Biso   1.000  Zr
  Zr7      1.0000 0.46753  0.86325  0.20399  Biso   1.000  Zr
  Zr8      1.0000 0.46882  0.63869  0.45146  Biso   1.000  Zr
  Zr9      1.0000 0.26885  0.24482  0.24836  Biso   1.000  Zr
  Zr10     1.0000 0.27346  0.26208  0.49988  Biso   1.000  Zr
  Zr11     1.0000 0.23543  0.75967  0.50563  Biso   1.000  Zr
  Zr12     1.0000 0.23330  0.73626  0.26038  Biso   1.000  Zr
  Zr13     1.0000 0.13515  0.01227  0.62683  Biso   1.000  Zr
  Zr14     1.0000 0.12631  0.44569  0.85180  Biso   1.000  Zr
  Zr15     1.0000 0.37157  0.52731  0.62765  Biso   1.000  Zr
  Zr16     1.0000 0.37631  0.97929  0.87152  Biso   1.000  Zr
  Zr17     1.0000 0.03157  0.34960  0.68501  Biso   1.000  Zr
  Zr18     1.0000 0.03629  0.11532  0.94027  Biso   1.000  Zr
  Zr19     1.0000 0.47083  0.85823  0.69377  Biso   1.000  Zr
  Zr20     1.0000 0.47497  0.64128  0.94637  Biso   1.000  Zr
  Zr21     1.0000 0.26598  0.21867  0.74242  Biso   1.000  Zr
  Zr22     1.0000 0.27907  0.29083  0.98308  Biso   1.000  Zr
  Zr23     1.0000 0.25694  0.82111  0.01406  Biso   1.000  Zr
  Zr24     1.0000 0.23840  0.72164  0.75577  Biso   1.000  Zr
  Zr25     1.0000 0.63012  0.02552  0.12653  Biso   1.000  Zr
  Zr26     1.0000 0.63103  0.46922  0.37559  Biso   1.000  Zr
  Zr27     1.0000 0.84548  0.51816  0.12638  Biso   1.000  Zr
  Zr28     1.0000 0.88116  0.98439  0.36380  Biso   1.000  Zr
  Zr29     1.0000 0.53371  0.36601  0.19711  Biso   1.000  Zr
  Zr30     1.0000 0.53302  0.13741  0.44818  Biso   1.000  Zr
  Zr31     1.0000 0.96213  0.86000  0.18466  Biso   1.000  Zr
  Zr32     1.0000 0.97242  0.64623  0.44938  Biso   1.000  Zr
  Zr33     1.0000 0.75592  0.22328  0.24827  Biso   1.000  Zr
  Zr34     1.0000 0.76959  0.27966  0.49442  Biso   1.000  Zr
  Zr35     1.0000 0.73842  0.78062  0.49487  Biso   1.000  Zr
  Zr36     1.0000 0.72961  0.72944  0.24920  Biso   1.000  Zr
  Zr37     1.0000 0.63798  0.02897  0.62058  Biso   1.000  Zr
  Zr38     1.0000 0.63566  0.46413  0.87325  Biso   1.000  Zr
  Zr39     1.0000 0.86345  0.53626  0.61981  Biso   1.000  Zr
  Zr40     1.0000 0.86520  0.95800  0.87343  Biso   1.000  Zr
  Zr41     1.0000 0.53308  0.35335  0.70174  Biso   1.000  Zr
  Zr42     1.0000 0.53700  0.13702  0.95004  Biso   1.000  Zr
  Zr43     1.0000 0.97038  0.84763  0.70141  Biso   1.000  Zr
  Zr44     1.0000 0.95116  0.61258  0.93198  Biso   1.000  Zr
  Zr45     1.0000 0.77026  0.22762  0.74524  Biso   1.000  Zr
  Zr46     1.0000 0.76770  0.25760  0.99854  Biso   1.000  Zr
  Zr47     1.0000 0.72700  0.76054  0.99962  Biso   1.000  Zr
  Zr48     1.0000 0.73068  0.73132  0.74561  Biso   1.000  Zr
  Ag1      1.0000 0.09986  0.58309  0.09469  Biso   1.000  Ag
