data_image0
_cell_length_a       10.0221
_cell_length_b       10.4347
_cell_length_c       5.04332
_cell_angle_alpha    90.1019
_cell_angle_beta     89.1724
_cell_angle_gamma    89.904

_symmetry_space_group_name_H-M    "P 1"
_symmetry_int_tables_number       1

loop_
  _symmetry_equiv_pos_as_xyz
  'x, y, z'

loop_
  _atom_site_label
  _atom_site_occupancy
  _atom_site_fract_x
  _atom_site_fract_y
  _atom_site_fract_z
  _atom_site_thermal_displace_type
  _atom_site_B_iso_or_equiv
  _atom_site_type_symbol
  Ag1      1.0000 0.12165  0.02474  0.21620  Biso   1.000  Ag
  Zr1      1.0000 0.13798  0.23612  0.74928  Biso   1.000  Zr
  Zr2      1.0000 0.36786  0.26733  0.26048  Biso   1.000  Zr
  Zr3      1.0000 0.36648  0.48563  0.75537  Biso   1.000  Zr
  Zr4      1.0000 0.03953  0.18343  0.37716  Biso   1.000  Zr
  Zr5      1.0000 0.03613  0.06769  0.83124  Biso   1.000  Zr
  Zr6      1.0000 0.46512  0.43391  0.39340  Biso   1.000  Zr
  Zr7      1.0000 0.46239  0.31462  0.88732  Biso   1.000  Zr
  Zr8      1.0000 0.28620  0.13091  0.52495  Biso   1.000  Zr
  Zr9      1.0000 0.26366  0.12878  0.01799  Biso   1.000  Zr
  Zr10     1.0000 0.23139  0.38206  0.00152  Biso   1.000  Zr
  Zr11     1.0000 0.22878  0.37120  0.50007  Biso   1.000  Zr
  Zr12     1.0000 0.13449  0.51590  0.25407  Biso   1.000  Zr
  Zr13     1.0000 0.13336  0.73353  0.75616  Biso   1.000  Zr
  Zr14     1.0000 0.36533  0.76608  0.26289  Biso   1.000  Zr
  Zr15     1.0000 0.36140  0.98325  0.75677  Biso   1.000  Zr
  Zr16     1.0000 0.03545  0.68278  0.39184  Biso   1.000  Zr
  Zr17     1.0000 0.03374  0.56469  0.89436  Biso   1.000  Zr
  Zr18     1.0000 0.46788  0.93325  0.39867  Biso   1.000  Zr
  Zr19     1.0000 0.46260  0.81716  0.89999  Biso   1.000  Zr
  Zr20     1.0000 0.26891  0.61434  0.50168  Biso   1.000  Zr
  Zr21     1.0000 0.26928  0.63394  0.00288  Biso   1.000  Zr
  Zr22     1.0000 0.22372  0.88270  0.02428  Biso   1.000  Zr
  Zr23     1.0000 0.24060  0.85931  0.52802  Biso   1.000  Zr
  Zr24     1.0000 0.63266  0.01513  0.24607  Biso   1.000  Zr
  Zr25     1.0000 0.63275  0.23267  0.74916  Biso   1.000  Zr
  Zr26     1.0000 0.86256  0.26527  0.24480  Biso   1.000  Zr
  Zr27     1.0000 0.86623  0.48333  0.74995  Biso   1.000  Zr
  Zr28     1.0000 0.54128  0.18685  0.38038  Biso   1.000  Zr
  Zr29     1.0000 0.53396  0.06631  0.88851  Biso   1.000  Zr
  Zr30     1.0000 0.96567  0.42808  0.38978  Biso   1.000  Zr
  Zr31     1.0000 0.96413  0.31566  0.88584  Biso   1.000  Zr
  Zr32     1.0000 0.76933  0.11674  0.49118  Biso   1.000  Zr
  Zr33     1.0000 0.77117  0.13156  0.99026  Biso   1.000  Zr
  Zr34     1.0000 0.72969  0.38159  0.99912  Biso   1.000  Zr
  Zr35     1.0000 0.73005  0.36742  0.49880  Biso   1.000  Zr
  Zr36     1.0000 0.63459  0.51664  0.25462  Biso   1.000  Zr
  Zr37     1.0000 0.63266  0.73472  0.75248  Biso   1.000  Zr
  Zr38     1.0000 0.86930  0.76405  0.24164  Biso   1.000  Zr
  Zr39     1.0000 0.86384  0.98314  0.74004  Biso   1.000  Zr
  Zr40     1.0000 0.53520  0.68311  0.39767  Biso   1.000  Zr
  Zr41     1.0000 0.53546  0.56636  0.89447  Biso   1.000  Zr
  Zr42     1.0000 0.96245  0.93539  0.36779  Biso   1.000  Zr
  Zr43     1.0000 0.96186  0.81612  0.87921  Biso   1.000  Zr
  Zr44     1.0000 0.77037  0.61588  0.49703  Biso   1.000  Zr
  Zr45     1.0000 0.76837  0.63248  0.99648  Biso   1.000  Zr
  Zr46     1.0000 0.72781  0.88155  0.99189  Biso   1.000  Zr
  Zr47     1.0000 0.73499  0.86572  0.49094  Biso   1.000  Zr
