data_image0
_cell_length_a       5.03013
_cell_length_b       10.0739
_cell_length_c       10.1163
_cell_angle_alpha    89.9998
_cell_angle_beta     90.001
_cell_angle_gamma    90.0012

_symmetry_space_group_name_H-M    "P 1"
_symmetry_int_tables_number       1

loop_
  _symmetry_equiv_pos_as_xyz
  'x, y, z'

loop_
  _atom_site_label
  _atom_site_occupancy
  _atom_site_fract_x
  _atom_site_fract_y
  _atom_site_fract_z
  _atom_site_thermal_displace_type
  _atom_site_B_iso_or_equiv
  _atom_site_type_symbol
  Al1      1.0000 0.25138  0.00008  0.12562  Biso   1.000  Al
  Zr1      1.0000 0.25141  0.00009  0.62561  Biso   1.000  Zr
  Zr2      1.0000 0.25139  0.50009  0.12562  Biso   1.000  Zr
  Zr3      1.0000 0.25140  0.50009  0.62561  Biso   1.000  Zr
  Zr4      1.0000 0.25495  0.24966  0.37362  Biso   1.000  Zr
  Zr5      1.0000 0.24783  0.24966  0.87760  Biso   1.000  Zr
  Zr6      1.0000 0.24783  0.75052  0.37362  Biso   1.000  Zr
  Zr7      1.0000 0.25496  0.75051  0.87760  Biso   1.000  Zr
  Zr8      1.0000 0.75139  0.24658  0.12561  Biso   1.000  Zr
  Zr9      1.0000 0.75140  0.25267  0.62562  Biso   1.000  Zr
  Zr10     1.0000 0.75138  0.75359  0.12561  Biso   1.000  Zr
  Zr11     1.0000 0.75140  0.74752  0.62562  Biso   1.000  Zr
  Zr12     1.0000 0.75140  0.00008  0.37412  Biso   1.000  Zr
  Zr13     1.0000 0.75139  0.00008  0.87711  Biso   1.000  Zr
  Zr14     1.0000 0.75139  0.50009  0.37431  Biso   1.000  Zr
  Zr15     1.0000 0.75140  0.50008  0.87692  Biso   1.000  Zr
  Zr16     1.0000 0.95368  0.14577  0.97423  Biso   1.000  Zr
  Zr17     1.0000 0.99310  0.13137  0.47822  Biso   1.000  Zr
  Zr18     1.0000 0.98293  0.64042  0.98392  Biso   1.000  Zr
  Zr19     1.0000 0.99245  0.63122  0.48412  Biso   1.000  Zr
  Zr20     1.0000 0.04114  0.10717  0.22334  Biso   1.000  Zr
  Zr21     1.0000 0.00509  0.12054  0.72957  Biso   1.000  Zr
  Zr22     1.0000 0.00978  0.61384  0.23543  Biso   1.000  Zr
  Zr23     1.0000 0.00606  0.61988  0.73493  Biso   1.000  Zr
  Zr24     1.0000 0.98293  0.35975  0.26731  Biso   1.000  Zr
  Zr25     1.0000 0.99243  0.36894  0.76711  Biso   1.000  Zr
  Zr26     1.0000 0.95370  0.85441  0.27699  Biso   1.000  Zr
  Zr27     1.0000 0.99309  0.86879  0.77301  Biso   1.000  Zr
  Zr28     1.0000 0.00980  0.38633  0.01580  Biso   1.000  Zr
  Zr29     1.0000 0.00606  0.38029  0.51630  Biso   1.000  Zr
  Zr30     1.0000 0.04112  0.89301  0.02788  Biso   1.000  Zr
  Zr31     1.0000 0.00510  0.87963  0.52165  Biso   1.000  Zr
  Zr32     1.0000 0.54908  0.14576  0.27699  Biso   1.000  Zr
  Zr33     1.0000 0.50970  0.13138  0.77301  Biso   1.000  Zr
  Zr34     1.0000 0.51984  0.64041  0.26731  Biso   1.000  Zr
  Zr35     1.0000 0.51037  0.63123  0.76711  Biso   1.000  Zr
  Zr36     1.0000 0.46162  0.10717  0.02788  Biso   1.000  Zr
  Zr37     1.0000 0.49773  0.12053  0.52166  Biso   1.000  Zr
  Zr38     1.0000 0.49299  0.61384  0.01580  Biso   1.000  Zr
  Zr39     1.0000 0.49675  0.61987  0.51630  Biso   1.000  Zr
  Zr40     1.0000 0.51986  0.35976  0.98392  Biso   1.000  Zr
  Zr41     1.0000 0.51036  0.36894  0.48412  Biso   1.000  Zr
  Zr42     1.0000 0.54906  0.85441  0.97424  Biso   1.000  Zr
  Zr43     1.0000 0.50971  0.86879  0.47822  Biso   1.000  Zr
  Zr44     1.0000 0.49299  0.38632  0.23543  Biso   1.000  Zr
  Zr45     1.0000 0.49673  0.38030  0.73493  Biso   1.000  Zr
  Zr46     1.0000 0.46163  0.89299  0.22335  Biso   1.000  Zr
  Zr47     1.0000 0.49771  0.87964  0.72957  Biso   1.000  Zr
