data_image0
_cell_length_a       5.08348
_cell_length_b       10.2577
_cell_length_c       10.4947
_cell_angle_alpha    90.0889
_cell_angle_beta     80.7479
_cell_angle_gamma    89.4788

_symmetry_space_group_name_H-M    "P 1"
_symmetry_int_tables_number       1

loop_
  _symmetry_equiv_pos_as_xyz
  'x, y, z'

loop_
  _atom_site_label
  _atom_site_occupancy
  _atom_site_fract_x
  _atom_site_fract_y
  _atom_site_fract_z
  _atom_site_thermal_displace_type
  _atom_site_B_iso_or_equiv
  _atom_site_type_symbol
  Al1      1.0000 0.24831  0.00968  0.16377  Biso   1.000  Al
  Zr1      1.0000 0.27486  0.02147  0.64274  Biso   1.000  Zr
  Zr2      1.0000 0.27908  0.52130  0.14482  Biso   1.000  Zr
  Zr3      1.0000 0.27946  0.52089  0.64722  Biso   1.000  Zr
  Zr4      1.0000 0.27466  0.22579  0.38806  Biso   1.000  Zr
  Zr5      1.0000 0.28787  0.22560  0.89727  Biso   1.000  Zr
  Zr6      1.0000 0.27461  0.72895  0.39528  Biso   1.000  Zr
  Zr7      1.0000 0.27435  0.73389  0.89845  Biso   1.000  Zr
  Zr8      1.0000 0.73358  0.26098  0.10558  Biso   1.000  Zr
  Zr9      1.0000 0.72063  0.27213  0.60358  Biso   1.000  Zr
  Zr10     1.0000 0.71091  0.77874  0.10604  Biso   1.000  Zr
  Zr11     1.0000 0.71870  0.77073  0.60644  Biso   1.000  Zr
  Zr12     1.0000 0.72027  0.47881  0.35435  Biso   1.000  Zr
  Zr13     1.0000 0.72514  0.47908  0.85836  Biso   1.000  Zr
  Zr14     1.0000 0.71305  0.97853  0.35138  Biso   1.000  Zr
  Zr15     1.0000 0.72031  0.98289  0.85552  Biso   1.000  Zr
  O1       1.0000 0.09590  0.15035  0.07972  Biso   1.000  O
  O2       1.0000 0.06601  0.16505  0.57298  Biso   1.000  O
  O3       1.0000 0.06357  0.66803  0.08030  Biso   1.000  O
  O4       1.0000 0.06712  0.66628  0.57947  Biso   1.000  O
  O5       1.0000 0.06168  0.08064  0.32362  Biso   1.000  O
  O6       1.0000 0.07336  0.08482  0.82505  Biso   1.000  O
  O7       1.0000 0.07006  0.58106  0.32929  Biso   1.000  O
  O8       1.0000 0.06877  0.58672  0.83063  Biso   1.000  O
  O9       1.0000 0.94059  0.41182  0.17311  Biso   1.000  O
  O10      1.0000 0.93476  0.41464  0.67526  Biso   1.000  O
  O11      1.0000 0.93855  0.91402  0.17321  Biso   1.000  O
  O12      1.0000 0.92969  0.91658  0.67116  Biso   1.000  O
  O13      1.0000 0.93144  0.33372  0.42139  Biso   1.000  O
  O14      1.0000 0.94870  0.33775  0.92885  Biso   1.000  O
  O15      1.0000 0.92407  0.83168  0.42133  Biso   1.000  O
  O16      1.0000 0.92075  0.83416  0.92326  Biso   1.000  O
  O17      1.0000 0.53086  0.11705  0.22763  Biso   1.000  O
  O18      1.0000 0.55101  0.12776  0.73337  Biso   1.000  O
  O19      1.0000 0.55142  0.62947  0.24067  Biso   1.000  O
  O20      1.0000 0.55107  0.62892  0.74250  Biso   1.000  O
  O21      1.0000 0.55038  0.12297  0.48386  Biso   1.000  O
  O22      1.0000 0.59749  0.13828  0.97185  Biso   1.000  O
  O23      1.0000 0.55066  0.62111  0.49170  Biso   1.000  O
  O24      1.0000 0.54907  0.62685  0.99129  Biso   1.000  O
  O25      1.0000 0.45994  0.38071  0.01174  Biso   1.000  O
  O26      1.0000 0.44618  0.37877  0.50930  Biso   1.000  O
  O27      1.0000 0.43665  0.89888  0.01834  Biso   1.000  O
  O28      1.0000 0.44426  0.87819  0.50933  Biso   1.000  O
  O29      1.0000 0.45802  0.36730  0.25878  Biso   1.000  O
  O30      1.0000 0.45384  0.37175  0.76155  Biso   1.000  O
  O31      1.0000 0.43211  0.87297  0.25919  Biso   1.000  O
  O32      1.0000 0.44623  0.87226  0.76143  Biso   1.000  O
