data_image0
_cell_length_a       10.0131
_cell_length_b       10.3811
_cell_length_c       5.02987
_cell_angle_alpha    90.7191
_cell_angle_beta     89.3268
_cell_angle_gamma    90.3443

_symmetry_space_group_name_H-M    "P 1"
_symmetry_int_tables_number       1

loop_
  _symmetry_equiv_pos_as_xyz
  'x, y, z'

loop_
  _atom_site_label
  _atom_site_occupancy
  _atom_site_fract_x
  _atom_site_fract_y
  _atom_site_fract_z
  _atom_site_thermal_displace_type
  _atom_site_B_iso_or_equiv
  _atom_site_type_symbol
  Al1      1.0000 0.12627  0.03117  0.21961  Biso   1.000  Al
  Zr1      1.0000 0.13614  0.51409  0.25125  Biso   1.000  Zr
  Zr2      1.0000 0.63147  0.01415  0.24295  Biso   1.000  Zr
  Zr3      1.0000 0.63381  0.51776  0.25238  Biso   1.000  Zr
  Zr4      1.0000 0.13124  0.23068  0.73995  Biso   1.000  Zr
  Zr5      1.0000 0.13517  0.73603  0.76588  Biso   1.000  Zr
  Zr6      1.0000 0.63274  0.23428  0.74745  Biso   1.000  Zr
  Zr7      1.0000 0.63475  0.73893  0.75099  Biso   1.000  Zr
  Zr8      1.0000 0.36405  0.26052  0.24553  Biso   1.000  Zr
  Zr9      1.0000 0.36500  0.76808  0.26155  Biso   1.000  Zr
  Zr10     1.0000 0.86458  0.26450  0.24248  Biso   1.000  Zr
  Zr11     1.0000 0.87318  0.76922  0.24351  Biso   1.000  Zr
  Zr12     1.0000 0.36669  0.48456  0.75034  Biso   1.000  Zr
  Zr13     1.0000 0.35559  0.98567  0.75833  Biso   1.000  Zr
  Zr14     1.0000 0.86511  0.48647  0.74918  Biso   1.000  Zr
  Zr15     1.0000 0.87245  0.98843  0.73649  Biso   1.000  Zr
  Zr16     1.0000 0.02966  0.17687  0.38488  Biso   1.000  Zr
  Zr17     1.0000 0.03550  0.68368  0.39655  Biso   1.000  Zr
  Zr18     1.0000 0.53056  0.18229  0.39570  Biso   1.000  Zr
  Zr19     1.0000 0.53333  0.68295  0.40115  Biso   1.000  Zr
  Zr20     1.0000 0.03199  0.06783  0.90706  Biso   1.000  Zr
  Zr21     1.0000 0.03271  0.56679  0.89956  Biso   1.000  Zr
  Zr22     1.0000 0.52834  0.07119  0.89979  Biso   1.000  Zr
  Zr23     1.0000 0.53447  0.57008  0.89372  Biso   1.000  Zr
  Zr24     1.0000 0.46531  0.43151  0.38986  Biso   1.000  Zr
  Zr25     1.0000 0.47148  0.93161  0.41077  Biso   1.000  Zr
  Zr26     1.0000 0.96721  0.43061  0.39166  Biso   1.000  Zr
  Zr27     1.0000 0.98671  0.93652  0.38239  Biso   1.000  Zr
  Zr28     1.0000 0.46485  0.31814  0.89138  Biso   1.000  Zr
  Zr29     1.0000 0.46701  0.82306  0.90850  Biso   1.000  Zr
  Zr30     1.0000 0.96324  0.31686  0.88306  Biso   1.000  Zr
  Zr31     1.0000 0.96253  0.81810  0.87946  Biso   1.000  Zr
  Zr32     1.0000 0.25642  0.10315  0.47838  Biso   1.000  Zr
  Zr33     1.0000 0.26759  0.61056  0.50184  Biso   1.000  Zr
  Zr34     1.0000 0.76711  0.11572  0.48726  Biso   1.000  Zr
  Zr35     1.0000 0.77065  0.61731  0.49645  Biso   1.000  Zr
  Zr36     1.0000 0.26249  0.13623  0.98907  Biso   1.000  Zr
  Zr37     1.0000 0.27048  0.63525  0.00292  Biso   1.000  Zr
  Zr38     1.0000 0.76743  0.13517  0.98656  Biso   1.000  Zr
  Zr39     1.0000 0.76823  0.63709  0.99780  Biso   1.000  Zr
  Zr40     1.0000 0.22948  0.38354  0.99251  Biso   1.000  Zr
  Zr41     1.0000 0.22260  0.89380  0.04090  Biso   1.000  Zr
  Zr42     1.0000 0.72968  0.38535  0.99463  Biso   1.000  Zr
  Zr43     1.0000 0.73377  0.88784  0.98705  Biso   1.000  Zr
  Zr44     1.0000 0.23118  0.36144  0.49260  Biso   1.000  Zr
  Zr45     1.0000 0.24533  0.85240  0.53868  Biso   1.000  Zr
  Zr46     1.0000 0.72989  0.36684  0.49339  Biso   1.000  Zr
  Zr47     1.0000 0.73811  0.86678  0.48694  Biso   1.000  Zr
