data_image0
_cell_length_a       10.1531
_cell_length_b       10.3032
_cell_length_c       10.1626
_cell_angle_alpha    90.0906
_cell_angle_beta     88.2228
_cell_angle_gamma    90.3114

_symmetry_space_group_name_H-M    "P 1"
_symmetry_int_tables_number       1

loop_
  _symmetry_equiv_pos_as_xyz
  'x, y, z'

loop_
  _atom_site_label
  _atom_site_occupancy
  _atom_site_fract_x
  _atom_site_fract_y
  _atom_site_fract_z
  _atom_site_thermal_displace_type
  _atom_site_B_iso_or_equiv
  _atom_site_type_symbol
  Zr1      1.0000 0.13175  0.95756  0.11614  Biso   1.000  Zr
  Zr2      1.0000 0.14067  0.26192  0.38082  Biso   1.000  Zr
  Zr3      1.0000 0.40004  0.26452  0.14338  Biso   1.000  Zr
  Zr4      1.0000 0.38989  0.00815  0.37260  Biso   1.000  Zr
  Zr5      1.0000 0.93444  0.16220  0.96124  Biso   1.000  Zr
  Zr6      1.0000 0.03767  0.09709  0.24749  Biso   1.000  Zr
  Zr7      1.0000 0.00766  0.36520  0.26265  Biso   1.000  Zr
  Zr8      1.0000 0.00152  0.41640  0.99942  Biso   1.000  Zr
  Zr9      1.0000 0.31700  0.18480  0.31417  Biso   1.000  Zr
  Zr10     1.0000 0.18865  0.06922  0.95258  Biso   1.000  Zr
  Zr11     1.0000 0.25201  0.33381  0.00312  Biso   1.000  Zr
  Zr12     1.0000 0.26426  0.41785  0.25629  Biso   1.000  Zr
  Zr13     1.0000 0.12432  0.00208  0.62021  Biso   1.000  Zr
  Zr14     1.0000 0.10741  0.24412  0.86112  Biso   1.000  Zr
  Zr15     1.0000 0.38321  0.24062  0.61615  Biso   1.000  Zr
  Zr16     1.0000 0.36796  0.00252  0.87106  Biso   1.000  Zr
  Zr17     1.0000 0.00900  0.14798  0.49092  Biso   1.000  Zr
  Zr18     1.0000 0.99434  0.10481  0.73552  Biso   1.000  Zr
  Zr19     1.0000 0.98203  0.35505  0.74733  Biso   1.000  Zr
  Zr20     1.0000 0.00179  0.39840  0.50535  Biso   1.000  Zr
  Zr21     1.0000 0.24820  0.15366  0.74402  Biso   1.000  Zr
  Zr22     1.0000 0.26492  0.09486  0.51477  Biso   1.000  Zr
  Zr23     1.0000 0.24933  0.35855  0.51697  Biso   1.000  Zr
  Zr24     1.0000 0.22620  0.40123  0.76851  Biso   1.000  Zr
  Zr25     1.0000 0.12935  0.51746  0.13512  Biso   1.000  Zr
  Zr26     1.0000 0.11615  0.74444  0.39057  Biso   1.000  Zr
  Zr27     1.0000 0.38486  0.74904  0.12779  Biso   1.000  Zr
  Zr28     1.0000 0.38145  0.50275  0.39112  Biso   1.000  Zr
  Zr29     1.0000 0.04041  0.66569  0.02698  Biso   1.000  Zr
  Zr30     1.0000 0.99555  0.60748  0.26420  Biso   1.000  Zr
  Zr31     1.0000 0.01260  0.84985  0.25080  Biso   1.000  Zr
  Zr32     1.0000 0.98513  0.89630  0.99585  Biso   1.000  Zr
  Zr33     1.0000 0.23967  0.66922  0.25055  Biso   1.000  Zr
  Zr34     1.0000 0.28773  0.58724  0.02358  Biso   1.000  Zr
  Zr35     1.0000 0.25250  0.83656  0.99236  Biso   1.000  Zr
  Zr36     1.0000 0.28358  0.92087  0.22950  Biso   1.000  Zr
  Zr37     1.0000 0.11971  0.50027  0.63557  Biso   1.000  Zr
  Zr38     1.0000 0.11347  0.75703  0.86327  Biso   1.000  Zr
  Zr39     1.0000 0.36356  0.75702  0.62416  Biso   1.000  Zr
  Zr40     1.0000 0.36888  0.48714  0.87453  Biso   1.000  Zr
  Zr41     1.0000 0.99313  0.64396  0.51596  Biso   1.000  Zr
  Zr42     1.0000 0.99793  0.60641  0.76784  Biso   1.000  Zr
  Zr43     1.0000 0.98588  0.85696  0.74806  Biso   1.000  Zr
  Zr44     1.0000 0.00175  0.89610  0.49761  Biso   1.000  Zr
  Zr45     1.0000 0.24840  0.64559  0.75547  Biso   1.000  Zr
  Zr46     1.0000 0.24294  0.60640  0.50464  Biso   1.000  Zr
  Zr47     1.0000 0.25358  0.85355  0.48870  Biso   1.000  Zr
  Zr48     1.0000 0.23815  0.89511  0.74206  Biso   1.000  Zr
  Zr49     1.0000 0.63618  0.98002  0.12612  Biso   1.000  Zr
  Zr50     1.0000 0.64987  0.24267  0.36042  Biso   1.000  Zr
  Zr51     1.0000 0.88926  0.27574  0.11956  Biso   1.000  Zr
  Zr52     1.0000 0.89548  0.00157  0.36272  Biso   1.000  Zr
  Zr53     1.0000 0.45111  0.15508  0.98239  Biso   1.000  Zr
  Zr54     1.0000 0.52801  0.11099  0.23573  Biso   1.000  Zr
  Zr55     1.0000 0.52317  0.36568  0.26217  Biso   1.000  Zr
  Zr56     1.0000 0.50281  0.40167  0.00803  Biso   1.000  Zr
  Zr57     1.0000 0.77992  0.14328  0.23657  Biso   1.000  Zr
  Zr58     1.0000 0.69814  0.08502  0.97077  Biso   1.000  Zr
  Zr59     1.0000 0.74421  0.34770  0.99928  Biso   1.000  Zr
  Zr60     1.0000 0.76443  0.39679  0.24810  Biso   1.000  Zr
  Zr61     1.0000 0.63042  0.00431  0.61509  Biso   1.000  Zr
  Zr62     1.0000 0.61409  0.24320  0.87460  Biso   1.000  Zr
  Zr63     1.0000 0.87624  0.24551  0.61534  Biso   1.000  Zr
  Zr64     1.0000 0.86238  0.00210  0.87024  Biso   1.000  Zr
  Zr65     1.0000 0.51844  0.14679  0.49237  Biso   1.000  Zr
  Zr66     1.0000 0.49675  0.10046  0.73974  Biso   1.000  Zr
  Zr67     1.0000 0.48380  0.34919  0.75648  Biso   1.000  Zr
  Zr68     1.0000 0.49645  0.39784  0.51231  Biso   1.000  Zr
  Zr69     1.0000 0.74364  0.14650  0.73553  Biso   1.000  Zr
  Zr70     1.0000 0.76223  0.09942  0.48663  Biso   1.000  Zr
  Zr71     1.0000 0.75227  0.35005  0.49659  Biso   1.000  Zr
  Zr72     1.0000 0.73256  0.39142  0.75255  Biso   1.000  Zr
  Zr73     1.0000 0.63001  0.50673  0.13175  Biso   1.000  Zr
  Zr74     1.0000 0.62353  0.74851  0.38420  Biso   1.000  Zr
  Zr75     1.0000 0.87680  0.74458  0.12647  Biso   1.000  Zr
  Zr76     1.0000 0.87385  0.49868  0.38523  Biso   1.000  Zr
  Zr77     1.0000 0.53683  0.65504  0.02164  Biso   1.000  Zr
  Zr78     1.0000 0.49376  0.60864  0.25929  Biso   1.000  Zr
  Zr79     1.0000 0.51669  0.85432  0.25394  Biso   1.000  Zr
  Zr80     1.0000 0.49386  0.89944  0.00249  Biso   1.000  Zr
  Zr81     1.0000 0.74603  0.64472  0.26197  Biso   1.000  Zr
  Zr82     1.0000 0.78794  0.59121  0.02481  Biso   1.000  Zr
  Zr83     1.0000 0.74783  0.84255  0.99946  Biso   1.000  Zr
  Zr84     1.0000 0.76885  0.89313  0.24722  Biso   1.000  Zr
  Zr85     1.0000 0.61519  0.49861  0.63533  Biso   1.000  Zr
  Zr86     1.0000 0.61146  0.76087  0.87053  Biso   1.000  Zr
  Zr87     1.0000 0.86093  0.74993  0.63186  Biso   1.000  Zr
  Zr88     1.0000 0.86159  0.48850  0.87010  Biso   1.000  Zr
  Zr89     1.0000 0.49612  0.64689  0.51067  Biso   1.000  Zr
  Zr90     1.0000 0.49870  0.60300  0.76555  Biso   1.000  Zr
  Zr91     1.0000 0.48175  0.85377  0.75537  Biso   1.000  Zr
  Zr92     1.0000 0.50126  0.89744  0.50430  Biso   1.000  Zr
  Zr93     1.0000 0.74748  0.64275  0.76543  Biso   1.000  Zr
  Zr94     1.0000 0.74478  0.60117  0.51362  Biso   1.000  Zr
  Zr95     1.0000 0.75025  0.85105  0.50145  Biso   1.000  Zr
  Zr96     1.0000 0.73529  0.89419  0.74734  Biso   1.000  Zr
  As1      1.0000 0.15146  0.21710  0.11371  Biso   1.000  As
