data_image0
_cell_length_a       10.3061
_cell_length_b       5.19838
_cell_length_c       10.6199
_cell_angle_alpha    90.3423
_cell_angle_beta     79.5513
_cell_angle_gamma    89.8687

_symmetry_space_group_name_H-M    "P 1"
_symmetry_int_tables_number       1

loop_
  _symmetry_equiv_pos_as_xyz
  'x, y, z'

loop_
  _atom_site_label
  _atom_site_occupancy
  _atom_site_fract_x
  _atom_site_fract_y
  _atom_site_fract_z
  _atom_site_thermal_displace_type
  _atom_site_B_iso_or_equiv
  _atom_site_type_symbol
  Zr1      1.0000 0.13113  0.04575  0.14291  Biso   1.000  Zr
  Zr2      1.0000 0.13603  0.45600  0.39398  Biso   1.000  Zr
  Zr3      1.0000 0.35293  0.55293  0.09678  Biso   1.000  Zr
  Zr4      1.0000 0.35860  0.93514  0.35356  Biso   1.000  Zr
  O1       1.0000 0.02929  0.33622  0.07414  Biso   1.000  O
  O2       1.0000 0.02630  0.17162  0.32768  Biso   1.000  O
  O3       1.0000 0.45938  0.86289  0.16624  Biso   1.000  O
  O4       1.0000 0.48203  0.71486  0.44958  Biso   1.000  O
  O5       1.0000 0.25707  0.25783  0.23407  Biso   1.000  O
  O6       1.0000 0.26820  0.22287  0.49200  Biso   1.000  O
  O7       1.0000 0.21963  0.76708  0.00548  Biso   1.000  O
  O8       1.0000 0.21152  0.75360  0.25651  Biso   1.000  O
  Zr5      1.0000 0.13718  0.04086  0.64511  Biso   1.000  Zr
  Zr6      1.0000 0.13375  0.45968  0.89379  Biso   1.000  Zr
  Zr7      1.0000 0.36085  0.54511  0.61036  Biso   1.000  Zr
  Zr8      1.0000 0.35870  0.96292  0.85519  Biso   1.000  Zr
  O9       1.0000 0.03230  0.32955  0.57763  Biso   1.000  O
  O10      1.0000 0.03055  0.17300  0.82553  Biso   1.000  O
  O11      1.0000 0.46766  0.82242  0.68278  Biso   1.000  O
  O12      1.0000 0.46494  0.67951  0.92422  Biso   1.000  O
  O13      1.0000 0.27243  0.25618  0.73962  Biso   1.000  O
  O14      1.0000 0.27103  0.25451  0.98681  Biso   1.000  O
  O15      1.0000 0.22583  0.74053  0.51116  Biso   1.000  O
  O16      1.0000 0.22408  0.74531  0.75962  Biso   1.000  O
  Zr9      1.0000 0.63829  0.04404  0.14605  Biso   1.000  Zr
  Zr10     1.0000 0.65430  0.46143  0.40627  Biso   1.000  Zr
  Zr11     1.0000 0.85783  0.54453  0.10555  Biso   1.000  Zr
  Zr12     1.0000 0.86150  0.95574  0.35493  Biso   1.000  Zr
  O17      1.0000 0.53097  0.33481  0.07285  Biso   1.000  O
  O18      1.0000 0.55551  0.11516  0.34088  Biso   1.000  O
  O19      1.0000 0.96145  0.83372  0.17222  Biso   1.000  O
  O20      1.0000 0.96467  0.66716  0.42422  Biso   1.000  O
  O21      1.0000 0.77710  0.26092  0.24122  Biso   1.000  O
  O22      1.0000 0.77837  0.23811  0.49550  Biso   1.000  O
  O23      1.0000 0.72239  0.76068  0.01312  Biso   1.000  O
  O24      1.0000 0.72566  0.73981  0.26228  Biso   1.000  O
  Zr13     1.0000 0.63621  0.04355  0.64912  Biso   1.000  Zr
  Zr14     1.0000 0.63603  0.46054  0.89669  Biso   1.000  Zr
  Zr15     1.0000 0.86406  0.54303  0.60921  Biso   1.000  Zr
  Zr16     1.0000 0.85931  0.96031  0.85631  Biso   1.000  Zr
  O25      1.0000 0.53273  0.32612  0.57793  Biso   1.000  O
  O26      1.0000 0.52950  0.17932  0.82642  Biso   1.000  O
  O27      1.0000 0.96615  0.83162  0.67438  Biso   1.000  O
  O28      1.0000 0.96315  0.67362  0.92245  Biso   1.000  O
  O29      1.0000 0.77204  0.25875  0.74246  Biso   1.000  O
  O30      1.0000 0.77231  0.24699  0.99120  Biso   1.000  O
  O31      1.0000 0.72852  0.75345  0.51569  Biso   1.000  O
  O32      1.0000 0.72491  0.74730  0.76379  Biso   1.000  O
  Au1      1.0000 0.43696  0.43311  0.30948  Biso   1.000  Au
