data_image0
_cell_length_a       10.1764
_cell_length_b       5.16588
_cell_length_c       10.5267
_cell_angle_alpha    89.7055
_cell_angle_beta     81.2233
_cell_angle_gamma    89.6246

_symmetry_space_group_name_H-M    "P 1"
_symmetry_int_tables_number       1

loop_
  _symmetry_equiv_pos_as_xyz
  'x, y, z'

loop_
  _atom_site_label
  _atom_site_occupancy
  _atom_site_fract_x
  _atom_site_fract_y
  _atom_site_fract_z
  _atom_site_thermal_displace_type
  _atom_site_B_iso_or_equiv
  _atom_site_type_symbol
  Au1      1.0000 0.12542  0.02810  0.16763  Biso   1.000  Au
  Zr1      1.0000 0.13507  0.46264  0.39684  Biso   1.000  Zr
  Zr2      1.0000 0.36002  0.54345  0.09584  Biso   1.000  Zr
  Zr3      1.0000 0.36121  0.95894  0.35120  Biso   1.000  Zr
  O1       1.0000 0.04421  0.32860  0.08417  Biso   1.000  O
  O2       1.0000 0.02306  0.17018  0.34940  Biso   1.000  O
  O3       1.0000 0.46366  0.83242  0.17156  Biso   1.000  O
  O4       1.0000 0.46278  0.66204  0.41838  Biso   1.000  O
  O5       1.0000 0.26949  0.24902  0.23178  Biso   1.000  O
  O6       1.0000 0.27547  0.24555  0.48419  Biso   1.000  O
  O7       1.0000 0.22957  0.76959  0.00291  Biso   1.000  O
  O8       1.0000 0.21778  0.73774  0.25539  Biso   1.000  O
  Zr4      1.0000 0.13852  0.04154  0.64326  Biso   1.000  Zr
  Zr5      1.0000 0.14496  0.45458  0.89283  Biso   1.000  Zr
  Zr6      1.0000 0.36106  0.54449  0.60305  Biso   1.000  Zr
  Zr7      1.0000 0.36191  0.96528  0.85309  Biso   1.000  Zr
  O9       1.0000 0.03680  0.34578  0.58288  Biso   1.000  O
  O10      1.0000 0.03917  0.15763  0.83010  Biso   1.000  O
  O11      1.0000 0.46579  0.83645  0.66911  Biso   1.000  O
  O12      1.0000 0.47240  0.67822  0.92059  Biso   1.000  O
  O13      1.0000 0.27548  0.25521  0.73231  Biso   1.000  O
  O14      1.0000 0.29394  0.27262  0.97103  Biso   1.000  O
  O15      1.0000 0.22355  0.76131  0.50587  Biso   1.000  O
  O16      1.0000 0.22600  0.74004  0.75620  Biso   1.000  O
  Zr8      1.0000 0.63729  0.03711  0.14364  Biso   1.000  Zr
  Zr9      1.0000 0.63618  0.45558  0.39516  Biso   1.000  Zr
  Zr10     1.0000 0.86425  0.52906  0.10552  Biso   1.000  Zr
  Zr11     1.0000 0.85189  0.95582  0.36074  Biso   1.000  Zr
  O17      1.0000 0.53671  0.33482  0.07726  Biso   1.000  O
  O18      1.0000 0.53381  0.16107  0.32821  Biso   1.000  O
  O19      1.0000 0.95695  0.84191  0.17199  Biso   1.000  O
  O20      1.0000 0.96155  0.66734  0.42384  Biso   1.000  O
  O21      1.0000 0.77305  0.25265  0.24206  Biso   1.000  O
  O22      1.0000 0.77337  0.24244  0.49332  Biso   1.000  O
  O23      1.0000 0.72755  0.75375  0.01134  Biso   1.000  O
  O24      1.0000 0.72560  0.73609  0.25971  Biso   1.000  O
  Zr12     1.0000 0.63809  0.04366  0.64783  Biso   1.000  Zr
  Zr13     1.0000 0.64095  0.45856  0.89566  Biso   1.000  Zr
  Zr14     1.0000 0.86018  0.54302  0.60790  Biso   1.000  Zr
  Zr15     1.0000 0.86616  0.95456  0.85745  Biso   1.000  Zr
  O25      1.0000 0.53409  0.33598  0.57738  Biso   1.000  O
  O26      1.0000 0.53824  0.16896  0.82644  Biso   1.000  O
  O27      1.0000 0.96494  0.83677  0.67270  Biso   1.000  O
  O28      1.0000 0.96701  0.65335  0.92602  Biso   1.000  O
  O29      1.0000 0.77877  0.25771  0.74198  Biso   1.000  O
  O30      1.0000 0.77849  0.23852  0.99196  Biso   1.000  O
  O31      1.0000 0.72050  0.75622  0.51124  Biso   1.000  O
  O32      1.0000 0.72703  0.74360  0.76104  Biso   1.000  O
