data_image0
_cell_length_a       10.1464
_cell_length_b       10.5551
_cell_length_c       5.11932
_cell_angle_alpha    90.734
_cell_angle_beta     86.7884
_cell_angle_gamma    90.1062

_symmetry_space_group_name_H-M    "P 1"
_symmetry_int_tables_number       1

loop_
  _symmetry_equiv_pos_as_xyz
  'x, y, z'

loop_
  _atom_site_label
  _atom_site_occupancy
  _atom_site_fract_x
  _atom_site_fract_y
  _atom_site_fract_z
  _atom_site_thermal_displace_type
  _atom_site_B_iso_or_equiv
  _atom_site_type_symbol
  Zr1      1.0000 0.14165  0.01649  0.29335  Biso   1.000  Zr
  Zr2      1.0000 0.14316  0.21844  0.81420  Biso   1.000  Zr
  Zr3      1.0000 0.37235  0.26611  0.26318  Biso   1.000  Zr
  Zr4      1.0000 0.37108  0.48802  0.74858  Biso   1.000  Zr
  Zr5      1.0000 0.04480  0.07132  0.65454  Biso   1.000  Zr
  Zr6      1.0000 0.00969  0.12631  0.10989  Biso   1.000  Zr
  Zr7      1.0000 0.47502  0.42924  0.40057  Biso   1.000  Zr
  Zr8      1.0000 0.47205  0.31791  0.89483  Biso   1.000  Zr
  Zr9      1.0000 0.28419  0.11291  0.52207  Biso   1.000  Zr
  Zr10     1.0000 0.27911  0.12200  0.02514  Biso   1.000  Zr
  Zr11     1.0000 0.25093  0.39784  0.04439  Biso   1.000  Zr
  Zr12     1.0000 0.25752  0.34882  0.57173  Biso   1.000  Zr
  Zr13     1.0000 0.12690  0.54095  0.21495  Biso   1.000  Zr
  Zr14     1.0000 0.13523  0.74033  0.73740  Biso   1.000  Zr
  Zr15     1.0000 0.37255  0.76159  0.24019  Biso   1.000  Zr
  Zr16     1.0000 0.36912  0.97917  0.75457  Biso   1.000  Zr
  Zr17     1.0000 0.03284  0.69420  0.38085  Biso   1.000  Zr
  Zr18     1.0000 0.03152  0.57631  0.86869  Biso   1.000  Zr
  Zr19     1.0000 0.47024  0.92747  0.37915  Biso   1.000  Zr
  Zr20     1.0000 0.46812  0.81641  0.88732  Biso   1.000  Zr
  Zr21     1.0000 0.26560  0.61173  0.47739  Biso   1.000  Zr
  Zr22     1.0000 0.26741  0.64337  0.97356  Biso   1.000  Zr
  Zr23     1.0000 0.22569  0.88458  0.00266  Biso   1.000  Zr
  Zr24     1.0000 0.24072  0.86257  0.49884  Biso   1.000  Zr
  Zr25     1.0000 0.63201  0.01176  0.21823  Biso   1.000  Zr
  Zr26     1.0000 0.62762  0.23325  0.71456  Biso   1.000  Zr
  Zr27     1.0000 0.84529  0.26055  0.17583  Biso   1.000  Zr
  Zr28     1.0000 0.86550  0.48748  0.72012  Biso   1.000  Zr
  Zr29     1.0000 0.53966  0.18099  0.36802  Biso   1.000  Zr
  Zr30     1.0000 0.53528  0.06377  0.87072  Biso   1.000  Zr
  Zr31     1.0000 0.94841  0.45752  0.33657  Biso   1.000  Zr
  Zr32     1.0000 0.97041  0.32918  0.84798  Biso   1.000  Zr
  Zr33     1.0000 0.77082  0.11199  0.43922  Biso   1.000  Zr
  Zr34     1.0000 0.76314  0.13218  0.93395  Biso   1.000  Zr
  Zr35     1.0000 0.72869  0.38306  0.96516  Biso   1.000  Zr
  Zr36     1.0000 0.73098  0.36499  0.47031  Biso   1.000  Zr
  Zr37     1.0000 0.63539  0.51617  0.23806  Biso   1.000  Zr
  Zr38     1.0000 0.63635  0.73235  0.73725  Biso   1.000  Zr
  Zr39     1.0000 0.86666  0.76610  0.21594  Biso   1.000  Zr
  Zr40     1.0000 0.86529  0.98025  0.69273  Biso   1.000  Zr
  Zr41     1.0000 0.53065  0.67875  0.39828  Biso   1.000  Zr
  Zr42     1.0000 0.53279  0.57063  0.90416  Biso   1.000  Zr
  Zr43     1.0000 0.96312  0.91943  0.34805  Biso   1.000  Zr
  Zr44     1.0000 0.96546  0.82618  0.85971  Biso   1.000  Zr
  Zr45     1.0000 0.76509  0.61725  0.47538  Biso   1.000  Zr
  Zr46     1.0000 0.76883  0.63179  0.97011  Biso   1.000  Zr
  Zr47     1.0000 0.73043  0.87949  0.97190  Biso   1.000  Zr
  Zr48     1.0000 0.72993  0.86461  0.47372  Biso   1.000  Zr
  Au1      1.0000 0.07870  0.29530  0.35151  Biso   1.000  Au
