data_image0
_cell_length_a       10.0781
_cell_length_b       10.2354
_cell_length_c       10.0781
_cell_angle_alpha    89.9999
_cell_angle_beta     89.1922
_cell_angle_gamma    90.0001

_symmetry_space_group_name_H-M    "P 1"
_symmetry_int_tables_number       1

loop_
  _symmetry_equiv_pos_as_xyz
  'x, y, z'

loop_
  _atom_site_label
  _atom_site_occupancy
  _atom_site_fract_x
  _atom_site_fract_y
  _atom_site_fract_z
  _atom_site_thermal_displace_type
  _atom_site_B_iso_or_equiv
  _atom_site_type_symbol
  Au1      1.0000 0.12546  0.97792  0.12534  Biso   1.000  Au
  Zr1      1.0000 0.12941  0.25224  0.37244  Biso   1.000  Zr
  Zr2      1.0000 0.37256  0.25224  0.12929  Biso   1.000  Zr
  Zr3      1.0000 0.38165  0.00590  0.38155  Biso   1.000  Zr
  Zr4      1.0000 0.97712  0.15508  0.97701  Biso   1.000  Zr
  Zr5      1.0000 0.01616  0.10244  0.23463  Biso   1.000  Zr
  Zr6      1.0000 0.99950  0.35300  0.25129  Biso   1.000  Zr
  Zr7      1.0000 0.00175  0.39930  0.00164  Biso   1.000  Zr
  Zr8      1.0000 0.27379  0.15508  0.27367  Biso   1.000  Zr
  Zr9      1.0000 0.23475  0.10244  0.01604  Biso   1.000  Zr
  Zr10     1.0000 0.25141  0.35301  0.99938  Biso   1.000  Zr
  Zr11     1.0000 0.24916  0.39930  0.24904  Biso   1.000  Zr
  Zr12     1.0000 0.12545  0.99430  0.62534  Biso   1.000  Zr
  Zr13     1.0000 0.12150  0.25224  0.87823  Biso   1.000  Zr
  Zr14     1.0000 0.37331  0.24996  0.62869  Biso   1.000  Zr
  Zr15     1.0000 0.37069  0.00367  0.88011  Biso   1.000  Zr
  Zr16     1.0000 0.99892  0.14732  0.48773  Biso   1.000  Zr
  Zr17     1.0000 0.99547  0.10296  0.73672  Biso   1.000  Zr
  Zr18     1.0000 0.99994  0.35392  0.74954  Biso   1.000  Zr
  Zr19     1.0000 0.00032  0.39758  0.50112  Biso   1.000  Zr
  Zr20     1.0000 0.25199  0.14733  0.76295  Biso   1.000  Zr
  Zr21     1.0000 0.25544  0.10296  0.51396  Biso   1.000  Zr
  Zr22     1.0000 0.25097  0.35392  0.50114  Biso   1.000  Zr
  Zr23     1.0000 0.25058  0.39759  0.74956  Biso   1.000  Zr
  Zr24     1.0000 0.12546  0.50598  0.12534  Biso   1.000  Zr
  Zr25     1.0000 0.13203  0.74974  0.37985  Biso   1.000  Zr
  Zr26     1.0000 0.37997  0.74974  0.13192  Biso   1.000  Zr
  Zr27     1.0000 0.37603  0.49740  0.37591  Biso   1.000  Zr
  Zr28     1.0000 0.00262  0.64457  0.00251  Biso   1.000  Zr
  Zr29     1.0000 0.99847  0.60620  0.25232  Biso   1.000  Zr
  Zr30     1.0000 0.01529  0.85176  0.23551  Biso   1.000  Zr
  Zr31     1.0000 0.98381  0.88997  0.98369  Biso   1.000  Zr
  Zr32     1.0000 0.24829  0.64457  0.24817  Biso   1.000  Zr
  Zr33     1.0000 0.25244  0.60620  0.99835  Biso   1.000  Zr
  Zr34     1.0000 0.23562  0.85176  0.01517  Biso   1.000  Zr
  Zr35     1.0000 0.26710  0.88997  0.26698  Biso   1.000  Zr
  Zr36     1.0000 0.12546  0.50048  0.62534  Biso   1.000  Zr
  Zr37     1.0000 0.11888  0.74975  0.87083  Biso   1.000  Zr
  Zr38     1.0000 0.37842  0.74924  0.62846  Biso   1.000  Zr
  Zr39     1.0000 0.37486  0.49871  0.87593  Biso   1.000  Zr
  Zr40     1.0000 0.00197  0.64615  0.50267  Biso   1.000  Zr
  Zr41     1.0000 0.00059  0.60410  0.75311  Biso   1.000  Zr
  Zr42     1.0000 0.99965  0.85184  0.73954  Biso   1.000  Zr
  Zr43     1.0000 0.00681  0.89720  0.48904  Biso   1.000  Zr
  Zr44     1.0000 0.24894  0.64615  0.74801  Biso   1.000  Zr
  Zr45     1.0000 0.25031  0.60411  0.49756  Biso   1.000  Zr
  Zr46     1.0000 0.25126  0.85184  0.51114  Biso   1.000  Zr
  Zr47     1.0000 0.24410  0.89721  0.76165  Biso   1.000  Zr
  Zr48     1.0000 0.62546  0.99430  0.12535  Biso   1.000  Zr
  Zr49     1.0000 0.62880  0.24996  0.37320  Biso   1.000  Zr
  Zr50     1.0000 0.87835  0.25224  0.12138  Biso   1.000  Zr
  Zr51     1.0000 0.88021  0.00367  0.37058  Biso   1.000  Zr
  Zr52     1.0000 0.48784  0.14733  0.99880  Biso   1.000  Zr
  Zr53     1.0000 0.51407  0.10296  0.25532  Biso   1.000  Zr
  Zr54     1.0000 0.50125  0.35392  0.25085  Biso   1.000  Zr
  Zr55     1.0000 0.50124  0.39759  0.00021  Biso   1.000  Zr
  Zr56     1.0000 0.76306  0.14732  0.25187  Biso   1.000  Zr
  Zr57     1.0000 0.73684  0.10296  0.99536  Biso   1.000  Zr
  Zr58     1.0000 0.74965  0.35393  0.99983  Biso   1.000  Zr
  Zr59     1.0000 0.74967  0.39759  0.25047  Biso   1.000  Zr
  Zr60     1.0000 0.62545  0.00383  0.62534  Biso   1.000  Zr
  Zr61     1.0000 0.62211  0.24996  0.87748  Biso   1.000  Zr
  Zr62     1.0000 0.87759  0.24996  0.62200  Biso   1.000  Zr
  Zr63     1.0000 0.86925  0.00590  0.86914  Biso   1.000  Zr
  Zr64     1.0000 0.50455  0.14899  0.50444  Biso   1.000  Zr
  Zr65     1.0000 0.49817  0.10304  0.75262  Biso   1.000  Zr
  Zr66     1.0000 0.50026  0.35362  0.75054  Biso   1.000  Zr
  Zr67     1.0000 0.50060  0.39655  0.50048  Biso   1.000  Zr
  Zr68     1.0000 0.74636  0.14899  0.74624  Biso   1.000  Zr
  Zr69     1.0000 0.75274  0.10305  0.49806  Biso   1.000  Zr
  Zr70     1.0000 0.75065  0.35362  0.50014  Biso   1.000  Zr
  Zr71     1.0000 0.75031  0.39655  0.75020  Biso   1.000  Zr
  Zr72     1.0000 0.62545  0.50048  0.12534  Biso   1.000  Zr
  Zr73     1.0000 0.62858  0.74924  0.37831  Biso   1.000  Zr
  Zr74     1.0000 0.87094  0.74974  0.11876  Biso   1.000  Zr
  Zr75     1.0000 0.87605  0.49870  0.37474  Biso   1.000  Zr
  Zr76     1.0000 0.50279  0.64615  0.00186  Biso   1.000  Zr
  Zr77     1.0000 0.49768  0.60410  0.25020  Biso   1.000  Zr
  Zr78     1.0000 0.51125  0.85184  0.25115  Biso   1.000  Zr
  Zr79     1.0000 0.48915  0.89721  0.00670  Biso   1.000  Zr
  Zr80     1.0000 0.74813  0.64615  0.24882  Biso   1.000  Zr
  Zr81     1.0000 0.75323  0.60410  0.00048  Biso   1.000  Zr
  Zr82     1.0000 0.73966  0.85184  0.99953  Biso   1.000  Zr
  Zr83     1.0000 0.76176  0.89720  0.24399  Biso   1.000  Zr
  Zr84     1.0000 0.62545  0.49718  0.62534  Biso   1.000  Zr
  Zr85     1.0000 0.62233  0.74924  0.87237  Biso   1.000  Zr
  Zr86     1.0000 0.87248  0.74924  0.62221  Biso   1.000  Zr
  Zr87     1.0000 0.87488  0.49740  0.87476  Biso   1.000  Zr
  Zr88     1.0000 0.50115  0.64556  0.50104  Biso   1.000  Zr
  Zr89     1.0000 0.50023  0.60393  0.75056  Biso   1.000  Zr
  Zr90     1.0000 0.49441  0.85540  0.75639  Biso   1.000  Zr
  Zr91     1.0000 0.50433  0.89539  0.50422  Biso   1.000  Zr
  Zr92     1.0000 0.74975  0.64556  0.74964  Biso   1.000  Zr
  Zr93     1.0000 0.75068  0.60393  0.50012  Biso   1.000  Zr
  Zr94     1.0000 0.75650  0.85540  0.49429  Biso   1.000  Zr
  Zr95     1.0000 0.74658  0.89540  0.74646  Biso   1.000  Zr
