data_image0
_cell_length_a       10.3054
_cell_length_b       10.4079
_cell_length_c       5.29275
_cell_angle_alpha    90.3293
_cell_angle_beta     79.6139
_cell_angle_gamma    89.8156

_symmetry_space_group_name_H-M    "P 1"
_symmetry_int_tables_number       1

loop_
  _symmetry_equiv_pos_as_xyz
  'x, y, z'

loop_
  _atom_site_label
  _atom_site_occupancy
  _atom_site_fract_x
  _atom_site_fract_y
  _atom_site_fract_z
  _atom_site_thermal_displace_type
  _atom_site_B_iso_or_equiv
  _atom_site_type_symbol
  Zr1      1.0000 0.13163  0.01951  0.28936  Biso   1.000  Zr
  Zr2      1.0000 0.13486  0.22873  0.78238  Biso   1.000  Zr
  Zr3      1.0000 0.35644  0.27830  0.19455  Biso   1.000  Zr
  Zr4      1.0000 0.35924  0.48017  0.70374  Biso   1.000  Zr
  O1       1.0000 0.03238  0.16758  0.15391  Biso   1.000  O
  O2       1.0000 0.02683  0.08292  0.65717  Biso   1.000  O
  O3       1.0000 0.46332  0.42389  0.34516  Biso   1.000  O
  O4       1.0000 0.48762  0.37454  0.89125  Biso   1.000  O
  O5       1.0000 0.25936  0.12855  0.46634  Biso   1.000  O
  O6       1.0000 0.26491  0.11384  0.97858  Biso   1.000  O
  O7       1.0000 0.22158  0.37932  0.00824  Biso   1.000  O
  O8       1.0000 0.21511  0.37690  0.50576  Biso   1.000  O
  Zr5      1.0000 0.13768  0.52348  0.28898  Biso   1.000  Zr
  Zr6      1.0000 0.13541  0.72836  0.79434  Biso   1.000  Zr
  Zr7      1.0000 0.35888  0.76960  0.21197  Biso   1.000  Zr
  Zr8      1.0000 0.35840  0.96805  0.71545  Biso   1.000  Zr
  O9       1.0000 0.02946  0.66658  0.15459  Biso   1.000  O
  O10      1.0000 0.03179  0.58666  0.65341  Biso   1.000  O
  O11      1.0000 0.46241  0.91892  0.34430  Biso   1.000  O
  O12      1.0000 0.45953  0.82625  0.84642  Biso   1.000  O
  O13      1.0000 0.27273  0.62934  0.48225  Biso   1.000  O
  O14      1.0000 0.27152  0.62160  0.98333  Biso   1.000  O
  O15      1.0000 0.22134  0.87432  0.02450  Biso   1.000  O
  O16      1.0000 0.22224  0.86997  0.52360  Biso   1.000  O
  Zr9      1.0000 0.63739  0.01890  0.29641  Biso   1.000  Zr
  Zr10     1.0000 0.65580  0.23531  0.81622  Biso   1.000  Zr
  Zr11     1.0000 0.86443  0.27294  0.22135  Biso   1.000  Zr
  Zr12     1.0000 0.86310  0.48132  0.71109  Biso   1.000  Zr
  O17      1.0000 0.53045  0.16620  0.15041  Biso   1.000  O
  O18      1.0000 0.55335  0.05242  0.69041  Biso   1.000  O
  O19      1.0000 0.96579  0.41967  0.34363  Biso   1.000  O
  O20      1.0000 0.96354  0.33317  0.84237  Biso   1.000  O
  O21      1.0000 0.77430  0.13194  0.48959  Biso   1.000  O
  O22      1.0000 0.77796  0.12053  0.99533  Biso   1.000  O
  O23      1.0000 0.73026  0.37858  0.03464  Biso   1.000  O
  O24      1.0000 0.72712  0.37467  0.53192  Biso   1.000  O
  Zr13     1.0000 0.63589  0.52478  0.29400  Biso   1.000  Zr
  Zr14     1.0000 0.63651  0.72771  0.79021  Biso   1.000  Zr
  Zr15     1.0000 0.85822  0.77075  0.20880  Biso   1.000  Zr
  Zr16     1.0000 0.85781  0.97727  0.71124  Biso   1.000  Zr
  O25      1.0000 0.53274  0.66826  0.15409  Biso   1.000  O
  O26      1.0000 0.52993  0.59252  0.64502  Biso   1.000  O
  O27      1.0000 0.96045  0.91575  0.34572  Biso   1.000  O
  O28      1.0000 0.96303  0.83405  0.84523  Biso   1.000  O
  O29      1.0000 0.77387  0.62861  0.48076  Biso   1.000  O
  O30      1.0000 0.77177  0.62183  0.98011  Biso   1.000  O
  O31      1.0000 0.72149  0.87910  0.02296  Biso   1.000  O
  O32      1.0000 0.72356  0.86918  0.51818  Biso   1.000  O
  Au1      1.0000 0.43787  0.21722  0.63073  Biso   1.000  Au
