data_image0
_cell_length_a       10.1318
_cell_length_b       10.3084
_cell_length_c       10.1318
_cell_angle_alpha    90.0021
_cell_angle_beta     90.0001
_cell_angle_gamma    90.0021

_symmetry_space_group_name_H-M    "P 1"
_symmetry_int_tables_number       1

loop_
  _symmetry_equiv_pos_as_xyz
  'x, y, z'

loop_
  _atom_site_label
  _atom_site_occupancy
  _atom_site_fract_x
  _atom_site_fract_y
  _atom_site_fract_z
  _atom_site_thermal_displace_type
  _atom_site_B_iso_or_equiv
  _atom_site_type_symbol
  Zr1      1.0000 0.12546  0.98086  0.12546  Biso   1.000  Zr
  Zr2      1.0000 0.12539  0.25006  0.38995  Biso   1.000  Zr
  Zr3      1.0000 0.38995  0.25006  0.12539  Biso   1.000  Zr
  Zr4      1.0000 0.37713  0.00437  0.37713  Biso   1.000  Zr
  Zr5      1.0000 0.97233  0.15964  0.97232  Biso   1.000  Zr
  Zr6      1.0000 0.00172  0.08545  0.24905  Biso   1.000  Zr
  Zr7      1.0000 0.97238  0.34060  0.27839  Biso   1.000  Zr
  Zr8      1.0000 0.00172  0.41476  0.00173  Biso   1.000  Zr
  Zr9      1.0000 0.27833  0.15946  0.27833  Biso   1.000  Zr
  Zr10     1.0000 0.24906  0.08545  0.00174  Biso   1.000  Zr
  Zr11     1.0000 0.27839  0.34060  0.97238  Biso   1.000  Zr
  Zr12     1.0000 0.24906  0.41466  0.24904  Biso   1.000  Zr
  Zr13     1.0000 0.12542  0.99587  0.62540  Biso   1.000  Zr
  Zr14     1.0000 0.12539  0.25008  0.86074  Biso   1.000  Zr
  Zr15     1.0000 0.37586  0.25008  0.62538  Biso   1.000  Zr
  Zr16     1.0000 0.37674  0.99901  0.87408  Biso   1.000  Zr
  Zr17     1.0000 0.99633  0.14444  0.49877  Biso   1.000  Zr
  Zr18     1.0000 0.00208  0.10320  0.74202  Biso   1.000  Zr
  Zr19     1.0000 0.99633  0.35573  0.75198  Biso   1.000  Zr
  Zr20     1.0000 0.00207  0.39696  0.50874  Biso   1.000  Zr
  Zr21     1.0000 0.25447  0.14443  0.75198  Biso   1.000  Zr
  Zr22     1.0000 0.24872  0.10318  0.50873  Biso   1.000  Zr
  Zr23     1.0000 0.25447  0.35569  0.49876  Biso   1.000  Zr
  Zr24     1.0000 0.24872  0.39696  0.74202  Biso   1.000  Zr
  Zr25     1.0000 0.12540  0.51930  0.12540  Biso   1.000  Zr
  Zr26     1.0000 0.12540  0.75006  0.38007  Biso   1.000  Zr
  Zr27     1.0000 0.38007  0.75006  0.12540  Biso   1.000  Zr
  Zr28     1.0000 0.37672  0.50113  0.37672  Biso   1.000  Zr
  Zr29     1.0000 0.00333  0.65744  0.00334  Biso   1.000  Zr
  Zr30     1.0000 0.99730  0.59877  0.25353  Biso   1.000  Zr
  Zr31     1.0000 0.00333  0.84276  0.24751  Biso   1.000  Zr
  Zr32     1.0000 0.99732  0.90146  0.99731  Biso   1.000  Zr
  Zr33     1.0000 0.24751  0.65735  0.24751  Biso   1.000  Zr
  Zr34     1.0000 0.25353  0.59877  0.99730  Biso   1.000  Zr
  Zr35     1.0000 0.24751  0.84276  0.00333  Biso   1.000  Zr
  Zr36     1.0000 0.25354  0.90132  0.25354  Biso   1.000  Zr
  Zr37     1.0000 0.12538  0.50428  0.62540  Biso   1.000  Zr
  Zr38     1.0000 0.12541  0.75010  0.87075  Biso   1.000  Zr
  Zr39     1.0000 0.37674  0.75006  0.62541  Biso   1.000  Zr
  Zr40     1.0000 0.37712  0.49576  0.87367  Biso   1.000  Zr
  Zr41     1.0000 0.99797  0.64637  0.50159  Biso   1.000  Zr
  Zr42     1.0000 0.00277  0.60492  0.75258  Biso   1.000  Zr
  Zr43     1.0000 0.99797  0.85379  0.74925  Biso   1.000  Zr
  Zr44     1.0000 0.00277  0.89524  0.49825  Biso   1.000  Zr
  Zr45     1.0000 0.25283  0.64638  0.74924  Biso   1.000  Zr
  Zr46     1.0000 0.24802  0.60489  0.49824  Biso   1.000  Zr
  Zr47     1.0000 0.25282  0.85376  0.50159  Biso   1.000  Zr
  Zr48     1.0000 0.24803  0.89524  0.75258  Biso   1.000  Zr
  Zr49     1.0000 0.62540  0.99588  0.12542  Biso   1.000  Zr
  Zr50     1.0000 0.62538  0.25008  0.37586  Biso   1.000  Zr
  Zr51     1.0000 0.86074  0.25008  0.12539  Biso   1.000  Zr
  Zr52     1.0000 0.87408  0.99901  0.37674  Biso   1.000  Zr
  Zr53     1.0000 0.49878  0.14444  0.99633  Biso   1.000  Zr
  Zr54     1.0000 0.50872  0.10318  0.24872  Biso   1.000  Zr
  Zr55     1.0000 0.49877  0.35569  0.25446  Biso   1.000  Zr
  Zr56     1.0000 0.50873  0.39696  0.00208  Biso   1.000  Zr
  Zr57     1.0000 0.75198  0.14443  0.25447  Biso   1.000  Zr
  Zr58     1.0000 0.74202  0.10320  0.00208  Biso   1.000  Zr
  Zr59     1.0000 0.75197  0.35573  0.99633  Biso   1.000  Zr
  Zr60     1.0000 0.74203  0.39696  0.24871  Biso   1.000  Zr
  Zr61     1.0000 0.62541  0.00011  0.62541  Biso   1.000  Zr
  Zr62     1.0000 0.62538  0.25007  0.87492  Biso   1.000  Zr
  Zr63     1.0000 0.87492  0.25007  0.62538  Biso   1.000  Zr
  Zr64     1.0000 0.87369  0.00440  0.87369  Biso   1.000  Zr
  Zr65     1.0000 0.49885  0.14844  0.49884  Biso   1.000  Zr
  Zr66     1.0000 0.50179  0.10243  0.74901  Biso   1.000  Zr
  Zr67     1.0000 0.49884  0.35170  0.75194  Biso   1.000  Zr
  Zr68     1.0000 0.50178  0.39771  0.50178  Biso   1.000  Zr
  Zr69     1.0000 0.75195  0.14845  0.75195  Biso   1.000  Zr
  Zr70     1.0000 0.74901  0.10243  0.50179  Biso   1.000  Zr
  Zr71     1.0000 0.75194  0.35170  0.49884  Biso   1.000  Zr
  Zr72     1.0000 0.74900  0.39772  0.74900  Biso   1.000  Zr
  Zr73     1.0000 0.62540  0.50427  0.12538  Biso   1.000  Zr
  Zr74     1.0000 0.62541  0.75006  0.37674  Biso   1.000  Zr
  Zr75     1.0000 0.87074  0.75010  0.12541  Biso   1.000  Zr
  Zr76     1.0000 0.87367  0.49576  0.37712  Biso   1.000  Zr
  Zr77     1.0000 0.50159  0.64637  0.99797  Biso   1.000  Zr
  Zr78     1.0000 0.49824  0.60489  0.24802  Biso   1.000  Zr
  Zr79     1.0000 0.50159  0.85376  0.25283  Biso   1.000  Zr
  Zr80     1.0000 0.49825  0.89524  0.00277  Biso   1.000  Zr
  Zr81     1.0000 0.74924  0.64637  0.25283  Biso   1.000  Zr
  Zr82     1.0000 0.75257  0.60492  0.00277  Biso   1.000  Zr
  Zr83     1.0000 0.74925  0.85379  0.99797  Biso   1.000  Zr
  Zr84     1.0000 0.75257  0.89524  0.24803  Biso   1.000  Zr
  Zr85     1.0000 0.62539  0.50003  0.62539  Biso   1.000  Zr
  Zr86     1.0000 0.62541  0.75009  0.87407  Biso   1.000  Zr
  Zr87     1.0000 0.87407  0.75009  0.62541  Biso   1.000  Zr
  Zr88     1.0000 0.87405  0.50115  0.87406  Biso   1.000  Zr
  Zr89     1.0000 0.49761  0.64789  0.49761  Biso   1.000  Zr
  Zr90     1.0000 0.50315  0.60279  0.74764  Biso   1.000  Zr
  Zr91     1.0000 0.49762  0.85226  0.75319  Biso   1.000  Zr
  Zr92     1.0000 0.50316  0.89735  0.50316  Biso   1.000  Zr
  Zr93     1.0000 0.75318  0.64790  0.75318  Biso   1.000  Zr
  Zr94     1.0000 0.74764  0.60279  0.50315  Biso   1.000  Zr
  Zr95     1.0000 0.75319  0.85226  0.49761  Biso   1.000  Zr
  Zr96     1.0000 0.74765  0.89737  0.74765  Biso   1.000  Zr
  Au1      1.0000 0.12531  0.25009  0.12531  Biso   1.000  Au
