data_image0
_cell_length_a       5.09111
_cell_length_b       10.3301
_cell_length_c       10.5211
_cell_angle_alpha    89.6639
_cell_angle_beta     81.2319
_cell_angle_gamma    89.6172

_symmetry_space_group_name_H-M    "P 1"
_symmetry_int_tables_number       1

loop_
  _symmetry_equiv_pos_as_xyz
  'x, y, z'

loop_
  _atom_site_label
  _atom_site_occupancy
  _atom_site_fract_x
  _atom_site_fract_y
  _atom_site_fract_z
  _atom_site_thermal_displace_type
  _atom_site_B_iso_or_equiv
  _atom_site_type_symbol
  Au1      1.0000 0.24792  0.01325  0.16827  Biso   1.000  Au
  Zr1      1.0000 0.27267  0.23444  0.39673  Biso   1.000  Zr
  Zr2      1.0000 0.72737  0.26610  0.10294  Biso   1.000  Zr
  Zr3      1.0000 0.72057  0.48025  0.35343  Biso   1.000  Zr
  O1       1.0000 0.08860  0.16242  0.08378  Biso   1.000  O
  O2       1.0000 0.03790  0.08906  0.34780  Biso   1.000  O
  O3       1.0000 0.93169  0.41689  0.17170  Biso   1.000  O
  O4       1.0000 0.92758  0.33645  0.42457  Biso   1.000  O
  O5       1.0000 0.53277  0.12224  0.23479  Biso   1.000  O
  O6       1.0000 0.54574  0.12262  0.48723  Biso   1.000  O
  O7       1.0000 0.45772  0.37962  0.01078  Biso   1.000  O
  O8       1.0000 0.45516  0.36855  0.25929  Biso   1.000  O
  Zr4      1.0000 0.27423  0.02138  0.64391  Biso   1.000  Zr
  Zr5      1.0000 0.29056  0.22399  0.89576  Biso   1.000  Zr
  Zr6      1.0000 0.72145  0.27268  0.60624  Biso   1.000  Zr
  Zr7      1.0000 0.73134  0.47698  0.85699  Biso   1.000  Zr
  O9       1.0000 0.07153  0.17296  0.58164  Biso   1.000  O
  O10      1.0000 0.08079  0.07955  0.82776  Biso   1.000  O
  O11      1.0000 0.93308  0.41707  0.67432  Biso   1.000  O
  O12      1.0000 0.94702  0.33344  0.92770  Biso   1.000  O
  O13      1.0000 0.55337  0.12749  0.73421  Biso   1.000  O
  O14      1.0000 0.59042  0.13333  0.97431  Biso   1.000  O
  O15      1.0000 0.44551  0.38012  0.50996  Biso   1.000  O
  O16      1.0000 0.45569  0.37011  0.76122  Biso   1.000  O
  Zr8      1.0000 0.27665  0.51983  0.14345  Biso   1.000  Zr
  Zr9      1.0000 0.26911  0.72543  0.39559  Biso   1.000  Zr
  Zr10     1.0000 0.72140  0.77020  0.09829  Biso   1.000  Zr
  Zr11     1.0000 0.70568  0.97779  0.35798  Biso   1.000  Zr
  O17      1.0000 0.07536  0.67039  0.07868  Biso   1.000  O
  O18      1.0000 0.07174  0.57923  0.32848  Biso   1.000  O
  O19      1.0000 0.90994  0.92110  0.17009  Biso   1.000  O
  O20      1.0000 0.92237  0.83024  0.41817  Biso   1.000  O
  O21      1.0000 0.54966  0.63059  0.23980  Biso   1.000  O
  O22      1.0000 0.54975  0.62113  0.49055  Biso   1.000  O
  O23      1.0000 0.45848  0.88011  0.00244  Biso   1.000  O
  O24      1.0000 0.43303  0.86927  0.25546  Biso   1.000  O
  Zr12     1.0000 0.27887  0.52104  0.64777  Biso   1.000  Zr
  Zr13     1.0000 0.28278  0.73175  0.89362  Biso   1.000  Zr
  Zr14     1.0000 0.72044  0.77113  0.60488  Biso   1.000  Zr
  Zr15     1.0000 0.72559  0.98217  0.85356  Biso   1.000  Zr
  O25      1.0000 0.06879  0.66727  0.57858  Biso   1.000  O
  O26      1.0000 0.07557  0.58172  0.82974  Biso   1.000  O
  O27      1.0000 0.92835  0.91927  0.66721  Biso   1.000  O
  O28      1.0000 0.93199  0.83047  0.91765  Biso   1.000  O
  O29      1.0000 0.55528  0.62853  0.74038  Biso   1.000  O
  O30      1.0000 0.55566  0.62077  0.98973  Biso   1.000  O
  O31      1.0000 0.44247  0.87862  0.50689  Biso   1.000  O
  O32      1.0000 0.45036  0.87094  0.75568  Biso   1.000  O
