data_image0
_cell_length_a       10.2602
_cell_length_b       5.15129
_cell_length_c       10.6538
_cell_angle_alpha    89.9633
_cell_angle_beta     79.1671
_cell_angle_gamma    89.5298

_symmetry_space_group_name_H-M    "P 1"
_symmetry_int_tables_number       1

loop_
  _symmetry_equiv_pos_as_xyz
  'x, y, z'

loop_
  _atom_site_label
  _atom_site_occupancy
  _atom_site_fract_x
  _atom_site_fract_y
  _atom_site_fract_z
  _atom_site_thermal_displace_type
  _atom_site_B_iso_or_equiv
  _atom_site_type_symbol
  Zr1      1.0000 0.13027  0.04241  0.13837  Biso   1.000  Zr
  Zr2      1.0000 0.14295  0.45634  0.38741  Biso   1.000  Zr
  Zr3      1.0000 0.35669  0.53367  0.11032  Biso   1.000  Zr
  Zr4      1.0000 0.34800  0.92052  0.33986  Biso   1.000  Zr
  O1       1.0000 0.02543  0.33284  0.07369  Biso   1.000  O
  O2       1.0000 0.02776  0.18289  0.32154  Biso   1.000  O
  O3       1.0000 0.46839  0.82789  0.17306  Biso   1.000  O
  O4       1.0000 0.46888  0.64642  0.42463  Biso   1.000  O
  O5       1.0000 0.26660  0.22559  0.23066  Biso   1.000  O
  O6       1.0000 0.30824  0.28480  0.46439  Biso   1.000  O
  O7       1.0000 0.22275  0.75408  0.00808  Biso   1.000  O
  O8       1.0000 0.20320  0.74800  0.25037  Biso   1.000  O
  Zr5      1.0000 0.13318  0.03975  0.65191  Biso   1.000  Zr
  Zr6      1.0000 0.13544  0.46082  0.89726  Biso   1.000  Zr
  Zr7      1.0000 0.36216  0.54908  0.61564  Biso   1.000  Zr
  Zr8      1.0000 0.36232  0.95647  0.85758  Biso   1.000  Zr
  O9       1.0000 0.04951  0.33441  0.57229  Biso   1.000  O
  O10      1.0000 0.02942  0.17652  0.82828  Biso   1.000  O
  O11      1.0000 0.47166  0.82233  0.67740  Biso   1.000  O
  O12      1.0000 0.46637  0.67650  0.92917  Biso   1.000  O
  O13      1.0000 0.27399  0.25550  0.73632  Biso   1.000  O
  O14      1.0000 0.27190  0.24621  0.98678  Biso   1.000  O
  O15      1.0000 0.22878  0.77363  0.51197  Biso   1.000  O
  O16      1.0000 0.22622  0.74662  0.76368  Biso   1.000  O
  Zr9      1.0000 0.63712  0.04766  0.14581  Biso   1.000  Zr
  Zr10     1.0000 0.65555  0.44859  0.40575  Biso   1.000  Zr
  Zr11     1.0000 0.85490  0.54809  0.10724  Biso   1.000  Zr
  Zr12     1.0000 0.86206  0.95576  0.35593  Biso   1.000  Zr
  O17      1.0000 0.52896  0.32037  0.07328  Biso   1.000  O
  O18      1.0000 0.50657  0.23627  0.31821  Biso   1.000  O
  O19      1.0000 0.95966  0.82846  0.17464  Biso   1.000  O
  O20      1.0000 0.96837  0.67523  0.42715  Biso   1.000  O
  O21      1.0000 0.76905  0.25405  0.24300  Biso   1.000  O
  O22      1.0000 0.79102  0.24119  0.49881  Biso   1.000  O
  O23      1.0000 0.71932  0.76128  0.01262  Biso   1.000  O
  O24      1.0000 0.71787  0.74718  0.26571  Biso   1.000  O
  Zr13     1.0000 0.64365  0.04329  0.64843  Biso   1.000  Zr
  Zr14     1.0000 0.63656  0.45751  0.89650  Biso   1.000  Zr
  Zr15     1.0000 0.86543  0.54590  0.60479  Biso   1.000  Zr
  Zr16     1.0000 0.85814  0.95895  0.85809  Biso   1.000  Zr
  O25      1.0000 0.53662  0.32547  0.57709  Biso   1.000  O
  O26      1.0000 0.53125  0.17858  0.82512  Biso   1.000  O
  O27      1.0000 0.97120  0.82197  0.68192  Biso   1.000  O
  O28      1.0000 0.96380  0.67830  0.92790  Biso   1.000  O
  O29      1.0000 0.77757  0.25674  0.74295  Biso   1.000  O
  O30      1.0000 0.77219  0.24727  0.99355  Biso   1.000  O
  O31      1.0000 0.72232  0.75078  0.51074  Biso   1.000  O
  O32      1.0000 0.72622  0.74427  0.76236  Biso   1.000  O
  B1       1.0000 0.40581  0.43373  0.36674  Biso   1.000  B
