data_image0
_cell_length_a       10.1262
_cell_length_b       10.2658
_cell_length_c       10.5228
_cell_angle_alpha    89.9716
_cell_angle_beta     90.2177
_cell_angle_gamma    90.0374

_symmetry_space_group_name_H-M    "P 1"
_symmetry_int_tables_number       1

loop_
  _symmetry_equiv_pos_as_xyz
  'x, y, z'

loop_
  _atom_site_label
  _atom_site_occupancy
  _atom_site_fract_x
  _atom_site_fract_y
  _atom_site_fract_z
  _atom_site_thermal_displace_type
  _atom_site_B_iso_or_equiv
  _atom_site_type_symbol
  B1       1.0000 0.02165  0.05918  0.17697  Biso   1.000  B
  Zr1      1.0000 0.13995  0.01930  0.67061  Biso   1.000  Zr
  Zr2      1.0000 0.14054  0.52054  0.17215  Biso   1.000  Zr
  Zr3      1.0000 0.14032  0.52086  0.67267  Biso   1.000  Zr
  Zr4      1.0000 0.14357  0.22682  0.41853  Biso   1.000  Zr
  Zr5      1.0000 0.14512  0.22400  0.92366  Biso   1.000  Zr
  Zr6      1.0000 0.14215  0.73039  0.41961  Biso   1.000  Zr
  Zr7      1.0000 0.14443  0.73138  0.92320  Biso   1.000  Zr
  Zr8      1.0000 0.35492  0.26268  0.17256  Biso   1.000  Zr
  Zr9      1.0000 0.36128  0.26982  0.67218  Biso   1.000  Zr
  Zr10     1.0000 0.35653  0.77659  0.17284  Biso   1.000  Zr
  Zr11     1.0000 0.36223  0.77098  0.67177  Biso   1.000  Zr
  Zr12     1.0000 0.36107  0.47800  0.42090  Biso   1.000  Zr
  Zr13     1.0000 0.36061  0.47652  0.92468  Biso   1.000  Zr
  Zr14     1.0000 0.35739  0.97964  0.41777  Biso   1.000  Zr
  Zr15     1.0000 0.36030  0.97872  0.92531  Biso   1.000  Zr
  Zr16     1.0000 0.64094  0.02168  0.07783  Biso   1.000  Zr
  Zr17     1.0000 0.63693  0.01945  0.57951  Biso   1.000  Zr
  Zr18     1.0000 0.63633  0.52228  0.07995  Biso   1.000  Zr
  Zr19     1.0000 0.63997  0.51958  0.57963  Biso   1.000  Zr
  Zr20     1.0000 0.63697  0.22952  0.32836  Biso   1.000  Zr
  Zr21     1.0000 0.64008  0.22846  0.82793  Biso   1.000  Zr
  Zr22     1.0000 0.63780  0.72768  0.32778  Biso   1.000  Zr
  Zr23     1.0000 0.63963  0.72895  0.82929  Biso   1.000  Zr
  Zr24     1.0000 0.85733  0.27505  0.07839  Biso   1.000  Zr
  Zr25     1.0000 0.86386  0.26934  0.57679  Biso   1.000  Zr
  Zr26     1.0000 0.86498  0.77156  0.07714  Biso   1.000  Zr
  Zr27     1.0000 0.86238  0.76866  0.57996  Biso   1.000  Zr
  Zr28     1.0000 0.86271  0.47938  0.32898  Biso   1.000  Zr
  Zr29     1.0000 0.86505  0.47726  0.82972  Biso   1.000  Zr
  Zr30     1.0000 0.85372  0.97715  0.33542  Biso   1.000  Zr
  Zr31     1.0000 0.86277  0.97910  0.82820  Biso   1.000  Zr
  O1       1.0000 0.03092  0.15247  0.08527  Biso   1.000  O
  O2       1.0000 0.02811  0.15119  0.56754  Biso   1.000  O
  O3       1.0000 0.03412  0.66931  0.08645  Biso   1.000  O
  O4       1.0000 0.03195  0.66172  0.58308  Biso   1.000  O
  O5       1.0000 0.02753  0.09392  0.30434  Biso   1.000  O
  O6       1.0000 0.03107  0.08976  0.82813  Biso   1.000  O
  O7       1.0000 0.03175  0.58758  0.33230  Biso   1.000  O
  O8       1.0000 0.03386  0.58402  0.83365  Biso   1.000  O
  O9       1.0000 0.46816  0.41019  0.08310  Biso   1.000  O
  O10      1.0000 0.46937  0.41206  0.58228  Biso   1.000  O
  O11      1.0000 0.47588  0.91157  0.08195  Biso   1.000  O
  O12      1.0000 0.46844  0.91166  0.58069  Biso   1.000  O
  O13      1.0000 0.47053  0.33949  0.33165  Biso   1.000  O
  O14      1.0000 0.47067  0.33685  0.83172  Biso   1.000  O
  O15      1.0000 0.47621  0.84416  0.32796  Biso   1.000  O
  O16      1.0000 0.47129  0.83738  0.83056  Biso   1.000  O
  O17      1.0000 0.28490  0.13240  0.30813  Biso   1.000  O
  O18      1.0000 0.27469  0.12203  0.79269  Biso   1.000  O
  O19      1.0000 0.27705  0.62102  0.29522  Biso   1.000  O
  O20      1.0000 0.27711  0.62274  0.79612  Biso   1.000  O
  O21      1.0000 0.28985  0.13633  0.03310  Biso   1.000  O
  O22      1.0000 0.27458  0.12486  0.54830  Biso   1.000  O
  O23      1.0000 0.27489  0.62051  0.04732  Biso   1.000  O
  O24      1.0000 0.27607  0.62511  0.54573  Biso   1.000  O
  O25      1.0000 0.22323  0.37485  0.29583  Biso   1.000  O
  O26      1.0000 0.22597  0.37129  0.79716  Biso   1.000  O
  O27      1.0000 0.23174  0.86570  0.30292  Biso   1.000  O
  O28      1.0000 0.22576  0.87318  0.79291  Biso   1.000  O
  O29      1.0000 0.22094  0.37523  0.04741  Biso   1.000  O
  O30      1.0000 0.22502  0.37356  0.54475  Biso   1.000  O
  O31      1.0000 0.23947  0.86544  0.03619  Biso   1.000  O
  O32      1.0000 0.22419  0.87557  0.54691  Biso   1.000  O
  O33      1.0000 0.53264  0.16272  0.16810  Biso   1.000  O
  O34      1.0000 0.53164  0.16237  0.66849  Biso   1.000  O
  O35      1.0000 0.52977  0.66236  0.16963  Biso   1.000  O
  O36      1.0000 0.53334  0.66176  0.66884  Biso   1.000  O
  O37      1.0000 0.53355  0.08672  0.41863  Biso   1.000  O
  O38      1.0000 0.53641  0.08521  0.91722  Biso   1.000  O
  O39      1.0000 0.53148  0.58759  0.41963  Biso   1.000  O
  O40      1.0000 0.53157  0.58639  0.91918  Biso   1.000  O
  O41      1.0000 0.96847  0.41254  0.16859  Biso   1.000  O
  O42      1.0000 0.97266  0.40716  0.67113  Biso   1.000  O
  O43      1.0000 0.96580  0.93892  0.15888  Biso   1.000  O
  O44      1.0000 0.96851  0.91090  0.66882  Biso   1.000  O
  O45      1.0000 0.97004  0.33654  0.41769  Biso   1.000  O
  O46      1.0000 0.97086  0.33451  0.92387  Biso   1.000  O
  O47      1.0000 0.96826  0.83904  0.41599  Biso   1.000  O
  O48      1.0000 0.97052  0.83583  0.91732  Biso   1.000  O
  O49      1.0000 0.77826  0.12568  0.95453  Biso   1.000  O
  O50      1.0000 0.77553  0.12209  0.45464  Biso   1.000  O
  O51      1.0000 0.77726  0.62569  0.95699  Biso   1.000  O
  O52      1.0000 0.77576  0.62288  0.45542  Biso   1.000  O
  O53      1.0000 0.77556  0.12752  0.20551  Biso   1.000  O
  O54      1.0000 0.77564  0.12461  0.70374  Biso   1.000  O
  O55      1.0000 0.77579  0.62663  0.20461  Biso   1.000  O
  O56      1.0000 0.77724  0.62416  0.70615  Biso   1.000  O
  O57      1.0000 0.72578  0.37544  0.95489  Biso   1.000  O
  O58      1.0000 0.72670  0.37278  0.45536  Biso   1.000  O
  O59      1.0000 0.72782  0.87477  0.95535  Biso   1.000  O
  O60      1.0000 0.72362  0.87188  0.45746  Biso   1.000  O
  O61      1.0000 0.72457  0.37712  0.20441  Biso   1.000  O
  O62      1.0000 0.72788  0.37480  0.70455  Biso   1.000  O
  O63      1.0000 0.73231  0.87541  0.20712  Biso   1.000  O
  O64      1.0000 0.72595  0.87429  0.70564  Biso   1.000  O
