data_image0
_cell_length_a       10.0722
_cell_length_b       10.4347
_cell_length_c       5.06945
_cell_angle_alpha    90.3221
_cell_angle_beta     89.4189
_cell_angle_gamma    90.8219

_symmetry_space_group_name_H-M    "P 1"
_symmetry_int_tables_number       1

loop_
  _symmetry_equiv_pos_as_xyz
  'x, y, z'

loop_
  _atom_site_label
  _atom_site_occupancy
  _atom_site_fract_x
  _atom_site_fract_y
  _atom_site_fract_z
  _atom_site_thermal_displace_type
  _atom_site_B_iso_or_equiv
  _atom_site_type_symbol
  Zr1      1.0000 0.14549  0.01452  0.25502  Biso   1.000  Zr
  Zr2      1.0000 0.13708  0.23143  0.81788  Biso   1.000  Zr
  Zr3      1.0000 0.36733  0.26081  0.24043  Biso   1.000  Zr
  Zr4      1.0000 0.37788  0.49216  0.74229  Biso   1.000  Zr
  Zr5      1.0000 0.02696  0.18467  0.45353  Biso   1.000  Zr
  Zr6      1.0000 0.03261  0.06927  0.93062  Biso   1.000  Zr
  Zr7      1.0000 0.45806  0.43012  0.38641  Biso   1.000  Zr
  Zr8      1.0000 0.46686  0.31620  0.87964  Biso   1.000  Zr
  Zr9      1.0000 0.26940  0.11503  0.51488  Biso   1.000  Zr
  Zr10     1.0000 0.29261  0.11696  0.99530  Biso   1.000  Zr
  Zr11     1.0000 0.24332  0.39225  0.97447  Biso   1.000  Zr
  Zr12     1.0000 0.19540  0.34857  0.46073  Biso   1.000  Zr
  Zr13     1.0000 0.12643  0.51695  0.22773  Biso   1.000  Zr
  Zr14     1.0000 0.13297  0.73436  0.74333  Biso   1.000  Zr
  Zr15     1.0000 0.36801  0.76028  0.24565  Biso   1.000  Zr
  Zr16     1.0000 0.37260  0.97817  0.74645  Biso   1.000  Zr
  Zr17     1.0000 0.03606  0.68542  0.37933  Biso   1.000  Zr
  Zr18     1.0000 0.03209  0.56903  0.87912  Biso   1.000  Zr
  Zr19     1.0000 0.46978  0.92845  0.38326  Biso   1.000  Zr
  Zr20     1.0000 0.46983  0.81436  0.89543  Biso   1.000  Zr
  Zr21     1.0000 0.26353  0.60659  0.48711  Biso   1.000  Zr
  Zr22     1.0000 0.26804  0.63617  0.98516  Biso   1.000  Zr
  Zr23     1.0000 0.23148  0.87997  0.99658  Biso   1.000  Zr
  Zr24     1.0000 0.23816  0.86112  0.49559  Biso   1.000  Zr
  Zr25     1.0000 0.63595  0.01703  0.24457  Biso   1.000  Zr
  Zr26     1.0000 0.63401  0.23221  0.74413  Biso   1.000  Zr
  Zr27     1.0000 0.86412  0.27211  0.23578  Biso   1.000  Zr
  Zr28     1.0000 0.86173  0.48541  0.74400  Biso   1.000  Zr
  Zr29     1.0000 0.53417  0.18024  0.38335  Biso   1.000  Zr
  Zr30     1.0000 0.54368  0.06215  0.87841  Biso   1.000  Zr
  Zr31     1.0000 0.95111  0.44439  0.37631  Biso   1.000  Zr
  Zr32     1.0000 0.95732  0.32241  0.86990  Biso   1.000  Zr
  Zr33     1.0000 0.77131  0.11820  0.48769  Biso   1.000  Zr
  Zr34     1.0000 0.77131  0.13606  0.98808  Biso   1.000  Zr
  Zr35     1.0000 0.72595  0.38360  0.99456  Biso   1.000  Zr
  Zr36     1.0000 0.72402  0.36982  0.49132  Biso   1.000  Zr
  Zr37     1.0000 0.63430  0.51626  0.25523  Biso   1.000  Zr
  Zr38     1.0000 0.63928  0.73776  0.75172  Biso   1.000  Zr
  Zr39     1.0000 0.87023  0.76934  0.24753  Biso   1.000  Zr
  Zr40     1.0000 0.86939  0.98870  0.74549  Biso   1.000  Zr
  Zr41     1.0000 0.52863  0.67628  0.41207  Biso   1.000  Zr
  Zr42     1.0000 0.53546  0.57011  0.90600  Biso   1.000  Zr
  Zr43     1.0000 0.97387  0.93338  0.40301  Biso   1.000  Zr
  Zr44     1.0000 0.96644  0.81940  0.88767  Biso   1.000  Zr
  Zr45     1.0000 0.76687  0.62138  0.49860  Biso   1.000  Zr
  Zr46     1.0000 0.76782  0.63464  0.00106  Biso   1.000  Zr
  Zr47     1.0000 0.73635  0.88556  0.99518  Biso   1.000  Zr
  Zr48     1.0000 0.73401  0.86913  0.49445  Biso   1.000  Zr
  B1       1.0000 0.11464  0.26068  0.30346  Biso   1.000  B 
