data_image0
_cell_length_a       10.3143
_cell_length_b       10.1565
_cell_length_c       5.08227
_cell_angle_alpha    93.4382
_cell_angle_beta     89.7429
_cell_angle_gamma    91.515

_symmetry_space_group_name_H-M    "P 1"
_symmetry_int_tables_number       1

loop_
  _symmetry_equiv_pos_as_xyz
  'x, y, z'

loop_
  _atom_site_label
  _atom_site_occupancy
  _atom_site_fract_x
  _atom_site_fract_y
  _atom_site_fract_z
  _atom_site_thermal_displace_type
  _atom_site_B_iso_or_equiv
  _atom_site_type_symbol
  Zr1      1.0000 0.14809  0.01181  0.24204  Biso   1.000  Zr
  Zr2      1.0000 0.13259  0.24940  0.67506  Biso   1.000  Zr
  Zr3      1.0000 0.36057  0.26963  0.19430  Biso   1.000  Zr
  Zr4      1.0000 0.38420  0.01204  0.73909  Biso   1.000  Zr
  Zr5      1.0000 0.98153  0.11804  0.08847  Biso   1.000  Zr
  Zr6      1.0000 0.04322  0.06871  0.59319  Biso   1.000  Zr
  Zr7      1.0000 0.95964  0.34574  0.60665  Biso   1.000  Zr
  Zr8      1.0000 0.03661  0.33999  0.08633  Biso   1.000  Zr
  Zr9      1.0000 0.29322  0.13277  0.46663  Biso   1.000  Zr
  Zr10     1.0000 0.23852  0.12615  0.94431  Biso   1.000  Zr
  Zr11     1.0000 0.26480  0.38685  0.95107  Biso   1.000  Zr
  Zr12     1.0000 0.22922  0.38933  0.46314  Biso   1.000  Zr
  Zr13     1.0000 0.13548  0.51938  0.22494  Biso   1.000  Zr
  Zr14     1.0000 0.12756  0.75980  0.73901  Biso   1.000  Zr
  Zr15     1.0000 0.37438  0.76118  0.22779  Biso   1.000  Zr
  Zr16     1.0000 0.37697  0.50921  0.71221  Biso   1.000  Zr
  Zr17     1.0000 0.97499  0.60198  0.03140  Biso   1.000  Zr
  Zr18     1.0000 0.02956  0.59931  0.53469  Biso   1.000  Zr
  Zr19     1.0000 0.96125  0.83431  0.56683  Biso   1.000  Zr
  Zr20     1.0000 0.02968  0.86209  0.04883  Biso   1.000  Zr
  Zr21     1.0000 0.27427  0.63515  0.47088  Biso   1.000  Zr
  Zr22     1.0000 0.23127  0.63657  0.97326  Biso   1.000  Zr
  Zr23     1.0000 0.27923  0.88568  0.99457  Biso   1.000  Zr
  Zr24     1.0000 0.23054  0.88076  0.49834  Biso   1.000  Zr
  Zr25     1.0000 0.62800  0.99903  0.26690  Biso   1.000  Zr
  Zr26     1.0000 0.63457  0.24303  0.78347  Biso   1.000  Zr
  Zr27     1.0000 0.84890  0.26488  0.28340  Biso   1.000  Zr
  Zr28     1.0000 0.87895  0.99633  0.76124  Biso   1.000  Zr
  Zr29     1.0000 0.48686  0.13351  0.02281  Biso   1.000  Zr
  Zr30     1.0000 0.53474  0.12147  0.53233  Biso   1.000  Zr
  Zr31     1.0000 0.47154  0.39183  0.43642  Biso   1.000  Zr
  Zr32     1.0000 0.51429  0.38302  0.94728  Biso   1.000  Zr
  Zr33     1.0000 0.78136  0.12643  0.53291  Biso   1.000  Zr
  Zr34     1.0000 0.73384  0.12736  0.02645  Biso   1.000  Zr
  Zr35     1.0000 0.76842  0.38592  0.01838  Biso   1.000  Zr
  Zr36     1.0000 0.71339  0.37886  0.51310  Biso   1.000  Zr
  Zr37     1.0000 0.61764  0.50492  0.23634  Biso   1.000  Zr
  Zr38     1.0000 0.62819  0.75483  0.74904  Biso   1.000  Zr
  Zr39     1.0000 0.87475  0.75073  0.23850  Biso   1.000  Zr
  Zr40     1.0000 0.86241  0.50968  0.73019  Biso   1.000  Zr
  Zr41     1.0000 0.48070  0.62927  0.99976  Biso   1.000  Zr
  Zr42     1.0000 0.52139  0.63224  0.50132  Biso   1.000  Zr
  Zr43     1.0000 0.48283  0.88039  0.48006  Biso   1.000  Zr
  Zr44     1.0000 0.52469  0.88402  0.98341  Biso   1.000  Zr
  Zr45     1.0000 0.76861  0.62330  0.47143  Biso   1.000  Zr
  Zr46     1.0000 0.72731  0.63026  0.97560  Biso   1.000  Zr
  Zr47     1.0000 0.77482  0.87781  0.02103  Biso   1.000  Zr
  Zr48     1.0000 0.72966  0.88173  0.51483  Biso   1.000  Zr
  B1       1.0000 0.06526  0.22239  0.19627  Biso   1.000  B 
