data_image0
_cell_length_a       10.2217
_cell_length_b       5.14424
_cell_length_c       10.2217
_cell_angle_alpha    90.8065
_cell_angle_beta     82.7053
_cell_angle_gamma    90.8061

_symmetry_space_group_name_H-M    "P 1"
_symmetry_int_tables_number       1

loop_
  _symmetry_equiv_pos_as_xyz
  'x, y, z'

loop_
  _atom_site_label
  _atom_site_occupancy
  _atom_site_fract_x
  _atom_site_fract_y
  _atom_site_fract_z
  _atom_site_thermal_displace_type
  _atom_site_B_iso_or_equiv
  _atom_site_type_symbol
  Zr1      1.0000 0.11451  0.82821  0.11456  Biso   1.000  Zr
  Zr2      1.0000 0.12300  0.51133  0.36030  Biso   1.000  Zr
  Zr3      1.0000 0.36026  0.51132  0.12306  Biso   1.000  Zr
  Zr4      1.0000 0.37104  0.99790  0.37110  Biso   1.000  Zr
  Zr5      1.0000 0.03866  0.40502  0.03872  Biso   1.000  Zr
  Zr6      1.0000 0.05404  0.17222  0.23641  Biso   1.000  Zr
  Zr7      1.0000 0.97429  0.67995  0.25386  Biso   1.000  Zr
  Zr8      1.0000 0.97833  0.83075  0.97838  Biso   1.000  Zr
  Zr9      1.0000 0.29776  0.32842  0.29782  Biso   1.000  Zr
  Zr10     1.0000 0.23635  0.17221  0.05410  Biso   1.000  Zr
  Zr11     1.0000 0.25381  0.67994  0.97435  Biso   1.000  Zr
  Zr12     1.0000 0.25090  0.81299  0.25096  Biso   1.000  Zr
  Zr13     1.0000 0.10744  0.99265  0.60860  Biso   1.000  Zr
  Zr14     1.0000 0.10826  0.53395  0.84575  Biso   1.000  Zr
  Zr15     1.0000 0.35959  0.51582  0.61490  Biso   1.000  Zr
  Zr16     1.0000 0.35806  0.99920  0.86659  Biso   1.000  Zr
  Zr17     1.0000 0.01898  0.30295  0.51206  Biso   1.000  Zr
  Zr18     1.0000 0.02020  0.20170  0.77529  Biso   1.000  Zr
  Zr19     1.0000 0.98241  0.71074  0.72902  Biso   1.000  Zr
  Zr20     1.0000 0.99107  0.80652  0.48321  Biso   1.000  Zr
  Zr21     1.0000 0.27400  0.32282  0.78545  Biso   1.000  Zr
  Zr22     1.0000 0.27582  0.18189  0.53743  Biso   1.000  Zr
  Zr23     1.0000 0.23598  0.69701  0.49765  Biso   1.000  Zr
  Zr24     1.0000 0.23217  0.81677  0.74217  Biso   1.000  Zr
  Zr25     1.0000 0.60855  0.99264  0.10750  Biso   1.000  Zr
  Zr26     1.0000 0.61483  0.51582  0.35966  Biso   1.000  Zr
  Zr27     1.0000 0.84570  0.53395  0.10831  Biso   1.000  Zr
  Zr28     1.0000 0.86654  0.99921  0.35811  Biso   1.000  Zr
  Zr29     1.0000 0.51203  0.30297  0.01905  Biso   1.000  Zr
  Zr30     1.0000 0.53736  0.18190  0.27588  Biso   1.000  Zr
  Zr31     1.0000 0.49759  0.69700  0.23604  Biso   1.000  Zr
  Zr32     1.0000 0.48316  0.80653  0.99113  Biso   1.000  Zr
  Zr33     1.0000 0.78539  0.32282  0.27404  Biso   1.000  Zr
  Zr34     1.0000 0.77524  0.20171  0.02026  Biso   1.000  Zr
  Zr35     1.0000 0.72898  0.71074  0.98246  Biso   1.000  Zr
  Zr36     1.0000 0.74211  0.81678  0.23223  Biso   1.000  Zr
  Zr37     1.0000 0.60942  0.99626  0.60948  Biso   1.000  Zr
  Zr38     1.0000 0.60202  0.52136  0.85862  Biso   1.000  Zr
  Zr39     1.0000 0.85855  0.52136  0.60208  Biso   1.000  Zr
  Zr40     1.0000 0.85290  0.99813  0.85296  Biso   1.000  Zr
  Zr41     1.0000 0.52190  0.31842  0.52196  Biso   1.000  Zr
  Zr42     1.0000 0.52028  0.19259  0.77134  Biso   1.000  Zr
  Zr43     1.0000 0.48012  0.71102  0.74262  Biso   1.000  Zr
  Zr44     1.0000 0.49097  0.79897  0.49103  Biso   1.000  Zr
  Zr45     1.0000 0.76922  0.32663  0.76927  Biso   1.000  Zr
  Zr46     1.0000 0.77127  0.19260  0.52033  Biso   1.000  Zr
  Zr47     1.0000 0.74257  0.71102  0.48018  Biso   1.000  Zr
  Zr48     1.0000 0.73176  0.80596  0.73182  Biso   1.000  Zr
  B1       1.0000 0.12644  0.31843  0.12650  Biso   1.000  B 
