data_image0
_cell_length_a       5.0765
_cell_length_b       10.3248
_cell_length_c       10.1621
_cell_angle_alpha    89.9987
_cell_angle_beta     90.0006
_cell_angle_gamma    89.9993

_symmetry_space_group_name_H-M    "P 1"
_symmetry_int_tables_number       1

loop_
  _symmetry_equiv_pos_as_xyz
  'x, y, z'

loop_
  _atom_site_label
  _atom_site_occupancy
  _atom_site_fract_x
  _atom_site_fract_y
  _atom_site_fract_z
  _atom_site_thermal_displace_type
  _atom_site_B_iso_or_equiv
  _atom_site_type_symbol
  Ba1      1.0000 0.25355  0.99992  0.12536  Biso   1.000  Ba
  Zr1      1.0000 0.25358  0.99992  0.62536  Biso   1.000  Zr
  Zr2      1.0000 0.25354  0.49992  0.12536  Biso   1.000  Zr
  Zr3      1.0000 0.25353  0.49992  0.62535  Biso   1.000  Zr
  Zr4      1.0000 0.24979  0.25381  0.37825  Biso   1.000  Zr
  Zr5      1.0000 0.25731  0.25381  0.87245  Biso   1.000  Zr
  Zr6      1.0000 0.25733  0.74603  0.37826  Biso   1.000  Zr
  Zr7      1.0000 0.24982  0.74604  0.87248  Biso   1.000  Zr
  Zr8      1.0000 0.75354  0.25714  0.12532  Biso   1.000  Zr
  Zr9      1.0000 0.75357  0.24913  0.62535  Biso   1.000  Zr
  Zr10     1.0000 0.75355  0.74270  0.12539  Biso   1.000  Zr
  Zr11     1.0000 0.75358  0.75071  0.62537  Biso   1.000  Zr
  Zr12     1.0000 0.75356  0.99990  0.38017  Biso   1.000  Zr
  Zr13     1.0000 0.75356  0.99995  0.87055  Biso   1.000  Zr
  Zr14     1.0000 0.75353  0.49992  0.37629  Biso   1.000  Zr
  Zr15     1.0000 0.75352  0.49993  0.87441  Biso   1.000  Zr
  Zr16     1.0000 0.00121  0.15492  0.99535  Biso   1.000  Zr
  Zr17     1.0000 0.02022  0.14889  0.51024  Biso   1.000  Zr
  Zr18     1.0000 0.02407  0.64157  0.00581  Biso   1.000  Zr
  Zr19     1.0000 0.00677  0.64578  0.50544  Biso   1.000  Zr
  Zr20     1.0000 0.97156  0.12206  0.26690  Biso   1.000  Zr
  Zr21     1.0000 0.99513  0.10220  0.75064  Biso   1.000  Zr
  Zr22     1.0000 0.98851  0.60203  0.25143  Biso   1.000  Zr
  Zr23     1.0000 0.00344  0.60255  0.75395  Biso   1.000  Zr
  Zr24     1.0000 0.02406  0.35828  0.24491  Biso   1.000  Zr
  Zr25     1.0000 0.00676  0.35407  0.74527  Biso   1.000  Zr
  Zr26     1.0000 0.00121  0.84492  0.25537  Biso   1.000  Zr
  Zr27     1.0000 0.02025  0.85095  0.74048  Biso   1.000  Zr
  Zr28     1.0000 0.98848  0.39781  0.99928  Biso   1.000  Zr
  Zr29     1.0000 0.00343  0.39729  0.49676  Biso   1.000  Zr
  Zr30     1.0000 0.97162  0.87779  0.98382  Biso   1.000  Zr
  Zr31     1.0000 0.99512  0.89765  0.50008  Biso   1.000  Zr
  Zr32     1.0000 0.50588  0.15489  0.25531  Biso   1.000  Zr
  Zr33     1.0000 0.48684  0.14889  0.74043  Biso   1.000  Zr
  Zr34     1.0000 0.48304  0.64153  0.24493  Biso   1.000  Zr
  Zr35     1.0000 0.50035  0.64579  0.74529  Biso   1.000  Zr
  Zr36     1.0000 0.53550  0.12210  0.98378  Biso   1.000  Zr
  Zr37     1.0000 0.51195  0.10218  0.50004  Biso   1.000  Zr
  Zr38     1.0000 0.51860  0.60207  0.99929  Biso   1.000  Zr
  Zr39     1.0000 0.50370  0.60254  0.49678  Biso   1.000  Zr
  Zr40     1.0000 0.48301  0.35832  0.00578  Biso   1.000  Zr
  Zr41     1.0000 0.50033  0.35405  0.50542  Biso   1.000  Zr
  Zr42     1.0000 0.50593  0.84496  0.99539  Biso   1.000  Zr
  Zr43     1.0000 0.48684  0.85094  0.51028  Biso   1.000  Zr
  Zr44     1.0000 0.51860  0.39778  0.25142  Biso   1.000  Zr
  Zr45     1.0000 0.50368  0.39730  0.75394  Biso   1.000  Zr
  Zr46     1.0000 0.53550  0.87775  0.26693  Biso   1.000  Zr
  Zr47     1.0000 0.51197  0.89766  0.75067  Biso   1.000  Zr
