data_image0
_cell_length_a       10.1996
_cell_length_b       10.4202
_cell_length_c       10.1844
_cell_angle_alpha    88.9028
_cell_angle_beta     89.5087
_cell_angle_gamma    88.5462

_symmetry_space_group_name_H-M    "P 1"
_symmetry_int_tables_number       1

loop_
  _symmetry_equiv_pos_as_xyz
  'x, y, z'

loop_
  _atom_site_label
  _atom_site_occupancy
  _atom_site_fract_x
  _atom_site_fract_y
  _atom_site_fract_z
  _atom_site_thermal_displace_type
  _atom_site_B_iso_or_equiv
  _atom_site_type_symbol
  Zr1      1.0000 0.13034  0.95502  0.12486  Biso   1.000  Zr
  Zr2      1.0000 0.13607  0.23119  0.39022  Biso   1.000  Zr
  Zr3      1.0000 0.41921  0.26768  0.12404  Biso   1.000  Zr
  Zr4      1.0000 0.39987  0.01868  0.35811  Biso   1.000  Zr
  Zr5      1.0000 0.97001  0.17991  0.96193  Biso   1.000  Zr
  Zr6      1.0000 0.04004  0.09086  0.25285  Biso   1.000  Zr
  Zr7      1.0000 0.00520  0.36649  0.27072  Biso   1.000  Zr
  Zr8      1.0000 0.97539  0.43134  0.02589  Biso   1.000  Zr
  Zr9      1.0000 0.30133  0.16777  0.26305  Biso   1.000  Zr
  Zr10     1.0000 0.21967  0.06369  0.97338  Biso   1.000  Zr
  Zr11     1.0000 0.30180  0.30399  0.94049  Biso   1.000  Zr
  Zr12     1.0000 0.27441  0.42443  0.21423  Biso   1.000  Zr
  Zr13     1.0000 0.13274  0.97846  0.62076  Biso   1.000  Zr
  Zr14     1.0000 0.13448  0.23055  0.83319  Biso   1.000  Zr
  Zr15     1.0000 0.39470  0.24936  0.62114  Biso   1.000  Zr
  Zr16     1.0000 0.38210  0.00805  0.86398  Biso   1.000  Zr
  Zr17     1.0000 0.00301  0.13123  0.50018  Biso   1.000  Zr
  Zr18     1.0000 0.00871  0.09530  0.73965  Biso   1.000  Zr
  Zr19     1.0000 0.99288  0.35835  0.75776  Biso   1.000  Zr
  Zr20     1.0000 0.01366  0.37682  0.51357  Biso   1.000  Zr
  Zr21     1.0000 0.26403  0.12453  0.72131  Biso   1.000  Zr
  Zr22     1.0000 0.24649  0.06717  0.48249  Biso   1.000  Zr
  Zr23     1.0000 0.28288  0.32461  0.47206  Biso   1.000  Zr
  Zr24     1.0000 0.24766  0.38146  0.72014  Biso   1.000  Zr
  Zr25     1.0000 0.10386  0.53979  0.14373  Biso   1.000  Zr
  Zr26     1.0000 0.10600  0.73424  0.39944  Biso   1.000  Zr
  Zr27     1.0000 0.38324  0.76023  0.14881  Biso   1.000  Zr
  Zr28     1.0000 0.36784  0.48837  0.37626  Biso   1.000  Zr
  Zr29     1.0000 0.00558  0.67641  0.02367  Biso   1.000  Zr
  Zr30     1.0000 0.96802  0.61827  0.26954  Biso   1.000  Zr
  Zr31     1.0000 0.00643  0.85037  0.25835  Biso   1.000  Zr
  Zr32     1.0000 0.97540  0.91511  0.01603  Biso   1.000  Zr
  Zr33     1.0000 0.22467  0.66598  0.24489  Biso   1.000  Zr
  Zr34     1.0000 0.22347  0.56362  0.97850  Biso   1.000  Zr
  Zr35     1.0000 0.23387  0.81377  0.02155  Biso   1.000  Zr
  Zr36     1.0000 0.27294  0.90509  0.25623  Biso   1.000  Zr
  Zr37     1.0000 0.10616  0.50184  0.63857  Biso   1.000  Zr
  Zr38     1.0000 0.13205  0.73393  0.87347  Biso   1.000  Zr
  Zr39     1.0000 0.38183  0.75376  0.64517  Biso   1.000  Zr
  Zr40     1.0000 0.36112  0.47900  0.86510  Biso   1.000  Zr
  Zr41     1.0000 0.97527  0.63233  0.52112  Biso   1.000  Zr
  Zr42     1.0000 0.99555  0.60840  0.77058  Biso   1.000  Zr
  Zr43     1.0000 0.00748  0.85189  0.75929  Biso   1.000  Zr
  Zr44     1.0000 0.99079  0.88580  0.50618  Biso   1.000  Zr
  Zr45     1.0000 0.24617  0.63029  0.73782  Biso   1.000  Zr
  Zr46     1.0000 0.21189  0.56650  0.47744  Biso   1.000  Zr
  Zr47     1.0000 0.22812  0.81498  0.52884  Biso   1.000  Zr
  Zr48     1.0000 0.25688  0.88144  0.76624  Biso   1.000  Zr
  Zr49     1.0000 0.62042  0.99424  0.10829  Biso   1.000  Zr
  Zr50     1.0000 0.64109  0.25612  0.37738  Biso   1.000  Zr
  Zr51     1.0000 0.86144  0.27259  0.11923  Biso   1.000  Zr
  Zr52     1.0000 0.89224  0.00917  0.36460  Biso   1.000  Zr
  Zr53     1.0000 0.49946  0.13995  0.98937  Biso   1.000  Zr
  Zr54     1.0000 0.54207  0.12230  0.24269  Biso   1.000  Zr
  Zr55     1.0000 0.51996  0.37149  0.25651  Biso   1.000  Zr
  Zr56     1.0000 0.50393  0.41249  0.00169  Biso   1.000  Zr
  Zr57     1.0000 0.79594  0.17506  0.28019  Biso   1.000  Zr
  Zr58     1.0000 0.74504  0.11937  0.01362  Biso   1.000  Zr
  Zr59     1.0000 0.73781  0.36930  0.99751  Biso   1.000  Zr
  Zr60     1.0000 0.75694  0.41858  0.24989  Biso   1.000  Zr
  Zr61     1.0000 0.62718  0.99197  0.61436  Biso   1.000  Zr
  Zr62     1.0000 0.63031  0.25674  0.87435  Biso   1.000  Zr
  Zr63     1.0000 0.88518  0.23922  0.62457  Biso   1.000  Zr
  Zr64     1.0000 0.87527  0.01986  0.88012  Biso   1.000  Zr
  Zr65     1.0000 0.50980  0.14198  0.49058  Biso   1.000  Zr
  Zr66     1.0000 0.51159  0.10839  0.74243  Biso   1.000  Zr
  Zr67     1.0000 0.50024  0.35584  0.74770  Biso   1.000  Zr
  Zr68     1.0000 0.51103  0.39299  0.50269  Biso   1.000  Zr
  Zr69     1.0000 0.76111  0.15968  0.76181  Biso   1.000  Zr
  Zr70     1.0000 0.75937  0.09544  0.50961  Biso   1.000  Zr
  Zr71     1.0000 0.76378  0.34700  0.50456  Biso   1.000  Zr
  Zr72     1.0000 0.74177  0.40395  0.75332  Biso   1.000  Zr
  Zr73     1.0000 0.62097  0.52143  0.13283  Biso   1.000  Zr
  Zr74     1.0000 0.60958  0.73993  0.39381  Biso   1.000  Zr
  Zr75     1.0000 0.86216  0.76800  0.13369  Biso   1.000  Zr
  Zr76     1.0000 0.88215  0.48273  0.39284  Biso   1.000  Zr
  Zr77     1.0000 0.49923  0.65673  0.01558  Biso   1.000  Zr
  Zr78     1.0000 0.48204  0.61525  0.26192  Biso   1.000  Zr
  Zr79     1.0000 0.51617  0.86979  0.25431  Biso   1.000  Zr
  Zr80     1.0000 0.47925  0.89731  0.00676  Biso   1.000  Zr
  Zr81     1.0000 0.71354  0.67913  0.23261  Biso   1.000  Zr
  Zr82     1.0000 0.75003  0.61553  0.99848  Biso   1.000  Zr
  Zr83     1.0000 0.73439  0.86352  0.99275  Biso   1.000  Zr
  Zr84     1.0000 0.76956  0.92813  0.23350  Biso   1.000  Zr
  Zr85     1.0000 0.61697  0.50388  0.62903  Biso   1.000  Zr
  Zr86     1.0000 0.61901  0.74461  0.88488  Biso   1.000  Zr
  Zr87     1.0000 0.87309  0.76664  0.64450  Biso   1.000  Zr
  Zr88     1.0000 0.86154  0.49949  0.87690  Biso   1.000  Zr
  Zr89     1.0000 0.47575  0.63904  0.50981  Biso   1.000  Zr
  Zr90     1.0000 0.49613  0.60668  0.76173  Biso   1.000  Zr
  Zr91     1.0000 0.50758  0.86033  0.75561  Biso   1.000  Zr
  Zr92     1.0000 0.48735  0.89096  0.50701  Biso   1.000  Zr
  Zr93     1.0000 0.74115  0.65292  0.74531  Biso   1.000  Zr
  Zr94     1.0000 0.72243  0.58827  0.48092  Biso   1.000  Zr
  Zr95     1.0000 0.73646  0.84105  0.50591  Biso   1.000  Zr
  Zr96     1.0000 0.76167  0.91184  0.74445  Biso   1.000  Zr
  Ba1      1.0000 0.14088  0.25642  0.10778  Biso   1.000  Ba
