data_image0
_cell_length_a       5.02125
_cell_length_b       10.1003
_cell_length_c       10.0498
_cell_angle_alpha    89.9996
_cell_angle_beta     89.9993
_cell_angle_gamma    90.0015

_symmetry_space_group_name_H-M    "P 1"
_symmetry_int_tables_number       1

loop_
  _symmetry_equiv_pos_as_xyz
  'x, y, z'

loop_
  _atom_site_label
  _atom_site_occupancy
  _atom_site_fract_x
  _atom_site_fract_y
  _atom_site_fract_z
  _atom_site_thermal_displace_type
  _atom_site_B_iso_or_equiv
  _atom_site_type_symbol
  Be1      1.0000 0.25163  0.99932  0.12571  Biso   1.000  Be
  Zr1      1.0000 0.25161  0.99933  0.62571  Biso   1.000  Zr
  Zr2      1.0000 0.25160  0.49932  0.12571  Biso   1.000  Zr
  Zr3      1.0000 0.25161  0.49933  0.62571  Biso   1.000  Zr
  Zr4      1.0000 0.25599  0.24617  0.37404  Biso   1.000  Zr
  Zr5      1.0000 0.24720  0.24617  0.87737  Biso   1.000  Zr
  Zr6      1.0000 0.24723  0.75250  0.37404  Biso   1.000  Zr
  Zr7      1.0000 0.25599  0.75249  0.87738  Biso   1.000  Zr
  Zr8      1.0000 0.75160  0.24725  0.12570  Biso   1.000  Zr
  Zr9      1.0000 0.75160  0.24874  0.62571  Biso   1.000  Zr
  Zr10     1.0000 0.75163  0.75140  0.12570  Biso   1.000  Zr
  Zr11     1.0000 0.75161  0.74991  0.62571  Biso   1.000  Zr
  Zr12     1.0000 0.75162  0.99933  0.37014  Biso   1.000  Zr
  Zr13     1.0000 0.75159  0.99933  0.88128  Biso   1.000  Zr
  Zr14     1.0000 0.75161  0.49933  0.37850  Biso   1.000  Zr
  Zr15     1.0000 0.75160  0.49932  0.87292  Biso   1.000  Zr
  Zr16     1.0000 0.94580  0.15175  0.97770  Biso   1.000  Zr
  Zr17     1.0000 0.98327  0.13967  0.48300  Biso   1.000  Zr
  Zr18     1.0000 0.99359  0.64789  0.99418  Biso   1.000  Zr
  Zr19     1.0000 0.99436  0.63990  0.49377  Biso   1.000  Zr
  Zr20     1.0000 0.05436  0.09192  0.22721  Biso   1.000  Zr
  Zr21     1.0000 0.00933  0.11064  0.73762  Biso   1.000  Zr
  Zr22     1.0000 0.00464  0.60331  0.24554  Biso   1.000  Zr
  Zr23     1.0000 0.00444  0.60981  0.74463  Biso   1.000  Zr
  Zr24     1.0000 0.99361  0.35075  0.25723  Biso   1.000  Zr
  Zr25     1.0000 0.99435  0.35876  0.75765  Biso   1.000  Zr
  Zr26     1.0000 0.94577  0.84689  0.27373  Biso   1.000  Zr
  Zr27     1.0000 0.98328  0.85899  0.76843  Biso   1.000  Zr
  Zr28     1.0000 0.00462  0.39534  0.00587  Biso   1.000  Zr
  Zr29     1.0000 0.00444  0.38885  0.50679  Biso   1.000  Zr
  Zr30     1.0000 0.05437  0.90670  0.02423  Biso   1.000  Zr
  Zr31     1.0000 0.00933  0.88803  0.51380  Biso   1.000  Zr
  Zr32     1.0000 0.55742  0.15177  0.27372  Biso   1.000  Zr
  Zr33     1.0000 0.51989  0.13966  0.76842  Biso   1.000  Zr
  Zr34     1.0000 0.50963  0.64792  0.25723  Biso   1.000  Zr
  Zr35     1.0000 0.50886  0.63989  0.75765  Biso   1.000  Zr
  Zr36     1.0000 0.44888  0.09193  0.02423  Biso   1.000  Zr
  Zr37     1.0000 0.49385  0.11065  0.51379  Biso   1.000  Zr
  Zr38     1.0000 0.49859  0.60330  0.00588  Biso   1.000  Zr
  Zr39     1.0000 0.49878  0.60982  0.50678  Biso   1.000  Zr
  Zr40     1.0000 0.50962  0.35074  0.99418  Biso   1.000  Zr
  Zr41     1.0000 0.50886  0.35877  0.49376  Biso   1.000  Zr
  Zr42     1.0000 0.55742  0.84690  0.97771  Biso   1.000  Zr
  Zr43     1.0000 0.51991  0.85900  0.48302  Biso   1.000  Zr
  Zr44     1.0000 0.49861  0.39536  0.24554  Biso   1.000  Zr
  Zr45     1.0000 0.49876  0.38884  0.74463  Biso   1.000  Zr
  Zr46     1.0000 0.44884  0.90672  0.22722  Biso   1.000  Zr
  Zr47     1.0000 0.49384  0.88801  0.73763  Biso   1.000  Zr
