data_image0
_cell_length_a       10.1038
_cell_length_b       5.1332
_cell_length_c       10.1038
_cell_angle_alpha    89.9991
_cell_angle_beta     90.0039
_cell_angle_gamma    89.9994

_symmetry_space_group_name_H-M    "P 1"
_symmetry_int_tables_number       1

loop_
  _symmetry_equiv_pos_as_xyz
  'x, y, z'

loop_
  _atom_site_label
  _atom_site_occupancy
  _atom_site_fract_x
  _atom_site_fract_y
  _atom_site_fract_z
  _atom_site_thermal_displace_type
  _atom_site_B_iso_or_equiv
  _atom_site_type_symbol
  Bi1      1.0000 0.12539  0.00193  0.12539  Biso   1.000  Bi
  Zr1      1.0000 0.12540  0.00195  0.62540  Biso   1.000  Zr
  Zr2      1.0000 0.62540  0.00195  0.12540  Biso   1.000  Zr
  Zr3      1.0000 0.62539  0.00195  0.62539  Biso   1.000  Zr
  Zr4      1.0000 0.12540  0.50194  0.37773  Biso   1.000  Zr
  Zr5      1.0000 0.12540  0.50194  0.87307  Biso   1.000  Zr
  Zr6      1.0000 0.62540  0.50194  0.37504  Biso   1.000  Zr
  Zr7      1.0000 0.62540  0.50193  0.87576  Biso   1.000  Zr
  Zr8      1.0000 0.37773  0.50194  0.12540  Biso   1.000  Zr
  Zr9      1.0000 0.37504  0.50194  0.62540  Biso   1.000  Zr
  Zr10     1.0000 0.87307  0.50194  0.12540  Biso   1.000  Zr
  Zr11     1.0000 0.87576  0.50194  0.62540  Biso   1.000  Zr
  Zr12     1.0000 0.37730  0.00437  0.37730  Biso   1.000  Zr
  Zr13     1.0000 0.37731  0.99952  0.87349  Biso   1.000  Zr
  Zr14     1.0000 0.87349  0.99952  0.37731  Biso   1.000  Zr
  Zr15     1.0000 0.87348  0.00437  0.87348  Biso   1.000  Zr
  Zr16     1.0000 0.99853  0.29779  0.99853  Biso   1.000  Zr
  Zr17     1.0000 0.00252  0.29495  0.50502  Biso   1.000  Zr
  Zr18     1.0000 0.50502  0.29495  0.00252  Biso   1.000  Zr
  Zr19     1.0000 0.50147  0.29640  0.50147  Biso   1.000  Zr
  Zr20     1.0000 0.99399  0.22250  0.25682  Biso   1.000  Zr
  Zr21     1.0000 0.99958  0.20799  0.75177  Biso   1.000  Zr
  Zr22     1.0000 0.49904  0.20800  0.25123  Biso   1.000  Zr
  Zr23     1.0000 0.50024  0.20815  0.75057  Biso   1.000  Zr
  Zr24     1.0000 0.99853  0.70608  0.25226  Biso   1.000  Zr
  Zr25     1.0000 0.00252  0.70894  0.74578  Biso   1.000  Zr
  Zr26     1.0000 0.50502  0.70896  0.24829  Biso   1.000  Zr
  Zr27     1.0000 0.50147  0.70750  0.74934  Biso   1.000  Zr
  Zr28     1.0000 0.99398  0.78135  0.99398  Biso   1.000  Zr
  Zr29     1.0000 0.99958  0.79589  0.49903  Biso   1.000  Zr
  Zr30     1.0000 0.49903  0.79589  0.99958  Biso   1.000  Zr
  Zr31     1.0000 0.50024  0.79572  0.50024  Biso   1.000  Zr
  Zr32     1.0000 0.25228  0.29780  0.25227  Biso   1.000  Zr
  Zr33     1.0000 0.24829  0.29494  0.74578  Biso   1.000  Zr
  Zr34     1.0000 0.74578  0.29494  0.24829  Biso   1.000  Zr
  Zr35     1.0000 0.74934  0.29638  0.74934  Biso   1.000  Zr
  Zr36     1.0000 0.25682  0.22250  0.99399  Biso   1.000  Zr
  Zr37     1.0000 0.25123  0.20801  0.49904  Biso   1.000  Zr
  Zr38     1.0000 0.75177  0.20799  0.99958  Biso   1.000  Zr
  Zr39     1.0000 0.75057  0.20816  0.50024  Biso   1.000  Zr
  Zr40     1.0000 0.25226  0.70608  0.99853  Biso   1.000  Zr
  Zr41     1.0000 0.24829  0.70896  0.50502  Biso   1.000  Zr
  Zr42     1.0000 0.74578  0.70894  0.00252  Biso   1.000  Zr
  Zr43     1.0000 0.74934  0.70750  0.50147  Biso   1.000  Zr
  Zr44     1.0000 0.25681  0.78137  0.25681  Biso   1.000  Zr
  Zr45     1.0000 0.25123  0.79588  0.75176  Biso   1.000  Zr
  Zr46     1.0000 0.75176  0.79587  0.25123  Biso   1.000  Zr
  Zr47     1.0000 0.75056  0.79571  0.75056  Biso   1.000  Zr
