data_image0
_cell_length_a       5.13704
_cell_length_b       10.3415
_cell_length_c       10.3272
_cell_angle_alpha    89.9982
_cell_angle_beta     95.0565
_cell_angle_gamma    89.9977

_symmetry_space_group_name_H-M    "P 1"
_symmetry_int_tables_number       1

loop_
  _symmetry_equiv_pos_as_xyz
  'x, y, z'

loop_
  _atom_site_label
  _atom_site_occupancy
  _atom_site_fract_x
  _atom_site_fract_y
  _atom_site_fract_z
  _atom_site_thermal_displace_type
  _atom_site_B_iso_or_equiv
  _atom_site_type_symbol
  Zr1      1.0000 0.25114  0.98207  0.12554  Biso   1.000  Zr
  Zr2      1.0000 0.17764  0.25160  0.39035  Biso   1.000  Zr
  Zr3      1.0000 0.75116  0.20017  0.12555  Biso   1.000  Zr
  Zr4      1.0000 0.70880  0.00904  0.38949  Biso   1.000  Zr
  Zr5      1.0000 0.04064  0.13586  0.99550  Biso   1.000  Zr
  Zr6      1.0000 0.98055  0.08515  0.26204  Biso   1.000  Zr
  Zr7      1.0000 0.81771  0.33145  0.28547  Biso   1.000  Zr
  Zr8      1.0000 0.16252  0.43586  0.95409  Biso   1.000  Zr
  Zr9      1.0000 0.46167  0.13588  0.25558  Biso   1.000  Zr
  Zr10     1.0000 0.52176  0.08517  0.98904  Biso   1.000  Zr
  Zr11     1.0000 0.68466  0.33147  0.96563  Biso   1.000  Zr
  Zr12     1.0000 0.33987  0.43584  0.29701  Biso   1.000  Zr
  Zr13     1.0000 0.25112  0.99536  0.62556  Biso   1.000  Zr
  Zr14     1.0000 0.32476  0.25165  0.86077  Biso   1.000  Zr
  Zr15     1.0000 0.75123  0.25842  0.62558  Biso   1.000  Zr
  Zr16     1.0000 0.79348  0.00905  0.86159  Biso   1.000  Zr
  Zr17     1.0000 0.95484  0.14105  0.50752  Biso   1.000  Zr
  Zr18     1.0000 0.05681  0.10357  0.75296  Biso   1.000  Zr
  Zr19     1.0000 0.03103  0.34959  0.74177  Biso   1.000  Zr
  Zr20     1.0000 0.97778  0.39312  0.50583  Biso   1.000  Zr
  Zr21     1.0000 0.54737  0.14106  0.74355  Biso   1.000  Zr
  Zr22     1.0000 0.44535  0.10350  0.49808  Biso   1.000  Zr
  Zr23     1.0000 0.47130  0.34953  0.50936  Biso   1.000  Zr
  Zr24     1.0000 0.52458  0.39314  0.74528  Biso   1.000  Zr
  Zr25     1.0000 0.25118  0.57299  0.12553  Biso   1.000  Zr
  Zr26     1.0000 0.22420  0.73947  0.39427  Biso   1.000  Zr
  Zr27     1.0000 0.75116  0.76092  0.12554  Biso   1.000  Zr
  Zr28     1.0000 0.71119  0.49805  0.37163  Biso   1.000  Zr
  Zr29     1.0000 0.00889  0.66416  0.98670  Biso   1.000  Zr
  Zr30     1.0000 0.95025  0.60356  0.24346  Biso   1.000  Zr
  Zr31     1.0000 0.08984  0.83614  0.23530  Biso   1.000  Zr
  Zr32     1.0000 0.91718  0.90551  0.01661  Biso   1.000  Zr
  Zr33     1.0000 0.49347  0.66414  0.26437  Biso   1.000  Zr
  Zr34     1.0000 0.55209  0.60360  0.00759  Biso   1.000  Zr
  Zr35     1.0000 0.41249  0.83617  0.01577  Biso   1.000  Zr
  Zr36     1.0000 0.58513  0.90550  0.23447  Biso   1.000  Zr
  Zr37     1.0000 0.25119  0.49159  0.62553  Biso   1.000  Zr
  Zr38     1.0000 0.27822  0.73947  0.85680  Biso   1.000  Zr
  Zr39     1.0000 0.75123  0.74100  0.62553  Biso   1.000  Zr
  Zr40     1.0000 0.79122  0.49807  0.87944  Biso   1.000  Zr
  Zr41     1.0000 0.96758  0.63903  0.49654  Biso   1.000  Zr
  Zr42     1.0000 0.02406  0.60414  0.74103  Biso   1.000  Zr
  Zr43     1.0000 0.00018  0.85589  0.75258  Biso   1.000  Zr
  Zr44     1.0000 0.00056  0.88793  0.49754  Biso   1.000  Zr
  Zr45     1.0000 0.53487  0.63905  0.75453  Biso   1.000  Zr
  Zr46     1.0000 0.47839  0.60411  0.51004  Biso   1.000  Zr
  Zr47     1.0000 0.50218  0.85586  0.49850  Biso   1.000  Zr
  Zr48     1.0000 0.50176  0.88795  0.75356  Biso   1.000  Zr
  Bi1      1.0000 0.25113  0.30934  0.12555  Biso   1.000  Bi
