data_image0
_cell_length_a       10.1549
_cell_length_b       5.13133
_cell_length_c       10.1549
_cell_angle_alpha    90
_cell_angle_beta     90
_cell_angle_gamma    90.0001

_symmetry_space_group_name_H-M    "P 1"
_symmetry_int_tables_number       1

loop_
  _symmetry_equiv_pos_as_xyz
  'x, y, z'

loop_
  _atom_site_label
  _atom_site_occupancy
  _atom_site_fract_x
  _atom_site_fract_y
  _atom_site_fract_z
  _atom_site_thermal_displace_type
  _atom_site_B_iso_or_equiv
  _atom_site_type_symbol
  Zr1      1.0000 0.12540  0.00015  0.12540  Biso   1.000  Zr
  Zr2      1.0000 0.12540  0.50015  0.39621  Biso   1.000  Zr
  Zr3      1.0000 0.39621  0.50015  0.12540  Biso   1.000  Zr
  Zr4      1.0000 0.37100  0.00243  0.37101  Biso   1.000  Zr
  Zr5      1.0000 0.99064  0.28759  0.99062  Biso   1.000  Zr
  Zr6      1.0000 0.00294  0.21741  0.24782  Biso   1.000  Zr
  Zr7      1.0000 0.99064  0.71271  0.26017  Biso   1.000  Zr
  Zr8      1.0000 0.00294  0.78289  0.00298  Biso   1.000  Zr
  Zr9      1.0000 0.26015  0.28759  0.26017  Biso   1.000  Zr
  Zr10     1.0000 0.24785  0.21741  0.00298  Biso   1.000  Zr
  Zr11     1.0000 0.26015  0.71271  0.99062  Biso   1.000  Zr
  Zr12     1.0000 0.24785  0.78289  0.24781  Biso   1.000  Zr
  Zr13     1.0000 0.12540  0.00015  0.62540  Biso   1.000  Zr
  Zr14     1.0000 0.12540  0.50015  0.85458  Biso   1.000  Zr
  Zr15     1.0000 0.38055  0.50015  0.62539  Biso   1.000  Zr
  Zr16     1.0000 0.37101  0.99786  0.87979  Biso   1.000  Zr
  Zr17     1.0000 0.99063  0.27955  0.49817  Biso   1.000  Zr
  Zr18     1.0000 0.00601  0.21713  0.74553  Biso   1.000  Zr
  Zr19     1.0000 0.99063  0.72074  0.75262  Biso   1.000  Zr
  Zr20     1.0000 0.00601  0.78318  0.50526  Biso   1.000  Zr
  Zr21     1.0000 0.26016  0.27956  0.75262  Biso   1.000  Zr
  Zr22     1.0000 0.24478  0.21713  0.50526  Biso   1.000  Zr
  Zr23     1.0000 0.26016  0.72074  0.49817  Biso   1.000  Zr
  Zr24     1.0000 0.24478  0.78317  0.74553  Biso   1.000  Zr
  Zr25     1.0000 0.62540  0.00015  0.12540  Biso   1.000  Zr
  Zr26     1.0000 0.62540  0.50015  0.38056  Biso   1.000  Zr
  Zr27     1.0000 0.85459  0.50015  0.12540  Biso   1.000  Zr
  Zr28     1.0000 0.87979  0.99787  0.37101  Biso   1.000  Zr
  Zr29     1.0000 0.49819  0.27956  0.99062  Biso   1.000  Zr
  Zr30     1.0000 0.50524  0.21712  0.24476  Biso   1.000  Zr
  Zr31     1.0000 0.49819  0.72074  0.26017  Biso   1.000  Zr
  Zr32     1.0000 0.50524  0.78318  0.00603  Biso   1.000  Zr
  Zr33     1.0000 0.75260  0.27957  0.26017  Biso   1.000  Zr
  Zr34     1.0000 0.74555  0.21712  0.00603  Biso   1.000  Zr
  Zr35     1.0000 0.75260  0.72073  0.99062  Biso   1.000  Zr
  Zr36     1.0000 0.74555  0.78318  0.24477  Biso   1.000  Zr
  Zr37     1.0000 0.62540  0.00015  0.62540  Biso   1.000  Zr
  Zr38     1.0000 0.62539  0.50015  0.87024  Biso   1.000  Zr
  Zr39     1.0000 0.87024  0.50015  0.62539  Biso   1.000  Zr
  Zr40     1.0000 0.87979  0.00244  0.87979  Biso   1.000  Zr
  Zr41     1.0000 0.49268  0.28947  0.49267  Biso   1.000  Zr
  Zr42     1.0000 0.50572  0.21359  0.74505  Biso   1.000  Zr
  Zr43     1.0000 0.49268  0.71082  0.75812  Biso   1.000  Zr
  Zr44     1.0000 0.50572  0.78672  0.50574  Biso   1.000  Zr
  Zr45     1.0000 0.75812  0.28948  0.75812  Biso   1.000  Zr
  Zr46     1.0000 0.74507  0.21359  0.50574  Biso   1.000  Zr
  Zr47     1.0000 0.75811  0.71083  0.49267  Biso   1.000  Zr
  Zr48     1.0000 0.74507  0.78671  0.74505  Biso   1.000  Zr
  Ca1      1.0000 0.12540  0.50015  0.12540  Biso   1.000  Ca
