data_image0
_cell_length_a       10.1615
_cell_length_b       10.3151
_cell_length_c       5.11394
_cell_angle_alpha    91.3426
_cell_angle_beta     90.8495
_cell_angle_gamma    90.5207

_symmetry_space_group_name_H-M    "P 1"
_symmetry_int_tables_number       1

loop_
  _symmetry_equiv_pos_as_xyz
  'x, y, z'

loop_
  _atom_site_label
  _atom_site_occupancy
  _atom_site_fract_x
  _atom_site_fract_y
  _atom_site_fract_z
  _atom_site_thermal_displace_type
  _atom_site_B_iso_or_equiv
  _atom_site_type_symbol
  Zr1      1.0000 0.11187  0.96646  0.22761  Biso   1.000  Zr
  Zr2      1.0000 0.12190  0.24157  0.66009  Biso   1.000  Zr
  Zr3      1.0000 0.39780  0.24661  0.23078  Biso   1.000  Zr
  Zr4      1.0000 0.35943  0.49294  0.73564  Biso   1.000  Zr
  Zr5      1.0000 0.98653  0.12321  0.40066  Biso   1.000  Zr
  Zr6      1.0000 0.03800  0.06640  0.89798  Biso   1.000  Zr
  Zr7      1.0000 0.49663  0.40676  0.48033  Biso   1.000  Zr
  Zr8      1.0000 0.48762  0.36849  0.97525  Biso   1.000  Zr
  Zr9      1.0000 0.24603  0.10962  0.40531  Biso   1.000  Zr
  Zr10     1.0000 0.28280  0.17652  0.89338  Biso   1.000  Zr
  Zr11     1.0000 0.20078  0.41328  0.91324  Biso   1.000  Zr
  Zr12     1.0000 0.25079  0.36812  0.42212  Biso   1.000  Zr
  Zr13     1.0000 0.13730  0.52459  0.24722  Biso   1.000  Zr
  Zr14     1.0000 0.14390  0.75823  0.72168  Biso   1.000  Zr
  Zr15     1.0000 0.39131  0.76760  0.20505  Biso   1.000  Zr
  Zr16     1.0000 0.37266  0.01644  0.70364  Biso   1.000  Zr
  Zr17     1.0000 0.01218  0.62921  0.52542  Biso   1.000  Zr
  Zr18     1.0000 0.97026  0.56905  0.03919  Biso   1.000  Zr
  Zr19     1.0000 0.49240  0.91818  0.42257  Biso   1.000  Zr
  Zr20     1.0000 0.51251  0.86295  0.93438  Biso   1.000  Zr
  Zr21     1.0000 0.26776  0.62435  0.49715  Biso   1.000  Zr
  Zr22     1.0000 0.24317  0.65169  0.00140  Biso   1.000  Zr
  Zr23     1.0000 0.26270  0.90366  0.96950  Biso   1.000  Zr
  Zr24     1.0000 0.25273  0.86557  0.46992  Biso   1.000  Zr
  Zr25     1.0000 0.63968  0.98927  0.18692  Biso   1.000  Zr
  Zr26     1.0000 0.62141  0.26000  0.74288  Biso   1.000  Zr
  Zr27     1.0000 0.84252  0.25887  0.22419  Biso   1.000  Zr
  Zr28     1.0000 0.88828  0.47752  0.71800  Biso   1.000  Zr
  Zr29     1.0000 0.49058  0.15859  0.52141  Biso   1.000  Zr
  Zr30     1.0000 0.51081  0.11242  0.00166  Biso   1.000  Zr
  Zr31     1.0000 0.99841  0.38089  0.41538  Biso   1.000  Zr
  Zr32     1.0000 0.95774  0.30605  0.88448  Biso   1.000  Zr
  Zr33     1.0000 0.73860  0.11479  0.45372  Biso   1.000  Zr
  Zr34     1.0000 0.75519  0.13680  0.94639  Biso   1.000  Zr
  Zr35     1.0000 0.73813  0.39838  0.99271  Biso   1.000  Zr
  Zr36     1.0000 0.74153  0.36274  0.49627  Biso   1.000  Zr
  Zr37     1.0000 0.61452  0.51516  0.22605  Biso   1.000  Zr
  Zr38     1.0000 0.64127  0.74779  0.72507  Biso   1.000  Zr
  Zr39     1.0000 0.87965  0.72939  0.25161  Biso   1.000  Zr
  Zr40     1.0000 0.87070  0.01052  0.68717  Biso   1.000  Zr
  Zr41     1.0000 0.52072  0.66756  0.43723  Biso   1.000  Zr
  Zr42     1.0000 0.48961  0.61375  0.95373  Biso   1.000  Zr
  Zr43     1.0000 0.99772  0.87477  0.50573  Biso   1.000  Zr
  Zr44     1.0000 0.02328  0.81220  0.02565  Biso   1.000  Zr
  Zr45     1.0000 0.76061  0.60386  0.50069  Biso   1.000  Zr
  Zr46     1.0000 0.73233  0.65157  0.01424  Biso   1.000  Zr
  Zr47     1.0000 0.77284  0.89070  0.95543  Biso   1.000  Zr
  Zr48     1.0000 0.74782  0.85954  0.45648  Biso   1.000  Zr
  Ca1      1.0000 0.11924  0.24397  0.15282  Biso   1.000  Ca
