data_image0
_cell_length_a       5.13876
_cell_length_b       10.3635
_cell_length_c       10.5294
_cell_angle_alpha    90.0467
_cell_angle_beta     80.0199
_cell_angle_gamma    90.1198

_symmetry_space_group_name_H-M    "P 1"
_symmetry_int_tables_number       1

loop_
  _symmetry_equiv_pos_as_xyz
  'x, y, z'

loop_
  _atom_site_label
  _atom_site_occupancy
  _atom_site_fract_x
  _atom_site_fract_y
  _atom_site_fract_z
  _atom_site_thermal_displace_type
  _atom_site_B_iso_or_equiv
  _atom_site_type_symbol
  Ca1      1.0000 0.28183  0.01633  0.14551  Biso   1.000  Ca
  Zr1      1.0000 0.28001  0.02092  0.64598  Biso   1.000  Zr
  Zr2      1.0000 0.27735  0.51919  0.14432  Biso   1.000  Zr
  Zr3      1.0000 0.27935  0.52157  0.64548  Biso   1.000  Zr
  Zr4      1.0000 0.27963  0.22793  0.39527  Biso   1.000  Zr
  Zr5      1.0000 0.27912  0.22908  0.89719  Biso   1.000  Zr
  Zr6      1.0000 0.27795  0.72699  0.39501  Biso   1.000  Zr
  Zr7      1.0000 0.28467  0.73011  0.89545  Biso   1.000  Zr
  Zr8      1.0000 0.71563  0.26688  0.10346  Biso   1.000  Zr
  Zr9      1.0000 0.71923  0.27099  0.60452  Biso   1.000  Zr
  Zr10     1.0000 0.71816  0.77010  0.10492  Biso   1.000  Zr
  Zr11     1.0000 0.72154  0.77223  0.60353  Biso   1.000  Zr
  Zr12     1.0000 0.71813  0.47774  0.35317  Biso   1.000  Zr
  Zr13     1.0000 0.72143  0.47894  0.85398  Biso   1.000  Zr
  Zr14     1.0000 0.71660  0.97944  0.35319  Biso   1.000  Zr
  Zr15     1.0000 0.72010  0.97923  0.85621  Biso   1.000  Zr
  O1       1.0000 0.06602  0.17914  0.07611  Biso   1.000  O
  O2       1.0000 0.06729  0.16936  0.58390  Biso   1.000  O
  O3       1.0000 0.06871  0.66574  0.07802  Biso   1.000  O
  O4       1.0000 0.06659  0.66631  0.58000  Biso   1.000  O
  O5       1.0000 0.05742  0.08494  0.34350  Biso   1.000  O
  O6       1.0000 0.07068  0.08276  0.82951  Biso   1.000  O
  O7       1.0000 0.06322  0.58323  0.32804  Biso   1.000  O
  O8       1.0000 0.06736  0.58431  0.82770  Biso   1.000  O
  O9       1.0000 0.92730  0.41713  0.17012  Biso   1.000  O
  O10      1.0000 0.93295  0.41748  0.66927  Biso   1.000  O
  O11      1.0000 0.90425  0.91632  0.17216  Biso   1.000  O
  O12      1.0000 0.93340  0.91630  0.67175  Biso   1.000  O
  O13      1.0000 0.93102  0.33425  0.42157  Biso   1.000  O
  O14      1.0000 0.93450  0.33691  0.91707  Biso   1.000  O
  O15      1.0000 0.93343  0.83297  0.42169  Biso   1.000  O
  O16      1.0000 0.94628  0.83687  0.92111  Biso   1.000  O
  O17      1.0000 0.56426  0.13440  0.24927  Biso   1.000  O
  O18      1.0000 0.55087  0.12819  0.73945  Biso   1.000  O
  O19      1.0000 0.54812  0.62368  0.23943  Biso   1.000  O
  O20      1.0000 0.55112  0.62948  0.73934  Biso   1.000  O
  O21      1.0000 0.54552  0.12184  0.49431  Biso   1.000  O
  O22      1.0000 0.56630  0.12717  0.98246  Biso   1.000  O
  O23      1.0000 0.54951  0.62130  0.49012  Biso   1.000  O
  O24      1.0000 0.54969  0.61778  0.98944  Biso   1.000  O
  O25      1.0000 0.44882  0.37895  0.00807  Biso   1.000  O
  O26      1.0000 0.44910  0.37905  0.50940  Biso   1.000  O
  O27      1.0000 0.46881  0.86906  0.00017  Biso   1.000  O
  O28      1.0000 0.44959  0.87834  0.51047  Biso   1.000  O
  O29      1.0000 0.44219  0.37247  0.25931  Biso   1.000  O
  O30      1.0000 0.45100  0.37232  0.75825  Biso   1.000  O
  O31      1.0000 0.45244  0.86187  0.26495  Biso   1.000  O
  O32      1.0000 0.45151  0.87243  0.75682  Biso   1.000  O
