data_image0
_cell_length_a       10.1737
_cell_length_b       10.3824
_cell_length_c       5.31638
_cell_angle_alpha    89.7631
_cell_angle_beta     91.8864
_cell_angle_gamma    90.0872

_symmetry_space_group_name_H-M    "P 1"
_symmetry_int_tables_number       1

loop_
  _symmetry_equiv_pos_as_xyz
  'x, y, z'

loop_
  _atom_site_label
  _atom_site_occupancy
  _atom_site_fract_x
  _atom_site_fract_y
  _atom_site_fract_z
  _atom_site_thermal_displace_type
  _atom_site_B_iso_or_equiv
  _atom_site_type_symbol
  Zr1      1.0000 0.13864  0.02000  0.34900  Biso   1.000  Zr
  Zr2      1.0000 0.13533  0.22604  0.85901  Biso   1.000  Zr
  Zr3      1.0000 0.34619  0.26901  0.38710  Biso   1.000  Zr
  Zr4      1.0000 0.35866  0.48436  0.85490  Biso   1.000  Zr
  Zr5      1.0000 0.64461  0.01710  0.14280  Biso   1.000  Zr
  Zr6      1.0000 0.65014  0.22373  0.63992  Biso   1.000  Zr
  Zr7      1.0000 0.85782  0.26956  0.14346  Biso   1.000  Zr
  Zr8      1.0000 0.86790  0.48109  0.65003  Biso   1.000  Zr
  O1       1.0000 0.03215  0.16267  0.16872  Biso   1.000  O
  O2       1.0000 0.03597  0.08249  0.66561  Biso   1.000  O
  O3       1.0000 0.46196  0.42852  0.19634  Biso   1.000  O
  O4       1.0000 0.46890  0.33563  0.68508  Biso   1.000  O
  O5       1.0000 0.27049  0.12563  0.61043  Biso   1.000  O
  O6       1.0000 0.27666  0.12421  0.10682  Biso   1.000  O
  O7       1.0000 0.22172  0.37593  0.61250  Biso   1.000  O
  O8       1.0000 0.22489  0.37468  0.11000  Biso   1.000  O
  O9       1.0000 0.51208  0.14595  0.38290  Biso   1.000  O
  O10      1.0000 0.53382  0.06959  0.82542  Biso   1.000  O
  O11      1.0000 0.96761  0.41272  0.33493  Biso   1.000  O
  O12      1.0000 0.97188  0.33514  0.83510  Biso   1.000  O
  O13      1.0000 0.79297  0.11844  0.88219  Biso   1.000  O
  O14      1.0000 0.77995  0.12174  0.39591  Biso   1.000  O
  O15      1.0000 0.74121  0.39310  0.89288  Biso   1.000  O
  O16      1.0000 0.72424  0.37778  0.40275  Biso   1.000  O
  Zr9      1.0000 0.13716  0.52057  0.34327  Biso   1.000  Zr
  Zr10     1.0000 0.14030  0.73020  0.84456  Biso   1.000  Zr
  Zr11     1.0000 0.36264  0.77181  0.35083  Biso   1.000  Zr
  Zr12     1.0000 0.36296  0.97548  0.85550  Biso   1.000  Zr
  Zr13     1.0000 0.64481  0.53327  0.15501  Biso   1.000  Zr
  Zr14     1.0000 0.64063  0.73149  0.65475  Biso   1.000  Zr
  Zr15     1.0000 0.86589  0.77193  0.15619  Biso   1.000  Zr
  Zr16     1.0000 0.86551  0.97632  0.65292  Biso   1.000  Zr
  O17      1.0000 0.03421  0.66253  0.16201  Biso   1.000  O
  O18      1.0000 0.03646  0.58704  0.66317  Biso   1.000  O
  O19      1.0000 0.47136  0.90987  0.16880  Biso   1.000  O
  O20      1.0000 0.46880  0.83162  0.67052  Biso   1.000  O
  O21      1.0000 0.27627  0.62408  0.59242  Biso   1.000  O
  O22      1.0000 0.27490  0.62521  0.09290  Biso   1.000  O
  O23      1.0000 0.22739  0.87387  0.59804  Biso   1.000  O
  O24      1.0000 0.22538  0.87402  0.10010  Biso   1.000  O
  O25      1.0000 0.53492  0.66695  0.33642  Biso   1.000  O
  O26      1.0000 0.53151  0.58714  0.83939  Biso   1.000  O
  O27      1.0000 0.97202  0.91243  0.33404  Biso   1.000  O
  O28      1.0000 0.97096  0.83429  0.83726  Biso   1.000  O
  O29      1.0000 0.77615  0.63180  0.90559  Biso   1.000  O
  O30      1.0000 0.77951  0.62803  0.40548  Biso   1.000  O
  O31      1.0000 0.72920  0.87543  0.90985  Biso   1.000  O
  O32      1.0000 0.72922  0.87261  0.40872  Biso   1.000  O
  Cd1      1.0000 0.56478  0.26706  0.07899  Biso   1.000  Cd
