data_image0
_cell_length_a       10.1332
_cell_length_b       10.3407
_cell_length_c       10.5711
_cell_angle_alpha    89.8643
_cell_angle_beta     90.8944
_cell_angle_gamma    90.0558

_symmetry_space_group_name_H-M    "P 1"
_symmetry_int_tables_number       1

loop_
  _symmetry_equiv_pos_as_xyz
  'x, y, z'

loop_
  _atom_site_label
  _atom_site_occupancy
  _atom_site_fract_x
  _atom_site_fract_y
  _atom_site_fract_z
  _atom_site_thermal_displace_type
  _atom_site_B_iso_or_equiv
  _atom_site_type_symbol
  Zr1      1.0000 0.13603  0.02099  0.17186  Biso   1.000  Zr
  Zr2      1.0000 0.13502  0.22726  0.42751  Biso   1.000  Zr
  Zr3      1.0000 0.34311  0.26969  0.18829  Biso   1.000  Zr
  Zr4      1.0000 0.36141  0.48023  0.42496  Biso   1.000  Zr
  Zr5      1.0000 0.64207  0.01920  0.07119  Biso   1.000  Zr
  Zr6      1.0000 0.63547  0.22525  0.33359  Biso   1.000  Zr
  Zr7      1.0000 0.85765  0.26918  0.07358  Biso   1.000  Zr
  Zr8      1.0000 0.86010  0.47750  0.32779  Biso   1.000  Zr
  O1       1.0000 0.03346  0.16545  0.08366  Biso   1.000  O
  O2       1.0000 0.02926  0.08579  0.33355  Biso   1.000  O
  O3       1.0000 0.45872  0.42839  0.09664  Biso   1.000  O
  O4       1.0000 0.46416  0.33590  0.33706  Biso   1.000  O
  O5       1.0000 0.26646  0.12523  0.30231  Biso   1.000  O
  O6       1.0000 0.27738  0.12587  0.04832  Biso   1.000  O
  O7       1.0000 0.21752  0.37556  0.30225  Biso   1.000  O
  O8       1.0000 0.22270  0.37627  0.04979  Biso   1.000  O
  O9       1.0000 0.50858  0.14377  0.19417  Biso   1.000  O
  O10      1.0000 0.52945  0.08758  0.42718  Biso   1.000  O
  O11      1.0000 0.96332  0.41411  0.16750  Biso   1.000  O
  O12      1.0000 0.96674  0.33577  0.41886  Biso   1.000  O
  O13      1.0000 0.77422  0.12390  0.45392  Biso   1.000  O
  O14      1.0000 0.77092  0.12702  0.20592  Biso   1.000  O
  O15      1.0000 0.72406  0.37403  0.45413  Biso   1.000  O
  O16      1.0000 0.71807  0.37922  0.20515  Biso   1.000  O
  Zr9      1.0000 0.14174  0.02012  0.67317  Biso   1.000  Zr
  Zr10     1.0000 0.13943  0.22802  0.92264  Biso   1.000  Zr
  Zr11     1.0000 0.36436  0.27074  0.67563  Biso   1.000  Zr
  Zr12     1.0000 0.35908  0.48229  0.92350  Biso   1.000  Zr
  Zr13     1.0000 0.64050  0.01901  0.57952  Biso   1.000  Zr
  Zr14     1.0000 0.65142  0.22577  0.81760  Biso   1.000  Zr
  Zr15     1.0000 0.86270  0.27163  0.57753  Biso   1.000  Zr
  Zr16     1.0000 0.86841  0.48253  0.82598  Biso   1.000  Zr
  O17      1.0000 0.03218  0.16313  0.58439  Biso   1.000  O
  O18      1.0000 0.03905  0.08183  0.83257  Biso   1.000  O
  O19      1.0000 0.46985  0.41488  0.58502  Biso   1.000  O
  O20      1.0000 0.47232  0.33538  0.83779  Biso   1.000  O
  O21      1.0000 0.27899  0.12490  0.79685  Biso   1.000  O
  O22      1.0000 0.27595  0.12460  0.54885  Biso   1.000  O
  O23      1.0000 0.22818  0.37458  0.79838  Biso   1.000  O
  O24      1.0000 0.22675  0.37453  0.54942  Biso   1.000  O
  O25      1.0000 0.53515  0.16454  0.66655  Biso   1.000  O
  O26      1.0000 0.53794  0.06758  0.90209  Biso   1.000  O
  O27      1.0000 0.97168  0.41389  0.66675  Biso   1.000  O
  O28      1.0000 0.97241  0.33406  0.91487  Biso   1.000  O
  O29      1.0000 0.79461  0.11791  0.94377  Biso   1.000  O
  O30      1.0000 0.78224  0.12176  0.69829  Biso   1.000  O
  O31      1.0000 0.74170  0.39261  0.94896  Biso   1.000  O
  O32      1.0000 0.72937  0.37476  0.70122  Biso   1.000  O
  Zr17     1.0000 0.13449  0.52185  0.17137  Biso   1.000  Zr
  Zr18     1.0000 0.13782  0.72842  0.42089  Biso   1.000  Zr
  Zr19     1.0000 0.36079  0.77367  0.17330  Biso   1.000  Zr
  Zr20     1.0000 0.36123  0.97762  0.42538  Biso   1.000  Zr
  Zr21     1.0000 0.64373  0.53369  0.07928  Biso   1.000  Zr
  Zr22     1.0000 0.63958  0.73133  0.32929  Biso   1.000  Zr
  Zr23     1.0000 0.86335  0.77340  0.07901  Biso   1.000  Zr
  Zr24     1.0000 0.86008  0.98001  0.32845  Biso   1.000  Zr
  O33      1.0000 0.03314  0.66523  0.08274  Biso   1.000  O
  O34      1.0000 0.03081  0.58500  0.33221  Biso   1.000  O
  O35      1.0000 0.46942  0.91233  0.08120  Biso   1.000  O
  O36      1.0000 0.46890  0.83794  0.33385  Biso   1.000  O
  O37      1.0000 0.27386  0.62452  0.29517  Biso   1.000  O
  O38      1.0000 0.27521  0.62649  0.04545  Biso   1.000  O
  O39      1.0000 0.22502  0.87499  0.29689  Biso   1.000  O
  O40      1.0000 0.22401  0.87604  0.04789  Biso   1.000  O
  O41      1.0000 0.53392  0.66937  0.16800  Biso   1.000  O
  O42      1.0000 0.53137  0.58735  0.41771  Biso   1.000  O
  O43      1.0000 0.96711  0.91687  0.16755  Biso   1.000  O
  O44      1.0000 0.96714  0.83411  0.41590  Biso   1.000  O
  O45      1.0000 0.77553  0.62399  0.45350  Biso   1.000  O
  O46      1.0000 0.77765  0.62885  0.20473  Biso   1.000  O
  O47      1.0000 0.72557  0.87503  0.45556  Biso   1.000  O
  O48      1.0000 0.72657  0.87547  0.20523  Biso   1.000  O
  Zr25     1.0000 0.14156  0.52023  0.67141  Biso   1.000  Zr
  Zr26     1.0000 0.14145  0.73066  0.92222  Biso   1.000  Zr
  Zr27     1.0000 0.36304  0.76941  0.67252  Biso   1.000  Zr
  Zr28     1.0000 0.36385  0.97739  0.92184  Biso   1.000  Zr
  Zr29     1.0000 0.64020  0.52139  0.57732  Biso   1.000  Zr
  Zr30     1.0000 0.63985  0.72898  0.82705  Biso   1.000  Zr
  Zr31     1.0000 0.86396  0.77026  0.57791  Biso   1.000  Zr
  Zr32     1.0000 0.86651  0.97553  0.82706  Biso   1.000  Zr
  O49      1.0000 0.03387  0.66296  0.58166  Biso   1.000  O
  O50      1.0000 0.03794  0.58671  0.83276  Biso   1.000  O
  O51      1.0000 0.46962  0.91167  0.58434  Biso   1.000  O
  O52      1.0000 0.46725  0.82893  0.83371  Biso   1.000  O
  O53      1.0000 0.27784  0.62383  0.79574  Biso   1.000  O
  O54      1.0000 0.27545  0.62476  0.54572  Biso   1.000  O
  O55      1.0000 0.22700  0.87330  0.79599  Biso   1.000  O
  O56      1.0000 0.22598  0.87446  0.54590  Biso   1.000  O
  O57      1.0000 0.53337  0.66251  0.66733  Biso   1.000  O
  O58      1.0000 0.53298  0.58500  0.91920  Biso   1.000  O
  O59      1.0000 0.97205  0.91177  0.66553  Biso   1.000  O
  O60      1.0000 0.97129  0.83513  0.91907  Biso   1.000  O
  O61      1.0000 0.77691  0.63163  0.95401  Biso   1.000  O
  O62      1.0000 0.77725  0.62520  0.70317  Biso   1.000  O
  O63      1.0000 0.72784  0.87424  0.95482  Biso   1.000  O
  O64      1.0000 0.72744  0.87302  0.70478  Biso   1.000  O
  Cd1      1.0000 0.56667  0.26770  0.04142  Biso   1.000  Cd
