data_image0
_cell_length_a       10.096
_cell_length_b       5.09148
_cell_length_c       10.0961
_cell_angle_alpha    90.0051
_cell_angle_beta     89.9999
_cell_angle_gamma    90.0071

_symmetry_space_group_name_H-M    "P 1"
_symmetry_int_tables_number       1

loop_
  _symmetry_equiv_pos_as_xyz
  'x, y, z'

loop_
  _atom_site_label
  _atom_site_occupancy
  _atom_site_fract_x
  _atom_site_fract_y
  _atom_site_fract_z
  _atom_site_thermal_displace_type
  _atom_site_B_iso_or_equiv
  _atom_site_type_symbol
  Cd1      1.0000 0.12522  0.00046  0.12522  Biso   1.000  Cd
  Zr1      1.0000 0.12522  0.00046  0.62522  Biso   1.000  Zr
  Zr2      1.0000 0.62522  0.00046  0.12523  Biso   1.000  Zr
  Zr3      1.0000 0.62521  0.00046  0.62522  Biso   1.000  Zr
  Zr4      1.0000 0.12520  0.50043  0.37552  Biso   1.000  Zr
  Zr5      1.0000 0.12521  0.50048  0.87488  Biso   1.000  Zr
  Zr6      1.0000 0.62520  0.50046  0.37526  Biso   1.000  Zr
  Zr7      1.0000 0.62520  0.50046  0.87516  Biso   1.000  Zr
  Zr8      1.0000 0.37551  0.50043  0.12520  Biso   1.000  Zr
  Zr9      1.0000 0.37526  0.50046  0.62520  Biso   1.000  Zr
  Zr10     1.0000 0.87488  0.50050  0.12521  Biso   1.000  Zr
  Zr11     1.0000 0.87515  0.50046  0.62520  Biso   1.000  Zr
  Zr12     1.0000 0.37581  0.00010  0.37582  Biso   1.000  Zr
  Zr13     1.0000 0.37583  0.00072  0.87462  Biso   1.000  Zr
  Zr14     1.0000 0.87462  0.00074  0.37584  Biso   1.000  Zr
  Zr15     1.0000 0.87460  0.00026  0.87461  Biso   1.000  Zr
  Zr16     1.0000 0.99735  0.28566  0.99735  Biso   1.000  Zr
  Zr17     1.0000 0.00215  0.28873  0.50427  Biso   1.000  Zr
  Zr18     1.0000 0.50426  0.28873  0.00216  Biso   1.000  Zr
  Zr19     1.0000 0.50138  0.29081  0.50139  Biso   1.000  Zr
  Zr20     1.0000 0.99436  0.23373  0.25600  Biso   1.000  Zr
  Zr21     1.0000 0.99906  0.21144  0.75132  Biso   1.000  Zr
  Zr22     1.0000 0.49904  0.21143  0.25135  Biso   1.000  Zr
  Zr23     1.0000 0.49984  0.21069  0.75056  Biso   1.000  Zr
  Zr24     1.0000 0.99741  0.71545  0.25303  Biso   1.000  Zr
  Zr25     1.0000 0.00215  0.71216  0.74615  Biso   1.000  Zr
  Zr26     1.0000 0.50430  0.71214  0.24825  Biso   1.000  Zr
  Zr27     1.0000 0.50138  0.71010  0.74903  Biso   1.000  Zr
  Zr28     1.0000 0.99442  0.76738  0.99442  Biso   1.000  Zr
  Zr29     1.0000 0.99907  0.78945  0.49908  Biso   1.000  Zr
  Zr30     1.0000 0.49908  0.78944  0.99907  Biso   1.000  Zr
  Zr31     1.0000 0.49985  0.79020  0.49985  Biso   1.000  Zr
  Zr32     1.0000 0.25297  0.28532  0.25298  Biso   1.000  Zr
  Zr33     1.0000 0.24825  0.28879  0.74612  Biso   1.000  Zr
  Zr34     1.0000 0.74612  0.28879  0.24824  Biso   1.000  Zr
  Zr35     1.0000 0.74903  0.29085  0.74903  Biso   1.000  Zr
  Zr36     1.0000 0.25599  0.23368  0.99437  Biso   1.000  Zr
  Zr37     1.0000 0.25134  0.21144  0.49904  Biso   1.000  Zr
  Zr38     1.0000 0.75131  0.21145  0.99906  Biso   1.000  Zr
  Zr39     1.0000 0.75056  0.21070  0.49984  Biso   1.000  Zr
  Zr40     1.0000 0.25304  0.71540  0.99740  Biso   1.000  Zr
  Zr41     1.0000 0.24824  0.71214  0.50430  Biso   1.000  Zr
  Zr42     1.0000 0.74616  0.71218  0.00216  Biso   1.000  Zr
  Zr43     1.0000 0.74903  0.71010  0.50139  Biso   1.000  Zr
  Zr44     1.0000 0.25605  0.76704  0.25605  Biso   1.000  Zr
  Zr45     1.0000 0.25134  0.78951  0.75135  Biso   1.000  Zr
  Zr46     1.0000 0.75135  0.78951  0.25135  Biso   1.000  Zr
  Zr47     1.0000 0.75056  0.79025  0.75057  Biso   1.000  Zr
