data_image0
_cell_length_a       10.0914
_cell_length_b       5.22508
_cell_length_c       10.1205
_cell_angle_alpha    90.2437
_cell_angle_beta     90.3793
_cell_angle_gamma    90.0626

_symmetry_space_group_name_H-M    "P 1"
_symmetry_int_tables_number       1

loop_
  _symmetry_equiv_pos_as_xyz
  'x, y, z'

loop_
  _atom_site_label
  _atom_site_occupancy
  _atom_site_fract_x
  _atom_site_fract_y
  _atom_site_fract_z
  _atom_site_thermal_displace_type
  _atom_site_B_iso_or_equiv
  _atom_site_type_symbol
  Ce1      1.0000 0.12502  0.01817  0.11760  Biso   1.000  Ce
  Zr1      1.0000 0.13366  0.03125  0.62424  Biso   1.000  Zr
  Zr2      1.0000 0.63286  0.02795  0.12569  Biso   1.000  Zr
  Zr3      1.0000 0.63342  0.03184  0.62500  Biso   1.000  Zr
  Zr4      1.0000 0.13372  0.46751  0.37677  Biso   1.000  Zr
  Zr5      1.0000 0.13595  0.47554  0.87038  Biso   1.000  Zr
  Zr6      1.0000 0.63170  0.46649  0.37628  Biso   1.000  Zr
  Zr7      1.0000 0.63489  0.46761  0.87483  Biso   1.000  Zr
  Zr8      1.0000 0.36861  0.52524  0.12469  Biso   1.000  Zr
  Zr9      1.0000 0.36692  0.52979  0.62307  Biso   1.000  Zr
  Zr10     1.0000 0.86065  0.53128  0.12863  Biso   1.000  Zr
  Zr11     1.0000 0.86733  0.53159  0.62431  Biso   1.000  Zr
  Zr12     1.0000 0.36520  0.96765  0.37342  Biso   1.000  Zr
  Zr13     1.0000 0.37099  0.96858  0.87185  Biso   1.000  Zr
  Zr14     1.0000 0.86278  0.96833  0.37988  Biso   1.000  Zr
  Zr15     1.0000 0.86351  0.96660  0.87398  Biso   1.000  Zr
  Zr16     1.0000 0.02938  0.37667  0.20066  Biso   1.000  Zr
  Zr17     1.0000 0.03775  0.37244  0.68953  Biso   1.000  Zr
  Zr18     1.0000 0.53604  0.36285  0.19452  Biso   1.000  Zr
  Zr19     1.0000 0.53488  0.36488  0.69534  Biso   1.000  Zr
  Zr20     1.0000 0.03379  0.13279  0.44517  Biso   1.000  Zr
  Zr21     1.0000 0.02925  0.15845  0.93071  Biso   1.000  Zr
  Zr22     1.0000 0.53398  0.13132  0.44569  Biso   1.000  Zr
  Zr23     1.0000 0.53765  0.13269  0.94450  Biso   1.000  Zr
  Zr24     1.0000 0.46446  0.86549  0.19377  Biso   1.000  Zr
  Zr25     1.0000 0.46732  0.86407  0.69448  Biso   1.000  Zr
  Zr26     1.0000 0.95109  0.86509  0.20354  Biso   1.000  Zr
  Zr27     1.0000 0.96638  0.86551  0.69785  Biso   1.000  Zr
  Zr28     1.0000 0.46471  0.63187  0.44522  Biso   1.000  Zr
  Zr29     1.0000 0.47129  0.63463  0.94518  Biso   1.000  Zr
  Zr30     1.0000 0.96464  0.63543  0.44770  Biso   1.000  Zr
  Zr31     1.0000 0.97663  0.65934  0.95846  Biso   1.000  Zr
  Zr32     1.0000 0.27273  0.23736  0.25011  Biso   1.000  Zr
  Zr33     1.0000 0.27037  0.23336  0.74626  Biso   1.000  Zr
  Zr34     1.0000 0.76674  0.23194  0.25044  Biso   1.000  Zr
  Zr35     1.0000 0.77031  0.23343  0.74776  Biso   1.000  Zr
  Zr36     1.0000 0.26849  0.26477  0.49849  Biso   1.000  Zr
  Zr37     1.0000 0.27190  0.26784  0.99264  Biso   1.000  Zr
  Zr38     1.0000 0.76744  0.26701  0.49964  Biso   1.000  Zr
  Zr39     1.0000 0.77051  0.26545  0.99869  Biso   1.000  Zr
  Zr40     1.0000 0.23087  0.76750  0.49746  Biso   1.000  Zr
  Zr41     1.0000 0.24155  0.75654  0.99134  Biso   1.000  Zr
  Zr42     1.0000 0.72966  0.76486  0.50079  Biso   1.000  Zr
  Zr43     1.0000 0.73269  0.76394  0.99950  Biso   1.000  Zr
  Zr44     1.0000 0.23581  0.72032  0.25051  Biso   1.000  Zr
  Zr45     1.0000 0.23313  0.73558  0.74462  Biso   1.000  Zr
  Zr46     1.0000 0.72416  0.73174  0.25083  Biso   1.000  Zr
  Zr47     1.0000 0.73249  0.73247  0.74953  Biso   1.000  Zr
