data_image0
_cell_length_a       10.154
_cell_length_b       10.3591
_cell_length_c       5.20466
_cell_angle_alpha    93.2273
_cell_angle_beta     89.8477
_cell_angle_gamma    88.743

_symmetry_space_group_name_H-M    "P 1"
_symmetry_int_tables_number       1

loop_
  _symmetry_equiv_pos_as_xyz
  'x, y, z'

loop_
  _atom_site_label
  _atom_site_occupancy
  _atom_site_fract_x
  _atom_site_fract_y
  _atom_site_fract_z
  _atom_site_thermal_displace_type
  _atom_site_B_iso_or_equiv
  _atom_site_type_symbol
  Zr1      1.0000 0.13810  0.96296  0.27039  Biso   1.000  Zr
  Zr2      1.0000 0.13034  0.24229  0.68897  Biso   1.000  Zr
  Zr3      1.0000 0.41106  0.25975  0.29609  Biso   1.000  Zr
  Zr4      1.0000 0.38077  0.00468  0.72190  Biso   1.000  Zr
  Zr5      1.0000 0.96644  0.17508  0.92127  Biso   1.000  Zr
  Zr6      1.0000 0.00237  0.10933  0.44273  Biso   1.000  Zr
  Zr7      1.0000 0.00051  0.36885  0.47698  Biso   1.000  Zr
  Zr8      1.0000 0.04355  0.41161  0.96026  Biso   1.000  Zr
  Zr9      1.0000 0.26752  0.11584  0.44627  Biso   1.000  Zr
  Zr10     1.0000 0.21446  0.06294  0.92783  Biso   1.000  Zr
  Zr11     1.0000 0.29588  0.31167  0.92414  Biso   1.000  Zr
  Zr12     1.0000 0.25672  0.38149  0.47287  Biso   1.000  Zr
  Zr13     1.0000 0.11190  0.52204  0.29927  Biso   1.000  Zr
  Zr14     1.0000 0.10377  0.75908  0.76488  Biso   1.000  Zr
  Zr15     1.0000 0.36298  0.71900  0.30253  Biso   1.000  Zr
  Zr16     1.0000 0.37275  0.48379  0.78071  Biso   1.000  Zr
  Zr17     1.0000 0.00685  0.65478  0.05150  Biso   1.000  Zr
  Zr18     1.0000 0.98383  0.62486  0.55368  Biso   1.000  Zr
  Zr19     1.0000 0.99786  0.86559  0.50211  Biso   1.000  Zr
  Zr20     1.0000 0.98901  0.90629  0.99945  Biso   1.000  Zr
  Zr21     1.0000 0.24438  0.62782  0.58614  Biso   1.000  Zr
  Zr22     1.0000 0.27403  0.56351  0.09760  Biso   1.000  Zr
  Zr23     1.0000 0.23168  0.81108  0.06218  Biso   1.000  Zr
  Zr24     1.0000 0.25114  0.86808  0.54492  Biso   1.000  Zr
  Zr25     1.0000 0.60748  0.98635  0.21456  Biso   1.000  Zr
  Zr26     1.0000 0.61973  0.24479  0.80987  Biso   1.000  Zr
  Zr27     1.0000 0.84950  0.25545  0.27214  Biso   1.000  Zr
  Zr28     1.0000 0.87668  0.02059  0.73245  Biso   1.000  Zr
  Zr29     1.0000 0.48799  0.12917  0.00779  Biso   1.000  Zr
  Zr30     1.0000 0.51729  0.11041  0.51064  Biso   1.000  Zr
  Zr31     1.0000 0.50919  0.35739  0.58394  Biso   1.000  Zr
  Zr32     1.0000 0.51506  0.38735  0.07569  Biso   1.000  Zr
  Zr33     1.0000 0.76386  0.17625  0.57295  Biso   1.000  Zr
  Zr34     1.0000 0.73695  0.11459  0.04612  Biso   1.000  Zr
  Zr35     1.0000 0.76246  0.37135  0.99264  Biso   1.000  Zr
  Zr36     1.0000 0.76213  0.42720  0.47878  Biso   1.000  Zr
  Zr37     1.0000 0.64582  0.52379  0.23113  Biso   1.000  Zr
  Zr38     1.0000 0.60504  0.74249  0.75083  Biso   1.000  Zr
  Zr39     1.0000 0.85876  0.77733  0.22524  Biso   1.000  Zr
  Zr40     1.0000 0.89173  0.49220  0.76655  Biso   1.000  Zr
  Zr41     1.0000 0.50096  0.63727  0.00729  Biso   1.000  Zr
  Zr42     1.0000 0.49524  0.59869  0.51146  Biso   1.000  Zr
  Zr43     1.0000 0.50165  0.85597  0.46608  Biso   1.000  Zr
  Zr44     1.0000 0.48659  0.88515  0.95892  Biso   1.000  Zr
  Zr45     1.0000 0.72625  0.68496  0.43996  Biso   1.000  Zr
  Zr46     1.0000 0.75351  0.62052  0.95743  Biso   1.000  Zr
  Zr47     1.0000 0.73829  0.86563  0.95489  Biso   1.000  Zr
  Zr48     1.0000 0.76152  0.93359  0.44075  Biso   1.000  Zr
  Ce1      1.0000 0.13413  0.24153  0.18116  Biso   1.000  Ce
