data_image0
_cell_length_a       4.99486
_cell_length_b       10.4137
_cell_length_c       10.0285
_cell_angle_alpha    90.793
_cell_angle_beta     88.7985
_cell_angle_gamma    90.5168

_symmetry_space_group_name_H-M    "P 1"
_symmetry_int_tables_number       1

loop_
  _symmetry_equiv_pos_as_xyz
  'x, y, z'

loop_
  _atom_site_label
  _atom_site_occupancy
  _atom_site_fract_x
  _atom_site_fract_y
  _atom_site_fract_z
  _atom_site_thermal_displace_type
  _atom_site_B_iso_or_equiv
  _atom_site_type_symbol
  Co1      1.0000 0.24389  0.03973  0.10547  Biso   1.000  Co
  Zr1      1.0000 0.26303  0.01433  0.62402  Biso   1.000  Zr
  Zr2      1.0000 0.27014  0.51415  0.12853  Biso   1.000  Zr
  Zr3      1.0000 0.26991  0.51772  0.62451  Biso   1.000  Zr
  Zr4      1.0000 0.27094  0.22729  0.37215  Biso   1.000  Zr
  Zr5      1.0000 0.25663  0.23930  0.87226  Biso   1.000  Zr
  Zr6      1.0000 0.28506  0.73493  0.37734  Biso   1.000  Zr
  Zr7      1.0000 0.26085  0.73916  0.88102  Biso   1.000  Zr
  Zr8      1.0000 0.72942  0.25976  0.12086  Biso   1.000  Zr
  Zr9      1.0000 0.73122  0.26535  0.62309  Biso   1.000  Zr
  Zr10     1.0000 0.75364  0.76150  0.12256  Biso   1.000  Zr
  Zr11     1.0000 0.73909  0.76916  0.62763  Biso   1.000  Zr
  Zr12     1.0000 0.73934  0.48147  0.37540  Biso   1.000  Zr
  Zr13     1.0000 0.72677  0.48924  0.87377  Biso   1.000  Zr
  Zr14     1.0000 0.74249  0.98431  0.36858  Biso   1.000  Zr
  Zr15     1.0000 0.70823  0.98677  0.88120  Biso   1.000  Zr
  Zr16     1.0000 0.06762  0.17795  0.19018  Biso   1.000  Zr
  Zr17     1.0000 0.06489  0.18420  0.69664  Biso   1.000  Zr
  Zr18     1.0000 0.07966  0.68405  0.20028  Biso   1.000  Zr
  Zr19     1.0000 0.06852  0.68411  0.69957  Biso   1.000  Zr
  Zr20     1.0000 0.07204  0.06637  0.44940  Biso   1.000  Zr
  Zr21     1.0000 0.04412  0.07124  0.95771  Biso   1.000  Zr
  Zr22     1.0000 0.07810  0.56510  0.44505  Biso   1.000  Zr
  Zr23     1.0000 0.05688  0.57144  0.95290  Biso   1.000  Zr
  Zr24     1.0000 0.93572  0.42556  0.19467  Biso   1.000  Zr
  Zr25     1.0000 0.92768  0.43437  0.69388  Biso   1.000  Zr
  Zr26     1.0000 0.99475  0.94006  0.18871  Biso   1.000  Zr
  Zr27     1.0000 0.92706  0.93652  0.70172  Biso   1.000  Zr
  Zr28     1.0000 0.93440  0.31362  0.44251  Biso   1.000  Zr
  Zr29     1.0000 0.91263  0.31689  0.94014  Biso   1.000  Zr
  Zr30     1.0000 0.95085  0.82097  0.45135  Biso   1.000  Zr
  Zr31     1.0000 0.90702  0.82017  0.93897  Biso   1.000  Zr
  Zr32     1.0000 0.51455  0.09880  0.23643  Biso   1.000  Zr
  Zr33     1.0000 0.53213  0.11838  0.74854  Biso   1.000  Zr
  Zr34     1.0000 0.54616  0.60528  0.24820  Biso   1.000  Zr
  Zr35     1.0000 0.53406  0.62002  0.75131  Biso   1.000  Zr
  Zr36     1.0000 0.54620  0.13262  0.49248  Biso   1.000  Zr
  Zr37     1.0000 0.50094  0.13550  0.99947  Biso   1.000  Zr
  Zr38     1.0000 0.54852  0.63378  0.50026  Biso   1.000  Zr
  Zr39     1.0000 0.52985  0.63807  0.00036  Biso   1.000  Zr
  Zr40     1.0000 0.46314  0.38135  0.49798  Biso   1.000  Zr
  Zr41     1.0000 0.45383  0.38573  0.99690  Biso   1.000  Zr
  Zr42     1.0000 0.47449  0.88493  0.50273  Biso   1.000  Zr
  Zr43     1.0000 0.43259  0.89677  0.01354  Biso   1.000  Zr
  Zr44     1.0000 0.46690  0.35819  0.24688  Biso   1.000  Zr
  Zr45     1.0000 0.45613  0.36923  0.74732  Biso   1.000  Zr
  Zr46     1.0000 0.53193  0.84691  0.26115  Biso   1.000  Zr
  Zr47     1.0000 0.45455  0.86865  0.75420  Biso   1.000  Zr
