data_image0
_cell_length_a       5.04049
_cell_length_b       10.485
_cell_length_c       10.0985
_cell_angle_alpha    89.6727
_cell_angle_beta     90.1816
_cell_angle_gamma    90.0098

_symmetry_space_group_name_H-M    "P 1"
_symmetry_int_tables_number       1

loop_
  _symmetry_equiv_pos_as_xyz
  'x, y, z'

loop_
  _atom_site_label
  _atom_site_occupancy
  _atom_site_fract_x
  _atom_site_fract_y
  _atom_site_fract_z
  _atom_site_thermal_displace_type
  _atom_site_B_iso_or_equiv
  _atom_site_type_symbol
  Zr1      1.0000 0.26447  0.01826  0.12063  Biso   1.000  Zr
  Zr2      1.0000 0.26564  0.23079  0.38188  Biso   1.000  Zr
  Zr3      1.0000 0.70033  0.26017  0.12410  Biso   1.000  Zr
  Zr4      1.0000 0.73814  0.48464  0.37468  Biso   1.000  Zr
  Zr5      1.0000 0.03607  0.17311  0.21027  Biso   1.000  Zr
  Zr6      1.0000 0.06896  0.06534  0.44994  Biso   1.000  Zr
  Zr7      1.0000 0.92008  0.43298  0.19366  Biso   1.000  Zr
  Zr8      1.0000 0.93499  0.31876  0.44849  Biso   1.000  Zr
  Zr9      1.0000 0.52208  0.11508  0.25065  Biso   1.000  Zr
  Zr10     1.0000 0.54305  0.13290  0.49879  Biso   1.000  Zr
  Zr11     1.0000 0.46701  0.38336  0.49892  Biso   1.000  Zr
  Zr12     1.0000 0.44283  0.36771  0.24926  Biso   1.000  Zr
  Zr13     1.0000 0.27230  0.01314  0.62561  Biso   1.000  Zr
  Zr14     1.0000 0.27982  0.22632  0.87132  Biso   1.000  Zr
  Zr15     1.0000 0.73813  0.26519  0.62581  Biso   1.000  Zr
  Zr16     1.0000 0.73767  0.48261  0.87628  Biso   1.000  Zr
  Zr17     1.0000 0.07370  0.18025  0.69323  Biso   1.000  Zr
  Zr18     1.0000 0.08490  0.06042  0.93852  Biso   1.000  Zr
  Zr19     1.0000 0.93932  0.43117  0.70022  Biso   1.000  Zr
  Zr20     1.0000 0.93803  0.31409  0.95039  Biso   1.000  Zr
  Zr21     1.0000 0.54582  0.11314  0.74588  Biso   1.000  Zr
  Zr22     1.0000 0.56887  0.12204  0.99219  Biso   1.000  Zr
  Zr23     1.0000 0.45506  0.38281  0.99821  Biso   1.000  Zr
  Zr24     1.0000 0.47091  0.36463  0.74866  Biso   1.000  Zr
  Zr25     1.0000 0.26582  0.53102  0.12489  Biso   1.000  Zr
  Zr26     1.0000 0.27121  0.73617  0.37738  Biso   1.000  Zr
  Zr27     1.0000 0.72933  0.76852  0.12643  Biso   1.000  Zr
  Zr28     1.0000 0.73470  0.98475  0.37344  Biso   1.000  Zr
  Zr29     1.0000 0.06586  0.68617  0.20013  Biso   1.000  Zr
  Zr30     1.0000 0.06976  0.56728  0.44663  Biso   1.000  Zr
  Zr31     1.0000 0.92857  0.93318  0.19380  Biso   1.000  Zr
  Zr32     1.0000 0.93230  0.81729  0.44452  Biso   1.000  Zr
  Zr33     1.0000 0.54295  0.62123  0.25101  Biso   1.000  Zr
  Zr34     1.0000 0.53947  0.63291  0.49951  Biso   1.000  Zr
  Zr35     1.0000 0.46697  0.88364  0.49808  Biso   1.000  Zr
  Zr36     1.0000 0.45975  0.86815  0.24857  Biso   1.000  Zr
  Zr37     1.0000 0.27326  0.51367  0.62590  Biso   1.000  Zr
  Zr38     1.0000 0.27116  0.73505  0.87301  Biso   1.000  Zr
  Zr39     1.0000 0.73959  0.76325  0.62371  Biso   1.000  Zr
  Zr40     1.0000 0.74032  0.97842  0.87368  Biso   1.000  Zr
  Zr41     1.0000 0.07624  0.68147  0.69355  Biso   1.000  Zr
  Zr42     1.0000 0.07054  0.56946  0.94487  Biso   1.000  Zr
  Zr43     1.0000 0.94043  0.92823  0.69523  Biso   1.000  Zr
  Zr44     1.0000 0.93525  0.81445  0.94699  Biso   1.000  Zr
  Zr45     1.0000 0.54336  0.61387  0.74926  Biso   1.000  Zr
  Zr46     1.0000 0.54156  0.63452  0.99810  Biso   1.000  Zr
  Zr47     1.0000 0.46238  0.88039  0.99816  Biso   1.000  Zr
  Zr48     1.0000 0.47165  0.86356  0.74721  Biso   1.000  Zr
  Co1      1.0000 0.18729  0.30357  0.10612  Biso   1.000  Co
