data_image0
_cell_length_a       5.11103
_cell_length_b       10.3945
_cell_length_c       10.5267
_cell_angle_alpha    90.3359
_cell_angle_beta     79.9088
_cell_angle_gamma    90.3429

_symmetry_space_group_name_H-M    "P 1"
_symmetry_int_tables_number       1

loop_
  _symmetry_equiv_pos_as_xyz
  'x, y, z'

loop_
  _atom_site_label
  _atom_site_occupancy
  _atom_site_fract_x
  _atom_site_fract_y
  _atom_site_fract_z
  _atom_site_thermal_displace_type
  _atom_site_B_iso_or_equiv
  _atom_site_type_symbol
  Zr1      1.0000 0.27669  0.02262  0.14688  Biso   1.000  Zr
  Zr2      1.0000 0.29401  0.23288  0.39885  Biso   1.000  Zr
  Zr3      1.0000 0.71321  0.27604  0.10324  Biso   1.000  Zr
  Zr4      1.0000 0.71235  0.47485  0.34988  Biso   1.000  Zr
  O1       1.0000 0.06538  0.17104  0.08414  Biso   1.000  O
  O2       1.0000 0.08495  0.07296  0.33697  Biso   1.000  O
  O3       1.0000 0.91742  0.42733  0.16371  Biso   1.000  O
  O4       1.0000 0.94752  0.34246  0.42600  Biso   1.000  O
  O5       1.0000 0.56547  0.12951  0.24151  Biso   1.000  O
  O6       1.0000 0.57100  0.12133  0.48804  Biso   1.000  O
  O7       1.0000 0.44210  0.38209  0.00699  Biso   1.000  O
  O8       1.0000 0.41958  0.37807  0.25401  Biso   1.000  O
  Zr5      1.0000 0.27385  0.02147  0.64656  Biso   1.000  Zr
  Zr6      1.0000 0.27261  0.23002  0.89712  Biso   1.000  Zr
  Zr7      1.0000 0.72569  0.27374  0.60930  Biso   1.000  Zr
  Zr8      1.0000 0.71916  0.48014  0.85625  Biso   1.000  Zr
  O9       1.0000 0.07724  0.17056  0.58207  Biso   1.000  O
  O10      1.0000 0.06802  0.08111  0.83120  Biso   1.000  O
  O11      1.0000 0.93048  0.41934  0.67355  Biso   1.000  O
  O12      1.0000 0.92597  0.33162  0.91935  Biso   1.000  O
  O13      1.0000 0.54975  0.12962  0.74147  Biso   1.000  O
  O14      1.0000 0.54489  0.12290  0.99160  Biso   1.000  O
  O15      1.0000 0.45196  0.37895  0.51430  Biso   1.000  O
  O16      1.0000 0.44800  0.37154  0.76075  Biso   1.000  O
  Zr9      1.0000 0.27106  0.52452  0.14463  Biso   1.000  Zr
  Zr10     1.0000 0.27404  0.72418  0.39616  Biso   1.000  Zr
  Zr11     1.0000 0.71709  0.77160  0.10380  Biso   1.000  Zr
  Zr12     1.0000 0.72175  0.96711  0.35561  Biso   1.000  Zr
  O17      1.0000 0.06580  0.67401  0.07955  Biso   1.000  O
  O18      1.0000 0.06095  0.58342  0.32821  Biso   1.000  O
  O19      1.0000 0.92928  0.91944  0.17034  Biso   1.000  O
  O20      1.0000 0.92798  0.82675  0.42267  Biso   1.000  O
  O21      1.0000 0.54733  0.63007  0.24061  Biso   1.000  O
  O22      1.0000 0.54550  0.61983  0.49110  Biso   1.000  O
  O23      1.0000 0.44503  0.88154  0.01046  Biso   1.000  O
  O24      1.0000 0.44397  0.86910  0.25935  Biso   1.000  O
  Zr13     1.0000 0.27794  0.52261  0.64696  Biso   1.000  Zr
  Zr14     1.0000 0.27197  0.73076  0.89641  Biso   1.000  Zr
  Zr15     1.0000 0.72000  0.76999  0.60596  Biso   1.000  Zr
  Zr16     1.0000 0.71799  0.97980  0.85547  Biso   1.000  Zr
  O25      1.0000 0.06593  0.66716  0.58190  Biso   1.000  O
  O26      1.0000 0.06837  0.58241  0.83171  Biso   1.000  O
  O27      1.0000 0.92768  0.91919  0.67067  Biso   1.000  O
  O28      1.0000 0.92461  0.83285  0.91937  Biso   1.000  O
  O29      1.0000 0.54992  0.62922  0.74182  Biso   1.000  O
  O30      1.0000 0.54685  0.62410  0.99064  Biso   1.000  O
  O31      1.0000 0.44593  0.87790  0.51129  Biso   1.000  O
  O32      1.0000 0.44586  0.87202  0.76022  Biso   1.000  O
  Co1      1.0000 0.81248  0.20830  0.33638  Biso   1.000  Co
