data_image0
_cell_length_a       10.0046
_cell_length_b       10.4256
_cell_length_c       10.0477
_cell_angle_alpha    90.3435
_cell_angle_beta     89.4913
_cell_angle_gamma    90.2433

_symmetry_space_group_name_H-M    "P 1"
_symmetry_int_tables_number       1

loop_
  _symmetry_equiv_pos_as_xyz
  'x, y, z'

loop_
  _atom_site_label
  _atom_site_occupancy
  _atom_site_fract_x
  _atom_site_fract_y
  _atom_site_fract_z
  _atom_site_thermal_displace_type
  _atom_site_B_iso_or_equiv
  _atom_site_type_symbol
  Co1      1.0000 0.12360  0.04017  0.10485  Biso   1.000  Co
  Zr1      1.0000 0.13534  0.01714  0.62839  Biso   1.000  Zr
  Zr2      1.0000 0.13396  0.51366  0.12590  Biso   1.000  Zr
  Zr3      1.0000 0.13473  0.51652  0.62605  Biso   1.000  Zr
  Zr4      1.0000 0.63449  0.01621  0.12535  Biso   1.000  Zr
  Zr5      1.0000 0.62956  0.01319  0.62165  Biso   1.000  Zr
  Zr6      1.0000 0.63493  0.51689  0.12778  Biso   1.000  Zr
  Zr7      1.0000 0.63318  0.51685  0.62449  Biso   1.000  Zr
  Zr8      1.0000 0.13411  0.22904  0.37115  Biso   1.000  Zr
  Zr9      1.0000 0.13108  0.23816  0.87612  Biso   1.000  Zr
  Zr10     1.0000 0.13707  0.73219  0.37836  Biso   1.000  Zr
  Zr11     1.0000 0.13284  0.73723  0.88018  Biso   1.000  Zr
  Zr12     1.0000 0.63409  0.23313  0.37708  Biso   1.000  Zr
  Zr13     1.0000 0.63106  0.23450  0.87290  Biso   1.000  Zr
  Zr14     1.0000 0.63672  0.73684  0.37460  Biso   1.000  Zr
  Zr15     1.0000 0.63148  0.73568  0.87614  Biso   1.000  Zr
  Zr16     1.0000 0.36697  0.26242  0.12447  Biso   1.000  Zr
  Zr17     1.0000 0.36526  0.26627  0.62546  Biso   1.000  Zr
  Zr18     1.0000 0.36605  0.76355  0.12827  Biso   1.000  Zr
  Zr19     1.0000 0.36641  0.76827  0.62970  Biso   1.000  Zr
  Zr20     1.0000 0.86402  0.26600  0.12235  Biso   1.000  Zr
  Zr21     1.0000 0.86568  0.26499  0.62390  Biso   1.000  Zr
  Zr22     1.0000 0.87468  0.76665  0.12099  Biso   1.000  Zr
  Zr23     1.0000 0.86804  0.76638  0.62347  Biso   1.000  Zr
  Zr24     1.0000 0.36761  0.48256  0.37595  Biso   1.000  Zr
  Zr25     1.0000 0.36539  0.48689  0.87568  Biso   1.000  Zr
  Zr26     1.0000 0.36298  0.98075  0.37252  Biso   1.000  Zr
  Zr27     1.0000 0.35873  0.98503  0.88441  Biso   1.000  Zr
  Zr28     1.0000 0.86650  0.48382  0.37551  Biso   1.000  Zr
  Zr29     1.0000 0.86418  0.48664  0.87371  Biso   1.000  Zr
  Zr30     1.0000 0.87227  0.98746  0.37269  Biso   1.000  Zr
  Zr31     1.0000 0.86265  0.98554  0.87171  Biso   1.000  Zr
  Zr32     1.0000 0.03885  0.18247  0.18166  Biso   1.000  Zr
  Zr33     1.0000 0.03228  0.18296  0.69985  Biso   1.000  Zr
  Zr34     1.0000 0.03757  0.68416  0.19516  Biso   1.000  Zr
  Zr35     1.0000 0.03577  0.68515  0.69557  Biso   1.000  Zr
  Zr36     1.0000 0.53132  0.18131  0.20003  Biso   1.000  Zr
  Zr37     1.0000 0.53480  0.18448  0.69256  Biso   1.000  Zr
  Zr38     1.0000 0.53687  0.68378  0.19760  Biso   1.000  Zr
  Zr39     1.0000 0.53395  0.68296  0.69735  Biso   1.000  Zr
  Zr40     1.0000 0.03578  0.06716  0.45021  Biso   1.000  Zr
  Zr41     1.0000 0.03312  0.06521  0.94759  Biso   1.000  Zr
  Zr42     1.0000 0.03553  0.56390  0.44626  Biso   1.000  Zr
  Zr43     1.0000 0.03251  0.56826  0.94707  Biso   1.000  Zr
  Zr44     1.0000 0.53534  0.06584  0.44362  Biso   1.000  Zr
  Zr45     1.0000 0.52781  0.07078  0.95156  Biso   1.000  Zr
  Zr46     1.0000 0.53778  0.56717  0.44319  Biso   1.000  Zr
  Zr47     1.0000 0.53421  0.56753  0.94713  Biso   1.000  Zr
  Zr48     1.0000 0.46567  0.43125  0.19349  Biso   1.000  Zr
  Zr49     1.0000 0.46341  0.43446  0.69509  Biso   1.000  Zr
  Zr50     1.0000 0.47314  0.92923  0.19889  Biso   1.000  Zr
  Zr51     1.0000 0.46311  0.93508  0.70190  Biso   1.000  Zr
  Zr52     1.0000 0.96607  0.42971  0.19570  Biso   1.000  Zr
  Zr53     1.0000 0.96371  0.43380  0.69275  Biso   1.000  Zr
  Zr54     1.0000 0.99177  0.94422  0.18521  Biso   1.000  Zr
  Zr55     1.0000 0.96440  0.93472  0.69327  Biso   1.000  Zr
  Zr56     1.0000 0.46621  0.31721  0.44652  Biso   1.000  Zr
  Zr57     1.0000 0.45971  0.31506  0.94291  Biso   1.000  Zr
  Zr58     1.0000 0.47098  0.81915  0.45411  Biso   1.000  Zr
  Zr59     1.0000 0.45808  0.81793  0.94436  Biso   1.000  Zr
  Zr60     1.0000 0.96393  0.31262  0.44035  Biso   1.000  Zr
  Zr61     1.0000 0.96126  0.31859  0.94191  Biso   1.000  Zr
  Zr62     1.0000 0.96635  0.81779  0.44054  Biso   1.000  Zr
  Zr63     1.0000 0.95958  0.81739  0.93876  Biso   1.000  Zr
  Zr64     1.0000 0.25335  0.09940  0.24189  Biso   1.000  Zr
  Zr65     1.0000 0.26974  0.11969  0.75211  Biso   1.000  Zr
  Zr66     1.0000 0.26852  0.60679  0.24909  Biso   1.000  Zr
  Zr67     1.0000 0.26828  0.61914  0.75167  Biso   1.000  Zr
  Zr68     1.0000 0.77177  0.11733  0.24612  Biso   1.000  Zr
  Zr69     1.0000 0.76560  0.11570  0.74608  Biso   1.000  Zr
  Zr70     1.0000 0.77311  0.61644  0.24840  Biso   1.000  Zr
  Zr71     1.0000 0.76819  0.61781  0.74865  Biso   1.000  Zr
  Zr72     1.0000 0.27128  0.13303  0.49608  Biso   1.000  Zr
  Zr73     1.0000 0.25601  0.13321  0.00414  Biso   1.000  Zr
  Zr74     1.0000 0.27284  0.63228  0.50098  Biso   1.000  Zr
  Zr75     1.0000 0.26724  0.63522  0.00025  Biso   1.000  Zr
  Zr76     1.0000 0.77070  0.13255  0.49655  Biso   1.000  Zr
  Zr77     1.0000 0.76662  0.13469  0.99532  Biso   1.000  Zr
  Zr78     1.0000 0.76958  0.63446  0.49851  Biso   1.000  Zr
  Zr79     1.0000 0.76886  0.63600  0.99935  Biso   1.000  Zr
  Zr80     1.0000 0.22935  0.38134  0.49836  Biso   1.000  Zr
  Zr81     1.0000 0.22955  0.38450  0.99861  Biso   1.000  Zr
  Zr82     1.0000 0.23066  0.88275  0.50634  Biso   1.000  Zr
  Zr83     1.0000 0.22058  0.89382  0.01610  Biso   1.000  Zr
  Zr84     1.0000 0.73138  0.38302  0.49921  Biso   1.000  Zr
  Zr85     1.0000 0.72832  0.38395  0.99816  Biso   1.000  Zr
  Zr86     1.0000 0.73483  0.88515  0.49568  Biso   1.000  Zr
  Zr87     1.0000 0.72768  0.88521  0.99612  Biso   1.000  Zr
  Zr88     1.0000 0.23375  0.35981  0.24826  Biso   1.000  Zr
  Zr89     1.0000 0.22845  0.36879  0.74916  Biso   1.000  Zr
  Zr90     1.0000 0.25076  0.84715  0.26523  Biso   1.000  Zr
  Zr91     1.0000 0.22821  0.86966  0.75669  Biso   1.000  Zr
  Zr92     1.0000 0.72953  0.36645  0.24848  Biso   1.000  Zr
  Zr93     1.0000 0.72928  0.36716  0.74794  Biso   1.000  Zr
  Zr94     1.0000 0.74494  0.86792  0.24493  Biso   1.000  Zr
  Zr95     1.0000 0.72934  0.86594  0.74634  Biso   1.000  Zr
