data_image0
_cell_length_a       10.0478
_cell_length_b       10.2123
_cell_length_c       10.0478
_cell_angle_alpha    89.9994
_cell_angle_beta     89.1548
_cell_angle_gamma    90.0007

_symmetry_space_group_name_H-M    "P 1"
_symmetry_int_tables_number       1

loop_
  _symmetry_equiv_pos_as_xyz
  'x, y, z'

loop_
  _atom_site_label
  _atom_site_occupancy
  _atom_site_fract_x
  _atom_site_fract_y
  _atom_site_fract_z
  _atom_site_thermal_displace_type
  _atom_site_B_iso_or_equiv
  _atom_site_type_symbol
  Co1      1.0000 0.12482  0.96561  0.12487  Biso   1.000  Co
  Zr1      1.0000 0.12484  0.99367  0.62488  Biso   1.000  Zr
  Zr2      1.0000 0.12483  0.50430  0.12488  Biso   1.000  Zr
  Zr3      1.0000 0.12483  0.49955  0.62488  Biso   1.000  Zr
  Zr4      1.0000 0.62483  0.99367  0.12488  Biso   1.000  Zr
  Zr5      1.0000 0.62482  0.00262  0.62488  Biso   1.000  Zr
  Zr6      1.0000 0.62484  0.49955  0.12488  Biso   1.000  Zr
  Zr7      1.0000 0.62483  0.49651  0.62488  Biso   1.000  Zr
  Zr8      1.0000 0.13012  0.25233  0.37246  Biso   1.000  Zr
  Zr9      1.0000 0.11955  0.25232  0.87731  Biso   1.000  Zr
  Zr10     1.0000 0.12683  0.75068  0.37725  Biso   1.000  Zr
  Zr11     1.0000 0.12283  0.75068  0.87249  Biso   1.000  Zr
  Zr12     1.0000 0.62922  0.24751  0.37305  Biso   1.000  Zr
  Zr13     1.0000 0.62045  0.24751  0.87671  Biso   1.000  Zr
  Zr14     1.0000 0.62635  0.75005  0.37743  Biso   1.000  Zr
  Zr15     1.0000 0.62331  0.75005  0.87232  Biso   1.000  Zr
  Zr16     1.0000 0.37241  0.25233  0.13017  Biso   1.000  Zr
  Zr17     1.0000 0.37300  0.24751  0.62926  Biso   1.000  Zr
  Zr18     1.0000 0.37721  0.75068  0.12687  Biso   1.000  Zr
  Zr19     1.0000 0.37739  0.75005  0.62639  Biso   1.000  Zr
  Zr20     1.0000 0.87727  0.25232  0.11960  Biso   1.000  Zr
  Zr21     1.0000 0.87667  0.24751  0.62049  Biso   1.000  Zr
  Zr22     1.0000 0.87245  0.75068  0.12287  Biso   1.000  Zr
  Zr23     1.0000 0.87228  0.75005  0.62336  Biso   1.000  Zr
  Zr24     1.0000 0.37799  0.00436  0.37804  Biso   1.000  Zr
  Zr25     1.0000 0.36454  0.00163  0.88518  Biso   1.000  Zr
  Zr26     1.0000 0.37734  0.49873  0.37738  Biso   1.000  Zr
  Zr27     1.0000 0.37501  0.49766  0.87470  Biso   1.000  Zr
  Zr28     1.0000 0.88512  0.00162  0.36459  Biso   1.000  Zr
  Zr29     1.0000 0.87166  0.00436  0.87170  Biso   1.000  Zr
  Zr30     1.0000 0.87465  0.49766  0.37506  Biso   1.000  Zr
  Zr31     1.0000 0.87233  0.49873  0.87238  Biso   1.000  Zr
  Zr32     1.0000 0.96924  0.16016  0.96928  Biso   1.000  Zr
  Zr33     1.0000 0.99561  0.14501  0.48011  Biso   1.000  Zr
  Zr34     1.0000 0.00001  0.65128  0.00005  Biso   1.000  Zr
  Zr35     1.0000 0.99949  0.64507  0.49959  Biso   1.000  Zr
  Zr36     1.0000 0.48007  0.14501  0.99567  Biso   1.000  Zr
  Zr37     1.0000 0.49948  0.14602  0.49953  Biso   1.000  Zr
  Zr38     1.0000 0.49955  0.64507  0.99953  Biso   1.000  Zr
  Zr39     1.0000 0.49934  0.64360  0.49938  Biso   1.000  Zr
  Zr40     1.0000 0.02633  0.08873  0.22334  Biso   1.000  Zr
  Zr41     1.0000 0.99772  0.10377  0.73260  Biso   1.000  Zr
  Zr42     1.0000 0.99905  0.60382  0.25065  Biso   1.000  Zr
  Zr43     1.0000 0.00064  0.60476  0.75043  Biso   1.000  Zr
  Zr44     1.0000 0.51708  0.10378  0.25198  Biso   1.000  Zr
  Zr45     1.0000 0.49844  0.10233  0.75125  Biso   1.000  Zr
  Zr46     1.0000 0.49928  0.60477  0.24907  Biso   1.000  Zr
  Zr47     1.0000 0.50053  0.60376  0.74918  Biso   1.000  Zr
  Zr48     1.0000 0.99960  0.34934  0.25012  Biso   1.000  Zr
  Zr49     1.0000 0.99784  0.35414  0.74927  Biso   1.000  Zr
  Zr50     1.0000 0.00977  0.85261  0.23994  Biso   1.000  Zr
  Zr51     1.0000 0.99256  0.85366  0.75329  Biso   1.000  Zr
  Zr52     1.0000 0.50044  0.35415  0.25188  Biso   1.000  Zr
  Zr53     1.0000 0.49801  0.35341  0.75171  Biso   1.000  Zr
  Zr54     1.0000 0.49641  0.85366  0.25715  Biso   1.000  Zr
  Zr55     1.0000 0.49159  0.85356  0.75812  Biso   1.000  Zr
  Zr56     1.0000 0.00092  0.40269  0.00096  Biso   1.000  Zr
  Zr57     1.0000 0.00100  0.39545  0.50040  Biso   1.000  Zr
  Zr58     1.0000 0.00230  0.91128  0.00235  Biso   1.000  Zr
  Zr59     1.0000 0.00555  0.89408  0.49637  Biso   1.000  Zr
  Zr60     1.0000 0.50036  0.39545  0.00105  Biso   1.000  Zr
  Zr61     1.0000 0.50113  0.39385  0.50118  Biso   1.000  Zr
  Zr62     1.0000 0.49632  0.89408  0.00559  Biso   1.000  Zr
  Zr63     1.0000 0.50497  0.89404  0.50501  Biso   1.000  Zr
  Zr64     1.0000 0.28041  0.16015  0.28045  Biso   1.000  Zr
  Zr65     1.0000 0.25403  0.14500  0.76962  Biso   1.000  Zr
  Zr66     1.0000 0.24966  0.65129  0.24970  Biso   1.000  Zr
  Zr67     1.0000 0.25018  0.64506  0.75016  Biso   1.000  Zr
  Zr68     1.0000 0.76957  0.14499  0.25407  Biso   1.000  Zr
  Zr69     1.0000 0.75017  0.14602  0.75021  Biso   1.000  Zr
  Zr70     1.0000 0.75012  0.64506  0.25022  Biso   1.000  Zr
  Zr71     1.0000 0.75033  0.64360  0.75037  Biso   1.000  Zr
  Zr72     1.0000 0.22330  0.08873  0.02638  Biso   1.000  Zr
  Zr73     1.0000 0.25193  0.10378  0.51713  Biso   1.000  Zr
  Zr74     1.0000 0.25061  0.60382  0.99910  Biso   1.000  Zr
  Zr75     1.0000 0.24903  0.60477  0.49933  Biso   1.000  Zr
  Zr76     1.0000 0.73256  0.10377  0.99776  Biso   1.000  Zr
  Zr77     1.0000 0.75120  0.10233  0.49848  Biso   1.000  Zr
  Zr78     1.0000 0.75039  0.60476  0.00068  Biso   1.000  Zr
  Zr79     1.0000 0.74914  0.60376  0.50057  Biso   1.000  Zr
  Zr80     1.0000 0.25008  0.34934  0.99964  Biso   1.000  Zr
  Zr81     1.0000 0.25183  0.35415  0.50048  Biso   1.000  Zr
  Zr82     1.0000 0.23989  0.85261  0.00981  Biso   1.000  Zr
  Zr83     1.0000 0.25711  0.85366  0.49646  Biso   1.000  Zr
  Zr84     1.0000 0.74923  0.35414  0.99789  Biso   1.000  Zr
  Zr85     1.0000 0.75166  0.35341  0.49805  Biso   1.000  Zr
  Zr86     1.0000 0.75324  0.85366  0.99260  Biso   1.000  Zr
  Zr87     1.0000 0.75809  0.85355  0.49161  Biso   1.000  Zr
  Zr88     1.0000 0.24876  0.40269  0.24880  Biso   1.000  Zr
  Zr89     1.0000 0.24866  0.39545  0.74935  Biso   1.000  Zr
  Zr90     1.0000 0.24735  0.91128  0.24740  Biso   1.000  Zr
  Zr91     1.0000 0.24412  0.89407  0.75338  Biso   1.000  Zr
  Zr92     1.0000 0.74931  0.39544  0.24871  Biso   1.000  Zr
  Zr93     1.0000 0.74853  0.39385  0.74858  Biso   1.000  Zr
  Zr94     1.0000 0.75333  0.89407  0.24416  Biso   1.000  Zr
  Zr95     1.0000 0.74470  0.89404  0.74473  Biso   1.000  Zr
