data_image0
_cell_length_a       10.0879
_cell_length_b       10.2778
_cell_length_c       10.0878
_cell_angle_alpha    89.9956
_cell_angle_beta     89.4845
_cell_angle_gamma    89.999

_symmetry_space_group_name_H-M    "P 1"
_symmetry_int_tables_number       1

loop_
  _symmetry_equiv_pos_as_xyz
  'x, y, z'

loop_
  _atom_site_label
  _atom_site_occupancy
  _atom_site_fract_x
  _atom_site_fract_y
  _atom_site_fract_z
  _atom_site_thermal_displace_type
  _atom_site_B_iso_or_equiv
  _atom_site_type_symbol
  Zr1      1.0000 0.12564  0.96723  0.12570  Biso   1.000  Zr
  Zr2      1.0000 0.13291  0.25600  0.38299  Biso   1.000  Zr
  Zr3      1.0000 0.38294  0.25600  0.13296  Biso   1.000  Zr
  Zr4      1.0000 0.37638  0.00454  0.37644  Biso   1.000  Zr
  Zr5      1.0000 0.99256  0.14800  0.99262  Biso   1.000  Zr
  Zr6      1.0000 0.01036  0.09693  0.24139  Biso   1.000  Zr
  Zr7      1.0000 0.01648  0.33777  0.23501  Biso   1.000  Zr
  Zr8      1.0000 0.99356  0.40281  0.99361  Biso   1.000  Zr
  Zr9      1.0000 0.25910  0.14822  0.25916  Biso   1.000  Zr
  Zr10     1.0000 0.24134  0.09694  0.01040  Biso   1.000  Zr
  Zr11     1.0000 0.23496  0.33778  0.01653  Biso   1.000  Zr
  Zr12     1.0000 0.25784  0.40293  0.25790  Biso   1.000  Zr
  Zr13     1.0000 0.12569  0.99984  0.62578  Biso   1.000  Zr
  Zr14     1.0000 0.11847  0.25600  0.86860  Biso   1.000  Zr
  Zr15     1.0000 0.37600  0.24981  0.63011  Biso   1.000  Zr
  Zr16     1.0000 0.37025  0.00341  0.88122  Biso   1.000  Zr
  Zr17     1.0000 0.00031  0.14731  0.49604  Biso   1.000  Zr
  Zr18     1.0000 0.99721  0.10670  0.74461  Biso   1.000  Zr
  Zr19     1.0000 0.99690  0.35982  0.74141  Biso   1.000  Zr
  Zr20     1.0000 0.00479  0.39975  0.49270  Biso   1.000  Zr
  Zr21     1.0000 0.25112  0.14732  0.75564  Biso   1.000  Zr
  Zr22     1.0000 0.25423  0.10670  0.50706  Biso   1.000  Zr
  Zr23     1.0000 0.25451  0.35984  0.51014  Biso   1.000  Zr
  Zr24     1.0000 0.24660  0.39975  0.75884  Biso   1.000  Zr
  Zr25     1.0000 0.12570  0.49880  0.12576  Biso   1.000  Zr
  Zr26     1.0000 0.12821  0.74700  0.37927  Biso   1.000  Zr
  Zr27     1.0000 0.37923  0.74700  0.12825  Biso   1.000  Zr
  Zr28     1.0000 0.37971  0.50246  0.37977  Biso   1.000  Zr
  Zr29     1.0000 0.00618  0.64693  0.00623  Biso   1.000  Zr
  Zr30     1.0000 0.99769  0.59494  0.25364  Biso   1.000  Zr
  Zr31     1.0000 0.99847  0.84327  0.25295  Biso   1.000  Zr
  Zr32     1.0000 0.99476  0.88978  0.99481  Biso   1.000  Zr
  Zr33     1.0000 0.24511  0.64706  0.24516  Biso   1.000  Zr
  Zr34     1.0000 0.25360  0.59496  0.99774  Biso   1.000  Zr
  Zr35     1.0000 0.25290  0.84329  0.99852  Biso   1.000  Zr
  Zr36     1.0000 0.25660  0.88995  0.25665  Biso   1.000  Zr
  Zr37     1.0000 0.12572  0.50234  0.62574  Biso   1.000  Zr
  Zr38     1.0000 0.12323  0.74691  0.87223  Biso   1.000  Zr
  Zr39     1.0000 0.37617  0.75604  0.62616  Biso   1.000  Zr
  Zr40     1.0000 0.37992  0.50372  0.87153  Biso   1.000  Zr
  Zr41     1.0000 0.00011  0.64783  0.50505  Biso   1.000  Zr
  Zr42     1.0000 0.00191  0.60751  0.75387  Biso   1.000  Zr
  Zr43     1.0000 0.00170  0.85632  0.74835  Biso   1.000  Zr
  Zr44     1.0000 0.00154  0.89878  0.49932  Biso   1.000  Zr
  Zr45     1.0000 0.25130  0.64782  0.74637  Biso   1.000  Zr
  Zr46     1.0000 0.24949  0.60754  0.49757  Biso   1.000  Zr
  Zr47     1.0000 0.24977  0.85635  0.50312  Biso   1.000  Zr
  Zr48     1.0000 0.24993  0.89879  0.75218  Biso   1.000  Zr
  Zr49     1.0000 0.62573  0.99984  0.12574  Biso   1.000  Zr
  Zr50     1.0000 0.63008  0.24981  0.37604  Biso   1.000  Zr
  Zr51     1.0000 0.86856  0.25600  0.11851  Biso   1.000  Zr
  Zr52     1.0000 0.88116  0.00340  0.37031  Biso   1.000  Zr
  Zr53     1.0000 0.49599  0.14731  0.00036  Biso   1.000  Zr
  Zr54     1.0000 0.50701  0.10670  0.25428  Biso   1.000  Zr
  Zr55     1.0000 0.51008  0.35984  0.25457  Biso   1.000  Zr
  Zr56     1.0000 0.49265  0.39976  0.00485  Biso   1.000  Zr
  Zr57     1.0000 0.75559  0.14731  0.25117  Biso   1.000  Zr
  Zr58     1.0000 0.74455  0.10670  0.99726  Biso   1.000  Zr
  Zr59     1.0000 0.74135  0.35982  0.99696  Biso   1.000  Zr
  Zr60     1.0000 0.75878  0.39974  0.24666  Biso   1.000  Zr
  Zr61     1.0000 0.62571  0.00415  0.62576  Biso   1.000  Zr
  Zr62     1.0000 0.62140  0.24984  0.87545  Biso   1.000  Zr
  Zr63     1.0000 0.87541  0.24984  0.62145  Biso   1.000  Zr
  Zr64     1.0000 0.87503  0.00446  0.87509  Biso   1.000  Zr
  Zr65     1.0000 0.50348  0.15092  0.50353  Biso   1.000  Zr
  Zr66     1.0000 0.49882  0.10488  0.75265  Biso   1.000  Zr
  Zr67     1.0000 0.49828  0.35679  0.75319  Biso   1.000  Zr
  Zr68     1.0000 0.50336  0.39976  0.50342  Biso   1.000  Zr
  Zr69     1.0000 0.74793  0.15090  0.74798  Biso   1.000  Zr
  Zr70     1.0000 0.75260  0.10488  0.49886  Biso   1.000  Zr
  Zr71     1.0000 0.75313  0.35679  0.49835  Biso   1.000  Zr
  Zr72     1.0000 0.74805  0.39976  0.74812  Biso   1.000  Zr
  Zr73     1.0000 0.62569  0.50235  0.12578  Biso   1.000  Zr
  Zr74     1.0000 0.62611  0.75604  0.37621  Biso   1.000  Zr
  Zr75     1.0000 0.87219  0.74691  0.12328  Biso   1.000  Zr
  Zr76     1.0000 0.87147  0.50373  0.37999  Biso   1.000  Zr
  Zr77     1.0000 0.50500  0.64783  0.00017  Biso   1.000  Zr
  Zr78     1.0000 0.49753  0.60754  0.24955  Biso   1.000  Zr
  Zr79     1.0000 0.50306  0.85635  0.24981  Biso   1.000  Zr
  Zr80     1.0000 0.49927  0.89879  0.00158  Biso   1.000  Zr
  Zr81     1.0000 0.74633  0.64782  0.25135  Biso   1.000  Zr
  Zr82     1.0000 0.75382  0.60751  0.00196  Biso   1.000  Zr
  Zr83     1.0000 0.74831  0.85632  0.00174  Biso   1.000  Zr
  Zr84     1.0000 0.75213  0.89878  0.24997  Biso   1.000  Zr
  Zr85     1.0000 0.62570  0.50305  0.62576  Biso   1.000  Zr
  Zr86     1.0000 0.62530  0.75601  0.87533  Biso   1.000  Zr
  Zr87     1.0000 0.87528  0.75601  0.62535  Biso   1.000  Zr
  Zr88     1.0000 0.87171  0.50248  0.87176  Biso   1.000  Zr
  Zr89     1.0000 0.50086  0.65151  0.50091  Biso   1.000  Zr
  Zr90     1.0000 0.50137  0.60801  0.75011  Biso   1.000  Zr
  Zr91     1.0000 0.50077  0.85688  0.75072  Biso   1.000  Zr
  Zr92     1.0000 0.50065  0.90153  0.50069  Biso   1.000  Zr
  Zr93     1.0000 0.75057  0.65152  0.75063  Biso   1.000  Zr
  Zr94     1.0000 0.75005  0.60801  0.50143  Biso   1.000  Zr
  Zr95     1.0000 0.75069  0.85688  0.50080  Biso   1.000  Zr
  Zr96     1.0000 0.75080  0.90152  0.75084  Biso   1.000  Zr
  Cr1      1.0000 0.12581  0.20277  0.12586  Biso   1.000  Cr
