data_image0
_cell_length_a       10.0994
_cell_length_b       5.02585
_cell_length_c       10.0996
_cell_angle_alpha    89.9998
_cell_angle_beta     90.0021
_cell_angle_gamma    89.9999

_symmetry_space_group_name_H-M    "P 1"
_symmetry_int_tables_number       1

loop_
  _symmetry_equiv_pos_as_xyz
  'x, y, z'

loop_
  _atom_site_label
  _atom_site_occupancy
  _atom_site_fract_x
  _atom_site_fract_y
  _atom_site_fract_z
  _atom_site_thermal_displace_type
  _atom_site_B_iso_or_equiv
  _atom_site_type_symbol
  Cr1      1.0000 0.12517  0.00153  0.12517  Biso   1.000  Cr
  Zr1      1.0000 0.12521  0.00154  0.62519  Biso   1.000  Zr
  Zr2      1.0000 0.62519  0.00154  0.12521  Biso   1.000  Zr
  Zr3      1.0000 0.62519  0.00156  0.62519  Biso   1.000  Zr
  Zr4      1.0000 0.12520  0.50157  0.37529  Biso   1.000  Zr
  Zr5      1.0000 0.12519  0.50151  0.87511  Biso   1.000  Zr
  Zr6      1.0000 0.62520  0.50154  0.37586  Biso   1.000  Zr
  Zr7      1.0000 0.62520  0.50154  0.87455  Biso   1.000  Zr
  Zr8      1.0000 0.37528  0.50157  0.12520  Biso   1.000  Zr
  Zr9      1.0000 0.37586  0.50154  0.62520  Biso   1.000  Zr
  Zr10     1.0000 0.87511  0.50152  0.12520  Biso   1.000  Zr
  Zr11     1.0000 0.87455  0.50154  0.62520  Biso   1.000  Zr
  Zr12     1.0000 0.37429  0.01089  0.37429  Biso   1.000  Zr
  Zr13     1.0000 0.37430  0.99220  0.87610  Biso   1.000  Zr
  Zr14     1.0000 0.87610  0.99220  0.37430  Biso   1.000  Zr
  Zr15     1.0000 0.87608  0.01083  0.87609  Biso   1.000  Zr
  Zr16     1.0000 0.97623  0.30463  0.97623  Biso   1.000  Zr
  Zr17     1.0000 0.98849  0.26300  0.47980  Biso   1.000  Zr
  Zr18     1.0000 0.47981  0.26302  0.98847  Biso   1.000  Zr
  Zr19     1.0000 0.48871  0.26058  0.48869  Biso   1.000  Zr
  Zr20     1.0000 0.02422  0.20903  0.22617  Biso   1.000  Zr
  Zr21     1.0000 0.01008  0.24780  0.73278  Biso   1.000  Zr
  Zr22     1.0000 0.51760  0.24784  0.24029  Biso   1.000  Zr
  Zr23     1.0000 0.51125  0.24930  0.73913  Biso   1.000  Zr
  Zr24     1.0000 0.97625  0.69843  0.27415  Biso   1.000  Zr
  Zr25     1.0000 0.98847  0.74007  0.77058  Biso   1.000  Zr
  Zr26     1.0000 0.47984  0.74013  0.26193  Biso   1.000  Zr
  Zr27     1.0000 0.48869  0.74247  0.76171  Biso   1.000  Zr
  Zr28     1.0000 0.02420  0.79402  0.02421  Biso   1.000  Zr
  Zr29     1.0000 0.01009  0.75528  0.51761  Biso   1.000  Zr
  Zr30     1.0000 0.51759  0.75528  0.01011  Biso   1.000  Zr
  Zr31     1.0000 0.51126  0.75375  0.51128  Biso   1.000  Zr
  Zr32     1.0000 0.27419  0.30482  0.27420  Biso   1.000  Zr
  Zr33     1.0000 0.26190  0.26294  0.77059  Biso   1.000  Zr
  Zr34     1.0000 0.77058  0.26296  0.26192  Biso   1.000  Zr
  Zr35     1.0000 0.76169  0.26057  0.76170  Biso   1.000  Zr
  Zr36     1.0000 0.22618  0.20903  0.02424  Biso   1.000  Zr
  Zr37     1.0000 0.24031  0.24784  0.51762  Biso   1.000  Zr
  Zr38     1.0000 0.73279  0.24780  0.01010  Biso   1.000  Zr
  Zr39     1.0000 0.73915  0.24929  0.51126  Biso   1.000  Zr
  Zr40     1.0000 0.27414  0.69842  0.97624  Biso   1.000  Zr
  Zr41     1.0000 0.26191  0.74015  0.47983  Biso   1.000  Zr
  Zr42     1.0000 0.77057  0.74005  0.98846  Biso   1.000  Zr
  Zr43     1.0000 0.76170  0.74247  0.48868  Biso   1.000  Zr
  Zr44     1.0000 0.22620  0.79421  0.22619  Biso   1.000  Zr
  Zr45     1.0000 0.24029  0.75522  0.73280  Biso   1.000  Zr
  Zr46     1.0000 0.73281  0.75522  0.24028  Biso   1.000  Zr
  Zr47     1.0000 0.73913  0.75376  0.73912  Biso   1.000  Zr
