data_image0
_cell_length_a       10.3491
_cell_length_b       10.4788
_cell_length_c       5.3518
_cell_angle_alpha    90.572
_cell_angle_beta     79.1259
_cell_angle_gamma    90.8549

_symmetry_space_group_name_H-M    "P 1"
_symmetry_int_tables_number       1

loop_
  _symmetry_equiv_pos_as_xyz
  'x, y, z'

loop_
  _atom_site_label
  _atom_site_occupancy
  _atom_site_fract_x
  _atom_site_fract_y
  _atom_site_fract_z
  _atom_site_thermal_displace_type
  _atom_site_B_iso_or_equiv
  _atom_site_type_symbol
  Zr1      1.0000 0.13032  0.02442  0.28102  Biso   1.000  Zr
  Zr2      1.0000 0.12619  0.22781  0.77366  Biso   1.000  Zr
  Zr3      1.0000 0.34512  0.28970  0.16852  Biso   1.000  Zr
  Zr4      1.0000 0.35428  0.49426  0.71242  Biso   1.000  Zr
  O1       1.0000 0.03051  0.16491  0.14347  Biso   1.000  O
  O2       1.0000 0.02284  0.08216  0.65007  Biso   1.000  O
  O3       1.0000 0.46002  0.43096  0.35804  Biso   1.000  O
  O4       1.0000 0.47152  0.38826  0.90079  Biso   1.000  O
  O5       1.0000 0.24844  0.14019  0.44548  Biso   1.000  O
  O6       1.0000 0.26801  0.12058  0.95414  Biso   1.000  O
  O7       1.0000 0.20991  0.38535  0.00262  Biso   1.000  O
  O8       1.0000 0.22181  0.37941  0.50407  Biso   1.000  O
  Zr5      1.0000 0.13387  0.52595  0.29634  Biso   1.000  Zr
  Zr6      1.0000 0.13360  0.73092  0.79855  Biso   1.000  Zr
  Zr7      1.0000 0.35967  0.77169  0.22256  Biso   1.000  Zr
  Zr8      1.0000 0.36835  0.96181  0.72961  Biso   1.000  Zr
  O9       1.0000 0.02782  0.66309  0.15302  Biso   1.000  O
  O10      1.0000 0.02866  0.58838  0.65440  Biso   1.000  O
  O11      1.0000 0.46570  0.91923  0.35474  Biso   1.000  O
  O12      1.0000 0.46243  0.82450  0.85899  Biso   1.000  O
  O13      1.0000 0.26920  0.63385  0.48653  Biso   1.000  O
  O14      1.0000 0.26892  0.62876  0.99051  Biso   1.000  O
  O15      1.0000 0.22624  0.87745  0.03689  Biso   1.000  O
  O16      1.0000 0.22814  0.87299  0.53868  Biso   1.000  O
  Zr9      1.0000 0.64596  0.01142  0.30024  Biso   1.000  Zr
  Zr10     1.0000 0.66242  0.22280  0.82221  Biso   1.000  Zr
  Zr11     1.0000 0.86248  0.27251  0.22407  Biso   1.000  Zr
  Zr12     1.0000 0.85836  0.47758  0.71411  Biso   1.000  Zr
  O17      1.0000 0.52968  0.16458  0.12585  Biso   1.000  O
  O18      1.0000 0.57130  0.03968  0.69222  Biso   1.000  O
  O19      1.0000 0.96599  0.41511  0.35377  Biso   1.000  O
  O20      1.0000 0.95991  0.33329  0.84626  Biso   1.000  O
  O21      1.0000 0.78344  0.12698  0.48786  Biso   1.000  O
  O22      1.0000 0.78252  0.11614  0.00030  Biso   1.000  O
  O23      1.0000 0.72774  0.37540  0.04154  Biso   1.000  O
  O24      1.0000 0.72241  0.36967  0.53760  Biso   1.000  O
  Zr13     1.0000 0.63310  0.52499  0.29464  Biso   1.000  Zr
  Zr14     1.0000 0.63927  0.72463  0.79455  Biso   1.000  Zr
  Zr15     1.0000 0.85970  0.76673  0.20975  Biso   1.000  Zr
  Zr16     1.0000 0.85752  0.97202  0.70939  Biso   1.000  Zr
  O25      1.0000 0.53239  0.66823  0.15575  Biso   1.000  O
  O26      1.0000 0.52768  0.60048  0.64127  Biso   1.000  O
  O27      1.0000 0.96441  0.90867  0.35295  Biso   1.000  O
  O28      1.0000 0.96619  0.83590  0.85308  Biso   1.000  O
  O29      1.0000 0.77410  0.62296  0.48216  Biso   1.000  O
  O30      1.0000 0.77028  0.61863  0.98006  Biso   1.000  O
  O31      1.0000 0.72548  0.87316  0.02235  Biso   1.000  O
  O32      1.0000 0.72768  0.86095  0.51274  Biso   1.000  O
  Cs1      1.0000 0.44974  0.22095  0.58017  Biso   1.000  Cs
