data_image0
_cell_length_a       5.07918
_cell_length_b       10.2909
_cell_length_c       10.1521
_cell_angle_alpha    90.6423
_cell_angle_beta     90.7071
_cell_angle_gamma    90.8973

_symmetry_space_group_name_H-M    "P 1"
_symmetry_int_tables_number       1

loop_
  _symmetry_equiv_pos_as_xyz
  'x, y, z'

loop_
  _atom_site_label
  _atom_site_occupancy
  _atom_site_fract_x
  _atom_site_fract_y
  _atom_site_fract_z
  _atom_site_thermal_displace_type
  _atom_site_B_iso_or_equiv
  _atom_site_type_symbol
  Cs1      1.0000 0.24866  0.00721  0.12444  Biso   1.000  Cs
  Zr1      1.0000 0.26747  0.99897  0.62499  Biso   1.000  Zr
  Zr2      1.0000 0.25020  0.49734  0.12512  Biso   1.000  Zr
  Zr3      1.0000 0.25453  0.49736  0.62490  Biso   1.000  Zr
  Zr4      1.0000 0.22092  0.25023  0.37745  Biso   1.000  Zr
  Zr5      1.0000 0.26947  0.24806  0.86401  Biso   1.000  Zr
  Zr6      1.0000 0.25829  0.74504  0.37717  Biso   1.000  Zr
  Zr7      1.0000 0.27267  0.74740  0.87607  Biso   1.000  Zr
  Zr8      1.0000 0.74599  0.25864  0.12066  Biso   1.000  Zr
  Zr9      1.0000 0.75116  0.25244  0.61863  Biso   1.000  Zr
  Zr10     1.0000 0.75225  0.74390  0.13092  Biso   1.000  Zr
  Zr11     1.0000 0.76454  0.74625  0.62796  Biso   1.000  Zr
  Zr12     1.0000 0.76094  0.98949  0.38589  Biso   1.000  Zr
  Zr13     1.0000 0.76369  0.00072  0.87124  Biso   1.000  Zr
  Zr14     1.0000 0.75189  0.50032  0.37265  Biso   1.000  Zr
  Zr15     1.0000 0.75213  0.50462  0.87572  Biso   1.000  Zr
  Zr16     1.0000 0.01053  0.15928  0.99641  Biso   1.000  Zr
  Zr17     1.0000 0.01236  0.14132  0.51333  Biso   1.000  Zr
  Zr18     1.0000 0.02053  0.64956  0.00492  Biso   1.000  Zr
  Zr19     1.0000 0.01472  0.64140  0.50655  Biso   1.000  Zr
  Zr20     1.0000 0.91155  0.13074  0.27060  Biso   1.000  Zr
  Zr21     1.0000 0.02408  0.09777  0.75576  Biso   1.000  Zr
  Zr22     1.0000 0.99364  0.60476  0.25269  Biso   1.000  Zr
  Zr23     1.0000 0.00682  0.59973  0.75309  Biso   1.000  Zr
  Zr24     1.0000 0.02298  0.36323  0.24376  Biso   1.000  Zr
  Zr25     1.0000 0.01398  0.35138  0.74243  Biso   1.000  Zr
  Zr26     1.0000 0.99589  0.84769  0.26310  Biso   1.000  Zr
  Zr27     1.0000 0.01293  0.84781  0.75511  Biso   1.000  Zr
  Zr28     1.0000 0.96641  0.40119  0.00335  Biso   1.000  Zr
  Zr29     1.0000 0.98987  0.39155  0.49477  Biso   1.000  Zr
  Zr30     1.0000 0.02730  0.89421  0.99917  Biso   1.000  Zr
  Zr31     1.0000 0.00510  0.89042  0.50758  Biso   1.000  Zr
  Zr32     1.0000 0.43400  0.15194  0.22874  Biso   1.000  Zr
  Zr33     1.0000 0.51108  0.14387  0.73574  Biso   1.000  Zr
  Zr34     1.0000 0.49142  0.63721  0.24813  Biso   1.000  Zr
  Zr35     1.0000 0.50433  0.64342  0.74716  Biso   1.000  Zr
  Zr36     1.0000 0.54623  0.12564  0.97719  Biso   1.000  Zr
  Zr37     1.0000 0.49735  0.10137  0.48648  Biso   1.000  Zr
  Zr38     1.0000 0.51228  0.60423  0.00042  Biso   1.000  Zr
  Zr39     1.0000 0.50998  0.60002  0.49870  Biso   1.000  Zr
  Zr40     1.0000 0.46354  0.36056  0.00567  Biso   1.000  Zr
  Zr41     1.0000 0.48290  0.35157  0.50581  Biso   1.000  Zr
  Zr42     1.0000 0.55322  0.84725  0.98914  Biso   1.000  Zr
  Zr43     1.0000 0.50274  0.84938  0.50929  Biso   1.000  Zr
  Zr44     1.0000 0.51725  0.38962  0.25191  Biso   1.000  Zr
  Zr45     1.0000 0.51084  0.39412  0.75248  Biso   1.000  Zr
  Zr46     1.0000 0.52099  0.87852  0.26381  Biso   1.000  Zr
  Zr47     1.0000 0.51192  0.89605  0.75015  Biso   1.000  Zr
