data_image0
_cell_length_a       10.1535
_cell_length_b       5.14353
_cell_length_c       10.1535
_cell_angle_alpha    90.8876
_cell_angle_beta     90.3312
_cell_angle_gamma    90.8882

_symmetry_space_group_name_H-M    "P 1"
_symmetry_int_tables_number       1

loop_
  _symmetry_equiv_pos_as_xyz
  'x, y, z'

loop_
  _atom_site_label
  _atom_site_occupancy
  _atom_site_fract_x
  _atom_site_fract_y
  _atom_site_fract_z
  _atom_site_thermal_displace_type
  _atom_site_B_iso_or_equiv
  _atom_site_type_symbol
  Cs1      1.0000 0.12322  0.00839  0.12325  Biso   1.000  Cs
  Zr1      1.0000 0.12934  0.00044  0.62634  Biso   1.000  Zr
  Zr2      1.0000 0.62630  0.00042  0.12938  Biso   1.000  Zr
  Zr3      1.0000 0.62704  0.99697  0.62708  Biso   1.000  Zr
  Zr4      1.0000 0.12188  0.49696  0.37951  Biso   1.000  Zr
  Zr5      1.0000 0.12890  0.50272  0.86770  Biso   1.000  Zr
  Zr6      1.0000 0.62218  0.49604  0.37712  Biso   1.000  Zr
  Zr7      1.0000 0.62691  0.49894  0.87764  Biso   1.000  Zr
  Zr8      1.0000 0.37948  0.49695  0.12191  Biso   1.000  Zr
  Zr9      1.0000 0.37709  0.49605  0.62222  Biso   1.000  Zr
  Zr10     1.0000 0.86767  0.50271  0.12895  Biso   1.000  Zr
  Zr11     1.0000 0.87759  0.49894  0.62694  Biso   1.000  Zr
  Zr12     1.0000 0.37669  0.98053  0.37673  Biso   1.000  Zr
  Zr13     1.0000 0.38426  0.98987  0.87659  Biso   1.000  Zr
  Zr14     1.0000 0.87655  0.98990  0.38430  Biso   1.000  Zr
  Zr15     1.0000 0.87322  0.02080  0.87326  Biso   1.000  Zr
  Zr16     1.0000 0.98522  0.33626  0.98526  Biso   1.000  Zr
  Zr17     1.0000 0.00518  0.28329  0.51079  Biso   1.000  Zr
  Zr18     1.0000 0.51073  0.28326  0.00521  Biso   1.000  Zr
  Zr19     1.0000 0.50409  0.28561  0.50413  Biso   1.000  Zr
  Zr20     1.0000 0.97891  0.23941  0.26599  Biso   1.000  Zr
  Zr21     1.0000 0.00055  0.20703  0.74980  Biso   1.000  Zr
  Zr22     1.0000 0.48800  0.20235  0.25202  Biso   1.000  Zr
  Zr23     1.0000 0.50117  0.20264  0.75151  Biso   1.000  Zr
  Zr24     1.0000 0.99608  0.70232  0.25995  Biso   1.000  Zr
  Zr25     1.0000 0.00179  0.71270  0.74992  Biso   1.000  Zr
  Zr26     1.0000 0.51483  0.70507  0.24330  Biso   1.000  Zr
  Zr27     1.0000 0.50373  0.70067  0.74831  Biso   1.000  Zr
  Zr28     1.0000 0.99990  0.80348  0.99992  Biso   1.000  Zr
  Zr29     1.0000 0.99872  0.78125  0.50209  Biso   1.000  Zr
  Zr30     1.0000 0.50207  0.78123  0.99876  Biso   1.000  Zr
  Zr31     1.0000 0.49896  0.78344  0.49898  Biso   1.000  Zr
  Zr32     1.0000 0.23975  0.25235  0.23977  Biso   1.000  Zr
  Zr33     1.0000 0.24408  0.29919  0.73367  Biso   1.000  Zr
  Zr34     1.0000 0.73365  0.29917  0.24412  Biso   1.000  Zr
  Zr35     1.0000 0.75125  0.29487  0.75129  Biso   1.000  Zr
  Zr36     1.0000 0.26593  0.23937  0.97894  Biso   1.000  Zr
  Zr37     1.0000 0.25198  0.20238  0.48803  Biso   1.000  Zr
  Zr38     1.0000 0.74974  0.20704  0.00058  Biso   1.000  Zr
  Zr39     1.0000 0.75148  0.20264  0.50121  Biso   1.000  Zr
  Zr40     1.0000 0.25994  0.70229  0.99609  Biso   1.000  Zr
  Zr41     1.0000 0.24327  0.70511  0.51487  Biso   1.000  Zr
  Zr42     1.0000 0.74989  0.71270  0.00183  Biso   1.000  Zr
  Zr43     1.0000 0.74827  0.70067  0.50377  Biso   1.000  Zr
  Zr44     1.0000 0.27040  0.71448  0.27043  Biso   1.000  Zr
  Zr45     1.0000 0.25133  0.80064  0.75616  Biso   1.000  Zr
  Zr46     1.0000 0.75613  0.80063  0.25138  Biso   1.000  Zr
  Zr47     1.0000 0.75094  0.79683  0.75099  Biso   1.000  Zr
