data_image0
_cell_length_a       10.1498
_cell_length_b       10.3523
_cell_length_c       10.6063
_cell_angle_alpha    89.9859
_cell_angle_beta     90.6245
_cell_angle_gamma    90.1926

_symmetry_space_group_name_H-M    "P 1"
_symmetry_int_tables_number       1

loop_
  _symmetry_equiv_pos_as_xyz
  'x, y, z'

loop_
  _atom_site_label
  _atom_site_occupancy
  _atom_site_fract_x
  _atom_site_fract_y
  _atom_site_fract_z
  _atom_site_thermal_displace_type
  _atom_site_B_iso_or_equiv
  _atom_site_type_symbol
  Zr1      1.0000 0.13896  0.02008  0.17151  Biso   1.000  Zr
  Zr2      1.0000 0.13587  0.22745  0.42788  Biso   1.000  Zr
  Zr3      1.0000 0.33930  0.27359  0.18884  Biso   1.000  Zr
  Zr4      1.0000 0.36332  0.47896  0.42223  Biso   1.000  Zr
  Zr5      1.0000 0.64045  0.00640  0.08017  Biso   1.000  Zr
  Zr6      1.0000 0.63418  0.21875  0.33193  Biso   1.000  Zr
  Zr7      1.0000 0.87052  0.27264  0.07567  Biso   1.000  Zr
  Zr8      1.0000 0.85941  0.47815  0.32767  Biso   1.000  Zr
  O1       1.0000 0.03584  0.16281  0.08066  Biso   1.000  O
  O2       1.0000 0.02855  0.08936  0.32998  Biso   1.000  O
  O3       1.0000 0.44010  0.45236  0.10534  Biso   1.000  O
  O4       1.0000 0.46541  0.33302  0.33219  Biso   1.000  O
  O5       1.0000 0.26638  0.12680  0.30243  Biso   1.000  O
  O6       1.0000 0.28006  0.12598  0.04750  Biso   1.000  O
  O7       1.0000 0.21605  0.37765  0.30386  Biso   1.000  O
  O8       1.0000 0.21923  0.37591  0.04859  Biso   1.000  O
  O9       1.0000 0.51653  0.10760  0.21217  Biso   1.000  O
  O10      1.0000 0.52648  0.09627  0.44200  Biso   1.000  O
  O11      1.0000 0.96945  0.41330  0.17058  Biso   1.000  O
  O12      1.0000 0.96914  0.33887  0.42009  Biso   1.000  O
  O13      1.0000 0.77457  0.12208  0.45192  Biso   1.000  O
  O14      1.0000 0.77165  0.12871  0.20032  Biso   1.000  O
  O15      1.0000 0.72607  0.37405  0.45469  Biso   1.000  O
  O16      1.0000 0.72324  0.37921  0.20576  Biso   1.000  O
  Zr9      1.0000 0.14093  0.02057  0.67270  Biso   1.000  Zr
  Zr10     1.0000 0.14339  0.22799  0.92122  Biso   1.000  Zr
  Zr11     1.0000 0.36345  0.27346  0.67422  Biso   1.000  Zr
  Zr12     1.0000 0.35774  0.48709  0.92510  Biso   1.000  Zr
  Zr13     1.0000 0.64142  0.01721  0.57963  Biso   1.000  Zr
  Zr14     1.0000 0.65067  0.22640  0.80744  Biso   1.000  Zr
  Zr15     1.0000 0.86401  0.27323  0.57465  Biso   1.000  Zr
  Zr16     1.0000 0.86724  0.48101  0.82800  Biso   1.000  Zr
  O17      1.0000 0.03013  0.16075  0.58134  Biso   1.000  O
  O18      1.0000 0.03546  0.08585  0.83100  Biso   1.000  O
  O19      1.0000 0.47192  0.41103  0.57781  Biso   1.000  O
  O20      1.0000 0.47254  0.34371  0.82670  Biso   1.000  O
  O21      1.0000 0.27825  0.12481  0.79632  Biso   1.000  O
  O22      1.0000 0.27401  0.12495  0.54880  Biso   1.000  O
  O23      1.0000 0.22719  0.37492  0.79802  Biso   1.000  O
  O24      1.0000 0.22724  0.37531  0.54919  Biso   1.000  O
  O25      1.0000 0.53199  0.16032  0.67050  Biso   1.000  O
  O26      1.0000 0.53917  0.06487  0.90321  Biso   1.000  O
  O27      1.0000 0.97192  0.41227  0.66889  Biso   1.000  O
  O28      1.0000 0.97627  0.33612  0.91709  Biso   1.000  O
  O29      1.0000 0.77977  0.12410  0.94847  Biso   1.000  O
  O30      1.0000 0.78243  0.12196  0.69695  Biso   1.000  O
  O31      1.0000 0.74331  0.38522  0.95212  Biso   1.000  O
  O32      1.0000 0.73028  0.37553  0.70074  Biso   1.000  O
  Zr17     1.0000 0.13790  0.52506  0.17183  Biso   1.000  Zr
  Zr18     1.0000 0.13883  0.72921  0.42135  Biso   1.000  Zr
  Zr19     1.0000 0.36021  0.77321  0.17342  Biso   1.000  Zr
  Zr20     1.0000 0.36468  0.98035  0.42391  Biso   1.000  Zr
  Zr21     1.0000 0.63913  0.53450  0.08172  Biso   1.000  Zr
  Zr22     1.0000 0.63964  0.73127  0.33130  Biso   1.000  Zr
  Zr23     1.0000 0.86421  0.77057  0.07892  Biso   1.000  Zr
  Zr24     1.0000 0.86372  0.98012  0.32842  Biso   1.000  Zr
  O33      1.0000 0.03114  0.66267  0.07961  Biso   1.000  O
  O34      1.0000 0.03029  0.58950  0.32970  Biso   1.000  O
  O35      1.0000 0.46981  0.90242  0.07402  Biso   1.000  O
  O36      1.0000 0.47005  0.83985  0.33317  Biso   1.000  O
  O37      1.0000 0.27392  0.62670  0.29522  Biso   1.000  O
  O38      1.0000 0.27079  0.63259  0.04293  Biso   1.000  O
  O39      1.0000 0.22631  0.87649  0.29576  Biso   1.000  O
  O40      1.0000 0.22373  0.87800  0.04660  Biso   1.000  O
  O41      1.0000 0.53658  0.67458  0.16979  Biso   1.000  O
  O42      1.0000 0.53213  0.58753  0.41732  Biso   1.000  O
  O43      1.0000 0.96918  0.91468  0.16853  Biso   1.000  O
  O44      1.0000 0.96913  0.83791  0.41916  Biso   1.000  O
  O45      1.0000 0.77611  0.62453  0.45458  Biso   1.000  O
  O46      1.0000 0.77743  0.62826  0.20618  Biso   1.000  O
  O47      1.0000 0.72669  0.87473  0.45674  Biso   1.000  O
  O48      1.0000 0.72916  0.87362  0.20703  Biso   1.000  O
  Zr25     1.0000 0.14093  0.52060  0.67132  Biso   1.000  Zr
  Zr26     1.0000 0.13918  0.73239  0.92015  Biso   1.000  Zr
  Zr27     1.0000 0.36345  0.76891  0.67013  Biso   1.000  Zr
  Zr28     1.0000 0.36487  0.97524  0.91891  Biso   1.000  Zr
  Zr29     1.0000 0.64089  0.52095  0.57587  Biso   1.000  Zr
  Zr30     1.0000 0.64035  0.72736  0.82639  Biso   1.000  Zr
  Zr31     1.0000 0.86475  0.77070  0.57957  Biso   1.000  Zr
  Zr32     1.0000 0.86451  0.97878  0.83000  Biso   1.000  Zr
  O49      1.0000 0.03392  0.66276  0.58067  Biso   1.000  O
  O50      1.0000 0.03528  0.58860  0.83080  Biso   1.000  O
  O51      1.0000 0.47199  0.90827  0.58144  Biso   1.000  O
  O52      1.0000 0.46747  0.82827  0.82986  Biso   1.000  O
  O53      1.0000 0.27583  0.62539  0.79455  Biso   1.000  O
  O54      1.0000 0.27575  0.62425  0.54423  Biso   1.000  O
  O55      1.0000 0.22689  0.87406  0.79418  Biso   1.000  O
  O56      1.0000 0.22773  0.87583  0.54472  Biso   1.000  O
  O57      1.0000 0.53328  0.66004  0.66731  Biso   1.000  O
  O58      1.0000 0.53351  0.58531  0.91978  Biso   1.000  O
  O59      1.0000 0.97153  0.91133  0.66969  Biso   1.000  O
  O60      1.0000 0.97032  0.83879  0.92029  Biso   1.000  O
  O61      1.0000 0.77660  0.62902  0.95388  Biso   1.000  O
  O62      1.0000 0.77755  0.62452  0.70367  Biso   1.000  O
  O63      1.0000 0.72831  0.87183  0.95630  Biso   1.000  O
  O64      1.0000 0.72862  0.87299  0.70736  Biso   1.000  O
  Cs1      1.0000 0.55591  0.26121  0.04207  Biso   1.000  Cs
