data_image0
_cell_length_a       10.0626
_cell_length_b       10.2085
_cell_length_c       10.0626
_cell_angle_alpha    90.2543
_cell_angle_beta     90.5754
_cell_angle_gamma    90.2535

_symmetry_space_group_name_H-M    "P 1"
_symmetry_int_tables_number       1

loop_
  _symmetry_equiv_pos_as_xyz
  'x, y, z'

loop_
  _atom_site_label
  _atom_site_occupancy
  _atom_site_fract_x
  _atom_site_fract_y
  _atom_site_fract_z
  _atom_site_thermal_displace_type
  _atom_site_B_iso_or_equiv
  _atom_site_type_symbol
  Cu1      1.0000 0.12731  0.03463  0.12730  Biso   1.000  Cu
  Zr1      1.0000 0.12828  0.00416  0.62393  Biso   1.000  Zr
  Zr2      1.0000 0.12529  0.49543  0.12529  Biso   1.000  Zr
  Zr3      1.0000 0.12434  0.50081  0.62563  Biso   1.000  Zr
  Zr4      1.0000 0.62394  0.00416  0.12827  Biso   1.000  Zr
  Zr5      1.0000 0.62620  0.99695  0.62619  Biso   1.000  Zr
  Zr6      1.0000 0.62563  0.50081  0.12433  Biso   1.000  Zr
  Zr7      1.0000 0.62606  0.50244  0.62606  Biso   1.000  Zr
  Zr8      1.0000 0.12142  0.25035  0.37689  Biso   1.000  Zr
  Zr9      1.0000 0.12496  0.24965  0.86911  Biso   1.000  Zr
  Zr10     1.0000 0.12327  0.74738  0.37344  Biso   1.000  Zr
  Zr11     1.0000 0.13110  0.75123  0.87834  Biso   1.000  Zr
  Zr12     1.0000 0.62327  0.25006  0.37798  Biso   1.000  Zr
  Zr13     1.0000 0.62547  0.24837  0.87286  Biso   1.000  Zr
  Zr14     1.0000 0.62367  0.74973  0.37433  Biso   1.000  Zr
  Zr15     1.0000 0.62992  0.75278  0.87757  Biso   1.000  Zr
  Zr16     1.0000 0.37689  0.25035  0.12142  Biso   1.000  Zr
  Zr17     1.0000 0.37798  0.25006  0.62327  Biso   1.000  Zr
  Zr18     1.0000 0.37344  0.74738  0.12327  Biso   1.000  Zr
  Zr19     1.0000 0.37433  0.74973  0.62367  Biso   1.000  Zr
  Zr20     1.0000 0.86911  0.24964  0.12495  Biso   1.000  Zr
  Zr21     1.0000 0.87287  0.24837  0.62547  Biso   1.000  Zr
  Zr22     1.0000 0.87833  0.75123  0.13110  Biso   1.000  Zr
  Zr23     1.0000 0.87757  0.75278  0.62992  Biso   1.000  Zr
  Zr24     1.0000 0.36962  0.99372  0.36962  Biso   1.000  Zr
  Zr25     1.0000 0.37867  0.99493  0.87358  Biso   1.000  Zr
  Zr26     1.0000 0.37612  0.50027  0.37612  Biso   1.000  Zr
  Zr27     1.0000 0.37658  0.50098  0.87354  Biso   1.000  Zr
  Zr28     1.0000 0.87358  0.99494  0.37867  Biso   1.000  Zr
  Zr29     1.0000 0.88410  0.00128  0.88410  Biso   1.000  Zr
  Zr30     1.0000 0.87354  0.50098  0.37658  Biso   1.000  Zr
  Zr31     1.0000 0.87412  0.50356  0.87412  Biso   1.000  Zr
  Zr32     1.0000 0.99103  0.15690  0.99103  Biso   1.000  Zr
  Zr33     1.0000 0.99297  0.14600  0.49349  Biso   1.000  Zr
  Zr34     1.0000 0.00097  0.65546  0.00097  Biso   1.000  Zr
  Zr35     1.0000 0.99891  0.64575  0.50150  Biso   1.000  Zr
  Zr36     1.0000 0.49349  0.14600  0.99297  Biso   1.000  Zr
  Zr37     1.0000 0.49369  0.14512  0.49368  Biso   1.000  Zr
  Zr38     1.0000 0.50150  0.64575  0.99891  Biso   1.000  Zr
  Zr39     1.0000 0.49910  0.64536  0.49910  Biso   1.000  Zr
  Zr40     1.0000 0.99474  0.09168  0.24313  Biso   1.000  Zr
  Zr41     1.0000 0.00439  0.10545  0.74605  Biso   1.000  Zr
  Zr42     1.0000 0.00254  0.59792  0.24965  Biso   1.000  Zr
  Zr43     1.0000 0.00113  0.60560  0.75001  Biso   1.000  Zr
  Zr44     1.0000 0.49236  0.10522  0.24458  Biso   1.000  Zr
  Zr45     1.0000 0.50437  0.10470  0.74553  Biso   1.000  Zr
  Zr46     1.0000 0.50173  0.60304  0.25007  Biso   1.000  Zr
  Zr47     1.0000 0.50083  0.60465  0.74917  Biso   1.000  Zr
  Zr48     1.0000 0.99955  0.34823  0.24775  Biso   1.000  Zr
  Zr49     1.0000 0.99912  0.35606  0.74778  Biso   1.000  Zr
  Zr50     1.0000 0.97629  0.84144  0.27956  Biso   1.000  Zr
  Zr51     1.0000 0.99524  0.85527  0.76987  Biso   1.000  Zr
  Zr52     1.0000 0.49910  0.35348  0.25100  Biso   1.000  Zr
  Zr53     1.0000 0.49917  0.35528  0.75141  Biso   1.000  Zr
  Zr54     1.0000 0.48999  0.85397  0.25306  Biso   1.000  Zr
  Zr55     1.0000 0.50008  0.85271  0.75065  Biso   1.000  Zr
  Zr56     1.0000 0.99842  0.40200  0.99842  Biso   1.000  Zr
  Zr57     1.0000 0.00236  0.39500  0.49712  Biso   1.000  Zr
  Zr58     1.0000 0.02332  0.91535  0.02332  Biso   1.000  Zr
  Zr59     1.0000 0.99730  0.89663  0.51716  Biso   1.000  Zr
  Zr60     1.0000 0.49712  0.39500  0.00235  Biso   1.000  Zr
  Zr61     1.0000 0.50139  0.39523  0.50139  Biso   1.000  Zr
  Zr62     1.0000 0.51716  0.89663  0.99730  Biso   1.000  Zr
  Zr63     1.0000 0.49919  0.89565  0.49919  Biso   1.000  Zr
  Zr64     1.0000 0.23563  0.14330  0.23562  Biso   1.000  Zr
  Zr65     1.0000 0.25607  0.14605  0.75014  Biso   1.000  Zr
  Zr66     1.0000 0.25285  0.64566  0.25285  Biso   1.000  Zr
  Zr67     1.0000 0.25188  0.64554  0.75148  Biso   1.000  Zr
  Zr68     1.0000 0.75014  0.14605  0.25607  Biso   1.000  Zr
  Zr69     1.0000 0.75668  0.14611  0.75668  Biso   1.000  Zr
  Zr70     1.0000 0.75148  0.64554  0.25187  Biso   1.000  Zr
  Zr71     1.0000 0.75129  0.64603  0.75129  Biso   1.000  Zr
  Zr72     1.0000 0.24313  0.09168  0.99473  Biso   1.000  Zr
  Zr73     1.0000 0.24458  0.10522  0.49236  Biso   1.000  Zr
  Zr74     1.0000 0.24965  0.59793  0.00254  Biso   1.000  Zr
  Zr75     1.0000 0.25007  0.60304  0.50173  Biso   1.000  Zr
  Zr76     1.0000 0.74605  0.10545  0.00439  Biso   1.000  Zr
  Zr77     1.0000 0.74554  0.10470  0.50437  Biso   1.000  Zr
  Zr78     1.0000 0.75001  0.60560  0.00113  Biso   1.000  Zr
  Zr79     1.0000 0.74917  0.60465  0.50082  Biso   1.000  Zr
  Zr80     1.0000 0.24776  0.34823  0.99955  Biso   1.000  Zr
  Zr81     1.0000 0.25101  0.35348  0.49910  Biso   1.000  Zr
  Zr82     1.0000 0.27957  0.84144  0.97629  Biso   1.000  Zr
  Zr83     1.0000 0.25307  0.85397  0.48999  Biso   1.000  Zr
  Zr84     1.0000 0.74778  0.35606  0.99911  Biso   1.000  Zr
  Zr85     1.0000 0.75141  0.35528  0.49917  Biso   1.000  Zr
  Zr86     1.0000 0.76988  0.85527  0.99524  Biso   1.000  Zr
  Zr87     1.0000 0.75065  0.85271  0.50008  Biso   1.000  Zr
  Zr88     1.0000 0.25058  0.39301  0.25058  Biso   1.000  Zr
  Zr89     1.0000 0.24911  0.39569  0.74969  Biso   1.000  Zr
  Zr90     1.0000 0.23693  0.89707  0.23692  Biso   1.000  Zr
  Zr91     1.0000 0.25079  0.89539  0.73843  Biso   1.000  Zr
  Zr92     1.0000 0.74969  0.39568  0.24911  Biso   1.000  Zr
  Zr93     1.0000 0.74936  0.39546  0.74936  Biso   1.000  Zr
  Zr94     1.0000 0.73843  0.89539  0.25079  Biso   1.000  Zr
  Zr95     1.0000 0.75068  0.89717  0.75068  Biso   1.000  Zr
