data_image0
_cell_length_a       10.1861
_cell_length_b       10.4069
_cell_length_c       10.4622
_cell_angle_alpha    90.383
_cell_angle_beta     80.0715
_cell_angle_gamma    90.0833

_symmetry_space_group_name_H-M    "P 1"
_symmetry_int_tables_number       1

loop_
  _symmetry_equiv_pos_as_xyz
  'x, y, z'

loop_
  _atom_site_label
  _atom_site_occupancy
  _atom_site_fract_x
  _atom_site_fract_y
  _atom_site_fract_z
  _atom_site_thermal_displace_type
  _atom_site_B_iso_or_equiv
  _atom_site_type_symbol
  Zr1      1.0000 0.13613  0.02251  0.14522  Biso   1.000  Zr
  Zr2      1.0000 0.14425  0.23230  0.39056  Biso   1.000  Zr
  Zr3      1.0000 0.35261  0.27794  0.10386  Biso   1.000  Zr
  Zr4      1.0000 0.35831  0.47286  0.34755  Biso   1.000  Zr
  O1       1.0000 0.03374  0.17211  0.08051  Biso   1.000  O
  O2       1.0000 0.03713  0.07959  0.33096  Biso   1.000  O
  O3       1.0000 0.45609  0.43540  0.15829  Biso   1.000  O
  O4       1.0000 0.47431  0.33225  0.41689  Biso   1.000  O
  O5       1.0000 0.27747  0.12484  0.23734  Biso   1.000  O
  O6       1.0000 0.29635  0.13123  0.47439  Biso   1.000  O
  O7       1.0000 0.21882  0.38403  0.00264  Biso   1.000  O
  O8       1.0000 0.20689  0.37845  0.25126  Biso   1.000  O
  Zr5      1.0000 0.13556  0.02000  0.64675  Biso   1.000  Zr
  Zr6      1.0000 0.13679  0.22984  0.89382  Biso   1.000  Zr
  Zr7      1.0000 0.36285  0.27311  0.60590  Biso   1.000  Zr
  Zr8      1.0000 0.36038  0.47992  0.85420  Biso   1.000  Zr
  O9       1.0000 0.04450  0.17132  0.57926  Biso   1.000  O
  O10      1.0000 0.03423  0.07837  0.83252  Biso   1.000  O
  O11      1.0000 0.46450  0.42252  0.66836  Biso   1.000  O
  O12      1.0000 0.46299  0.32740  0.91899  Biso   1.000  O
  O13      1.0000 0.27472  0.12885  0.73714  Biso   1.000  O
  O14      1.0000 0.27349  0.12374  0.98875  Biso   1.000  O
  O15      1.0000 0.22643  0.37910  0.50811  Biso   1.000  O
  O16      1.0000 0.22458  0.37082  0.75678  Biso   1.000  O
  Zr9      1.0000 0.13551  0.52472  0.14207  Biso   1.000  Zr
  Zr10     1.0000 0.13792  0.72629  0.39535  Biso   1.000  Zr
  Zr11     1.0000 0.35837  0.76972  0.10320  Biso   1.000  Zr
  Zr12     1.0000 0.36065  0.96540  0.35349  Biso   1.000  Zr
  O17      1.0000 0.03443  0.67596  0.08071  Biso   1.000  O
  O18      1.0000 0.03240  0.58275  0.32983  Biso   1.000  O
  O19      1.0000 0.46317  0.91998  0.16774  Biso   1.000  O
  O20      1.0000 0.46121  0.81881  0.41943  Biso   1.000  O
  O21      1.0000 0.27398  0.62918  0.24004  Biso   1.000  O
  O22      1.0000 0.27394  0.61982  0.49031  Biso   1.000  O
  O23      1.0000 0.22330  0.88118  0.00799  Biso   1.000  O
  O24      1.0000 0.21989  0.86656  0.25692  Biso   1.000  O
  Zr13     1.0000 0.13983  0.52186  0.64400  Biso   1.000  Zr
  Zr14     1.0000 0.13665  0.73114  0.89484  Biso   1.000  Zr
  Zr15     1.0000 0.36139  0.76961  0.60552  Biso   1.000  Zr
  Zr16     1.0000 0.36080  0.97971  0.85522  Biso   1.000  Zr
  O25      1.0000 0.03472  0.67075  0.58306  Biso   1.000  O
  O26      1.0000 0.03666  0.57868  0.83276  Biso   1.000  O
  O27      1.0000 0.46336  0.92277  0.66847  Biso   1.000  O
  O28      1.0000 0.46196  0.82842  0.91661  Biso   1.000  O
  O29      1.0000 0.27599  0.62866  0.74086  Biso   1.000  O
  O30      1.0000 0.27493  0.62365  0.98931  Biso   1.000  O
  O31      1.0000 0.22247  0.88127  0.51066  Biso   1.000  O
  O32      1.0000 0.22334  0.87115  0.75897  Biso   1.000  O
  Zr17     1.0000 0.63730  0.02010  0.15201  Biso   1.000  Zr
  Zr18     1.0000 0.64771  0.22765  0.39999  Biso   1.000  Zr
  Zr19     1.0000 0.85868  0.27219  0.10578  Biso   1.000  Zr
  Zr20     1.0000 0.86120  0.47820  0.35426  Biso   1.000  Zr
  O33      1.0000 0.52669  0.18342  0.12433  Biso   1.000  O
  O34      1.0000 0.54568  0.06133  0.34960  Biso   1.000  O
  O35      1.0000 0.95955  0.42469  0.16464  Biso   1.000  O
  O36      1.0000 0.96481  0.33092  0.41843  Biso   1.000  O
  O37      1.0000 0.77849  0.12894  0.24246  Biso   1.000  O
  O38      1.0000 0.78189  0.11885  0.49537  Biso   1.000  O
  O39      1.0000 0.72165  0.38033  0.01012  Biso   1.000  O
  O40      1.0000 0.72404  0.37089  0.26012  Biso   1.000  O
  Zr21     1.0000 0.63879  0.02202  0.64750  Biso   1.000  Zr
  Zr22     1.0000 0.63947  0.23440  0.89618  Biso   1.000  Zr
  Zr23     1.0000 0.86581  0.27097  0.60482  Biso   1.000  Zr
  Zr24     1.0000 0.86152  0.48004  0.85593  Biso   1.000  Zr
  O41      1.0000 0.53953  0.17461  0.58741  Biso   1.000  O
  O42      1.0000 0.53683  0.07921  0.84012  Biso   1.000  O
  O43      1.0000 0.96444  0.42160  0.66874  Biso   1.000  O
  O44      1.0000 0.95988  0.32705  0.91646  Biso   1.000  O
  O45      1.0000 0.77643  0.13091  0.74361  Biso   1.000  O
  O46      1.0000 0.76478  0.12282  0.99523  Biso   1.000  O
  O47      1.0000 0.72731  0.37838  0.51219  Biso   1.000  O
  O48      1.0000 0.72434  0.37029  0.76060  Biso   1.000  O
  Zr25     1.0000 0.63576  0.52304  0.14674  Biso   1.000  Zr
  Zr26     1.0000 0.63878  0.72594  0.39662  Biso   1.000  Zr
  Zr27     1.0000 0.85845  0.77177  0.10519  Biso   1.000  Zr
  Zr28     1.0000 0.86242  0.97787  0.35605  Biso   1.000  Zr
  O49      1.0000 0.53711  0.67633  0.08334  Biso   1.000  O
  O50      1.0000 0.53552  0.57624  0.33311  Biso   1.000  O
  O51      1.0000 0.96213  0.92210  0.16752  Biso   1.000  O
  O52      1.0000 0.96369  0.82992  0.42035  Biso   1.000  O
  O53      1.0000 0.77491  0.63004  0.24170  Biso   1.000  O
  O54      1.0000 0.77572  0.62028  0.49199  Biso   1.000  O
  O55      1.0000 0.72235  0.88116  0.01131  Biso   1.000  O
  O56      1.0000 0.72334  0.87036  0.26079  Biso   1.000  O
  Zr29     1.0000 0.64009  0.52173  0.64657  Biso   1.000  Zr
  Zr30     1.0000 0.63739  0.72968  0.89684  Biso   1.000  Zr
  Zr31     1.0000 0.86004  0.77146  0.60544  Biso   1.000  Zr
  Zr32     1.0000 0.85731  0.98008  0.85738  Biso   1.000  Zr
  O57      1.0000 0.53699  0.67116  0.58576  Biso   1.000  O
  O58      1.0000 0.53681  0.57761  0.83448  Biso   1.000  O
  O59      1.0000 0.96209  0.92190  0.67029  Biso   1.000  O
  O60      1.0000 0.96088  0.82999  0.91694  Biso   1.000  O
  O61      1.0000 0.77594  0.62946  0.74206  Biso   1.000  O
  O62      1.0000 0.77478  0.62176  0.99173  Biso   1.000  O
  O63      1.0000 0.72303  0.87869  0.51110  Biso   1.000  O
  O64      1.0000 0.72304  0.87193  0.76090  Biso   1.000  O
  Fe1      1.0000 0.41740  0.19285  0.31472  Biso   1.000  Fe
