data_image0
_cell_length_a       5.10609
_cell_length_b       10.4432
_cell_length_c       10.4376
_cell_angle_alpha    90.7247
_cell_angle_beta     79.6936
_cell_angle_gamma    90.1446

_symmetry_space_group_name_H-M    "P 1"
_symmetry_int_tables_number       1

loop_
  _symmetry_equiv_pos_as_xyz
  'x, y, z'

loop_
  _atom_site_label
  _atom_site_occupancy
  _atom_site_fract_x
  _atom_site_fract_y
  _atom_site_fract_z
  _atom_site_thermal_displace_type
  _atom_site_B_iso_or_equiv
  _atom_site_type_symbol
  Zr1      1.0000 0.26931  0.02114  0.15171  Biso   1.000  Zr
  Zr2      1.0000 0.30439  0.23190  0.39551  Biso   1.000  Zr
  Zr3      1.0000 0.70064  0.27845  0.10515  Biso   1.000  Zr
  Zr4      1.0000 0.71683  0.47252  0.34709  Biso   1.000  Zr
  O1       1.0000 0.04933  0.18450  0.12204  Biso   1.000  O
  O2       1.0000 0.09443  0.06258  0.34882  Biso   1.000  O
  O3       1.0000 0.90599  0.43760  0.15517  Biso   1.000  O
  O4       1.0000 0.95029  0.33305  0.41703  Biso   1.000  O
  O5       1.0000 0.55949  0.12430  0.23741  Biso   1.000  O
  O6       1.0000 0.60495  0.13041  0.47715  Biso   1.000  O
  O7       1.0000 0.43377  0.38492  0.00340  Biso   1.000  O
  O8       1.0000 0.41507  0.37918  0.25194  Biso   1.000  O
  Zr5      1.0000 0.26895  0.02051  0.64939  Biso   1.000  Zr
  Zr6      1.0000 0.27454  0.23546  0.89432  Biso   1.000  Zr
  Zr7      1.0000 0.73445  0.27280  0.60631  Biso   1.000  Zr
  Zr8      1.0000 0.72138  0.48115  0.85561  Biso   1.000  Zr
  O9       1.0000 0.09485  0.17555  0.58609  Biso   1.000  O
  O10      1.0000 0.06806  0.07848  0.84149  Biso   1.000  O
  O11      1.0000 0.93006  0.42372  0.66833  Biso   1.000  O
  O12      1.0000 0.91867  0.32530  0.91691  Biso   1.000  O
  O13      1.0000 0.54934  0.13012  0.73931  Biso   1.000  O
  O14      1.0000 0.52393  0.12530  0.99257  Biso   1.000  O
  O15      1.0000 0.46064  0.37921  0.51085  Biso   1.000  O
  O16      1.0000 0.45028  0.37003  0.75800  Biso   1.000  O
  Zr9      1.0000 0.26548  0.52553  0.14395  Biso   1.000  Zr
  Zr10     1.0000 0.27446  0.72381  0.39667  Biso   1.000  Zr
  Zr11     1.0000 0.71198  0.76996  0.10409  Biso   1.000  Zr
  Zr12     1.0000 0.72262  0.96567  0.35490  Biso   1.000  Zr
  O17      1.0000 0.07000  0.68063  0.08305  Biso   1.000  O
  O18      1.0000 0.06284  0.57961  0.33207  Biso   1.000  O
  O19      1.0000 0.92358  0.92097  0.16740  Biso   1.000  O
  O20      1.0000 0.92225  0.82065  0.42167  Biso   1.000  O
  O21      1.0000 0.54564  0.62976  0.24119  Biso   1.000  O
  O22      1.0000 0.54686  0.61985  0.49162  Biso   1.000  O
  O23      1.0000 0.44359  0.88283  0.01052  Biso   1.000  O
  O24      1.0000 0.43920  0.86602  0.25908  Biso   1.000  O
  Zr13     1.0000 0.28163  0.52245  0.64535  Biso   1.000  Zr
  Zr14     1.0000 0.26985  0.73174  0.89677  Biso   1.000  Zr
  Zr15     1.0000 0.71985  0.76974  0.60644  Biso   1.000  Zr
  Zr16     1.0000 0.71333  0.98085  0.85813  Biso   1.000  Zr
  O25      1.0000 0.07067  0.67175  0.58762  Biso   1.000  O
  O26      1.0000 0.07378  0.57710  0.83582  Biso   1.000  O
  O27      1.0000 0.92270  0.92400  0.67063  Biso   1.000  O
  O28      1.0000 0.91826  0.82898  0.91549  Biso   1.000  O
  O29      1.0000 0.55100  0.62887  0.74236  Biso   1.000  O
  O30      1.0000 0.54668  0.62411  0.99060  Biso   1.000  O
  O31      1.0000 0.44380  0.88195  0.51278  Biso   1.000  O
  O32      1.0000 0.44443  0.87193  0.76097  Biso   1.000  O
  Fe1      1.0000 0.83852  0.19312  0.31419  Biso   1.000  Fe
