data_image0
_cell_length_a       5.03859
_cell_length_b       10.4972
_cell_length_c       10.0967
_cell_angle_alpha    89.6768
_cell_angle_beta     90.2772
_cell_angle_gamma    90.0499

_symmetry_space_group_name_H-M    "P 1"
_symmetry_int_tables_number       1

loop_
  _symmetry_equiv_pos_as_xyz
  'x, y, z'

loop_
  _atom_site_label
  _atom_site_occupancy
  _atom_site_fract_x
  _atom_site_fract_y
  _atom_site_fract_z
  _atom_site_thermal_displace_type
  _atom_site_B_iso_or_equiv
  _atom_site_type_symbol
  Zr1      1.0000 0.26340  0.02044  0.11913  Biso   1.000  Zr
  Zr2      1.0000 0.26376  0.22999  0.38199  Biso   1.000  Zr
  Zr3      1.0000 0.69717  0.25815  0.12354  Biso   1.000  Zr
  Zr4      1.0000 0.73936  0.48435  0.37365  Biso   1.000  Zr
  Zr5      1.0000 0.03320  0.17629  0.21063  Biso   1.000  Zr
  Zr6      1.0000 0.06845  0.06497  0.44999  Biso   1.000  Zr
  Zr7      1.0000 0.92145  0.43167  0.19435  Biso   1.000  Zr
  Zr8      1.0000 0.93564  0.31935  0.44960  Biso   1.000  Zr
  Zr9      1.0000 0.51974  0.11402  0.25121  Biso   1.000  Zr
  Zr10     1.0000 0.54329  0.13275  0.49862  Biso   1.000  Zr
  Zr11     1.0000 0.46750  0.38370  0.49778  Biso   1.000  Zr
  Zr12     1.0000 0.43278  0.36402  0.24587  Biso   1.000  Zr
  Zr13     1.0000 0.27274  0.01303  0.62553  Biso   1.000  Zr
  Zr14     1.0000 0.28201  0.22570  0.87222  Biso   1.000  Zr
  Zr15     1.0000 0.73907  0.26441  0.62547  Biso   1.000  Zr
  Zr16     1.0000 0.73535  0.48283  0.87690  Biso   1.000  Zr
  Zr17     1.0000 0.07361  0.17981  0.69313  Biso   1.000  Zr
  Zr18     1.0000 0.08674  0.06012  0.93700  Biso   1.000  Zr
  Zr19     1.0000 0.94291  0.42958  0.70396  Biso   1.000  Zr
  Zr20     1.0000 0.94760  0.31333  0.95791  Biso   1.000  Zr
  Zr21     1.0000 0.54687  0.11252  0.74524  Biso   1.000  Zr
  Zr22     1.0000 0.57441  0.12080  0.99062  Biso   1.000  Zr
  Zr23     1.0000 0.45292  0.38471  0.99837  Biso   1.000  Zr
  Zr24     1.0000 0.47485  0.36389  0.74892  Biso   1.000  Zr
  Zr25     1.0000 0.26364  0.53359  0.12330  Biso   1.000  Zr
  Zr26     1.0000 0.27105  0.73639  0.37720  Biso   1.000  Zr
  Zr27     1.0000 0.72835  0.76963  0.12659  Biso   1.000  Zr
  Zr28     1.0000 0.73356  0.98457  0.37315  Biso   1.000  Zr
  Zr29     1.0000 0.06267  0.68704  0.20166  Biso   1.000  Zr
  Zr30     1.0000 0.06572  0.56723  0.44795  Biso   1.000  Zr
  Zr31     1.0000 0.92825  0.93477  0.19359  Biso   1.000  Zr
  Zr32     1.0000 0.93208  0.81712  0.44439  Biso   1.000  Zr
  Zr33     1.0000 0.54285  0.62081  0.25080  Biso   1.000  Zr
  Zr34     1.0000 0.53746  0.63261  0.49932  Biso   1.000  Zr
  Zr35     1.0000 0.46689  0.88351  0.49804  Biso   1.000  Zr
  Zr36     1.0000 0.45962  0.86778  0.24862  Biso   1.000  Zr
  Zr37     1.0000 0.27327  0.51275  0.62594  Biso   1.000  Zr
  Zr38     1.0000 0.27063  0.73598  0.87222  Biso   1.000  Zr
  Zr39     1.0000 0.74058  0.76261  0.62271  Biso   1.000  Zr
  Zr40     1.0000 0.74115  0.97758  0.87299  Biso   1.000  Zr
  Zr41     1.0000 0.07733  0.68074  0.69288  Biso   1.000  Zr
  Zr42     1.0000 0.06730  0.57065  0.94424  Biso   1.000  Zr
  Zr43     1.0000 0.94248  0.92695  0.69516  Biso   1.000  Zr
  Zr44     1.0000 0.93645  0.81474  0.94759  Biso   1.000  Zr
  Zr45     1.0000 0.54463  0.61261  0.74920  Biso   1.000  Zr
  Zr46     1.0000 0.54170  0.63607  0.99691  Biso   1.000  Zr
  Zr47     1.0000 0.46202  0.88096  0.99784  Biso   1.000  Zr
  Zr48     1.0000 0.47338  0.86271  0.74660  Biso   1.000  Zr
  Fe1      1.0000 0.19005  0.30924  0.10726  Biso   1.000  Fe
