data_image0
_cell_length_a       5.10314
_cell_length_b       10.3025
_cell_length_c       10.1354
_cell_angle_alpha    91.9371
_cell_angle_beta     87.0853
_cell_angle_gamma    90.5177

_symmetry_space_group_name_H-M    "P 1"
_symmetry_int_tables_number       1

loop_
  _symmetry_equiv_pos_as_xyz
  'x, y, z'

loop_
  _atom_site_label
  _atom_site_occupancy
  _atom_site_fract_x
  _atom_site_fract_y
  _atom_site_fract_z
  _atom_site_thermal_displace_type
  _atom_site_B_iso_or_equiv
  _atom_site_type_symbol
  Zr1      1.0000 0.25103  0.95857  0.12894  Biso   1.000  Zr
  Zr2      1.0000 0.29395  0.25204  0.37146  Biso   1.000  Zr
  Zr3      1.0000 0.71449  0.26632  0.12402  Biso   1.000  Zr
  Zr4      1.0000 0.78454  0.00862  0.37964  Biso   1.000  Zr
  Zr5      1.0000 0.95134  0.14332  0.99185  Biso   1.000  Zr
  Zr6      1.0000 0.11474  0.09213  0.26661  Biso   1.000  Zr
  Zr7      1.0000 0.03733  0.33820  0.23208  Biso   1.000  Zr
  Zr8      1.0000 0.93687  0.40007  0.98979  Biso   1.000  Zr
  Zr9      1.0000 0.64203  0.16294  0.29103  Biso   1.000  Zr
  Zr10     1.0000 0.46878  0.09518  0.02638  Biso   1.000  Zr
  Zr11     1.0000 0.40432  0.33445  0.02048  Biso   1.000  Zr
  Zr12     1.0000 0.51149  0.41325  0.25725  Biso   1.000  Zr
  Zr13     1.0000 0.24725  0.00938  0.63430  Biso   1.000  Zr
  Zr14     1.0000 0.18629  0.25895  0.87043  Biso   1.000  Zr
  Zr15     1.0000 0.73157  0.23875  0.63540  Biso   1.000  Zr
  Zr16     1.0000 0.72685  0.99911  0.88951  Biso   1.000  Zr
  Zr17     1.0000 0.00886  0.15341  0.50698  Biso   1.000  Zr
  Zr18     1.0000 0.96777  0.10886  0.75088  Biso   1.000  Zr
  Zr19     1.0000 0.99228  0.36519  0.73417  Biso   1.000  Zr
  Zr20     1.0000 0.07079  0.40795  0.47932  Biso   1.000  Zr
  Zr21     1.0000 0.47421  0.14704  0.76804  Biso   1.000  Zr
  Zr22     1.0000 0.50749  0.10780  0.51625  Biso   1.000  Zr
  Zr23     1.0000 0.55281  0.36095  0.50902  Biso   1.000  Zr
  Zr24     1.0000 0.48604  0.39804  0.76051  Biso   1.000  Zr
  Zr25     1.0000 0.23536  0.50339  0.12238  Biso   1.000  Zr
  Zr26     1.0000 0.27247  0.76336  0.38479  Biso   1.000  Zr
  Zr27     1.0000 0.74043  0.73683  0.12365  Biso   1.000  Zr
  Zr28     1.0000 0.77752  0.49386  0.38581  Biso   1.000  Zr
  Zr29     1.0000 0.02159  0.64384  0.98894  Biso   1.000  Zr
  Zr30     1.0000 0.91618  0.58757  0.22535  Biso   1.000  Zr
  Zr31     1.0000 0.00159  0.84159  0.25723  Biso   1.000  Zr
  Zr32     1.0000 0.97729  0.88798  0.00323  Biso   1.000  Zr
  Zr33     1.0000 0.41377  0.65939  0.22731  Biso   1.000  Zr
  Zr34     1.0000 0.52321  0.58737  0.99924  Biso   1.000  Zr
  Zr35     1.0000 0.49414  0.83928  0.99299  Biso   1.000  Zr
  Zr36     1.0000 0.52847  0.89699  0.25127  Biso   1.000  Zr
  Zr37     1.0000 0.28355  0.49651  0.62154  Biso   1.000  Zr
  Zr38     1.0000 0.23660  0.75592  0.85954  Biso   1.000  Zr
  Zr39     1.0000 0.75842  0.75983  0.61750  Biso   1.000  Zr
  Zr40     1.0000 0.76763  0.51344  0.85667  Biso   1.000  Zr
  Zr41     1.0000 0.99248  0.65365  0.48377  Biso   1.000  Zr
  Zr42     1.0000 0.02237  0.61647  0.73436  Biso   1.000  Zr
  Zr43     1.0000 0.98095  0.86181  0.75493  Biso   1.000  Zr
  Zr44     1.0000 0.02663  0.90182  0.50648  Biso   1.000  Zr
  Zr45     1.0000 0.52016  0.64880  0.74413  Biso   1.000  Zr
  Zr46     1.0000 0.50199  0.61324  0.49022  Biso   1.000  Zr
  Zr47     1.0000 0.53009  0.86411  0.49920  Biso   1.000  Zr
  Zr48     1.0000 0.48249  0.90052  0.75046  Biso   1.000  Zr
  Fe1      1.0000 0.22008  0.20555  0.12470  Biso   1.000  Fe
