data_image0
_cell_length_a       10.0036
_cell_length_b       10.4283
_cell_length_c       10.0481
_cell_angle_alpha    90.3363
_cell_angle_beta     89.5536
_cell_angle_gamma    90.2315

_symmetry_space_group_name_H-M    "P 1"
_symmetry_int_tables_number       1

loop_
  _symmetry_equiv_pos_as_xyz
  'x, y, z'

loop_
  _atom_site_label
  _atom_site_occupancy
  _atom_site_fract_x
  _atom_site_fract_y
  _atom_site_fract_z
  _atom_site_thermal_displace_type
  _atom_site_B_iso_or_equiv
  _atom_site_type_symbol
  Fe1      1.0000 0.12159  0.03903  0.10750  Biso   1.000  Fe
  Zr1      1.0000 0.13527  0.01709  0.62787  Biso   1.000  Zr
  Zr2      1.0000 0.13381  0.51352  0.12581  Biso   1.000  Zr
  Zr3      1.0000 0.13478  0.51665  0.62610  Biso   1.000  Zr
  Zr4      1.0000 0.63449  0.01610  0.12499  Biso   1.000  Zr
  Zr5      1.0000 0.62922  0.01325  0.62224  Biso   1.000  Zr
  Zr6      1.0000 0.63436  0.51649  0.12751  Biso   1.000  Zr
  Zr7      1.0000 0.63316  0.51681  0.62444  Biso   1.000  Zr
  Zr8      1.0000 0.13377  0.22943  0.37135  Biso   1.000  Zr
  Zr9      1.0000 0.13155  0.23785  0.87587  Biso   1.000  Zr
  Zr10     1.0000 0.13700  0.73217  0.37835  Biso   1.000  Zr
  Zr11     1.0000 0.13330  0.73732  0.88049  Biso   1.000  Zr
  Zr12     1.0000 0.63386  0.23299  0.37695  Biso   1.000  Zr
  Zr13     1.0000 0.63112  0.23440  0.87304  Biso   1.000  Zr
  Zr14     1.0000 0.63635  0.73667  0.37435  Biso   1.000  Zr
  Zr15     1.0000 0.63137  0.73583  0.87585  Biso   1.000  Zr
  Zr16     1.0000 0.36657  0.26202  0.12405  Biso   1.000  Zr
  Zr17     1.0000 0.36518  0.26620  0.62526  Biso   1.000  Zr
  Zr18     1.0000 0.36575  0.76349  0.12791  Biso   1.000  Zr
  Zr19     1.0000 0.36632  0.76835  0.62960  Biso   1.000  Zr
  Zr20     1.0000 0.86394  0.26626  0.12260  Biso   1.000  Zr
  Zr21     1.0000 0.86570  0.26513  0.62413  Biso   1.000  Zr
  Zr22     1.0000 0.87379  0.76512  0.12044  Biso   1.000  Zr
  Zr23     1.0000 0.86809  0.76618  0.62368  Biso   1.000  Zr
  Zr24     1.0000 0.36745  0.48247  0.37581  Biso   1.000  Zr
  Zr25     1.0000 0.36548  0.48661  0.87566  Biso   1.000  Zr
  Zr26     1.0000 0.36300  0.98086  0.37220  Biso   1.000  Zr
  Zr27     1.0000 0.35814  0.98486  0.88473  Biso   1.000  Zr
  Zr28     1.0000 0.86634  0.48379  0.37557  Biso   1.000  Zr
  Zr29     1.0000 0.86435  0.48634  0.87374  Biso   1.000  Zr
  Zr30     1.0000 0.87083  0.98730  0.37421  Biso   1.000  Zr
  Zr31     1.0000 0.86320  0.98561  0.87177  Biso   1.000  Zr
  Zr32     1.0000 0.03780  0.18273  0.18323  Biso   1.000  Zr
  Zr33     1.0000 0.03242  0.18294  0.69939  Biso   1.000  Zr
  Zr34     1.0000 0.03745  0.68453  0.19508  Biso   1.000  Zr
  Zr35     1.0000 0.03589  0.68520  0.69547  Biso   1.000  Zr
  Zr36     1.0000 0.53152  0.18126  0.19971  Biso   1.000  Zr
  Zr37     1.0000 0.53483  0.18451  0.69247  Biso   1.000  Zr
  Zr38     1.0000 0.53688  0.68371  0.19732  Biso   1.000  Zr
  Zr39     1.0000 0.53411  0.68308  0.69699  Biso   1.000  Zr
  Zr40     1.0000 0.03563  0.06697  0.44936  Biso   1.000  Zr
  Zr41     1.0000 0.03330  0.06591  0.94891  Biso   1.000  Zr
  Zr42     1.0000 0.03537  0.56409  0.44633  Biso   1.000  Zr
  Zr43     1.0000 0.03239  0.56854  0.94727  Biso   1.000  Zr
  Zr44     1.0000 0.53531  0.06574  0.44367  Biso   1.000  Zr
  Zr45     1.0000 0.52816  0.07051  0.95115  Biso   1.000  Zr
  Zr46     1.0000 0.53769  0.56712  0.44295  Biso   1.000  Zr
  Zr47     1.0000 0.53433  0.56758  0.94672  Biso   1.000  Zr
  Zr48     1.0000 0.46529  0.43122  0.19336  Biso   1.000  Zr
  Zr49     1.0000 0.46341  0.43446  0.69477  Biso   1.000  Zr
  Zr50     1.0000 0.47324  0.92918  0.19882  Biso   1.000  Zr
  Zr51     1.0000 0.46305  0.93498  0.70212  Biso   1.000  Zr
  Zr52     1.0000 0.96571  0.43039  0.19574  Biso   1.000  Zr
  Zr53     1.0000 0.96388  0.43377  0.69303  Biso   1.000  Zr
  Zr54     1.0000 0.99464  0.94407  0.18449  Biso   1.000  Zr
  Zr55     1.0000 0.96438  0.93484  0.69313  Biso   1.000  Zr
  Zr56     1.0000 0.46610  0.31704  0.44627  Biso   1.000  Zr
  Zr57     1.0000 0.46030  0.31541  0.94296  Biso   1.000  Zr
  Zr58     1.0000 0.47081  0.81916  0.45388  Biso   1.000  Zr
  Zr59     1.0000 0.45862  0.81795  0.94450  Biso   1.000  Zr
  Zr60     1.0000 0.96387  0.31292  0.44086  Biso   1.000  Zr
  Zr61     1.0000 0.96178  0.31863  0.94239  Biso   1.000  Zr
  Zr62     1.0000 0.96624  0.81798  0.44050  Biso   1.000  Zr
  Zr63     1.0000 0.95976  0.81737  0.93894  Biso   1.000  Zr
  Zr64     1.0000 0.25346  0.09989  0.24089  Biso   1.000  Zr
  Zr65     1.0000 0.26970  0.11938  0.75142  Biso   1.000  Zr
  Zr66     1.0000 0.26824  0.60687  0.24916  Biso   1.000  Zr
  Zr67     1.0000 0.26845  0.61923  0.75169  Biso   1.000  Zr
  Zr68     1.0000 0.77215  0.11676  0.24617  Biso   1.000  Zr
  Zr69     1.0000 0.76573  0.11570  0.74624  Biso   1.000  Zr
  Zr70     1.0000 0.77274  0.61608  0.24816  Biso   1.000  Zr
  Zr71     1.0000 0.76839  0.61772  0.74856  Biso   1.000  Zr
  Zr72     1.0000 0.27114  0.13302  0.49565  Biso   1.000  Zr
  Zr73     1.0000 0.25698  0.13349  0.00298  Biso   1.000  Zr
  Zr74     1.0000 0.27280  0.63227  0.50097  Biso   1.000  Zr
  Zr75     1.0000 0.26756  0.63452  0.00027  Biso   1.000  Zr
  Zr76     1.0000 0.77065  0.13234  0.49678  Biso   1.000  Zr
  Zr77     1.0000 0.76690  0.13466  0.99549  Biso   1.000  Zr
  Zr78     1.0000 0.76952  0.63451  0.49834  Biso   1.000  Zr
  Zr79     1.0000 0.76865  0.63573  0.99917  Biso   1.000  Zr
  Zr80     1.0000 0.22932  0.38150  0.49830  Biso   1.000  Zr
  Zr81     1.0000 0.22956  0.38434  0.99855  Biso   1.000  Zr
  Zr82     1.0000 0.23074  0.88280  0.50602  Biso   1.000  Zr
  Zr83     1.0000 0.22076  0.89223  0.01562  Biso   1.000  Zr
  Zr84     1.0000 0.73119  0.38293  0.49920  Biso   1.000  Zr
  Zr85     1.0000 0.72844  0.38401  0.99807  Biso   1.000  Zr
  Zr86     1.0000 0.73428  0.88502  0.49607  Biso   1.000  Zr
  Zr87     1.0000 0.72821  0.88512  0.99628  Biso   1.000  Zr
  Zr88     1.0000 0.23345  0.35968  0.24806  Biso   1.000  Zr
  Zr89     1.0000 0.22864  0.36873  0.74905  Biso   1.000  Zr
  Zr90     1.0000 0.25055  0.84733  0.26499  Biso   1.000  Zr
  Zr91     1.0000 0.22809  0.86972  0.75640  Biso   1.000  Zr
  Zr92     1.0000 0.72932  0.36624  0.24853  Biso   1.000  Zr
  Zr93     1.0000 0.72933  0.36711  0.74799  Biso   1.000  Zr
  Zr94     1.0000 0.74588  0.86765  0.24502  Biso   1.000  Zr
  Zr95     1.0000 0.72959  0.86604  0.74654  Biso   1.000  Zr
