data_image0
_cell_length_a       10.1278
_cell_length_b       10.3083
_cell_length_c       10.5541
_cell_angle_alpha    89.5965
_cell_angle_beta     90.3986
_cell_angle_gamma    89.8769

_symmetry_space_group_name_H-M    "P 1"
_symmetry_int_tables_number       1

loop_
  _symmetry_equiv_pos_as_xyz
  'x, y, z'

loop_
  _atom_site_label
  _atom_site_occupancy
  _atom_site_fract_x
  _atom_site_fract_y
  _atom_site_fract_z
  _atom_site_thermal_displace_type
  _atom_site_B_iso_or_equiv
  _atom_site_type_symbol
  Zr1      1.0000 0.14052  0.01925  0.17101  Biso   1.000  Zr
  Zr2      1.0000 0.13594  0.22946  0.42162  Biso   1.000  Zr
  Zr3      1.0000 0.35612  0.26883  0.17431  Biso   1.000  Zr
  Zr4      1.0000 0.36043  0.48087  0.42318  Biso   1.000  Zr
  Zr5      1.0000 0.63567  0.02136  0.06830  Biso   1.000  Zr
  Zr6      1.0000 0.63227  0.23336  0.33655  Biso   1.000  Zr
  Zr7      1.0000 0.87671  0.27229  0.07481  Biso   1.000  Zr
  Zr8      1.0000 0.86131  0.48154  0.33271  Biso   1.000  Zr
  O1       1.0000 0.03903  0.16050  0.07639  Biso   1.000  O
  O2       1.0000 0.02664  0.09270  0.32537  Biso   1.000  O
  O3       1.0000 0.48267  0.39720  0.07858  Biso   1.000  O
  O4       1.0000 0.46274  0.33861  0.33303  Biso   1.000  O
  O5       1.0000 0.27126  0.12406  0.29605  Biso   1.000  O
  O6       1.0000 0.27873  0.12341  0.04341  Biso   1.000  O
  O7       1.0000 0.22199  0.37443  0.29528  Biso   1.000  O
  O8       1.0000 0.22949  0.37580  0.04511  Biso   1.000  O
  O9       1.0000 0.51717  0.14574  0.17933  Biso   1.000  O
  O10      1.0000 0.52763  0.08853  0.42581  Biso   1.000  O
  O11      1.0000 0.96921  0.41495  0.17071  Biso   1.000  O
  O12      1.0000 0.96724  0.33900  0.42067  Biso   1.000  O
  O13      1.0000 0.77593  0.12351  0.45212  Biso   1.000  O
  O14      1.0000 0.75602  0.14890  0.19067  Biso   1.000  O
  O15      1.0000 0.72499  0.37464  0.46331  Biso   1.000  O
  O16      1.0000 0.72000  0.39292  0.21716  Biso   1.000  O
  Zr9      1.0000 0.13925  0.02022  0.66992  Biso   1.000  Zr
  Zr10     1.0000 0.14476  0.22572  0.91703  Biso   1.000  Zr
  Zr11     1.0000 0.36371  0.27002  0.67076  Biso   1.000  Zr
  Zr12     1.0000 0.36340  0.47686  0.92035  Biso   1.000  Zr
  Zr13     1.0000 0.63800  0.02225  0.58032  Biso   1.000  Zr
  Zr14     1.0000 0.63891  0.22516  0.83540  Biso   1.000  Zr
  Zr15     1.0000 0.86041  0.27020  0.58196  Biso   1.000  Zr
  Zr16     1.0000 0.86238  0.47850  0.82947  Biso   1.000  Zr
  O17      1.0000 0.03087  0.16195  0.57971  Biso   1.000  O
  O18      1.0000 0.03558  0.08610  0.82890  Biso   1.000  O
  O19      1.0000 0.46849  0.41414  0.58270  Biso   1.000  O
  O20      1.0000 0.46821  0.33525  0.83313  Biso   1.000  O
  O21      1.0000 0.27772  0.12206  0.79313  Biso   1.000  O
  O22      1.0000 0.27401  0.12573  0.54470  Biso   1.000  O
  O23      1.0000 0.22640  0.37296  0.79424  Biso   1.000  O
  O24      1.0000 0.22452  0.37595  0.54495  Biso   1.000  O
  O25      1.0000 0.53293  0.16474  0.66873  Biso   1.000  O
  O26      1.0000 0.53346  0.06883  0.90314  Biso   1.000  O
  O27      1.0000 0.96755  0.41338  0.66838  Biso   1.000  O
  O28      1.0000 0.97462  0.33766  0.91476  Biso   1.000  O
  O29      1.0000 0.78853  0.11750  0.94755  Biso   1.000  O
  O30      1.0000 0.77606  0.12431  0.70233  Biso   1.000  O
  O31      1.0000 0.72426  0.36901  0.96757  Biso   1.000  O
  O32      1.0000 0.72568  0.37547  0.71255  Biso   1.000  O
  Zr17     1.0000 0.13916  0.52249  0.17236  Biso   1.000  Zr
  Zr18     1.0000 0.13746  0.72965  0.42146  Biso   1.000  Zr
  Zr19     1.0000 0.36049  0.77166  0.17215  Biso   1.000  Zr
  Zr20     1.0000 0.36161  0.97853  0.42356  Biso   1.000  Zr
  Zr21     1.0000 0.64379  0.53125  0.08142  Biso   1.000  Zr
  Zr22     1.0000 0.63876  0.73188  0.32973  Biso   1.000  Zr
  Zr23     1.0000 0.86338  0.77541  0.07884  Biso   1.000  Zr
  Zr24     1.0000 0.86045  0.98019  0.32853  Biso   1.000  Zr
  O33      1.0000 0.03227  0.66325  0.08086  Biso   1.000  O
  O34      1.0000 0.03157  0.58962  0.33050  Biso   1.000  O
  O35      1.0000 0.46640  0.90792  0.07823  Biso   1.000  O
  O36      1.0000 0.46827  0.83901  0.33092  Biso   1.000  O
  O37      1.0000 0.27412  0.62490  0.29653  Biso   1.000  O
  O38      1.0000 0.27748  0.62327  0.04628  Biso   1.000  O
  O39      1.0000 0.22409  0.87424  0.29597  Biso   1.000  O
  O40      1.0000 0.22190  0.87327  0.04590  Biso   1.000  O
  O41      1.0000 0.52969  0.66140  0.17247  Biso   1.000  O
  O42      1.0000 0.53128  0.58914  0.42091  Biso   1.000  O
  O43      1.0000 0.96776  0.91680  0.16773  Biso   1.000  O
  O44      1.0000 0.96639  0.84034  0.41686  Biso   1.000  O
  O45      1.0000 0.77468  0.62516  0.45559  Biso   1.000  O
  O46      1.0000 0.77828  0.63594  0.20591  Biso   1.000  O
  O47      1.0000 0.72383  0.87500  0.45560  Biso   1.000  O
  O48      1.0000 0.72568  0.88341  0.20546  Biso   1.000  O
  Zr25     1.0000 0.13792  0.52014  0.67076  Biso   1.000  Zr
  Zr26     1.0000 0.13897  0.72661  0.92126  Biso   1.000  Zr
  Zr27     1.0000 0.36144  0.76893  0.67177  Biso   1.000  Zr
  Zr28     1.0000 0.36040  0.97356  0.91955  Biso   1.000  Zr
  Zr29     1.0000 0.63917  0.52085  0.58060  Biso   1.000  Zr
  Zr30     1.0000 0.63917  0.72795  0.82801  Biso   1.000  Zr
  Zr31     1.0000 0.86055  0.77207  0.57905  Biso   1.000  Zr
  Zr32     1.0000 0.86316  0.97768  0.82691  Biso   1.000  Zr
  O49      1.0000 0.03059  0.66319  0.57973  Biso   1.000  O
  O50      1.0000 0.03136  0.58683  0.82953  Biso   1.000  O
  O51      1.0000 0.46833  0.91133  0.58349  Biso   1.000  O
  O52      1.0000 0.46605  0.82907  0.83198  Biso   1.000  O
  O53      1.0000 0.27539  0.62078  0.79551  Biso   1.000  O
  O54      1.0000 0.27350  0.62566  0.54570  Biso   1.000  O
  O55      1.0000 0.22424  0.87135  0.79445  Biso   1.000  O
  O56      1.0000 0.22463  0.87528  0.54486  Biso   1.000  O
  O57      1.0000 0.53141  0.66095  0.67001  Biso   1.000  O
  O58      1.0000 0.53227  0.58638  0.92181  Biso   1.000  O
  O59      1.0000 0.96954  0.91255  0.66560  Biso   1.000  O
  O60      1.0000 0.97085  0.83649  0.91802  Biso   1.000  O
  O61      1.0000 0.77791  0.62284  0.95478  Biso   1.000  O
  O62      1.0000 0.77625  0.62545  0.70498  Biso   1.000  O
  O63      1.0000 0.72603  0.87015  0.95376  Biso   1.000  O
  O64      1.0000 0.72516  0.87425  0.70495  Biso   1.000  O
  Fe1      1.0000 0.62692  0.27121  0.10393  Biso   1.000  Fe
