data_image0
_cell_length_a       5.02633
_cell_length_b       10.0969
_cell_length_c       10.0974
_cell_angle_alpha    89.9975
_cell_angle_beta     90
_cell_angle_gamma    89.9987

_symmetry_space_group_name_H-M    "P 1"
_symmetry_int_tables_number       1

loop_
  _symmetry_equiv_pos_as_xyz
  'x, y, z'

loop_
  _atom_site_label
  _atom_site_occupancy
  _atom_site_fract_x
  _atom_site_fract_y
  _atom_site_fract_z
  _atom_site_thermal_displace_type
  _atom_site_B_iso_or_equiv
  _atom_site_type_symbol
  Fe1      1.0000 0.25011  0.00013  0.12512  Biso   1.000  Fe
  Zr1      1.0000 0.25015  0.00013  0.62514  Biso   1.000  Zr
  Zr2      1.0000 0.25015  0.50013  0.12515  Biso   1.000  Zr
  Zr3      1.0000 0.25016  0.50013  0.62514  Biso   1.000  Zr
  Zr4      1.0000 0.26158  0.24886  0.37388  Biso   1.000  Zr
  Zr5      1.0000 0.23876  0.24886  0.87642  Biso   1.000  Zr
  Zr6      1.0000 0.23874  0.75141  0.37387  Biso   1.000  Zr
  Zr7      1.0000 0.26157  0.75139  0.87640  Biso   1.000  Zr
  Zr8      1.0000 0.75019  0.25056  0.12515  Biso   1.000  Zr
  Zr9      1.0000 0.75016  0.25100  0.62515  Biso   1.000  Zr
  Zr10     1.0000 0.75014  0.74970  0.12514  Biso   1.000  Zr
  Zr11     1.0000 0.75016  0.74925  0.62514  Biso   1.000  Zr
  Zr12     1.0000 0.75016  0.00013  0.37560  Biso   1.000  Zr
  Zr13     1.0000 0.75017  0.00012  0.87470  Biso   1.000  Zr
  Zr14     1.0000 0.75015  0.50014  0.37600  Biso   1.000  Zr
  Zr15     1.0000 0.75016  0.50013  0.87429  Biso   1.000  Zr
  Zr16     1.0000 0.93885  0.15061  0.97464  Biso   1.000  Zr
  Zr17     1.0000 0.98945  0.13673  0.47930  Biso   1.000  Zr
  Zr18     1.0000 0.98938  0.64595  0.98849  Biso   1.000  Zr
  Zr19     1.0000 0.99042  0.63649  0.48874  Biso   1.000  Zr
  Zr20     1.0000 0.05033  0.10058  0.22558  Biso   1.000  Zr
  Zr21     1.0000 0.00373  0.11539  0.73236  Biso   1.000  Zr
  Zr22     1.0000 0.00372  0.60738  0.24036  Biso   1.000  Zr
  Zr23     1.0000 0.00308  0.61426  0.73924  Biso   1.000  Zr
  Zr24     1.0000 0.98942  0.35430  0.26179  Biso   1.000  Zr
  Zr25     1.0000 0.99040  0.36377  0.76155  Biso   1.000  Zr
  Zr26     1.0000 0.93875  0.84962  0.27567  Biso   1.000  Zr
  Zr27     1.0000 0.98945  0.86353  0.77099  Biso   1.000  Zr
  Zr28     1.0000 0.00377  0.39288  0.00992  Biso   1.000  Zr
  Zr29     1.0000 0.00308  0.38599  0.51105  Biso   1.000  Zr
  Zr30     1.0000 0.05028  0.89966  0.02472  Biso   1.000  Zr
  Zr31     1.0000 0.00372  0.88487  0.51793  Biso   1.000  Zr
  Zr32     1.0000 0.56155  0.15066  0.27568  Biso   1.000  Zr
  Zr33     1.0000 0.51088  0.13673  0.77100  Biso   1.000  Zr
  Zr34     1.0000 0.51090  0.64597  0.26179  Biso   1.000  Zr
  Zr35     1.0000 0.50989  0.63648  0.76154  Biso   1.000  Zr
  Zr36     1.0000 0.45002  0.10059  0.02473  Biso   1.000  Zr
  Zr37     1.0000 0.49661  0.11539  0.51794  Biso   1.000  Zr
  Zr38     1.0000 0.49657  0.60737  0.00992  Biso   1.000  Zr
  Zr39     1.0000 0.49725  0.61426  0.51105  Biso   1.000  Zr
  Zr40     1.0000 0.51095  0.35429  0.98849  Biso   1.000  Zr
  Zr41     1.0000 0.50990  0.36377  0.48875  Biso   1.000  Zr
  Zr42     1.0000 0.56148  0.84963  0.97462  Biso   1.000  Zr
  Zr43     1.0000 0.51087  0.86353  0.47929  Biso   1.000  Zr
  Zr44     1.0000 0.49660  0.39290  0.24037  Biso   1.000  Zr
  Zr45     1.0000 0.49722  0.38599  0.73924  Biso   1.000  Zr
  Zr46     1.0000 0.44995  0.89969  0.22556  Biso   1.000  Zr
  Zr47     1.0000 0.49660  0.88486  0.73235  Biso   1.000  Zr
