data_image0
_cell_length_a       10.1077
_cell_length_b       10.2332
_cell_length_c       5.25014
_cell_angle_alpha    90.0626
_cell_angle_beta     90.7695
_cell_angle_gamma    89.5635

_symmetry_space_group_name_H-M    "P 1"
_symmetry_int_tables_number       1

loop_
  _symmetry_equiv_pos_as_xyz
  'x, y, z'

loop_
  _atom_site_label
  _atom_site_occupancy
  _atom_site_fract_x
  _atom_site_fract_y
  _atom_site_fract_z
  _atom_site_thermal_displace_type
  _atom_site_B_iso_or_equiv
  _atom_site_type_symbol
  Ga1      1.0000 0.12423  0.00923  0.36645  Biso   1.000  Ga
  Zr1      1.0000 0.14013  0.52295  0.34563  Biso   1.000  Zr
  Zr2      1.0000 0.14265  0.22556  0.83397  Biso   1.000  Zr
  Zr3      1.0000 0.13878  0.73313  0.84600  Biso   1.000  Zr
  Zr4      1.0000 0.35656  0.26854  0.33706  Biso   1.000  Zr
  Zr5      1.0000 0.35722  0.77739  0.34246  Biso   1.000  Zr
  Zr6      1.0000 0.36013  0.47893  0.84478  Biso   1.000  Zr
  Zr7      1.0000 0.35599  0.98295  0.83860  Biso   1.000  Zr
  Zr8      1.0000 0.63775  0.02120  0.15451  Biso   1.000  Zr
  Zr9      1.0000 0.63952  0.51950  0.15884  Biso   1.000  Zr
  Zr10     1.0000 0.63949  0.23014  0.65690  Biso   1.000  Zr
  Zr11     1.0000 0.63700  0.72823  0.65644  Biso   1.000  Zr
  Zr12     1.0000 0.86893  0.26547  0.16474  Biso   1.000  Zr
  Zr13     1.0000 0.85992  0.77048  0.16139  Biso   1.000  Zr
  Zr14     1.0000 0.86321  0.47754  0.66441  Biso   1.000  Zr
  Zr15     1.0000 0.85786  0.97848  0.66096  Biso   1.000  Zr
  O1       1.0000 0.04456  0.15102  0.16557  Biso   1.000  O
  O2       1.0000 0.03087  0.66263  0.16629  Biso   1.000  O
  O3       1.0000 0.02801  0.08606  0.66614  Biso   1.000  O
  O4       1.0000 0.03188  0.58834  0.66874  Biso   1.000  O
  O5       1.0000 0.46876  0.41343  0.16535  Biso   1.000  O
  O6       1.0000 0.46813  0.91361  0.15899  Biso   1.000  O
  O7       1.0000 0.46936  0.33729  0.66343  Biso   1.000  O
  O8       1.0000 0.46656  0.83820  0.66210  Biso   1.000  O
  O9       1.0000 0.26726  0.11676  0.55343  Biso   1.000  O
  O10      1.0000 0.27526  0.62554  0.59130  Biso   1.000  O
  O11      1.0000 0.29789  0.14592  0.04143  Biso   1.000  O
  O12      1.0000 0.27577  0.63181  0.09074  Biso   1.000  O
  O13      1.0000 0.22589  0.37341  0.59289  Biso   1.000  O
  O14      1.0000 0.21862  0.87410  0.59129  Biso   1.000  O
  O15      1.0000 0.22166  0.38231  0.09191  Biso   1.000  O
  O16      1.0000 0.21989  0.88924  0.09733  Biso   1.000  O
  O17      1.0000 0.53300  0.16548  0.33011  Biso   1.000  O
  O18      1.0000 0.52991  0.66392  0.33360  Biso   1.000  O
  O19      1.0000 0.53458  0.08334  0.82347  Biso   1.000  O
  O20      1.0000 0.53120  0.58616  0.83516  Biso   1.000  O
  O21      1.0000 0.97265  0.40836  0.34803  Biso   1.000  O
  O22      1.0000 0.96631  0.91070  0.34218  Biso   1.000  O
  O23      1.0000 0.97121  0.33549  0.84932  Biso   1.000  O
  O24      1.0000 0.96592  0.83692  0.84153  Biso   1.000  O
  O25      1.0000 0.77663  0.12337  0.91286  Biso   1.000  O
  O26      1.0000 0.77493  0.62263  0.91162  Biso   1.000  O
  O27      1.0000 0.77600  0.12493  0.40990  Biso   1.000  O
  O28      1.0000 0.77516  0.62452  0.41245  Biso   1.000  O
  O29      1.0000 0.72815  0.37236  0.91533  Biso   1.000  O
  O30      1.0000 0.72282  0.87273  0.91074  Biso   1.000  O
  O31      1.0000 0.72880  0.37437  0.41269  Biso   1.000  O
  O32      1.0000 0.72300  0.87534  0.41092  Biso   1.000  O
