data_image0
_cell_length_a       10.1802
_cell_length_b       10.2945
_cell_length_c       10.1756
_cell_angle_alpha    89.0571
_cell_angle_beta     87.246
_cell_angle_gamma    90.5838

_symmetry_space_group_name_H-M    "P 1"
_symmetry_int_tables_number       1

loop_
  _symmetry_equiv_pos_as_xyz
  'x, y, z'

loop_
  _atom_site_label
  _atom_site_occupancy
  _atom_site_fract_x
  _atom_site_fract_y
  _atom_site_fract_z
  _atom_site_thermal_displace_type
  _atom_site_B_iso_or_equiv
  _atom_site_type_symbol
  Zr1      1.0000 0.12431  0.99122  0.12431  Biso   1.000  Zr
  Zr2      1.0000 0.13296  0.26205  0.38901  Biso   1.000  Zr
  Zr3      1.0000 0.40256  0.26076  0.13330  Biso   1.000  Zr
  Zr4      1.0000 0.37973  0.98977  0.38560  Biso   1.000  Zr
  Zr5      1.0000 0.94413  0.17323  0.94045  Biso   1.000  Zr
  Zr6      1.0000 0.97174  0.09529  0.20952  Biso   1.000  Zr
  Zr7      1.0000 0.99625  0.35267  0.26500  Biso   1.000  Zr
  Zr8      1.0000 0.97350  0.43660  0.02872  Biso   1.000  Zr
  Zr9      1.0000 0.22300  0.16894  0.20394  Biso   1.000  Zr
  Zr10     1.0000 0.20709  0.06481  0.95097  Biso   1.000  Zr
  Zr11     1.0000 0.28851  0.29895  0.95951  Biso   1.000  Zr
  Zr12     1.0000 0.25589  0.40750  0.27581  Biso   1.000  Zr
  Zr13     1.0000 0.13835  0.98272  0.62239  Biso   1.000  Zr
  Zr14     1.0000 0.12736  0.22443  0.84202  Biso   1.000  Zr
  Zr15     1.0000 0.39086  0.26037  0.63311  Biso   1.000  Zr
  Zr16     1.0000 0.37868  0.99063  0.87671  Biso   1.000  Zr
  Zr17     1.0000 0.96687  0.16343  0.46533  Biso   1.000  Zr
  Zr18     1.0000 0.00345  0.10538  0.71668  Biso   1.000  Zr
  Zr19     1.0000 0.00170  0.35963  0.75354  Biso   1.000  Zr
  Zr20     1.0000 0.01069  0.40666  0.50890  Biso   1.000  Zr
  Zr21     1.0000 0.25313  0.13052  0.71030  Biso   1.000  Zr
  Zr22     1.0000 0.21779  0.08948  0.45748  Biso   1.000  Zr
  Zr23     1.0000 0.25820  0.34335  0.51098  Biso   1.000  Zr
  Zr24     1.0000 0.25219  0.39138  0.75045  Biso   1.000  Zr
  Zr25     1.0000 0.12161  0.52619  0.15726  Biso   1.000  Zr
  Zr26     1.0000 0.11952  0.76493  0.37887  Biso   1.000  Zr
  Zr27     1.0000 0.37878  0.74481  0.12960  Biso   1.000  Zr
  Zr28     1.0000 0.38291  0.49896  0.38846  Biso   1.000  Zr
  Zr29     1.0000 0.03088  0.67462  0.04454  Biso   1.000  Zr
  Zr30     1.0000 0.00654  0.61195  0.30220  Biso   1.000  Zr
  Zr31     1.0000 0.99792  0.85662  0.25074  Biso   1.000  Zr
  Zr32     1.0000 0.99129  0.90892  0.99619  Biso   1.000  Zr
  Zr33     1.0000 0.25572  0.65596  0.27424  Biso   1.000  Zr
  Zr34     1.0000 0.27704  0.57617  0.03314  Biso   1.000  Zr
  Zr35     1.0000 0.25098  0.83575  0.00839  Biso   1.000  Zr
  Zr36     1.0000 0.24866  0.90736  0.25358  Biso   1.000  Zr
  Zr37     1.0000 0.12486  0.50851  0.64353  Biso   1.000  Zr
  Zr38     1.0000 0.11880  0.75778  0.87830  Biso   1.000  Zr
  Zr39     1.0000 0.38143  0.73940  0.63692  Biso   1.000  Zr
  Zr40     1.0000 0.37154  0.48839  0.87924  Biso   1.000  Zr
  Zr41     1.0000 0.04125  0.66932  0.54540  Biso   1.000  Zr
  Zr42     1.0000 0.00718  0.60651  0.78591  Biso   1.000  Zr
  Zr43     1.0000 0.00325  0.85820  0.74969  Biso   1.000  Zr
  Zr44     1.0000 0.00001  0.90751  0.49522  Biso   1.000  Zr
  Zr45     1.0000 0.25511  0.64015  0.77782  Biso   1.000  Zr
  Zr46     1.0000 0.28332  0.59127  0.53475  Biso   1.000  Zr
  Zr47     1.0000 0.25840  0.84568  0.50620  Biso   1.000  Zr
  Zr48     1.0000 0.25636  0.88414  0.75084  Biso   1.000  Zr
  Zr49     1.0000 0.61847  0.00256  0.12507  Biso   1.000  Zr
  Zr50     1.0000 0.62831  0.24485  0.37631  Biso   1.000  Zr
  Zr51     1.0000 0.87990  0.25976  0.11792  Biso   1.000  Zr
  Zr52     1.0000 0.87622  0.00320  0.36855  Biso   1.000  Zr
  Zr53     1.0000 0.48533  0.14237  0.99786  Biso   1.000  Zr
  Zr54     1.0000 0.48197  0.10725  0.24654  Biso   1.000  Zr
  Zr55     1.0000 0.50825  0.36105  0.26150  Biso   1.000  Zr
  Zr56     1.0000 0.50207  0.40304  0.01342  Biso   1.000  Zr
  Zr57     1.0000 0.72856  0.15343  0.22528  Biso   1.000  Zr
  Zr58     1.0000 0.71946  0.08936  0.97277  Biso   1.000  Zr
  Zr59     1.0000 0.73983  0.34989  0.99758  Biso   1.000  Zr
  Zr60     1.0000 0.75277  0.39580  0.24688  Biso   1.000  Zr
  Zr61     1.0000 0.62674  0.99441  0.62718  Biso   1.000  Zr
  Zr62     1.0000 0.63111  0.24098  0.87039  Biso   1.000  Zr
  Zr63     1.0000 0.88561  0.25887  0.62539  Biso   1.000  Zr
  Zr64     1.0000 0.87319  0.00470  0.86532  Biso   1.000  Zr
  Zr65     1.0000 0.47953  0.14495  0.49373  Biso   1.000  Zr
  Zr66     1.0000 0.50168  0.10395  0.74886  Biso   1.000  Zr
  Zr67     1.0000 0.50492  0.35594  0.75978  Biso   1.000  Zr
  Zr68     1.0000 0.50998  0.39724  0.51002  Biso   1.000  Zr
  Zr69     1.0000 0.74832  0.14261  0.72851  Biso   1.000  Zr
  Zr70     1.0000 0.72198  0.08772  0.47278  Biso   1.000  Zr
  Zr71     1.0000 0.75296  0.34333  0.49757  Biso   1.000  Zr
  Zr72     1.0000 0.75331  0.38871  0.74827  Biso   1.000  Zr
  Zr73     1.0000 0.62860  0.50462  0.12997  Biso   1.000  Zr
  Zr74     1.0000 0.62621  0.75631  0.37114  Biso   1.000  Zr
  Zr75     1.0000 0.86795  0.76147  0.12355  Biso   1.000  Zr
  Zr76     1.0000 0.86959  0.48452  0.37533  Biso   1.000  Zr
  Zr77     1.0000 0.51778  0.64980  0.01439  Biso   1.000  Zr
  Zr78     1.0000 0.50583  0.60874  0.26067  Biso   1.000  Zr
  Zr79     1.0000 0.49774  0.85627  0.25696  Biso   1.000  Zr
  Zr80     1.0000 0.49424  0.89500  0.00617  Biso   1.000  Zr
  Zr81     1.0000 0.75654  0.64498  0.26144  Biso   1.000  Zr
  Zr82     1.0000 0.76570  0.60934  0.01082  Biso   1.000  Zr
  Zr83     1.0000 0.74794  0.85448  0.99732  Biso   1.000  Zr
  Zr84     1.0000 0.74639  0.90006  0.24453  Biso   1.000  Zr
  Zr85     1.0000 0.63119  0.50297  0.63206  Biso   1.000  Zr
  Zr86     1.0000 0.62832  0.75129  0.87858  Biso   1.000  Zr
  Zr87     1.0000 0.87491  0.75203  0.62564  Biso   1.000  Zr
  Zr88     1.0000 0.86587  0.49076  0.87828  Biso   1.000  Zr
  Zr89     1.0000 0.52845  0.64749  0.51463  Biso   1.000  Zr
  Zr90     1.0000 0.50243  0.60176  0.75935  Biso   1.000  Zr
  Zr91     1.0000 0.50393  0.85197  0.75789  Biso   1.000  Zr
  Zr92     1.0000 0.50180  0.89250  0.50700  Biso   1.000  Zr
  Zr93     1.0000 0.75233  0.64190  0.76032  Biso   1.000  Zr
  Zr94     1.0000 0.78459  0.59285  0.52272  Biso   1.000  Zr
  Zr95     1.0000 0.75667  0.84427  0.49552  Biso   1.000  Zr
  Zr96     1.0000 0.75263  0.89324  0.74232  Biso   1.000  Zr
  Ge1      1.0000 0.14429  0.29201  0.08575  Biso   1.000  Ge
