data_image0
_cell_length_a       5.02907
_cell_length_b       10.1023
_cell_length_c       10.1014
_cell_angle_alpha    89.9987
_cell_angle_beta     89.9984
_cell_angle_gamma    89.9986

_symmetry_space_group_name_H-M    "P 1"
_symmetry_int_tables_number       1

loop_
  _symmetry_equiv_pos_as_xyz
  'x, y, z'

loop_
  _atom_site_label
  _atom_site_occupancy
  _atom_site_fract_x
  _atom_site_fract_y
  _atom_site_fract_z
  _atom_site_thermal_displace_type
  _atom_site_B_iso_or_equiv
  _atom_site_type_symbol
  Ge1      1.0000 0.25132  0.99977  0.12465  Biso   1.000  Ge
  Zr1      1.0000 0.25131  0.99976  0.62465  Biso   1.000  Zr
  Zr2      1.0000 0.25133  0.49976  0.12465  Biso   1.000  Zr
  Zr3      1.0000 0.25132  0.49976  0.62466  Biso   1.000  Zr
  Zr4      1.0000 0.26099  0.24896  0.37385  Biso   1.000  Zr
  Zr5      1.0000 0.24167  0.24896  0.87547  Biso   1.000  Zr
  Zr6      1.0000 0.24167  0.75057  0.37385  Biso   1.000  Zr
  Zr7      1.0000 0.26099  0.75058  0.87546  Biso   1.000  Zr
  Zr8      1.0000 0.75133  0.25042  0.12466  Biso   1.000  Zr
  Zr9      1.0000 0.75133  0.25033  0.62466  Biso   1.000  Zr
  Zr10     1.0000 0.75133  0.74911  0.12466  Biso   1.000  Zr
  Zr11     1.0000 0.75131  0.74919  0.62465  Biso   1.000  Zr
  Zr12     1.0000 0.75132  0.99977  0.37529  Biso   1.000  Zr
  Zr13     1.0000 0.75133  0.99976  0.87402  Biso   1.000  Zr
  Zr14     1.0000 0.75133  0.49976  0.37524  Biso   1.000  Zr
  Zr15     1.0000 0.75132  0.49977  0.87407  Biso   1.000  Zr
  Zr16     1.0000 0.94359  0.14967  0.97479  Biso   1.000  Zr
  Zr17     1.0000 0.98872  0.13679  0.47974  Biso   1.000  Zr
  Zr18     1.0000 0.98882  0.64472  0.98772  Biso   1.000  Zr
  Zr19     1.0000 0.99003  0.63643  0.48807  Biso   1.000  Zr
  Zr20     1.0000 0.04763  0.10162  0.22658  Biso   1.000  Zr
  Zr21     1.0000 0.00646  0.11481  0.73260  Biso   1.000  Zr
  Zr22     1.0000 0.00641  0.60763  0.23978  Biso   1.000  Zr
  Zr23     1.0000 0.00576  0.61383  0.73881  Biso   1.000  Zr
  Zr24     1.0000 0.98880  0.35481  0.26159  Biso   1.000  Zr
  Zr25     1.0000 0.99004  0.36310  0.76123  Biso   1.000  Zr
  Zr26     1.0000 0.94358  0.84986  0.27452  Biso   1.000  Zr
  Zr27     1.0000 0.98873  0.86274  0.76956  Biso   1.000  Zr
  Zr28     1.0000 0.00641  0.39190  0.00953  Biso   1.000  Zr
  Zr29     1.0000 0.00576  0.38570  0.51050  Biso   1.000  Zr
  Zr30     1.0000 0.04764  0.89791  0.02273  Biso   1.000  Zr
  Zr31     1.0000 0.00643  0.88472  0.51671  Biso   1.000  Zr
  Zr32     1.0000 0.55904  0.14966  0.27452  Biso   1.000  Zr
  Zr33     1.0000 0.51394  0.13679  0.76957  Biso   1.000  Zr
  Zr34     1.0000 0.51384  0.64472  0.26159  Biso   1.000  Zr
  Zr35     1.0000 0.51259  0.63643  0.76122  Biso   1.000  Zr
  Zr36     1.0000 0.45500  0.10164  0.02273  Biso   1.000  Zr
  Zr37     1.0000 0.49620  0.11481  0.51672  Biso   1.000  Zr
  Zr38     1.0000 0.49625  0.60764  0.00952  Biso   1.000  Zr
  Zr39     1.0000 0.49685  0.61384  0.51050  Biso   1.000  Zr
  Zr40     1.0000 0.51383  0.35481  0.98772  Biso   1.000  Zr
  Zr41     1.0000 0.51259  0.36311  0.48809  Biso   1.000  Zr
  Zr42     1.0000 0.55905  0.84986  0.97479  Biso   1.000  Zr
  Zr43     1.0000 0.51390  0.86274  0.47974  Biso   1.000  Zr
  Zr44     1.0000 0.49624  0.39189  0.23979  Biso   1.000  Zr
  Zr45     1.0000 0.49687  0.38570  0.73882  Biso   1.000  Zr
  Zr46     1.0000 0.45500  0.89790  0.22657  Biso   1.000  Zr
  Zr47     1.0000 0.49622  0.88473  0.73260  Biso   1.000  Zr
