data_image0
_cell_length_a       10.1018
_cell_length_b       5.02907
_cell_length_c       10.1019
_cell_angle_alpha    89.9999
_cell_angle_beta     90.0002
_cell_angle_gamma    89.9999

_symmetry_space_group_name_H-M    "P 1"
_symmetry_int_tables_number       1

loop_
  _symmetry_equiv_pos_as_xyz
  'x, y, z'

loop_
  _atom_site_label
  _atom_site_occupancy
  _atom_site_fract_x
  _atom_site_fract_y
  _atom_site_fract_z
  _atom_site_thermal_displace_type
  _atom_site_B_iso_or_equiv
  _atom_site_type_symbol
  Ge1      1.0000 0.12521  0.00109  0.12521  Biso   1.000  Ge
  Zr1      1.0000 0.12520  0.00110  0.62521  Biso   1.000  Zr
  Zr2      1.0000 0.62520  0.00110  0.12520  Biso   1.000  Zr
  Zr3      1.0000 0.62520  0.00111  0.62521  Biso   1.000  Zr
  Zr4      1.0000 0.12521  0.50109  0.37585  Biso   1.000  Zr
  Zr5      1.0000 0.12520  0.50110  0.87456  Biso   1.000  Zr
  Zr6      1.0000 0.62521  0.50110  0.37579  Biso   1.000  Zr
  Zr7      1.0000 0.62520  0.50110  0.87463  Biso   1.000  Zr
  Zr8      1.0000 0.37585  0.50109  0.12521  Biso   1.000  Zr
  Zr9      1.0000 0.37579  0.50110  0.62521  Biso   1.000  Zr
  Zr10     1.0000 0.87456  0.50110  0.12521  Biso   1.000  Zr
  Zr11     1.0000 0.87462  0.50110  0.62520  Biso   1.000  Zr
  Zr12     1.0000 0.37440  0.01075  0.37441  Biso   1.000  Zr
  Zr13     1.0000 0.37440  0.99146  0.87602  Biso   1.000  Zr
  Zr14     1.0000 0.87602  0.99145  0.37440  Biso   1.000  Zr
  Zr15     1.0000 0.87601  0.01076  0.87601  Biso   1.000  Zr
  Zr16     1.0000 0.97532  0.30880  0.97532  Biso   1.000  Zr
  Zr17     1.0000 0.98824  0.26363  0.48026  Biso   1.000  Zr
  Zr18     1.0000 0.48026  0.26364  0.98823  Biso   1.000  Zr
  Zr19     1.0000 0.48860  0.26233  0.48859  Biso   1.000  Zr
  Zr20     1.0000 0.02331  0.20480  0.22709  Biso   1.000  Zr
  Zr21     1.0000 0.01012  0.24607  0.73309  Biso   1.000  Zr
  Zr22     1.0000 0.51730  0.24603  0.24029  Biso   1.000  Zr
  Zr23     1.0000 0.51108  0.24671  0.73932  Biso   1.000  Zr
  Zr24     1.0000 0.97532  0.69339  0.27510  Biso   1.000  Zr
  Zr25     1.0000 0.98823  0.73860  0.77015  Biso   1.000  Zr
  Zr26     1.0000 0.48027  0.73856  0.26219  Biso   1.000  Zr
  Zr27     1.0000 0.48859  0.73988  0.76182  Biso   1.000  Zr
  Zr28     1.0000 0.02332  0.79737  0.02333  Biso   1.000  Zr
  Zr29     1.0000 0.01012  0.75616  0.51732  Biso   1.000  Zr
  Zr30     1.0000 0.51731  0.75616  0.01013  Biso   1.000  Zr
  Zr31     1.0000 0.51109  0.75550  0.51110  Biso   1.000  Zr
  Zr32     1.0000 0.27508  0.30879  0.27509  Biso   1.000  Zr
  Zr33     1.0000 0.26217  0.26361  0.77015  Biso   1.000  Zr
  Zr34     1.0000 0.77014  0.26361  0.26219  Biso   1.000  Zr
  Zr35     1.0000 0.76181  0.26232  0.76182  Biso   1.000  Zr
  Zr36     1.0000 0.22709  0.20481  0.02332  Biso   1.000  Zr
  Zr37     1.0000 0.24030  0.24603  0.51731  Biso   1.000  Zr
  Zr38     1.0000 0.73309  0.24607  0.01013  Biso   1.000  Zr
  Zr39     1.0000 0.73933  0.24671  0.51110  Biso   1.000  Zr
  Zr40     1.0000 0.27509  0.69338  0.97532  Biso   1.000  Zr
  Zr41     1.0000 0.26218  0.73857  0.48026  Biso   1.000  Zr
  Zr42     1.0000 0.77014  0.73859  0.98822  Biso   1.000  Zr
  Zr43     1.0000 0.76181  0.73988  0.48858  Biso   1.000  Zr
  Zr44     1.0000 0.22709  0.79738  0.22709  Biso   1.000  Zr
  Zr45     1.0000 0.24028  0.75614  0.73309  Biso   1.000  Zr
  Zr46     1.0000 0.73310  0.75615  0.24027  Biso   1.000  Zr
  Zr47     1.0000 0.73932  0.75549  0.73931  Biso   1.000  Zr
