data_image0
_cell_length_a       10.0664
_cell_length_b       10.2236
_cell_length_c       10.0664
_cell_angle_alpha    90
_cell_angle_beta     90
_cell_angle_gamma    90

_symmetry_space_group_name_H-M    "P 1"
_symmetry_int_tables_number       1

loop_
  _symmetry_equiv_pos_as_xyz
  'x, y, z'

loop_
  _atom_site_label
  _atom_site_occupancy
  _atom_site_fract_x
  _atom_site_fract_y
  _atom_site_fract_z
  _atom_site_thermal_displace_type
  _atom_site_B_iso_or_equiv
  _atom_site_type_symbol
  Zr1      1.0000 0.12540  0.99906  0.12540  Biso   1.000  Zr
  Zr2      1.0000 0.12540  0.25008  0.37367  Biso   1.000  Zr
  Zr3      1.0000 0.37367  0.25008  0.12540  Biso   1.000  Zr
  Zr4      1.0000 0.37640  0.99936  0.37640  Biso   1.000  Zr
  Zr5      1.0000 0.99360  0.14374  0.99360  Biso   1.000  Zr
  Zr6      1.0000 0.00155  0.10329  0.24924  Biso   1.000  Zr
  Zr7      1.0000 0.99360  0.35641  0.25719  Biso   1.000  Zr
  Zr8      1.0000 0.00155  0.39686  0.00155  Biso   1.000  Zr
  Zr9      1.0000 0.25719  0.14374  0.25719  Biso   1.000  Zr
  Zr10     1.0000 0.24924  0.10329  0.00155  Biso   1.000  Zr
  Zr11     1.0000 0.25719  0.35641  0.99360  Biso   1.000  Zr
  Zr12     1.0000 0.24924  0.39686  0.24925  Biso   1.000  Zr
  Zr13     1.0000 0.12540  0.00042  0.62540  Biso   1.000  Zr
  Zr14     1.0000 0.12540  0.25008  0.87712  Biso   1.000  Zr
  Zr15     1.0000 0.37453  0.25008  0.62540  Biso   1.000  Zr
  Zr16     1.0000 0.37577  0.99964  0.87502  Biso   1.000  Zr
  Zr17     1.0000 0.99976  0.14686  0.49778  Biso   1.000  Zr
  Zr18     1.0000 0.99992  0.10343  0.74763  Biso   1.000  Zr
  Zr19     1.0000 0.99976  0.35329  0.75301  Biso   1.000  Zr
  Zr20     1.0000 0.99992  0.39672  0.50317  Biso   1.000  Zr
  Zr21     1.0000 0.25104  0.14686  0.75301  Biso   1.000  Zr
  Zr22     1.0000 0.25087  0.10343  0.50317  Biso   1.000  Zr
  Zr23     1.0000 0.25104  0.35329  0.49778  Biso   1.000  Zr
  Zr24     1.0000 0.25087  0.39672  0.74763  Biso   1.000  Zr
  Zr25     1.0000 0.12540  0.50109  0.12540  Biso   1.000  Zr
  Zr26     1.0000 0.12540  0.75008  0.37541  Biso   1.000  Zr
  Zr27     1.0000 0.37541  0.75008  0.12540  Biso   1.000  Zr
  Zr28     1.0000 0.37577  0.50051  0.37577  Biso   1.000  Zr
  Zr29     1.0000 0.99929  0.64636  0.99930  Biso   1.000  Zr
  Zr30     1.0000 0.00122  0.60395  0.24958  Biso   1.000  Zr
  Zr31     1.0000 0.99929  0.85379  0.25150  Biso   1.000  Zr
  Zr32     1.0000 0.00122  0.89620  0.00121  Biso   1.000  Zr
  Zr33     1.0000 0.25150  0.64636  0.25150  Biso   1.000  Zr
  Zr34     1.0000 0.24958  0.60395  0.00122  Biso   1.000  Zr
  Zr35     1.0000 0.25150  0.85379  0.99929  Biso   1.000  Zr
  Zr36     1.0000 0.24958  0.89620  0.24958  Biso   1.000  Zr
  Zr37     1.0000 0.12540  0.49973  0.62540  Biso   1.000  Zr
  Zr38     1.0000 0.12540  0.75008  0.87538  Biso   1.000  Zr
  Zr39     1.0000 0.37565  0.75008  0.62540  Biso   1.000  Zr
  Zr40     1.0000 0.37640  0.50080  0.87439  Biso   1.000  Zr
  Zr41     1.0000 0.99854  0.64665  0.49884  Biso   1.000  Zr
  Zr42     1.0000 0.00154  0.60368  0.74976  Biso   1.000  Zr
  Zr43     1.0000 0.99854  0.85350  0.75195  Biso   1.000  Zr
  Zr44     1.0000 0.00154  0.89647  0.50103  Biso   1.000  Zr
  Zr45     1.0000 0.25226  0.64665  0.75195  Biso   1.000  Zr
  Zr46     1.0000 0.24926  0.60368  0.50103  Biso   1.000  Zr
  Zr47     1.0000 0.25226  0.85350  0.49884  Biso   1.000  Zr
  Zr48     1.0000 0.24926  0.89647  0.74976  Biso   1.000  Zr
  Zr49     1.0000 0.62540  0.00042  0.12540  Biso   1.000  Zr
  Zr50     1.0000 0.62540  0.25008  0.37453  Biso   1.000  Zr
  Zr51     1.0000 0.87712  0.25008  0.12540  Biso   1.000  Zr
  Zr52     1.0000 0.87502  0.99964  0.37577  Biso   1.000  Zr
  Zr53     1.0000 0.49778  0.14686  0.99976  Biso   1.000  Zr
  Zr54     1.0000 0.50317  0.10343  0.25087  Biso   1.000  Zr
  Zr55     1.0000 0.49778  0.35329  0.25104  Biso   1.000  Zr
  Zr56     1.0000 0.50317  0.39672  0.99992  Biso   1.000  Zr
  Zr57     1.0000 0.75301  0.14686  0.25104  Biso   1.000  Zr
  Zr58     1.0000 0.74763  0.10343  0.99992  Biso   1.000  Zr
  Zr59     1.0000 0.75301  0.35329  0.99976  Biso   1.000  Zr
  Zr60     1.0000 0.74763  0.39672  0.25087  Biso   1.000  Zr
  Zr61     1.0000 0.62540  0.00133  0.62540  Biso   1.000  Zr
  Zr62     1.0000 0.62540  0.25008  0.87626  Biso   1.000  Zr
  Zr63     1.0000 0.87626  0.25008  0.62540  Biso   1.000  Zr
  Zr64     1.0000 0.87439  0.99936  0.87439  Biso   1.000  Zr
  Zr65     1.0000 0.49986  0.14621  0.49986  Biso   1.000  Zr
  Zr66     1.0000 0.50067  0.10405  0.75013  Biso   1.000  Zr
  Zr67     1.0000 0.49986  0.35394  0.75093  Biso   1.000  Zr
  Zr68     1.0000 0.50067  0.39610  0.50067  Biso   1.000  Zr
  Zr69     1.0000 0.75093  0.14621  0.75093  Biso   1.000  Zr
  Zr70     1.0000 0.75013  0.10405  0.50067  Biso   1.000  Zr
  Zr71     1.0000 0.75093  0.35394  0.49986  Biso   1.000  Zr
  Zr72     1.0000 0.75013  0.39610  0.75013  Biso   1.000  Zr
  Zr73     1.0000 0.62540  0.49973  0.12540  Biso   1.000  Zr
  Zr74     1.0000 0.62540  0.75008  0.37565  Biso   1.000  Zr
  Zr75     1.0000 0.87538  0.75008  0.12540  Biso   1.000  Zr
  Zr76     1.0000 0.87439  0.50080  0.37640  Biso   1.000  Zr
  Zr77     1.0000 0.49884  0.64665  0.99854  Biso   1.000  Zr
  Zr78     1.0000 0.50103  0.60368  0.24926  Biso   1.000  Zr
  Zr79     1.0000 0.49884  0.85350  0.25226  Biso   1.000  Zr
  Zr80     1.0000 0.50103  0.89647  0.00154  Biso   1.000  Zr
  Zr81     1.0000 0.75195  0.64665  0.25226  Biso   1.000  Zr
  Zr82     1.0000 0.74976  0.60368  0.00154  Biso   1.000  Zr
  Zr83     1.0000 0.75195  0.85350  0.99854  Biso   1.000  Zr
  Zr84     1.0000 0.74976  0.89647  0.24926  Biso   1.000  Zr
  Zr85     1.0000 0.62540  0.49882  0.62540  Biso   1.000  Zr
  Zr86     1.0000 0.62540  0.75008  0.87514  Biso   1.000  Zr
  Zr87     1.0000 0.87514  0.75008  0.62540  Biso   1.000  Zr
  Zr88     1.0000 0.87502  0.50051  0.87502  Biso   1.000  Zr
  Zr89     1.0000 0.49831  0.64585  0.49831  Biso   1.000  Zr
  Zr90     1.0000 0.50214  0.60469  0.74865  Biso   1.000  Zr
  Zr91     1.0000 0.49831  0.85430  0.75248  Biso   1.000  Zr
  Zr92     1.0000 0.50214  0.89546  0.50214  Biso   1.000  Zr
  Zr93     1.0000 0.75248  0.64585  0.75248  Biso   1.000  Zr
  Zr94     1.0000 0.74865  0.60469  0.50214  Biso   1.000  Zr
  Zr95     1.0000 0.75248  0.85430  0.49831  Biso   1.000  Zr
  Zr96     1.0000 0.74865  0.89546  0.74865  Biso   1.000  Zr
  H1       1.0000 0.12540  0.25008  0.12540  Biso   1.000  H 
