data_image0
_cell_length_a       10.1717
_cell_length_b       5.1238
_cell_length_c       10.5251
_cell_angle_alpha    89.7667
_cell_angle_beta     89.9675
_cell_angle_gamma    90.1585

_symmetry_space_group_name_H-M    "P 1"
_symmetry_int_tables_number       1

loop_
  _symmetry_equiv_pos_as_xyz
  'x, y, z'

loop_
  _atom_site_label
  _atom_site_occupancy
  _atom_site_fract_x
  _atom_site_fract_y
  _atom_site_fract_z
  _atom_site_thermal_displace_type
  _atom_site_B_iso_or_equiv
  _atom_site_type_symbol
  H1       1.0000 0.02305  0.12714  0.11704  Biso   1.000  H
  Zr1      1.0000 0.14643  0.45894  0.42092  Biso   1.000  Zr
  Zr2      1.0000 0.35546  0.53502  0.17283  Biso   1.000  Zr
  Zr3      1.0000 0.35907  0.95773  0.41976  Biso   1.000  Zr
  Zr4      1.0000 0.64068  0.04294  0.07895  Biso   1.000  Zr
  Zr5      1.0000 0.64032  0.45863  0.32775  Biso   1.000  Zr
  Zr6      1.0000 0.86293  0.55179  0.07986  Biso   1.000  Zr
  Zr7      1.0000 0.86529  0.95964  0.32633  Biso   1.000  Zr
  O1       1.0000 0.02838  0.31501  0.08428  Biso   1.000  O
  O2       1.0000 0.02458  0.18206  0.35685  Biso   1.000  O
  O3       1.0000 0.47610  0.81295  0.08123  Biso   1.000  O
  O4       1.0000 0.47587  0.68626  0.32902  Biso   1.000  O
  O5       1.0000 0.28393  0.25591  0.30729  Biso   1.000  O
  O6       1.0000 0.28788  0.25507  0.04024  Biso   1.000  O
  O7       1.0000 0.23549  0.73506  0.30253  Biso   1.000  O
  O8       1.0000 0.23723  0.72827  0.04014  Biso   1.000  O
  O9       1.0000 0.53202  0.31810  0.17088  Biso   1.000  O
  O10      1.0000 0.53199  0.17735  0.41971  Biso   1.000  O
  O11      1.0000 0.95951  0.85120  0.16267  Biso   1.000  O
  O12      1.0000 0.97139  0.67245  0.41670  Biso   1.000  O
  O13      1.0000 0.77381  0.24966  0.45513  Biso   1.000  O
  O14      1.0000 0.77721  0.25815  0.20488  Biso   1.000  O
  O15      1.0000 0.72853  0.74920  0.45371  Biso   1.000  O
  O16      1.0000 0.72235  0.75296  0.20403  Biso   1.000  O
  Zr8      1.0000 0.14310  0.03635  0.67401  Biso   1.000  Zr
  Zr9      1.0000 0.14595  0.44795  0.92786  Biso   1.000  Zr
  Zr10     1.0000 0.36325  0.53937  0.67396  Biso   1.000  Zr
  Zr11     1.0000 0.36030  0.95219  0.92763  Biso   1.000  Zr
  Zr12     1.0000 0.64000  0.03805  0.57759  Biso   1.000  Zr
  Zr13     1.0000 0.64121  0.45504  0.82857  Biso   1.000  Zr
  Zr14     1.0000 0.86146  0.53822  0.57691  Biso   1.000  Zr
  Zr15     1.0000 0.86344  0.95538  0.82859  Biso   1.000  Zr
  O17      1.0000 0.03252  0.32365  0.58556  Biso   1.000  O
  O18      1.0000 0.03257  0.17144  0.83112  Biso   1.000  O
  O19      1.0000 0.47200  0.81665  0.57981  Biso   1.000  O
  O20      1.0000 0.47372  0.67624  0.83028  Biso   1.000  O
  O21      1.0000 0.27636  0.24286  0.79710  Biso   1.000  O
  O22      1.0000 0.27694  0.24885  0.55051  Biso   1.000  O
  O23      1.0000 0.22755  0.74224  0.79616  Biso   1.000  O
  O24      1.0000 0.22695  0.74990  0.54900  Biso   1.000  O
  O25      1.0000 0.53286  0.31834  0.67003  Biso   1.000  O
  O26      1.0000 0.53377  0.17381  0.91979  Biso   1.000  O
  O27      1.0000 0.97161  0.81959  0.66807  Biso   1.000  O
  O28      1.0000 0.97388  0.67209  0.91992  Biso   1.000  O
  O29      1.0000 0.77743  0.24801  0.95398  Biso   1.000  O
  O30      1.0000 0.77675  0.24720  0.70424  Biso   1.000  O
  O31      1.0000 0.72844  0.74788  0.95331  Biso   1.000  O
  O32      1.0000 0.72847  0.74723  0.70331  Biso   1.000  O
