data_image0
_cell_length_a       10.0329
_cell_length_b       5.2242
_cell_length_c       10.1065
_cell_angle_alpha    90.0119
_cell_angle_beta     89.4512
_cell_angle_gamma    90.347

_symmetry_space_group_name_H-M    "P 1"
_symmetry_int_tables_number       1

loop_
  _symmetry_equiv_pos_as_xyz
  'x, y, z'

loop_
  _atom_site_label
  _atom_site_occupancy
  _atom_site_fract_x
  _atom_site_fract_y
  _atom_site_fract_z
  _atom_site_thermal_displace_type
  _atom_site_B_iso_or_equiv
  _atom_site_type_symbol
  Zr1      1.0000 0.13810  0.02638  0.12144  Biso   1.000  Zr
  Zr2      1.0000 0.14171  0.46459  0.38740  Biso   1.000  Zr
  Zr3      1.0000 0.36946  0.52820  0.12410  Biso   1.000  Zr
  Zr4      1.0000 0.36985  0.96508  0.37197  Biso   1.000  Zr
  Zr5      1.0000 0.03815  0.38874  0.18612  Biso   1.000  Zr
  Zr6      1.0000 0.03873  0.13142  0.44168  Biso   1.000  Zr
  Zr7      1.0000 0.45970  0.86995  0.19064  Biso   1.000  Zr
  Zr8      1.0000 0.46834  0.63317  0.44643  Biso   1.000  Zr
  Zr9      1.0000 0.26555  0.23279  0.25095  Biso   1.000  Zr
  Zr10     1.0000 0.27532  0.25968  0.50216  Biso   1.000  Zr
  Zr11     1.0000 0.23441  0.76233  0.49927  Biso   1.000  Zr
  Zr12     1.0000 0.22101  0.72414  0.24496  Biso   1.000  Zr
  Zr13     1.0000 0.13713  0.02657  0.62594  Biso   1.000  Zr
  Zr14     1.0000 0.13295  0.46447  0.87244  Biso   1.000  Zr
  Zr15     1.0000 0.37047  0.53052  0.62699  Biso   1.000  Zr
  Zr16     1.0000 0.36702  0.96583  0.87510  Biso   1.000  Zr
  Zr17     1.0000 0.03862  0.36475  0.69038  Biso   1.000  Zr
  Zr18     1.0000 0.03550  0.13072  0.94268  Biso   1.000  Zr
  Zr19     1.0000 0.46739  0.86394  0.69646  Biso   1.000  Zr
  Zr20     1.0000 0.46412  0.63124  0.94321  Biso   1.000  Zr
  Zr21     1.0000 0.27047  0.23051  0.75002  Biso   1.000  Zr
  Zr22     1.0000 0.26808  0.26451  0.99936  Biso   1.000  Zr
  Zr23     1.0000 0.22814  0.75956  0.99768  Biso   1.000  Zr
  Zr24     1.0000 0.23114  0.73223  0.74792  Biso   1.000  Zr
  Zr25     1.0000 0.63385  0.03894  0.12598  Biso   1.000  Zr
  Zr26     1.0000 0.63687  0.46606  0.37780  Biso   1.000  Zr
  Zr27     1.0000 0.85149  0.54512  0.12036  Biso   1.000  Zr
  Zr28     1.0000 0.86858  0.96611  0.37347  Biso   1.000  Zr
  Zr29     1.0000 0.53674  0.36923  0.19742  Biso   1.000  Zr
  Zr30     1.0000 0.53761  0.12850  0.44411  Biso   1.000  Zr
  Zr31     1.0000 0.96258  0.87489  0.19013  Biso   1.000  Zr
  Zr32     1.0000 0.96890  0.63383  0.44351  Biso   1.000  Zr
  Zr33     1.0000 0.77558  0.24639  0.24832  Biso   1.000  Zr
  Zr34     1.0000 0.77230  0.26118  0.49835  Biso   1.000  Zr
  Zr35     1.0000 0.73440  0.76092  0.49889  Biso   1.000  Zr
  Zr36     1.0000 0.72344  0.74626  0.24945  Biso   1.000  Zr
  Zr37     1.0000 0.63690  0.02636  0.62405  Biso   1.000  Zr
  Zr38     1.0000 0.63239  0.46491  0.87199  Biso   1.000  Zr
  Zr39     1.0000 0.86835  0.52886  0.62385  Biso   1.000  Zr
  Zr40     1.0000 0.86704  0.96696  0.87314  Biso   1.000  Zr
  Zr41     1.0000 0.53803  0.36185  0.69312  Biso   1.000  Zr
  Zr42     1.0000 0.53264  0.13514  0.94731  Biso   1.000  Zr
  Zr43     1.0000 0.96657  0.86407  0.69393  Biso   1.000  Zr
  Zr44     1.0000 0.96337  0.63167  0.94369  Biso   1.000  Zr
  Zr45     1.0000 0.77162  0.23058  0.74768  Biso   1.000  Zr
  Zr46     1.0000 0.76736  0.26551  0.99732  Biso   1.000  Zr
  Zr47     1.0000 0.72610  0.76655  0.99726  Biso   1.000  Zr
  Zr48     1.0000 0.73253  0.73029  0.74771  Biso   1.000  Zr
  H1       1.0000 0.09734  0.53673  0.16362  Biso   1.000  H 
