data_image0
_cell_length_a       10.1127
_cell_length_b       5.04432
_cell_length_c       10.1127
_cell_angle_alpha    89.6566
_cell_angle_beta     90.1219
_cell_angle_gamma    89.6542

_symmetry_space_group_name_H-M    "P 1"
_symmetry_int_tables_number       1

loop_
  _symmetry_equiv_pos_as_xyz
  'x, y, z'

loop_
  _atom_site_label
  _atom_site_occupancy
  _atom_site_fract_x
  _atom_site_fract_y
  _atom_site_fract_z
  _atom_site_thermal_displace_type
  _atom_site_B_iso_or_equiv
  _atom_site_type_symbol
  H1       1.0000 0.18439  0.92252  0.18451  Biso   1.000  H 
  Zr1      1.0000 0.12310  0.50232  0.37158  Biso   1.000  Zr
  Zr2      1.0000 0.37146  0.50230  0.12328  Biso   1.000  Zr
  Zr3      1.0000 0.37353  0.01308  0.37364  Biso   1.000  Zr
  Zr4      1.0000 0.99174  0.27541  0.99190  Biso   1.000  Zr
  Zr5      1.0000 0.99774  0.23140  0.25346  Biso   1.000  Zr
  Zr6      1.0000 0.98697  0.71331  0.25889  Biso   1.000  Zr
  Zr7      1.0000 0.99543  0.75493  0.99557  Biso   1.000  Zr
  Zr8      1.0000 0.26638  0.31655  0.26653  Biso   1.000  Zr
  Zr9      1.0000 0.25330  0.23135  0.99789  Biso   1.000  Zr
  Zr10     1.0000 0.25876  0.71324  0.98711  Biso   1.000  Zr
  Zr11     1.0000 0.24028  0.80743  0.24041  Biso   1.000  Zr
  Zr12     1.0000 0.12290  0.00044  0.62368  Biso   1.000  Zr
  Zr13     1.0000 0.12460  0.49392  0.88090  Biso   1.000  Zr
  Zr14     1.0000 0.37176  0.50434  0.62389  Biso   1.000  Zr
  Zr15     1.0000 0.37056  0.00322  0.87569  Biso   1.000  Zr
  Zr16     1.0000 0.99771  0.28781  0.49853  Biso   1.000  Zr
  Zr17     1.0000 0.99898  0.21109  0.74762  Biso   1.000  Zr
  Zr18     1.0000 0.99987  0.71150  0.74969  Biso   1.000  Zr
  Zr19     1.0000 0.99967  0.78795  0.50251  Biso   1.000  Zr
  Zr20     1.0000 0.24987  0.28814  0.75059  Biso   1.000  Zr
  Zr21     1.0000 0.24780  0.21699  0.50529  Biso   1.000  Zr
  Zr22     1.0000 0.25321  0.71853  0.49080  Biso   1.000  Zr
  Zr23     1.0000 0.25119  0.78869  0.74254  Biso   1.000  Zr
  Zr24     1.0000 0.62355  0.00044  0.12307  Biso   1.000  Zr
  Zr25     1.0000 0.62382  0.50441  0.37194  Biso   1.000  Zr
  Zr26     1.0000 0.88074  0.49394  0.12478  Biso   1.000  Zr
  Zr27     1.0000 0.87550  0.00327  0.37072  Biso   1.000  Zr
  Zr28     1.0000 0.49837  0.28782  0.99783  Biso   1.000  Zr
  Zr29     1.0000 0.50514  0.21703  0.24792  Biso   1.000  Zr
  Zr30     1.0000 0.49067  0.71855  0.25336  Biso   1.000  Zr
  Zr31     1.0000 0.50238  0.78798  0.99982  Biso   1.000  Zr
  Zr32     1.0000 0.75044  0.28805  0.25001  Biso   1.000  Zr
  Zr33     1.0000 0.74747  0.21109  0.99911  Biso   1.000  Zr
  Zr34     1.0000 0.74956  0.71151  0.00002  Biso   1.000  Zr
  Zr35     1.0000 0.74242  0.78860  0.25133  Biso   1.000  Zr
  Zr36     1.0000 0.62559  0.00023  0.62559  Biso   1.000  Zr
  Zr37     1.0000 0.62567  0.49916  0.87574  Biso   1.000  Zr
  Zr38     1.0000 0.87555  0.49922  0.62575  Biso   1.000  Zr
  Zr39     1.0000 0.87732  0.99280  0.87745  Biso   1.000  Zr
  Zr40     1.0000 0.49554  0.29644  0.49566  Biso   1.000  Zr
  Zr41     1.0000 0.49938  0.20933  0.74728  Biso   1.000  Zr
  Zr42     1.0000 0.49940  0.70755  0.75017  Biso   1.000  Zr
  Zr43     1.0000 0.50098  0.79729  0.50114  Biso   1.000  Zr
  Zr44     1.0000 0.74966  0.28828  0.74979  Biso   1.000  Zr
  Zr45     1.0000 0.74716  0.20976  0.49951  Biso   1.000  Zr
  Zr46     1.0000 0.75003  0.70797  0.49954  Biso   1.000  Zr
  Zr47     1.0000 0.74960  0.78694  0.74975  Biso   1.000  Zr
