data_image0
_cell_length_a       10.3185
_cell_length_b       5.2049
_cell_length_c       10.666
_cell_angle_alpha    90.2771
_cell_angle_beta     79.2559
_cell_angle_gamma    89.8003

_symmetry_space_group_name_H-M    "P 1"
_symmetry_int_tables_number       1

loop_
  _symmetry_equiv_pos_as_xyz
  'x, y, z'

loop_
  _atom_site_label
  _atom_site_occupancy
  _atom_site_fract_x
  _atom_site_fract_y
  _atom_site_fract_z
  _atom_site_thermal_displace_type
  _atom_site_B_iso_or_equiv
  _atom_site_type_symbol
  Zr1      1.0000 0.12867  0.04562  0.14233  Biso   1.000  Zr
  Zr2      1.0000 0.13562  0.45233  0.39145  Biso   1.000  Zr
  Zr3      1.0000 0.35042  0.55748  0.09583  Biso   1.000  Zr
  Zr4      1.0000 0.36146  0.92121  0.35590  Biso   1.000  Zr
  O1       1.0000 0.02642  0.33024  0.07040  Biso   1.000  O
  O2       1.0000 0.02193  0.17584  0.32582  Biso   1.000  O
  O3       1.0000 0.45822  0.87440  0.16517  Biso   1.000  O
  O4       1.0000 0.48719  0.72555  0.46015  Biso   1.000  O
  O5       1.0000 0.25128  0.25628  0.22912  Biso   1.000  O
  O6       1.0000 0.26984  0.21479  0.48633  Biso   1.000  O
  O7       1.0000 0.21858  0.77022  0.00498  Biso   1.000  O
  O8       1.0000 0.21013  0.75516  0.25631  Biso   1.000  O
  Zr5      1.0000 0.13907  0.04041  0.64301  Biso   1.000  Zr
  Zr6      1.0000 0.13309  0.45970  0.89224  Biso   1.000  Zr
  Zr7      1.0000 0.36448  0.55062  0.61306  Biso   1.000  Zr
  Zr8      1.0000 0.35834  0.96561  0.85642  Biso   1.000  Zr
  O9       1.0000 0.03267  0.32277  0.57428  Biso   1.000  O
  O10      1.0000 0.02997  0.17852  0.82145  Biso   1.000  O
  O11      1.0000 0.47114  0.81551  0.69071  Biso   1.000  O
  O12      1.0000 0.46549  0.68559  0.92719  Biso   1.000  O
  O13      1.0000 0.27250  0.25543  0.73741  Biso   1.000  O
  O14      1.0000 0.27028  0.26034  0.98461  Biso   1.000  O
  O15      1.0000 0.22807  0.73071  0.51159  Biso   1.000  O
  O16      1.0000 0.22533  0.74797  0.76006  Biso   1.000  O
  Zr9      1.0000 0.63892  0.04247  0.14483  Biso   1.000  Zr
  Zr10     1.0000 0.65379  0.46291  0.41002  Biso   1.000  Zr
  Zr11     1.0000 0.85671  0.54332  0.10608  Biso   1.000  Zr
  Zr12     1.0000 0.86054  0.95405  0.35519  Biso   1.000  Zr
  O17      1.0000 0.53146  0.33694  0.07262  Biso   1.000  O
  O18      1.0000 0.55358  0.11916  0.33989  Biso   1.000  O
  O19      1.0000 0.96009  0.82669  0.17503  Biso   1.000  O
  O20      1.0000 0.96618  0.66972  0.42557  Biso   1.000  O
  O21      1.0000 0.77529  0.26066  0.24187  Biso   1.000  O
  O22      1.0000 0.77769  0.23845  0.49586  Biso   1.000  O
  O23      1.0000 0.72300  0.75969  0.01353  Biso   1.000  O
  O24      1.0000 0.72275  0.73920  0.26375  Biso   1.000  O
  Zr13     1.0000 0.63692  0.04270  0.65069  Biso   1.000  Zr
  Zr14     1.0000 0.63554  0.46149  0.89736  Biso   1.000  Zr
  Zr15     1.0000 0.86621  0.54245  0.60947  Biso   1.000  Zr
  Zr16     1.0000 0.86048  0.96038  0.85592  Biso   1.000  Zr
  O25      1.0000 0.53177  0.31868  0.57747  Biso   1.000  O
  O26      1.0000 0.52859  0.18556  0.82578  Biso   1.000  O
  O27      1.0000 0.96940  0.82569  0.67572  Biso   1.000  O
  O28      1.0000 0.96433  0.67925  0.92446  Biso   1.000  O
  O29      1.0000 0.77212  0.25816  0.74202  Biso   1.000  O
  O30      1.0000 0.77228  0.24665  0.99037  Biso   1.000  O
  O31      1.0000 0.73067  0.75184  0.51734  Biso   1.000  O
  O32      1.0000 0.72688  0.74780  0.76475  Biso   1.000  O
  Hg1      1.0000 0.43595  0.43396  0.30359  Biso   1.000  Hg
