data_image0
_cell_length_a       10.1429
_cell_length_b       10.3265
_cell_length_c       10.1429
_cell_angle_alpha    90.0003
_cell_angle_beta     90
_cell_angle_gamma    90.0003

_symmetry_space_group_name_H-M    "P 1"
_symmetry_int_tables_number       1

loop_
  _symmetry_equiv_pos_as_xyz
  'x, y, z'

loop_
  _atom_site_label
  _atom_site_occupancy
  _atom_site_fract_x
  _atom_site_fract_y
  _atom_site_fract_z
  _atom_site_thermal_displace_type
  _atom_site_B_iso_or_equiv
  _atom_site_type_symbol
  Zr1      1.0000 0.12540  0.97709  0.12540  Biso   1.000  Zr
  Zr2      1.0000 0.12539  0.25007  0.39158  Biso   1.000  Zr
  Zr3      1.0000 0.39158  0.25007  0.12539  Biso   1.000  Zr
  Zr4      1.0000 0.37742  0.00559  0.37743  Biso   1.000  Zr
  Zr5      1.0000 0.96749  0.16223  0.96749  Biso   1.000  Zr
  Zr6      1.0000 0.00154  0.08254  0.24926  Biso   1.000  Zr
  Zr7      1.0000 0.96749  0.33792  0.28330  Biso   1.000  Zr
  Zr8      1.0000 0.00154  0.41762  0.00154  Biso   1.000  Zr
  Zr9      1.0000 0.28329  0.16222  0.28329  Biso   1.000  Zr
  Zr10     1.0000 0.24926  0.08254  0.00155  Biso   1.000  Zr
  Zr11     1.0000 0.28330  0.33793  0.96749  Biso   1.000  Zr
  Zr12     1.0000 0.24925  0.41761  0.24925  Biso   1.000  Zr
  Zr13     1.0000 0.12540  0.99521  0.62540  Biso   1.000  Zr
  Zr14     1.0000 0.12539  0.25008  0.85920  Biso   1.000  Zr
  Zr15     1.0000 0.37579  0.25008  0.62540  Biso   1.000  Zr
  Zr16     1.0000 0.37698  0.99894  0.87382  Biso   1.000  Zr
  Zr17     1.0000 0.99665  0.14445  0.49899  Biso   1.000  Zr
  Zr18     1.0000 0.00204  0.10296  0.74089  Biso   1.000  Zr
  Zr19     1.0000 0.99665  0.35570  0.75180  Biso   1.000  Zr
  Zr20     1.0000 0.00204  0.39719  0.50990  Biso   1.000  Zr
  Zr21     1.0000 0.25414  0.14445  0.75180  Biso   1.000  Zr
  Zr22     1.0000 0.24876  0.10296  0.50990  Biso   1.000  Zr
  Zr23     1.0000 0.25414  0.35570  0.49899  Biso   1.000  Zr
  Zr24     1.0000 0.24875  0.39719  0.74089  Biso   1.000  Zr
  Zr25     1.0000 0.12540  0.52306  0.12540  Biso   1.000  Zr
  Zr26     1.0000 0.12540  0.75007  0.38112  Biso   1.000  Zr
  Zr27     1.0000 0.38112  0.75007  0.12540  Biso   1.000  Zr
  Zr28     1.0000 0.37697  0.50121  0.37697  Biso   1.000  Zr
  Zr29     1.0000 0.00495  0.65964  0.00495  Biso   1.000  Zr
  Zr30     1.0000 0.99630  0.59771  0.25450  Biso   1.000  Zr
  Zr31     1.0000 0.00495  0.84051  0.24585  Biso   1.000  Zr
  Zr32     1.0000 0.99630  0.90244  0.99630  Biso   1.000  Zr
  Zr33     1.0000 0.24585  0.65964  0.24585  Biso   1.000  Zr
  Zr34     1.0000 0.25450  0.59772  0.99630  Biso   1.000  Zr
  Zr35     1.0000 0.24585  0.84051  0.00495  Biso   1.000  Zr
  Zr36     1.0000 0.25450  0.90243  0.25450  Biso   1.000  Zr
  Zr37     1.0000 0.12539  0.50494  0.62540  Biso   1.000  Zr
  Zr38     1.0000 0.12540  0.75008  0.86967  Biso   1.000  Zr
  Zr39     1.0000 0.37714  0.75007  0.62540  Biso   1.000  Zr
  Zr40     1.0000 0.37742  0.49456  0.87337  Biso   1.000  Zr
  Zr41     1.0000 0.99815  0.64662  0.50264  Biso   1.000  Zr
  Zr42     1.0000 0.00304  0.60486  0.75363  Biso   1.000  Zr
  Zr43     1.0000 0.99815  0.85353  0.74815  Biso   1.000  Zr
  Zr44     1.0000 0.00304  0.89529  0.49716  Biso   1.000  Zr
  Zr45     1.0000 0.25264  0.64662  0.74815  Biso   1.000  Zr
  Zr46     1.0000 0.24775  0.60486  0.49716  Biso   1.000  Zr
  Zr47     1.0000 0.25265  0.85353  0.50265  Biso   1.000  Zr
  Zr48     1.0000 0.24775  0.89529  0.75364  Biso   1.000  Zr
  Zr49     1.0000 0.62540  0.99521  0.12540  Biso   1.000  Zr
  Zr50     1.0000 0.62539  0.25007  0.37579  Biso   1.000  Zr
  Zr51     1.0000 0.85920  0.25008  0.12539  Biso   1.000  Zr
  Zr52     1.0000 0.87382  0.99894  0.37698  Biso   1.000  Zr
  Zr53     1.0000 0.49899  0.14445  0.99665  Biso   1.000  Zr
  Zr54     1.0000 0.50989  0.10296  0.24875  Biso   1.000  Zr
  Zr55     1.0000 0.49899  0.35569  0.25414  Biso   1.000  Zr
  Zr56     1.0000 0.50989  0.39719  0.00204  Biso   1.000  Zr
  Zr57     1.0000 0.75180  0.14445  0.25414  Biso   1.000  Zr
  Zr58     1.0000 0.74090  0.10296  0.00204  Biso   1.000  Zr
  Zr59     1.0000 0.75179  0.35570  0.99665  Biso   1.000  Zr
  Zr60     1.0000 0.74089  0.39719  0.24875  Biso   1.000  Zr
  Zr61     1.0000 0.62540  0.00047  0.62540  Biso   1.000  Zr
  Zr62     1.0000 0.62539  0.25007  0.87500  Biso   1.000  Zr
  Zr63     1.0000 0.87500  0.25008  0.62539  Biso   1.000  Zr
  Zr64     1.0000 0.87337  0.00559  0.87337  Biso   1.000  Zr
  Zr65     1.0000 0.49953  0.14888  0.49953  Biso   1.000  Zr
  Zr66     1.0000 0.50150  0.10223  0.74929  Biso   1.000  Zr
  Zr67     1.0000 0.49953  0.35127  0.75126  Biso   1.000  Zr
  Zr68     1.0000 0.50150  0.39792  0.50150  Biso   1.000  Zr
  Zr69     1.0000 0.75126  0.14888  0.75126  Biso   1.000  Zr
  Zr70     1.0000 0.74929  0.10223  0.50150  Biso   1.000  Zr
  Zr71     1.0000 0.75126  0.35127  0.49953  Biso   1.000  Zr
  Zr72     1.0000 0.74929  0.39792  0.74929  Biso   1.000  Zr
  Zr73     1.0000 0.62540  0.50494  0.12539  Biso   1.000  Zr
  Zr74     1.0000 0.62540  0.75008  0.37714  Biso   1.000  Zr
  Zr75     1.0000 0.86967  0.75008  0.12540  Biso   1.000  Zr
  Zr76     1.0000 0.87337  0.49456  0.37742  Biso   1.000  Zr
  Zr77     1.0000 0.50264  0.64662  0.99815  Biso   1.000  Zr
  Zr78     1.0000 0.49716  0.60485  0.24775  Biso   1.000  Zr
  Zr79     1.0000 0.50265  0.85353  0.25265  Biso   1.000  Zr
  Zr80     1.0000 0.49716  0.89529  0.00304  Biso   1.000  Zr
  Zr81     1.0000 0.74815  0.64662  0.25265  Biso   1.000  Zr
  Zr82     1.0000 0.75363  0.60486  0.00304  Biso   1.000  Zr
  Zr83     1.0000 0.74815  0.85354  0.99815  Biso   1.000  Zr
  Zr84     1.0000 0.75364  0.89530  0.24775  Biso   1.000  Zr
  Zr85     1.0000 0.62540  0.49969  0.62539  Biso   1.000  Zr
  Zr86     1.0000 0.62540  0.75008  0.87366  Biso   1.000  Zr
  Zr87     1.0000 0.87366  0.75008  0.62540  Biso   1.000  Zr
  Zr88     1.0000 0.87382  0.50122  0.87382  Biso   1.000  Zr
  Zr89     1.0000 0.49752  0.64821  0.49752  Biso   1.000  Zr
  Zr90     1.0000 0.50342  0.60242  0.74737  Biso   1.000  Zr
  Zr91     1.0000 0.49752  0.85194  0.75327  Biso   1.000  Zr
  Zr92     1.0000 0.50342  0.89773  0.50342  Biso   1.000  Zr
  Zr93     1.0000 0.75327  0.64821  0.75327  Biso   1.000  Zr
  Zr94     1.0000 0.74737  0.60242  0.50342  Biso   1.000  Zr
  Zr95     1.0000 0.75327  0.85194  0.49752  Biso   1.000  Zr
  Zr96     1.0000 0.74737  0.89773  0.74737  Biso   1.000  Zr
  Hg1      1.0000 0.12539  0.25008  0.12539  Biso   1.000  Hg
