data_image0
_cell_length_a       5.11196
_cell_length_b       10.5383
_cell_length_c       10.3347
_cell_angle_alpha    89.4371
_cell_angle_beta     90.4553
_cell_angle_gamma    96.2597

_symmetry_space_group_name_H-M    "P 1"
_symmetry_int_tables_number       1

loop_
  _symmetry_equiv_pos_as_xyz
  'x, y, z'

loop_
  _atom_site_label
  _atom_site_occupancy
  _atom_site_fract_x
  _atom_site_fract_y
  _atom_site_fract_z
  _atom_site_thermal_displace_type
  _atom_site_B_iso_or_equiv
  _atom_site_type_symbol
  Zr1      1.0000 0.30135  0.97418  0.15820  Biso   1.000  Zr
  Zr2      1.0000 0.22095  0.22682  0.35726  Biso   1.000  Zr
  Zr3      1.0000 0.64239  0.28127  0.11844  Biso   1.000  Zr
  Zr4      1.0000 0.72596  0.01239  0.40596  Biso   1.000  Zr
  Zr5      1.0000 0.88358  0.22260  0.92050  Biso   1.000  Zr
  Zr6      1.0000 0.06675  0.04078  0.30379  Biso   1.000  Zr
  Zr7      1.0000 0.89070  0.32868  0.28629  Biso   1.000  Zr
  Zr8      1.0000 0.89823  0.43750  0.04738  Biso   1.000  Zr
  Zr9      1.0000 0.54301  0.13010  0.25703  Biso   1.000  Zr
  Zr10     1.0000 0.47327  0.11194  0.00621  Biso   1.000  Zr
  Zr11     1.0000 0.41638  0.37857  0.97891  Biso   1.000  Zr
  Zr12     1.0000 0.43293  0.39330  0.23582  Biso   1.000  Zr
  Zr13     1.0000 0.28273  0.98093  0.64792  Biso   1.000  Zr
  Zr14     1.0000 0.26445  0.24500  0.83058  Biso   1.000  Zr
  Zr15     1.0000 0.70556  0.27016  0.59662  Biso   1.000  Zr
  Zr16     1.0000 0.73440  0.02435  0.89106  Biso   1.000  Zr
  Zr17     1.0000 0.94098  0.17302  0.49004  Biso   1.000  Zr
  Zr18     1.0000 0.06369  0.06508  0.77801  Biso   1.000  Zr
  Zr19     1.0000 0.06453  0.32048  0.69701  Biso   1.000  Zr
  Zr20     1.0000 0.92368  0.43521  0.51734  Biso   1.000  Zr
  Zr21     1.0000 0.53800  0.13979  0.74118  Biso   1.000  Zr
  Zr22     1.0000 0.44565  0.11103  0.50371  Biso   1.000  Zr
  Zr23     1.0000 0.43537  0.35935  0.48386  Biso   1.000  Zr
  Zr24     1.0000 0.54428  0.39509  0.73772  Biso   1.000  Zr
  Zr25     1.0000 0.24626  0.52298  0.11480  Biso   1.000  Zr
  Zr26     1.0000 0.31266  0.72747  0.36754  Biso   1.000  Zr
  Zr27     1.0000 0.77011  0.77100  0.10985  Biso   1.000  Zr
  Zr28     1.0000 0.73039  0.48858  0.35878  Biso   1.000  Zr
  Zr29     1.0000 0.03368  0.67360  0.00617  Biso   1.000  Zr
  Zr30     1.0000 0.07108  0.57377  0.27923  Biso   1.000  Zr
  Zr31     1.0000 0.08600  0.81038  0.23328  Biso   1.000  Zr
  Zr32     1.0000 0.96845  0.94563  0.03158  Biso   1.000  Zr
  Zr33     1.0000 0.55878  0.63834  0.23872  Biso   1.000  Zr
  Zr34     1.0000 0.52445  0.62336  0.99458  Biso   1.000  Zr
  Zr35     1.0000 0.48407  0.86383  0.00619  Biso   1.000  Zr
  Zr36     1.0000 0.57801  0.88066  0.26162  Biso   1.000  Zr
  Zr37     1.0000 0.25233  0.49915  0.61685  Biso   1.000  Zr
  Zr38     1.0000 0.30691  0.73754  0.86025  Biso   1.000  Zr
  Zr39     1.0000 0.77692  0.75720  0.60747  Biso   1.000  Zr
  Zr40     1.0000 0.73497  0.51044  0.87977  Biso   1.000  Zr
  Zr41     1.0000 0.07000  0.67051  0.52416  Biso   1.000  Zr
  Zr42     1.0000 0.07800  0.55896  0.78465  Biso   1.000  Zr
  Zr43     1.0000 0.05658  0.81609  0.74568  Biso   1.000  Zr
  Zr44     1.0000 0.97009  0.92249  0.52981  Biso   1.000  Zr
  Zr45     1.0000 0.56004  0.64294  0.74642  Biso   1.000  Zr
  Zr46     1.0000 0.53869  0.60824  0.49075  Biso   1.000  Zr
  Zr47     1.0000 0.48779  0.85860  0.50769  Biso   1.000  Zr
  Zr48     1.0000 0.55441  0.89184  0.75920  Biso   1.000  Zr
  Hg1      1.0000 0.10225  0.19636  0.09637  Biso   1.000  Hg
