data_image0
_cell_length_a       9.99346
_cell_length_b       5.22628
_cell_length_c       10.1097
_cell_angle_alpha    90.1719
_cell_angle_beta     88.7173
_cell_angle_gamma    89.8465

_symmetry_space_group_name_H-M    "P 1"
_symmetry_int_tables_number       1

loop_
  _symmetry_equiv_pos_as_xyz
  'x, y, z'

loop_
  _atom_site_label
  _atom_site_occupancy
  _atom_site_fract_x
  _atom_site_fract_y
  _atom_site_fract_z
  _atom_site_thermal_displace_type
  _atom_site_B_iso_or_equiv
  _atom_site_type_symbol
  Hg1      1.0000 0.12086  0.04471  0.11038  Biso   1.000  Hg
  Zr1      1.0000 0.14299  0.46511  0.38574  Biso   1.000  Zr
  Zr2      1.0000 0.36622  0.53288  0.13900  Biso   1.000  Zr
  Zr3      1.0000 0.36090  0.96923  0.38108  Biso   1.000  Zr
  Zr4      1.0000 0.03934  0.36655  0.19002  Biso   1.000  Zr
  Zr5      1.0000 0.03953  0.12718  0.44585  Biso   1.000  Zr
  Zr6      1.0000 0.46962  0.86405  0.19970  Biso   1.000  Zr
  Zr7      1.0000 0.46610  0.63433  0.45115  Biso   1.000  Zr
  Zr8      1.0000 0.28601  0.25328  0.26383  Biso   1.000  Zr
  Zr9      1.0000 0.27093  0.26009  0.51167  Biso   1.000  Zr
  Zr10     1.0000 0.22752  0.76522  0.51170  Biso   1.000  Zr
  Zr11     1.0000 0.23870  0.72626  0.26506  Biso   1.000  Zr
  Zr12     1.0000 0.13082  0.04121  0.63892  Biso   1.000  Zr
  Zr13     1.0000 0.13089  0.47212  0.87253  Biso   1.000  Zr
  Zr14     1.0000 0.36595  0.53538  0.63123  Biso   1.000  Zr
  Zr15     1.0000 0.36614  0.96793  0.88079  Biso   1.000  Zr
  Zr16     1.0000 0.04548  0.40166  0.67641  Biso   1.000  Zr
  Zr17     1.0000 0.04017  0.12205  0.88063  Biso   1.000  Zr
  Zr18     1.0000 0.46401  0.86950  0.70024  Biso   1.000  Zr
  Zr19     1.0000 0.45214  0.61961  0.94363  Biso   1.000  Zr
  Zr20     1.0000 0.27661  0.24534  0.75793  Biso   1.000  Zr
  Zr21     1.0000 0.26045  0.26021  0.00857  Biso   1.000  Zr
  Zr22     1.0000 0.22557  0.76271  0.01184  Biso   1.000  Zr
  Zr23     1.0000 0.22870  0.74438  0.75837  Biso   1.000  Zr
  Zr24     1.0000 0.63659  0.02967  0.12944  Biso   1.000  Zr
  Zr25     1.0000 0.63356  0.46886  0.37600  Biso   1.000  Zr
  Zr26     1.0000 0.86117  0.52583  0.12143  Biso   1.000  Zr
  Zr27     1.0000 0.87199  0.97120  0.37849  Biso   1.000  Zr
  Zr28     1.0000 0.54472  0.37373  0.19200  Biso   1.000  Zr
  Zr29     1.0000 0.53629  0.13355  0.44453  Biso   1.000  Zr
  Zr30     1.0000 0.96317  0.86203  0.18757  Biso   1.000  Zr
  Zr31     1.0000 0.96179  0.62514  0.43209  Biso   1.000  Zr
  Zr32     1.0000 0.77450  0.23191  0.24834  Biso   1.000  Zr
  Zr33     1.0000 0.76872  0.26531  0.49670  Biso   1.000  Zr
  Zr34     1.0000 0.73051  0.76570  0.49772  Biso   1.000  Zr
  Zr35     1.0000 0.73717  0.73665  0.24900  Biso   1.000  Zr
  Zr36     1.0000 0.63173  0.03213  0.62325  Biso   1.000  Zr
  Zr37     1.0000 0.63112  0.46276  0.87609  Biso   1.000  Zr
  Zr38     1.0000 0.86585  0.52985  0.61781  Biso   1.000  Zr
  Zr39     1.0000 0.86043  0.95993  0.86504  Biso   1.000  Zr
  Zr40     1.0000 0.53617  0.36871  0.69636  Biso   1.000  Zr
  Zr41     1.0000 0.53513  0.12632  0.94827  Biso   1.000  Zr
  Zr42     1.0000 0.95154  0.87581  0.67550  Biso   1.000  Zr
  Zr43     1.0000 0.96015  0.62967  0.94014  Biso   1.000  Zr
  Zr44     1.0000 0.76759  0.23540  0.74627  Biso   1.000  Zr
  Zr45     1.0000 0.77406  0.25422  0.99583  Biso   1.000  Zr
  Zr46     1.0000 0.72377  0.75203  0.99971  Biso   1.000  Zr
  Zr47     1.0000 0.72688  0.73081  0.74850  Biso   1.000  Zr
