data_image0
_cell_length_a       10.1069
_cell_length_b       10.1933
_cell_length_c       5.05667
_cell_angle_alpha    91.4273
_cell_angle_beta     89.9995
_cell_angle_gamma    89.9996

_symmetry_space_group_name_H-M    "P 1"
_symmetry_int_tables_number       1

loop_
  _symmetry_equiv_pos_as_xyz
  'x, y, z'

loop_
  _atom_site_label
  _atom_site_occupancy
  _atom_site_fract_x
  _atom_site_fract_y
  _atom_site_fract_z
  _atom_site_thermal_displace_type
  _atom_site_B_iso_or_equiv
  _atom_site_type_symbol
  Hg1      1.0000 0.12538  0.99978  0.25065  Biso   1.000  Hg
  Zr1      1.0000 0.12679  0.25559  0.74110  Biso   1.000  Zr
  Zr2      1.0000 0.37355  0.25295  0.22881  Biso   1.000  Zr
  Zr3      1.0000 0.38037  0.99978  0.75066  Biso   1.000  Zr
  Zr4      1.0000 0.98741  0.15410  0.94265  Biso   1.000  Zr
  Zr5      1.0000 0.99438  0.10277  0.45999  Biso   1.000  Zr
  Zr6      1.0000 0.00761  0.35341  0.46407  Biso   1.000  Zr
  Zr7      1.0000 0.00106  0.39674  0.97309  Biso   1.000  Zr
  Zr8      1.0000 0.24718  0.12534  0.44964  Biso   1.000  Zr
  Zr9      1.0000 0.26310  0.13353  0.93546  Biso   1.000  Zr
  Zr10     1.0000 0.24497  0.36969  0.01098  Biso   1.000  Zr
  Zr11     1.0000 0.25619  0.38230  0.50804  Biso   1.000  Zr
  Zr12     1.0000 0.12214  0.49979  0.25067  Biso   1.000  Zr
  Zr13     1.0000 0.12678  0.74398  0.76025  Biso   1.000  Zr
  Zr14     1.0000 0.37354  0.74661  0.27252  Biso   1.000  Zr
  Zr15     1.0000 0.37415  0.49978  0.75066  Biso   1.000  Zr
  Zr16     1.0000 0.00762  0.64615  0.03731  Biso   1.000  Zr
  Zr17     1.0000 0.00107  0.60282  0.52830  Biso   1.000  Zr
  Zr18     1.0000 0.98740  0.84546  0.55862  Biso   1.000  Zr
  Zr19     1.0000 0.99442  0.89678  0.04124  Biso   1.000  Zr
  Zr20     1.0000 0.24498  0.62988  0.49035  Biso   1.000  Zr
  Zr21     1.0000 0.25619  0.61727  0.99329  Biso   1.000  Zr
  Zr22     1.0000 0.24721  0.87424  0.05171  Biso   1.000  Zr
  Zr23     1.0000 0.26308  0.86604  0.56589  Biso   1.000  Zr
  Zr24     1.0000 0.62586  0.99979  0.25064  Biso   1.000  Zr
  Zr25     1.0000 0.62270  0.24909  0.74302  Biso   1.000  Zr
  Zr26     1.0000 0.87210  0.24876  0.23202  Biso   1.000  Zr
  Zr27     1.0000 0.87546  0.99979  0.75063  Biso   1.000  Zr
  Zr28     1.0000 0.50922  0.14346  0.01368  Biso   1.000  Zr
  Zr29     1.0000 0.50046  0.10783  0.50923  Biso   1.000  Zr
  Zr30     1.0000 0.50702  0.35678  0.48426  Biso   1.000  Zr
  Zr31     1.0000 0.49595  0.39224  0.98987  Biso   1.000  Zr
  Zr32     1.0000 0.75438  0.14572  0.50309  Biso   1.000  Zr
  Zr33     1.0000 0.74937  0.10314  0.00423  Biso   1.000  Zr
  Zr34     1.0000 0.74568  0.35672  0.99730  Biso   1.000  Zr
  Zr35     1.0000 0.75432  0.39404  0.49438  Biso   1.000  Zr
  Zr36     1.0000 0.62465  0.49979  0.25065  Biso   1.000  Zr
  Zr37     1.0000 0.62270  0.75048  0.75828  Biso   1.000  Zr
  Zr38     1.0000 0.87209  0.75081  0.26927  Biso   1.000  Zr
  Zr39     1.0000 0.87104  0.49977  0.75065  Biso   1.000  Zr
  Zr40     1.0000 0.50702  0.64280  0.01706  Biso   1.000  Zr
  Zr41     1.0000 0.49596  0.60733  0.51146  Biso   1.000  Zr
  Zr42     1.0000 0.50922  0.85611  0.48763  Biso   1.000  Zr
  Zr43     1.0000 0.50048  0.89174  0.99206  Biso   1.000  Zr
  Zr44     1.0000 0.74568  0.64285  0.50400  Biso   1.000  Zr
  Zr45     1.0000 0.75432  0.60552  0.00691  Biso   1.000  Zr
  Zr46     1.0000 0.75439  0.85384  0.99821  Biso   1.000  Zr
  Zr47     1.0000 0.74936  0.89642  0.49706  Biso   1.000  Zr
