data_image0
_cell_length_a       10.3312
_cell_length_b       10.5338
_cell_length_c       5.12634
_cell_angle_alpha    83.0064
_cell_angle_beta     89.5733
_cell_angle_gamma    89.1431

_symmetry_space_group_name_H-M    "P 1"
_symmetry_int_tables_number       1

loop_
  _symmetry_equiv_pos_as_xyz
  'x, y, z'

loop_
  _atom_site_label
  _atom_site_occupancy
  _atom_site_fract_x
  _atom_site_fract_y
  _atom_site_fract_z
  _atom_site_thermal_displace_type
  _atom_site_B_iso_or_equiv
  _atom_site_type_symbol
  Zr1      1.0000 0.13705  0.97781  0.24115  Biso   1.000  Zr
  Zr2      1.0000 0.13277  0.22062  0.61891  Biso   1.000  Zr
  Zr3      1.0000 0.41933  0.25747  0.27188  Biso   1.000  Zr
  Zr4      1.0000 0.36898  0.98739  0.73213  Biso   1.000  Zr
  Zr5      1.0000 0.95977  0.17140  0.88743  Biso   1.000  Zr
  Zr6      1.0000 0.01115  0.10524  0.42525  Biso   1.000  Zr
  Zr7      1.0000 0.99537  0.37137  0.54454  Biso   1.000  Zr
  Zr8      1.0000 0.95264  0.45320  0.06674  Biso   1.000  Zr
  Zr9      1.0000 0.27046  0.11960  0.39457  Biso   1.000  Zr
  Zr10     1.0000 0.20332  0.06227  0.88584  Biso   1.000  Zr
  Zr11     1.0000 0.32484  0.28480  0.90816  Biso   1.000  Zr
  Zr12     1.0000 0.25237  0.38545  0.46017  Biso   1.000  Zr
  Zr13     1.0000 0.09440  0.52538  0.31702  Biso   1.000  Zr
  Zr14     1.0000 0.13919  0.72762  0.77258  Biso   1.000  Zr
  Zr15     1.0000 0.39291  0.76250  0.30708  Biso   1.000  Zr
  Zr16     1.0000 0.36249  0.47542  0.73479  Biso   1.000  Zr
  Zr17     1.0000 0.01924  0.68703  0.09409  Biso   1.000  Zr
  Zr18     1.0000 0.98909  0.61981  0.58749  Biso   1.000  Zr
  Zr19     1.0000 0.01358  0.86101  0.56160  Biso   1.000  Zr
  Zr20     1.0000 0.97267  0.92406  0.07149  Biso   1.000  Zr
  Zr21     1.0000 0.24623  0.63370  0.49207  Biso   1.000  Zr
  Zr22     1.0000 0.21179  0.53901  0.96923  Biso   1.000  Zr
  Zr23     1.0000 0.24544  0.82277  0.03065  Biso   1.000  Zr
  Zr24     1.0000 0.25689  0.87433  0.52000  Biso   1.000  Zr
  Zr25     1.0000 0.63105  0.99996  0.25631  Biso   1.000  Zr
  Zr26     1.0000 0.65275  0.22797  0.71464  Biso   1.000  Zr
  Zr27     1.0000 0.88795  0.26883  0.22475  Biso   1.000  Zr
  Zr28     1.0000 0.89263  0.01188  0.73244  Biso   1.000  Zr
  Zr29     1.0000 0.54968  0.17684  0.06648  Biso   1.000  Zr
  Zr30     1.0000 0.51042  0.10576  0.55022  Biso   1.000  Zr
  Zr31     1.0000 0.50933  0.36059  0.54632  Biso   1.000  Zr
  Zr32     1.0000 0.47859  0.43555  0.06326  Biso   1.000  Zr
  Zr33     1.0000 0.76208  0.13917  0.43993  Biso   1.000  Zr
  Zr34     1.0000 0.73368  0.06391  0.93085  Biso   1.000  Zr
  Zr35     1.0000 0.75561  0.32874  0.94959  Biso   1.000  Zr
  Zr36     1.0000 0.74869  0.38713  0.45234  Biso   1.000  Zr
  Zr37     1.0000 0.60502  0.51891  0.28492  Biso   1.000  Zr
  Zr38     1.0000 0.64557  0.74317  0.78072  Biso   1.000  Zr
  Zr39     1.0000 0.88366  0.77253  0.31674  Biso   1.000  Zr
  Zr40     1.0000 0.84530  0.48620  0.73110  Biso   1.000  Zr
  Zr41     1.0000 0.50525  0.68280  0.05461  Biso   1.000  Zr
  Zr42     1.0000 0.49371  0.60892  0.55367  Biso   1.000  Zr
  Zr43     1.0000 0.50670  0.85768  0.55562  Biso   1.000  Zr
  Zr44     1.0000 0.46571  0.93827  0.07442  Biso   1.000  Zr
  Zr45     1.0000 0.74392  0.64030  0.49336  Biso   1.000  Zr
  Zr46     1.0000 0.72664  0.57925  0.97868  Biso   1.000  Zr
  Zr47     1.0000 0.72598  0.82880  0.07594  Biso   1.000  Zr
  Zr48     1.0000 0.76131  0.89072  0.54302  Biso   1.000  Zr
  In1      1.0000 0.14519  0.30970  0.07429  Biso   1.000  In
