data_image0
_cell_length_a       10.1833
_cell_length_b       5.28644
_cell_length_c       10.1739
_cell_angle_alpha    89.0944
_cell_angle_beta     89.227
_cell_angle_gamma    90.057

_symmetry_space_group_name_H-M    "P 1"
_symmetry_int_tables_number       1

loop_
  _symmetry_equiv_pos_as_xyz
  'x, y, z'

loop_
  _atom_site_label
  _atom_site_occupancy
  _atom_site_fract_x
  _atom_site_fract_y
  _atom_site_fract_z
  _atom_site_thermal_displace_type
  _atom_site_B_iso_or_equiv
  _atom_site_type_symbol
  Zr1      1.0000 0.14025  0.12592  0.11080  Biso   1.000  Zr
  Zr2      1.0000 0.13633  0.45532  0.39301  Biso   1.000  Zr
  Zr3      1.0000 0.38083  0.53744  0.11864  Biso   1.000  Zr
  Zr4      1.0000 0.36466  0.95879  0.37741  Biso   1.000  Zr
  Zr5      1.0000 0.00613  0.35222  0.23225  Biso   1.000  Zr
  Zr6      1.0000 0.04084  0.11311  0.45013  Biso   1.000  Zr
  Zr7      1.0000 0.47399  0.85316  0.21150  Biso   1.000  Zr
  Zr8      1.0000 0.46782  0.63006  0.45569  Biso   1.000  Zr
  Zr9      1.0000 0.27509  0.23446  0.24850  Biso   1.000  Zr
  Zr10     1.0000 0.27341  0.25245  0.50133  Biso   1.000  Zr
  Zr11     1.0000 0.23356  0.75093  0.50848  Biso   1.000  Zr
  Zr12     1.0000 0.23585  0.70764  0.26334  Biso   1.000  Zr
  Zr13     1.0000 0.13341  0.00762  0.62550  Biso   1.000  Zr
  Zr14     1.0000 0.12025  0.44292  0.84660  Biso   1.000  Zr
  Zr15     1.0000 0.36969  0.52354  0.63119  Biso   1.000  Zr
  Zr16     1.0000 0.37957  0.98840  0.86948  Biso   1.000  Zr
  Zr17     1.0000 0.03111  0.35114  0.67532  Biso   1.000  Zr
  Zr18     1.0000 0.03611  0.11383  0.93250  Biso   1.000  Zr
  Zr19     1.0000 0.46898  0.85188  0.69193  Biso   1.000  Zr
  Zr20     1.0000 0.47891  0.64255  0.94261  Biso   1.000  Zr
  Zr21     1.0000 0.26156  0.21652  0.74119  Biso   1.000  Zr
  Zr22     1.0000 0.28191  0.30982  0.97492  Biso   1.000  Zr
  Zr23     1.0000 0.28310  0.85925  0.02973  Biso   1.000  Zr
  Zr24     1.0000 0.23583  0.72314  0.76130  Biso   1.000  Zr
  Zr25     1.0000 0.63184  0.02292  0.12977  Biso   1.000  Zr
  Zr26     1.0000 0.62906  0.46590  0.37708  Biso   1.000  Zr
  Zr27     1.0000 0.84155  0.51483  0.12662  Biso   1.000  Zr
  Zr28     1.0000 0.87708  0.97277  0.36783  Biso   1.000  Zr
  Zr29     1.0000 0.53896  0.36553  0.19654  Biso   1.000  Zr
  Zr30     1.0000 0.53155  0.13190  0.44769  Biso   1.000  Zr
  Zr31     1.0000 0.95732  0.87461  0.18606  Biso   1.000  Zr
  Zr32     1.0000 0.96970  0.63806  0.45018  Biso   1.000  Zr
  Zr33     1.0000 0.75887  0.22139  0.25120  Biso   1.000  Zr
  Zr34     1.0000 0.76644  0.27512  0.49623  Biso   1.000  Zr
  Zr35     1.0000 0.73615  0.77466  0.49578  Biso   1.000  Zr
  Zr36     1.0000 0.73087  0.72495  0.25199  Biso   1.000  Zr
  Zr37     1.0000 0.63475  0.02614  0.62024  Biso   1.000  Zr
  Zr38     1.0000 0.63763  0.45960  0.87462  Biso   1.000  Zr
  Zr39     1.0000 0.86046  0.53446  0.62045  Biso   1.000  Zr
  Zr40     1.0000 0.86131  0.95262  0.87191  Biso   1.000  Zr
  Zr41     1.0000 0.52710  0.34073  0.70790  Biso   1.000  Zr
  Zr42     1.0000 0.53754  0.13931  0.95595  Biso   1.000  Zr
  Zr43     1.0000 0.96628  0.85010  0.69763  Biso   1.000  Zr
  Zr44     1.0000 0.93904  0.60681  0.92133  Biso   1.000  Zr
  Zr45     1.0000 0.76731  0.22584  0.74517  Biso   1.000  Zr
  Zr46     1.0000 0.76838  0.25140  0.00005  Biso   1.000  Zr
  Zr47     1.0000 0.72528  0.75747  0.00246  Biso   1.000  Zr
  Zr48     1.0000 0.72560  0.73134  0.74509  Biso   1.000  Zr
  In1      1.0000 0.10469  0.63766  0.09461  Biso   1.000  In
