data_image0
_cell_length_a       10.1759
_cell_length_b       5.20083
_cell_length_c       10.1905
_cell_angle_alpha    90.7424
_cell_angle_beta     89.2344
_cell_angle_gamma    91.2132

_symmetry_space_group_name_H-M    "P 1"
_symmetry_int_tables_number       1

loop_
  _symmetry_equiv_pos_as_xyz
  'x, y, z'

loop_
  _atom_site_label
  _atom_site_occupancy
  _atom_site_fract_x
  _atom_site_fract_y
  _atom_site_fract_z
  _atom_site_thermal_displace_type
  _atom_site_B_iso_or_equiv
  _atom_site_type_symbol
  Zr1      1.0000 0.12970  0.89114  0.12325  Biso   1.000  Zr
  Zr2      1.0000 0.13000  0.54213  0.39046  Biso   1.000  Zr
  Zr3      1.0000 0.38979  0.47045  0.12060  Biso   1.000  Zr
  Zr4      1.0000 0.38169  0.00050  0.39079  Biso   1.000  Zr
  Zr5      1.0000 0.97199  0.36561  0.97260  Biso   1.000  Zr
  Zr6      1.0000 0.97974  0.14367  0.20455  Biso   1.000  Zr
  Zr7      1.0000 0.97279  0.69306  0.27476  Biso   1.000  Zr
  Zr8      1.0000 0.02643  0.86615  0.95699  Biso   1.000  Zr
  Zr9      1.0000 0.24435  0.35383  0.25651  Biso   1.000  Zr
  Zr10     1.0000 0.28754  0.11597  0.04182  Biso   1.000  Zr
  Zr11     1.0000 0.27149  0.65024  0.98467  Biso   1.000  Zr
  Zr12     1.0000 0.23384  0.84480  0.28601  Biso   1.000  Zr
  Zr13     1.0000 0.13323  0.00598  0.63290  Biso   1.000  Zr
  Zr14     1.0000 0.11550  0.53048  0.85337  Biso   1.000  Zr
  Zr15     1.0000 0.37644  0.49419  0.63660  Biso   1.000  Zr
  Zr16     1.0000 0.38516  0.98381  0.88263  Biso   1.000  Zr
  Zr17     1.0000 0.98378  0.31579  0.47192  Biso   1.000  Zr
  Zr18     1.0000 0.00262  0.23282  0.73251  Biso   1.000  Zr
  Zr19     1.0000 0.99471  0.72681  0.73208  Biso   1.000  Zr
  Zr20     1.0000 0.00868  0.82662  0.49988  Biso   1.000  Zr
  Zr21     1.0000 0.25580  0.28901  0.76530  Biso   1.000  Zr
  Zr22     1.0000 0.24531  0.22684  0.50611  Biso   1.000  Zr
  Zr23     1.0000 0.25904  0.72025  0.51784  Biso   1.000  Zr
  Zr24     1.0000 0.24970  0.79918  0.75419  Biso   1.000  Zr
  Zr25     1.0000 0.62582  0.00013  0.12709  Biso   1.000  Zr
  Zr26     1.0000 0.61897  0.50742  0.37736  Biso   1.000  Zr
  Zr27     1.0000 0.85755  0.49759  0.13424  Biso   1.000  Zr
  Zr28     1.0000 0.87531  0.00220  0.37244  Biso   1.000  Zr
  Zr29     1.0000 0.51041  0.27955  0.99455  Biso   1.000  Zr
  Zr30     1.0000 0.49610  0.20060  0.25021  Biso   1.000  Zr
  Zr31     1.0000 0.48534  0.69989  0.26294  Biso   1.000  Zr
  Zr32     1.0000 0.51194  0.77373  0.00784  Biso   1.000  Zr
  Zr33     1.0000 0.74276  0.28351  0.25928  Biso   1.000  Zr
  Zr34     1.0000 0.74601  0.21056  0.00292  Biso   1.000  Zr
  Zr35     1.0000 0.76445  0.72111  0.99389  Biso   1.000  Zr
  Zr36     1.0000 0.73564  0.78299  0.24655  Biso   1.000  Zr
  Zr37     1.0000 0.62860  0.00718  0.62900  Biso   1.000  Zr
  Zr38     1.0000 0.63413  0.50759  0.87678  Biso   1.000  Zr
  Zr39     1.0000 0.87339  0.50598  0.61237  Biso   1.000  Zr
  Zr40     1.0000 0.87337  0.02175  0.86778  Biso   1.000  Zr
  Zr41     1.0000 0.49382  0.29871  0.50165  Biso   1.000  Zr
  Zr42     1.0000 0.50368  0.20213  0.74947  Biso   1.000  Zr
  Zr43     1.0000 0.49901  0.69831  0.76109  Biso   1.000  Zr
  Zr44     1.0000 0.50588  0.79573  0.50814  Biso   1.000  Zr
  Zr45     1.0000 0.75702  0.30546  0.75178  Biso   1.000  Zr
  Zr46     1.0000 0.74356  0.21178  0.50421  Biso   1.000  Zr
  Zr47     1.0000 0.75537  0.71309  0.49162  Biso   1.000  Zr
  Zr48     1.0000 0.74706  0.80229  0.74667  Biso   1.000  Zr
  Ir1      1.0000 0.11083  0.38657  0.10927  Biso   1.000  Ir
