data_image0
_cell_length_a       10.0747
_cell_length_b       10.2444
_cell_length_c       5.04297
_cell_angle_alpha    90.0017
_cell_angle_beta     88.9876
_cell_angle_gamma    90.043

_symmetry_space_group_name_H-M    "P 1"
_symmetry_int_tables_number       1

loop_
  _symmetry_equiv_pos_as_xyz
  'x, y, z'

loop_
  _atom_site_label
  _atom_site_occupancy
  _atom_site_fract_x
  _atom_site_fract_y
  _atom_site_fract_z
  _atom_site_thermal_displace_type
  _atom_site_B_iso_or_equiv
  _atom_site_type_symbol
  Ir1      1.0000 0.12495  0.96673  0.25025  Biso   1.000  Ir
  Zr1      1.0000 0.12501  0.50961  0.24986  Biso   1.000  Zr
  Zr2      1.0000 0.62484  0.00009  0.25001  Biso   1.000  Zr
  Zr3      1.0000 0.62515  0.49060  0.25005  Biso   1.000  Zr
  Zr4      1.0000 0.12489  0.25809  0.74953  Biso   1.000  Zr
  Zr5      1.0000 0.12500  0.75421  0.74978  Biso   1.000  Zr
  Zr6      1.0000 0.62505  0.24339  0.74999  Biso   1.000  Zr
  Zr7      1.0000 0.62492  0.75212  0.74927  Biso   1.000  Zr
  Zr8      1.0000 0.36782  0.24952  0.26156  Biso   1.000  Zr
  Zr9      1.0000 0.38613  0.74329  0.24659  Biso   1.000  Zr
  Zr10     1.0000 0.88210  0.24941  0.23812  Biso   1.000  Zr
  Zr11     1.0000 0.86396  0.74364  0.25204  Biso   1.000  Zr
  Zr12     1.0000 0.37284  0.00547  0.77712  Biso   1.000  Zr
  Zr13     1.0000 0.37860  0.49458  0.75278  Biso   1.000  Zr
  Zr14     1.0000 0.87708  0.00538  0.72317  Biso   1.000  Zr
  Zr15     1.0000 0.87164  0.49485  0.74728  Biso   1.000  Zr
  Zr16     1.0000 0.97167  0.16412  0.92120  Biso   1.000  Zr
  Zr17     1.0000 0.00452  0.65770  0.01740  Biso   1.000  Zr
  Zr18     1.0000 0.49084  0.14362  0.01261  Biso   1.000  Zr
  Zr19     1.0000 0.50342  0.63862  0.99365  Biso   1.000  Zr
  Zr20     1.0000 0.01231  0.09582  0.43848  Biso   1.000  Zr
  Zr21     1.0000 0.99902  0.60443  0.51704  Biso   1.000  Zr
  Zr22     1.0000 0.51303  0.09778  0.52101  Biso   1.000  Zr
  Zr23     1.0000 0.49771  0.60002  0.49178  Biso   1.000  Zr
  Zr24     1.0000 0.00016  0.35405  0.49275  Biso   1.000  Zr
  Zr25     1.0000 0.99827  0.85074  0.47104  Biso   1.000  Zr
  Zr26     1.0000 0.50038  0.34980  0.49897  Biso   1.000  Zr
  Zr27     1.0000 0.48906  0.85009  0.51944  Biso   1.000  Zr
  Zr28     1.0000 0.00212  0.40563  0.99957  Biso   1.000  Zr
  Zr29     1.0000 0.01542  0.91748  0.95296  Biso   1.000  Zr
  Zr30     1.0000 0.50122  0.39080  0.99703  Biso   1.000  Zr
  Zr31     1.0000 0.50504  0.88968  0.01221  Biso   1.000  Zr
  Zr32     1.0000 0.27862  0.16443  0.57939  Biso   1.000  Zr
  Zr33     1.0000 0.24533  0.65803  0.48185  Biso   1.000  Zr
  Zr34     1.0000 0.75929  0.14366  0.48787  Biso   1.000  Zr
  Zr35     1.0000 0.74665  0.63883  0.50531  Biso   1.000  Zr
  Zr36     1.0000 0.23793  0.09564  0.06238  Biso   1.000  Zr
  Zr37     1.0000 0.25106  0.60436  0.98227  Biso   1.000  Zr
  Zr38     1.0000 0.73711  0.09785  0.97947  Biso   1.000  Zr
  Zr39     1.0000 0.75224  0.60006  0.00739  Biso   1.000  Zr
  Zr40     1.0000 0.24986  0.35395  0.00668  Biso   1.000  Zr
  Zr41     1.0000 0.25141  0.85064  0.02965  Biso   1.000  Zr
  Zr42     1.0000 0.74969  0.34984  0.00131  Biso   1.000  Zr
  Zr43     1.0000 0.76071  0.85008  0.97957  Biso   1.000  Zr
  Zr44     1.0000 0.24799  0.40577  0.49972  Biso   1.000  Zr
  Zr45     1.0000 0.23395  0.91800  0.54842  Biso   1.000  Zr
  Zr46     1.0000 0.74880  0.39092  0.50325  Biso   1.000  Zr
  Zr47     1.0000 0.74488  0.88981  0.48695  Biso   1.000  Zr
