data_image0
_cell_length_a       10.1332
_cell_length_b       10.6573
_cell_length_c       5.05646
_cell_angle_alpha    89.629
_cell_angle_beta     89.6398
_cell_angle_gamma    90.5205

_symmetry_space_group_name_H-M    "P 1"
_symmetry_int_tables_number       1

loop_
  _symmetry_equiv_pos_as_xyz
  'x, y, z'

loop_
  _atom_site_label
  _atom_site_occupancy
  _atom_site_fract_x
  _atom_site_fract_y
  _atom_site_fract_z
  _atom_site_thermal_displace_type
  _atom_site_B_iso_or_equiv
  _atom_site_type_symbol
  Zr1      1.0000 0.13643  0.00614  0.23510  Biso   1.000  Zr
  Zr2      1.0000 0.13639  0.20797  0.73930  Biso   1.000  Zr
  Zr3      1.0000 0.37386  0.26184  0.24308  Biso   1.000  Zr
  Zr4      1.0000 0.36968  0.48871  0.74428  Biso   1.000  Zr
  Zr5      1.0000 0.01341  0.16811  0.40427  Biso   1.000  Zr
  Zr6      1.0000 0.03097  0.05697  0.89766  Biso   1.000  Zr
  Zr7      1.0000 0.47469  0.42748  0.40817  Biso   1.000  Zr
  Zr8      1.0000 0.47220  0.31786  0.90252  Biso   1.000  Zr
  Zr9      1.0000 0.26409  0.09825  0.48390  Biso   1.000  Zr
  Zr10     1.0000 0.28763  0.12017  0.97236  Biso   1.000  Zr
  Zr11     1.0000 0.25671  0.41673  0.05976  Biso   1.000  Zr
  Zr12     1.0000 0.25392  0.34664  0.56344  Biso   1.000  Zr
  Zr13     1.0000 0.12265  0.54339  0.23091  Biso   1.000  Zr
  Zr14     1.0000 0.13144  0.74363  0.74017  Biso   1.000  Zr
  Zr15     1.0000 0.37100  0.76194  0.24283  Biso   1.000  Zr
  Zr16     1.0000 0.37286  0.97971  0.74037  Biso   1.000  Zr
  Zr17     1.0000 0.02736  0.69375  0.39391  Biso   1.000  Zr
  Zr18     1.0000 0.03141  0.57464  0.87678  Biso   1.000  Zr
  Zr19     1.0000 0.46995  0.92647  0.38218  Biso   1.000  Zr
  Zr20     1.0000 0.46966  0.81610  0.88961  Biso   1.000  Zr
  Zr21     1.0000 0.26578  0.61366  0.49018  Biso   1.000  Zr
  Zr22     1.0000 0.26374  0.64970  0.98306  Biso   1.000  Zr
  Zr23     1.0000 0.23245  0.88451  0.98328  Biso   1.000  Zr
  Zr24     1.0000 0.23609  0.85924  0.48198  Biso   1.000  Zr
  Zr25     1.0000 0.63327  0.01364  0.24695  Biso   1.000  Zr
  Zr26     1.0000 0.62993  0.23115  0.74887  Biso   1.000  Zr
  Zr27     1.0000 0.85181  0.26659  0.24548  Biso   1.000  Zr
  Zr28     1.0000 0.86577  0.48419  0.74671  Biso   1.000  Zr
  Zr29     1.0000 0.53071  0.17302  0.40501  Biso   1.000  Zr
  Zr30     1.0000 0.53957  0.06303  0.89129  Biso   1.000  Zr
  Zr31     1.0000 0.95357  0.44508  0.38587  Biso   1.000  Zr
  Zr32     1.0000 0.97066  0.31786  0.88741  Biso   1.000  Zr
  Zr33     1.0000 0.76460  0.11327  0.49418  Biso   1.000  Zr
  Zr34     1.0000 0.76816  0.13570  0.99333  Biso   1.000  Zr
  Zr35     1.0000 0.73080  0.38404  0.99772  Biso   1.000  Zr
  Zr36     1.0000 0.72874  0.36317  0.50074  Biso   1.000  Zr
  Zr37     1.0000 0.63392  0.51447  0.25352  Biso   1.000  Zr
  Zr38     1.0000 0.63426  0.73145  0.75149  Biso   1.000  Zr
  Zr39     1.0000 0.86099  0.76829  0.24685  Biso   1.000  Zr
  Zr40     1.0000 0.86371  0.98280  0.74264  Biso   1.000  Zr
  Zr41     1.0000 0.53127  0.67749  0.40394  Biso   1.000  Zr
  Zr42     1.0000 0.53189  0.56936  0.90929  Biso   1.000  Zr
  Zr43     1.0000 0.96801  0.92997  0.40033  Biso   1.000  Zr
  Zr44     1.0000 0.96471  0.81877  0.89769  Biso   1.000  Zr
  Zr45     1.0000 0.76455  0.61547  0.50187  Biso   1.000  Zr
  Zr46     1.0000 0.76765  0.63488  0.99949  Biso   1.000  Zr
  Zr47     1.0000 0.73203  0.88425  0.99651  Biso   1.000  Zr
  Zr48     1.0000 0.73049  0.86454  0.49732  Biso   1.000  Zr
  Ir1      1.0000 0.11855  0.30298  0.22193  Biso   1.000  Ir
