data_image0
_cell_length_a       10.067
_cell_length_b       10.2286
_cell_length_c       10.067
_cell_angle_alpha    89.999
_cell_angle_beta     90.6324
_cell_angle_gamma    89.9984

_symmetry_space_group_name_H-M    "P 1"
_symmetry_int_tables_number       1

loop_
  _symmetry_equiv_pos_as_xyz
  'x, y, z'

loop_
  _atom_site_label
  _atom_site_occupancy
  _atom_site_fract_x
  _atom_site_fract_y
  _atom_site_fract_z
  _atom_site_thermal_displace_type
  _atom_site_B_iso_or_equiv
  _atom_site_type_symbol
  Ir1      1.0000 0.12507  0.03049  0.12502  Biso   1.000  Ir
  Zr1      1.0000 0.12507  0.00501  0.62502  Biso   1.000  Zr
  Zr2      1.0000 0.12507  0.49455  0.12502  Biso   1.000  Zr
  Zr3      1.0000 0.12507  0.50103  0.62502  Biso   1.000  Zr
  Zr4      1.0000 0.62507  0.00501  0.12502  Biso   1.000  Zr
  Zr5      1.0000 0.62507  0.99684  0.62503  Biso   1.000  Zr
  Zr6      1.0000 0.62507  0.50102  0.12502  Biso   1.000  Zr
  Zr7      1.0000 0.62507  0.50293  0.62502  Biso   1.000  Zr
  Zr8      1.0000 0.12300  0.25075  0.37962  Biso   1.000  Zr
  Zr9      1.0000 0.12715  0.25075  0.87044  Biso   1.000  Zr
  Zr10     1.0000 0.12183  0.74844  0.37220  Biso   1.000  Zr
  Zr11     1.0000 0.12831  0.74844  0.87785  Biso   1.000  Zr
  Zr12     1.0000 0.62364  0.24985  0.37753  Biso   1.000  Zr
  Zr13     1.0000 0.62651  0.24985  0.87253  Biso   1.000  Zr
  Zr14     1.0000 0.62191  0.75106  0.37284  Biso   1.000  Zr
  Zr15     1.0000 0.62823  0.75106  0.87722  Biso   1.000  Zr
  Zr16     1.0000 0.37966  0.25075  0.12295  Biso   1.000  Zr
  Zr17     1.0000 0.37757  0.24984  0.62359  Biso   1.000  Zr
  Zr18     1.0000 0.37224  0.74845  0.12178  Biso   1.000  Zr
  Zr19     1.0000 0.37288  0.75106  0.62187  Biso   1.000  Zr
  Zr20     1.0000 0.87049  0.25075  0.12711  Biso   1.000  Zr
  Zr21     1.0000 0.87257  0.24984  0.62647  Biso   1.000  Zr
  Zr22     1.0000 0.87789  0.74844  0.12827  Biso   1.000  Zr
  Zr23     1.0000 0.87726  0.75106  0.62819  Biso   1.000  Zr
  Zr24     1.0000 0.36906  0.99739  0.36901  Biso   1.000  Zr
  Zr25     1.0000 0.37993  0.99440  0.87017  Biso   1.000  Zr
  Zr26     1.0000 0.37542  0.50205  0.37538  Biso   1.000  Zr
  Zr27     1.0000 0.37635  0.50143  0.87374  Biso   1.000  Zr
  Zr28     1.0000 0.87021  0.99440  0.37988  Biso   1.000  Zr
  Zr29     1.0000 0.88108  0.99740  0.88103  Biso   1.000  Zr
  Zr30     1.0000 0.87378  0.50144  0.37631  Biso   1.000  Zr
  Zr31     1.0000 0.87471  0.50205  0.87466  Biso   1.000  Zr
  Zr32     1.0000 0.00719  0.14842  0.00714  Biso   1.000  Zr
  Zr33     1.0000 0.99487  0.14721  0.50022  Biso   1.000  Zr
  Zr34     1.0000 0.99885  0.64868  0.99881  Biso   1.000  Zr
  Zr35     1.0000 0.99906  0.64630  0.50014  Biso   1.000  Zr
  Zr36     1.0000 0.50028  0.14721  0.99483  Biso   1.000  Zr
  Zr37     1.0000 0.49359  0.14593  0.49354  Biso   1.000  Zr
  Zr38     1.0000 0.50018  0.64629  0.99901  Biso   1.000  Zr
  Zr39     1.0000 0.49922  0.64669  0.49918  Biso   1.000  Zr
  Zr40     1.0000 0.99619  0.09344  0.25389  Biso   1.000  Zr
  Zr41     1.0000 0.00500  0.10492  0.75414  Biso   1.000  Zr
  Zr42     1.0000 0.00161  0.59771  0.24849  Biso   1.000  Zr
  Zr43     1.0000 0.00022  0.60388  0.74896  Biso   1.000  Zr
  Zr44     1.0000 0.49595  0.10492  0.24509  Biso   1.000  Zr
  Zr45     1.0000 0.50460  0.10476  0.74550  Biso   1.000  Zr
  Zr46     1.0000 0.50114  0.60388  0.24988  Biso   1.000  Zr
  Zr47     1.0000 0.50061  0.60433  0.74948  Biso   1.000  Zr
  Zr48     1.0000 0.00110  0.34844  0.24900  Biso   1.000  Zr
  Zr49     1.0000 0.99965  0.35473  0.74898  Biso   1.000  Zr
  Zr50     1.0000 0.97454  0.84137  0.27555  Biso   1.000  Zr
  Zr51     1.0000 0.99680  0.85411  0.76428  Biso   1.000  Zr
  Zr52     1.0000 0.50112  0.35473  0.25044  Biso   1.000  Zr
  Zr53     1.0000 0.49920  0.35494  0.75090  Biso   1.000  Zr
  Zr54     1.0000 0.48581  0.85410  0.25331  Biso   1.000  Zr
  Zr55     1.0000 0.50067  0.85243  0.74943  Biso   1.000  Zr
  Zr56     1.0000 0.99864  0.39642  0.99859  Biso   1.000  Zr
  Zr57     1.0000 0.00150  0.39619  0.49850  Biso   1.000  Zr
  Zr58     1.0000 0.01745  0.90428  0.01741  Biso   1.000  Zr
  Zr59     1.0000 0.99731  0.89688  0.51426  Biso   1.000  Zr
  Zr60     1.0000 0.49854  0.39619  0.00145  Biso   1.000  Zr
  Zr61     1.0000 0.50082  0.39622  0.50077  Biso   1.000  Zr
  Zr62     1.0000 0.51430  0.89687  0.99728  Biso   1.000  Zr
  Zr63     1.0000 0.49904  0.89714  0.49901  Biso   1.000  Zr
  Zr64     1.0000 0.24294  0.14842  0.24290  Biso   1.000  Zr
  Zr65     1.0000 0.25526  0.14721  0.74982  Biso   1.000  Zr
  Zr66     1.0000 0.25129  0.64868  0.25124  Biso   1.000  Zr
  Zr67     1.0000 0.25108  0.64630  0.74991  Biso   1.000  Zr
  Zr68     1.0000 0.74986  0.14721  0.25522  Biso   1.000  Zr
  Zr69     1.0000 0.75656  0.14593  0.75651  Biso   1.000  Zr
  Zr70     1.0000 0.74996  0.64630  0.25104  Biso   1.000  Zr
  Zr71     1.0000 0.75091  0.64669  0.75087  Biso   1.000  Zr
  Zr72     1.0000 0.25395  0.09344  0.99615  Biso   1.000  Zr
  Zr73     1.0000 0.24514  0.10492  0.49591  Biso   1.000  Zr
  Zr74     1.0000 0.24853  0.59771  0.00156  Biso   1.000  Zr
  Zr75     1.0000 0.24993  0.60388  0.50110  Biso   1.000  Zr
  Zr76     1.0000 0.75419  0.10492  0.00495  Biso   1.000  Zr
  Zr77     1.0000 0.74554  0.10476  0.50455  Biso   1.000  Zr
  Zr78     1.0000 0.74900  0.60388  0.00018  Biso   1.000  Zr
  Zr79     1.0000 0.74953  0.60433  0.50057  Biso   1.000  Zr
  Zr80     1.0000 0.24905  0.34845  0.00104  Biso   1.000  Zr
  Zr81     1.0000 0.25049  0.35473  0.50107  Biso   1.000  Zr
  Zr82     1.0000 0.27559  0.84138  0.97450  Biso   1.000  Zr
  Zr83     1.0000 0.25334  0.85411  0.48577  Biso   1.000  Zr
  Zr84     1.0000 0.74902  0.35473  0.99961  Biso   1.000  Zr
  Zr85     1.0000 0.75094  0.35494  0.49916  Biso   1.000  Zr
  Zr86     1.0000 0.76432  0.85411  0.99675  Biso   1.000  Zr
  Zr87     1.0000 0.74947  0.85243  0.50062  Biso   1.000  Zr
  Zr88     1.0000 0.25151  0.39643  0.25146  Biso   1.000  Zr
  Zr89     1.0000 0.24864  0.39619  0.75155  Biso   1.000  Zr
  Zr90     1.0000 0.23268  0.90428  0.23264  Biso   1.000  Zr
  Zr91     1.0000 0.25283  0.89688  0.73579  Biso   1.000  Zr
  Zr92     1.0000 0.75160  0.39619  0.24859  Biso   1.000  Zr
  Zr93     1.0000 0.74933  0.39622  0.74928  Biso   1.000  Zr
  Zr94     1.0000 0.73583  0.89688  0.25278  Biso   1.000  Zr
  Zr95     1.0000 0.75110  0.89713  0.75105  Biso   1.000  Zr
