data_image0
_cell_length_a       10.1288
_cell_length_b       5.21052
_cell_length_c       10.5503
_cell_angle_alpha    89.7847
_cell_angle_beta     90.4884
_cell_angle_gamma    90.3403

_symmetry_space_group_name_H-M    "P 1"
_symmetry_int_tables_number       1

loop_
  _symmetry_equiv_pos_as_xyz
  'x, y, z'

loop_
  _atom_site_label
  _atom_site_occupancy
  _atom_site_fract_x
  _atom_site_fract_y
  _atom_site_fract_z
  _atom_site_thermal_displace_type
  _atom_site_B_iso_or_equiv
  _atom_site_type_symbol
  Zr1      1.0000 0.13735  0.04137  0.17141  Biso   1.000  Zr
  Zr2      1.0000 0.13872  0.45511  0.42409  Biso   1.000  Zr
  Zr3      1.0000 0.35110  0.54772  0.17781  Biso   1.000  Zr
  Zr4      1.0000 0.36267  0.95671  0.42313  Biso   1.000  Zr
  Zr5      1.0000 0.64602  0.07285  0.07507  Biso   1.000  Zr
  Zr6      1.0000 0.64005  0.45542  0.33467  Biso   1.000  Zr
  Zr7      1.0000 0.86315  0.53605  0.07850  Biso   1.000  Zr
  Zr8      1.0000 0.86416  0.95653  0.33142  Biso   1.000  Zr
  O1       1.0000 0.03335  0.32676  0.08416  Biso   1.000  O
  O2       1.0000 0.03332  0.16507  0.33603  Biso   1.000  O
  O3       1.0000 0.45121  0.88043  0.09612  Biso   1.000  O
  O4       1.0000 0.46758  0.66929  0.33644  Biso   1.000  O
  O5       1.0000 0.27160  0.25243  0.29746  Biso   1.000  O
  O6       1.0000 0.27295  0.25384  0.04436  Biso   1.000  O
  O7       1.0000 0.22223  0.75277  0.29876  Biso   1.000  O
  O8       1.0000 0.21963  0.75050  0.04544  Biso   1.000  O
  O9       1.0000 0.51688  0.30714  0.18350  Biso   1.000  O
  O10      1.0000 0.53351  0.16939  0.42069  Biso   1.000  O
  O11      1.0000 0.96693  0.82923  0.16864  Biso   1.000  O
  O12      1.0000 0.96789  0.66214  0.41737  Biso   1.000  O
  O13      1.0000 0.77619  0.24680  0.45695  Biso   1.000  O
  O14      1.0000 0.77907  0.25029  0.21235  Biso   1.000  O
  O15      1.0000 0.72609  0.74686  0.45716  Biso   1.000  O
  O16      1.0000 0.72596  0.75737  0.20686  Biso   1.000  O
  Zr9      1.0000 0.14269  0.03871  0.67119  Biso   1.000  Zr
  Zr10     1.0000 0.13981  0.45617  0.92130  Biso   1.000  Zr
  Zr11     1.0000 0.36398  0.53943  0.67295  Biso   1.000  Zr
  Zr12     1.0000 0.36014  0.96033  0.92197  Biso   1.000  Zr
  Zr13     1.0000 0.64113  0.03728  0.57998  Biso   1.000  Zr
  Zr14     1.0000 0.64347  0.44842  0.82362  Biso   1.000  Zr
  Zr15     1.0000 0.86456  0.53808  0.57960  Biso   1.000  Zr
  Zr16     1.0000 0.86774  0.95373  0.82684  Biso   1.000  Zr
  O17      1.0000 0.03536  0.32863  0.58542  Biso   1.000  O
  O18      1.0000 0.03814  0.16371  0.83219  Biso   1.000  O
  O19      1.0000 0.46945  0.82809  0.58490  Biso   1.000  O
  O20      1.0000 0.46899  0.66282  0.83522  Biso   1.000  O
  O21      1.0000 0.27825  0.24755  0.79556  Biso   1.000  O
  O22      1.0000 0.27714  0.24718  0.54608  Biso   1.000  O
  O23      1.0000 0.22686  0.74614  0.79568  Biso   1.000  O
  O24      1.0000 0.22756  0.74719  0.54644  Biso   1.000  O
  O25      1.0000 0.53448  0.32789  0.66523  Biso   1.000  O
  O26      1.0000 0.53707  0.14754  0.90776  Biso   1.000  O
  O27      1.0000 0.97164  0.82878  0.66423  Biso   1.000  O
  O28      1.0000 0.96788  0.66475  0.91646  Biso   1.000  O
  O29      1.0000 0.79300  0.23714  0.94687  Biso   1.000  O
  O30      1.0000 0.77894  0.24211  0.70204  Biso   1.000  O
  O31      1.0000 0.72325  0.75609  0.95490  Biso   1.000  O
  O32      1.0000 0.72954  0.74329  0.70485  Biso   1.000  O
  Ir1      1.0000 0.59005  0.56725  0.06564  Biso   1.000  Ir
