data_image0
_cell_length_a       10.1644
_cell_length_b       10.4392
_cell_length_c       5.27845
_cell_angle_alpha    89.28
_cell_angle_beta     90.2851
_cell_angle_gamma    90.5192

_symmetry_space_group_name_H-M    "P 1"
_symmetry_int_tables_number       1

loop_
  _symmetry_equiv_pos_as_xyz
  'x, y, z'

loop_
  _atom_site_label
  _atom_site_occupancy
  _atom_site_fract_x
  _atom_site_fract_y
  _atom_site_fract_z
  _atom_site_thermal_displace_type
  _atom_site_B_iso_or_equiv
  _atom_site_type_symbol
  K1       1.0000 0.10149  0.99010  0.30677  Biso   1.000  K
  Zr1      1.0000 0.14501  0.51993  0.34223  Biso   1.000  Zr
  Zr2      1.0000 0.13738  0.22739  0.84780  Biso   1.000  Zr
  Zr3      1.0000 0.15358  0.72916  0.83114  Biso   1.000  Zr
  Zr4      1.0000 0.35312  0.26452  0.34378  Biso   1.000  Zr
  Zr5      1.0000 0.36556  0.77216  0.33314  Biso   1.000  Zr
  Zr6      1.0000 0.35963  0.47456  0.84076  Biso   1.000  Zr
  Zr7      1.0000 0.36274  0.97857  0.83033  Biso   1.000  Zr
  Zr8      1.0000 0.63328  0.03099  0.16315  Biso   1.000  Zr
  Zr9      1.0000 0.63430  0.51540  0.15922  Biso   1.000  Zr
  Zr10     1.0000 0.63834  0.23523  0.66074  Biso   1.000  Zr
  Zr11     1.0000 0.63506  0.72398  0.65586  Biso   1.000  Zr
  Zr12     1.0000 0.86506  0.27729  0.16081  Biso   1.000  Zr
  Zr13     1.0000 0.86978  0.74346  0.11389  Biso   1.000  Zr
  Zr14     1.0000 0.86507  0.47923  0.64925  Biso   1.000  Zr
  Zr15     1.0000 0.85799  0.99280  0.71093  Biso   1.000  Zr
  O1       1.0000 0.03794  0.20107  0.18995  Biso   1.000  O
  O2       1.0000 0.04862  0.68095  0.18434  Biso   1.000  O
  O3       1.0000 0.02644  0.07770  0.74322  Biso   1.000  O
  O4       1.0000 0.03680  0.58243  0.67533  Biso   1.000  O
  O5       1.0000 0.46871  0.40799  0.15946  Biso   1.000  O
  O6       1.0000 0.47939  0.91045  0.15015  Biso   1.000  O
  O7       1.0000 0.46903  0.33999  0.65647  Biso   1.000  O
  O8       1.0000 0.48635  0.84820  0.63740  Biso   1.000  O
  O9       1.0000 0.28119  0.12893  0.60387  Biso   1.000  O
  O10      1.0000 0.28155  0.61937  0.58448  Biso   1.000  O
  O11      1.0000 0.28934  0.13191  0.06818  Biso   1.000  O
  O12      1.0000 0.27844  0.61810  0.08662  Biso   1.000  O
  O13      1.0000 0.22252  0.37369  0.58882  Biso   1.000  O
  O14      1.0000 0.24196  0.86135  0.58617  Biso   1.000  O
  O15      1.0000 0.22455  0.37740  0.09023  Biso   1.000  O
  O16      1.0000 0.24907  0.86017  0.06005  Biso   1.000  O
  O17      1.0000 0.53142  0.16665  0.33867  Biso   1.000  O
  O18      1.0000 0.53222  0.65774  0.34127  Biso   1.000  O
  O19      1.0000 0.53681  0.08916  0.83418  Biso   1.000  O
  O20      1.0000 0.52880  0.58963  0.84335  Biso   1.000  O
  O21      1.0000 0.96227  0.43638  0.30953  Biso   1.000  O
  O22      1.0000 0.86519  0.90085  0.35355  Biso   1.000  O
  O23      1.0000 0.96243  0.33229  0.81110  Biso   1.000  O
  O24      1.0000 0.97579  0.83377  0.82945  Biso   1.000  O
  O25      1.0000 0.77252  0.13128  0.93426  Biso   1.000  O
  O26      1.0000 0.77311  0.61623  0.89805  Biso   1.000  O
  O27      1.0000 0.77642  0.13096  0.43400  Biso   1.000  O
  O28      1.0000 0.77369  0.62997  0.40390  Biso   1.000  O
  O29      1.0000 0.72340  0.37775  0.90691  Biso   1.000  O
  O30      1.0000 0.72962  0.86969  0.92025  Biso   1.000  O
  O31      1.0000 0.72600  0.37835  0.40847  Biso   1.000  O
  O32      1.0000 0.72608  0.88752  0.41904  Biso   1.000  O
