data_image0
_cell_length_a       10.1711
_cell_length_b       5.14872
_cell_length_c       10.1711
_cell_angle_alpha    90.0002
_cell_angle_beta     90
_cell_angle_gamma    90.0005

_symmetry_space_group_name_H-M    "P 1"
_symmetry_int_tables_number       1

loop_
  _symmetry_equiv_pos_as_xyz
  'x, y, z'

loop_
  _atom_site_label
  _atom_site_occupancy
  _atom_site_fract_x
  _atom_site_fract_y
  _atom_site_fract_z
  _atom_site_thermal_displace_type
  _atom_site_B_iso_or_equiv
  _atom_site_type_symbol
  Zr1      1.0000 0.12540  0.00015  0.12540  Biso   1.000  Zr
  Zr2      1.0000 0.12540  0.50015  0.39484  Biso   1.000  Zr
  Zr3      1.0000 0.39484  0.50015  0.12540  Biso   1.000  Zr
  Zr4      1.0000 0.37339  0.00701  0.37339  Biso   1.000  Zr
  Zr5      1.0000 0.98187  0.30412  0.98187  Biso   1.000  Zr
  Zr6      1.0000 0.00208  0.19518  0.24871  Biso   1.000  Zr
  Zr7      1.0000 0.98187  0.69619  0.26892  Biso   1.000  Zr
  Zr8      1.0000 0.00208  0.80511  0.00208  Biso   1.000  Zr
  Zr9      1.0000 0.26892  0.30411  0.26892  Biso   1.000  Zr
  Zr10     1.0000 0.24871  0.19518  0.00208  Biso   1.000  Zr
  Zr11     1.0000 0.26892  0.69619  0.98187  Biso   1.000  Zr
  Zr12     1.0000 0.24871  0.80511  0.24871  Biso   1.000  Zr
  Zr13     1.0000 0.12539  0.00015  0.62540  Biso   1.000  Zr
  Zr14     1.0000 0.12540  0.50015  0.85595  Biso   1.000  Zr
  Zr15     1.0000 0.37933  0.50015  0.62540  Biso   1.000  Zr
  Zr16     1.0000 0.37339  0.99329  0.87741  Biso   1.000  Zr
  Zr17     1.0000 0.99206  0.28378  0.49752  Biso   1.000  Zr
  Zr18     1.0000 0.00549  0.21460  0.74390  Biso   1.000  Zr
  Zr19     1.0000 0.99206  0.71652  0.75327  Biso   1.000  Zr
  Zr20     1.0000 0.00549  0.78570  0.50689  Biso   1.000  Zr
  Zr21     1.0000 0.25873  0.28377  0.75327  Biso   1.000  Zr
  Zr22     1.0000 0.24530  0.21460  0.50689  Biso   1.000  Zr
  Zr23     1.0000 0.25873  0.71653  0.49752  Biso   1.000  Zr
  Zr24     1.0000 0.24530  0.78571  0.74390  Biso   1.000  Zr
  Zr25     1.0000 0.62540  0.00015  0.12539  Biso   1.000  Zr
  Zr26     1.0000 0.62540  0.50015  0.37934  Biso   1.000  Zr
  Zr27     1.0000 0.85595  0.50015  0.12540  Biso   1.000  Zr
  Zr28     1.0000 0.87740  0.99329  0.37339  Biso   1.000  Zr
  Zr29     1.0000 0.49752  0.28378  0.99206  Biso   1.000  Zr
  Zr30     1.0000 0.50689  0.21460  0.24530  Biso   1.000  Zr
  Zr31     1.0000 0.49752  0.71652  0.25873  Biso   1.000  Zr
  Zr32     1.0000 0.50689  0.78569  0.00549  Biso   1.000  Zr
  Zr33     1.0000 0.75327  0.28378  0.25873  Biso   1.000  Zr
  Zr34     1.0000 0.74390  0.21461  0.00549  Biso   1.000  Zr
  Zr35     1.0000 0.75327  0.71652  0.99206  Biso   1.000  Zr
  Zr36     1.0000 0.74390  0.78570  0.24530  Biso   1.000  Zr
  Zr37     1.0000 0.62539  0.00016  0.62539  Biso   1.000  Zr
  Zr38     1.0000 0.62540  0.50015  0.87145  Biso   1.000  Zr
  Zr39     1.0000 0.87146  0.50015  0.62540  Biso   1.000  Zr
  Zr40     1.0000 0.87740  0.00701  0.87740  Biso   1.000  Zr
  Zr41     1.0000 0.49401  0.29376  0.49401  Biso   1.000  Zr
  Zr42     1.0000 0.50511  0.20951  0.74568  Biso   1.000  Zr
  Zr43     1.0000 0.49402  0.70655  0.75677  Biso   1.000  Zr
  Zr44     1.0000 0.50511  0.79078  0.50511  Biso   1.000  Zr
  Zr45     1.0000 0.75678  0.29375  0.75677  Biso   1.000  Zr
  Zr46     1.0000 0.74568  0.20951  0.50511  Biso   1.000  Zr
  Zr47     1.0000 0.75678  0.70654  0.49402  Biso   1.000  Zr
  Zr48     1.0000 0.74568  0.79079  0.74568  Biso   1.000  Zr
  K1       1.0000 0.12540  0.50015  0.12540  Biso   1.000  K 
