data_image0
_cell_length_a       5.12809
_cell_length_b       10.3907
_cell_length_c       10.2343
_cell_angle_alpha    90.8004
_cell_angle_beta     90.3686
_cell_angle_gamma    94.3852

_symmetry_space_group_name_H-M    "P 1"
_symmetry_int_tables_number       1

loop_
  _symmetry_equiv_pos_as_xyz
  'x, y, z'

loop_
  _atom_site_label
  _atom_site_occupancy
  _atom_site_fract_x
  _atom_site_fract_y
  _atom_site_fract_z
  _atom_site_thermal_displace_type
  _atom_site_B_iso_or_equiv
  _atom_site_type_symbol
  Zr1      1.0000 0.29383  0.97201  0.07887  Biso   1.000  Zr
  Zr2      1.0000 0.23655  0.23638  0.39321  Biso   1.000  Zr
  Zr3      1.0000 0.65040  0.27181  0.12616  Biso   1.000  Zr
  Zr4      1.0000 0.74262  0.49281  0.36405  Biso   1.000  Zr
  Zr5      1.0000 0.87260  0.20509  0.28596  Biso   1.000  Zr
  Zr6      1.0000 0.03666  0.07102  0.46458  Biso   1.000  Zr
  Zr7      1.0000 0.91014  0.43574  0.18817  Biso   1.000  Zr
  Zr8      1.0000 0.99223  0.34892  0.49501  Biso   1.000  Zr
  Zr9      1.0000 0.41339  0.11455  0.24176  Biso   1.000  Zr
  Zr10     1.0000 0.51850  0.13554  0.49352  Biso   1.000  Zr
  Zr11     1.0000 0.49904  0.38659  0.49123  Biso   1.000  Zr
  Zr12     1.0000 0.41232  0.37712  0.24979  Biso   1.000  Zr
  Zr13     1.0000 0.26597  0.98396  0.59759  Biso   1.000  Zr
  Zr14     1.0000 0.19131  0.25509  0.83423  Biso   1.000  Zr
  Zr15     1.0000 0.70952  0.26640  0.62224  Biso   1.000  Zr
  Zr16     1.0000 0.72786  0.48214  0.88103  Biso   1.000  Zr
  Zr17     1.0000 0.95805  0.14955  0.70813  Biso   1.000  Zr
  Zr18     1.0000 0.08077  0.07549  0.93764  Biso   1.000  Zr
  Zr19     1.0000 0.98527  0.40414  0.73362  Biso   1.000  Zr
  Zr20     1.0000 0.87421  0.31464  0.94796  Biso   1.000  Zr
  Zr21     1.0000 0.46396  0.11960  0.74275  Biso   1.000  Zr
  Zr22     1.0000 0.56668  0.11348  0.00506  Biso   1.000  Zr
  Zr23     1.0000 0.41871  0.38536  0.99221  Biso   1.000  Zr
  Zr24     1.0000 0.47502  0.37017  0.73718  Biso   1.000  Zr
  Zr25     1.0000 0.26157  0.52968  0.12464  Biso   1.000  Zr
  Zr26     1.0000 0.31536  0.74098  0.37577  Biso   1.000  Zr
  Zr27     1.0000 0.77632  0.76957  0.12154  Biso   1.000  Zr
  Zr28     1.0000 0.71786  0.02361  0.33917  Biso   1.000  Zr
  Zr29     1.0000 0.07796  0.68479  0.21198  Biso   1.000  Zr
  Zr30     1.0000 0.07978  0.57741  0.44260  Biso   1.000  Zr
  Zr31     1.0000 0.96062  0.94605  0.19964  Biso   1.000  Zr
  Zr32     1.0000 0.05840  0.82516  0.49288  Biso   1.000  Zr
  Zr33     1.0000 0.55822  0.62404  0.24633  Biso   1.000  Zr
  Zr34     1.0000 0.55832  0.63524  0.49314  Biso   1.000  Zr
  Zr35     1.0000 0.55028  0.89037  0.48115  Biso   1.000  Zr
  Zr36     1.0000 0.49011  0.86715  0.22829  Biso   1.000  Zr
  Zr37     1.0000 0.25369  0.50504  0.60959  Biso   1.000  Zr
  Zr38     1.0000 0.30471  0.72742  0.86206  Biso   1.000  Zr
  Zr39     1.0000 0.77308  0.76101  0.62567  Biso   1.000  Zr
  Zr40     1.0000 0.73816  0.01530  0.84215  Biso   1.000  Zr
  Zr41     1.0000 0.07476  0.65757  0.70029  Biso   1.000  Zr
  Zr42     1.0000 0.06354  0.57510  0.95409  Biso   1.000  Zr
  Zr43     1.0000 0.98906  0.90698  0.72811  Biso   1.000  Zr
  Zr44     1.0000 0.07008  0.82188  0.98757  Biso   1.000  Zr
  Zr45     1.0000 0.55378  0.61061  0.74451  Biso   1.000  Zr
  Zr46     1.0000 0.54983  0.63322  0.99692  Biso   1.000  Zr
  Zr47     1.0000 0.56601  0.87326  0.97098  Biso   1.000  Zr
  Zr48     1.0000 0.49434  0.86234  0.72721  Biso   1.000  Zr
  K1       1.0000 0.13531  0.22959  0.10846  Biso   1.000  K 
