data_image0
_cell_length_a       10.1029
_cell_length_b       10.2231
_cell_length_c       10.1027
_cell_angle_alpha    90
_cell_angle_beta     90.0004
_cell_angle_gamma    90.0002

_symmetry_space_group_name_H-M    "P 1"
_symmetry_int_tables_number       1

loop_
  _symmetry_equiv_pos_as_xyz
  'x, y, z'

loop_
  _atom_site_label
  _atom_site_occupancy
  _atom_site_fract_x
  _atom_site_fract_y
  _atom_site_fract_z
  _atom_site_thermal_displace_type
  _atom_site_B_iso_or_equiv
  _atom_site_type_symbol
  K1       1.0000 0.12552  0.00038  0.12553  Biso   1.000  K 
  Zr1      1.0000 0.12551  0.00038  0.62552  Biso   1.000  Zr
  Zr2      1.0000 0.12552  0.50038  0.12553  Biso   1.000  Zr
  Zr3      1.0000 0.12551  0.50038  0.62553  Biso   1.000  Zr
  Zr4      1.0000 0.62551  0.00038  0.12552  Biso   1.000  Zr
  Zr5      1.0000 0.62551  0.00038  0.62552  Biso   1.000  Zr
  Zr6      1.0000 0.62552  0.50038  0.12553  Biso   1.000  Zr
  Zr7      1.0000 0.62552  0.50038  0.62553  Biso   1.000  Zr
  Zr8      1.0000 0.12455  0.25133  0.37541  Biso   1.000  Zr
  Zr9      1.0000 0.12648  0.25133  0.87564  Biso   1.000  Zr
  Zr10     1.0000 0.12648  0.74943  0.37541  Biso   1.000  Zr
  Zr11     1.0000 0.12456  0.74943  0.87564  Biso   1.000  Zr
  Zr12     1.0000 0.62546  0.25013  0.37565  Biso   1.000  Zr
  Zr13     1.0000 0.62558  0.25013  0.87540  Biso   1.000  Zr
  Zr14     1.0000 0.62557  0.75063  0.37565  Biso   1.000  Zr
  Zr15     1.0000 0.62545  0.75063  0.87540  Biso   1.000  Zr
  Zr16     1.0000 0.37540  0.25132  0.12456  Biso   1.000  Zr
  Zr17     1.0000 0.37565  0.25013  0.62547  Biso   1.000  Zr
  Zr18     1.0000 0.37540  0.74943  0.12649  Biso   1.000  Zr
  Zr19     1.0000 0.37565  0.75063  0.62559  Biso   1.000  Zr
  Zr20     1.0000 0.87563  0.25132  0.12649  Biso   1.000  Zr
  Zr21     1.0000 0.87539  0.25013  0.62559  Biso   1.000  Zr
  Zr22     1.0000 0.87563  0.74943  0.12456  Biso   1.000  Zr
  Zr23     1.0000 0.87539  0.75063  0.62546  Biso   1.000  Zr
  Zr24     1.0000 0.37512  0.00156  0.37512  Biso   1.000  Zr
  Zr25     1.0000 0.37512  0.99921  0.87593  Biso   1.000  Zr
  Zr26     1.0000 0.37625  0.49959  0.37627  Biso   1.000  Zr
  Zr27     1.0000 0.37625  0.50116  0.87479  Biso   1.000  Zr
  Zr28     1.0000 0.87591  0.99921  0.37512  Biso   1.000  Zr
  Zr29     1.0000 0.87591  0.00155  0.87593  Biso   1.000  Zr
  Zr30     1.0000 0.87478  0.50117  0.37626  Biso   1.000  Zr
  Zr31     1.0000 0.87478  0.49960  0.87479  Biso   1.000  Zr
  Zr32     1.0000 0.99141  0.15236  0.99143  Biso   1.000  Zr
  Zr33     1.0000 0.00670  0.14638  0.50880  Biso   1.000  Zr
  Zr34     1.0000 0.00465  0.63953  0.00466  Biso   1.000  Zr
  Zr35     1.0000 0.00155  0.64503  0.50426  Biso   1.000  Zr
  Zr36     1.0000 0.50878  0.14638  0.00671  Biso   1.000  Zr
  Zr37     1.0000 0.50462  0.14675  0.50463  Biso   1.000  Zr
  Zr38     1.0000 0.50425  0.64503  0.00157  Biso   1.000  Zr
  Zr39     1.0000 0.50144  0.64596  0.50146  Biso   1.000  Zr
  Zr40     1.0000 0.98538  0.12534  0.26567  Biso   1.000  Zr
  Zr41     1.0000 0.99763  0.10453  0.75079  Biso   1.000  Zr
  Zr42     1.0000 0.99848  0.60493  0.25257  Biso   1.000  Zr
  Zr43     1.0000 0.00015  0.60480  0.75337  Biso   1.000  Zr
  Zr44     1.0000 0.50026  0.10453  0.25341  Biso   1.000  Zr
  Zr45     1.0000 0.49846  0.10478  0.75258  Biso   1.000  Zr
  Zr46     1.0000 0.49768  0.60480  0.25089  Biso   1.000  Zr
  Zr47     1.0000 0.50016  0.60465  0.75088  Biso   1.000  Zr
  Zr48     1.0000 0.00464  0.36123  0.24638  Biso   1.000  Zr
  Zr49     1.0000 0.00156  0.35573  0.74678  Biso   1.000  Zr
  Zr50     1.0000 0.99142  0.84840  0.25962  Biso   1.000  Zr
  Zr51     1.0000 0.00669  0.85438  0.74224  Biso   1.000  Zr
  Zr52     1.0000 0.50425  0.35573  0.24948  Biso   1.000  Zr
  Zr53     1.0000 0.50145  0.35481  0.74959  Biso   1.000  Zr
  Zr54     1.0000 0.50879  0.85438  0.24433  Biso   1.000  Zr
  Zr55     1.0000 0.50462  0.85401  0.74641  Biso   1.000  Zr
  Zr56     1.0000 0.99848  0.39582  0.99847  Biso   1.000  Zr
  Zr57     1.0000 0.00016  0.39596  0.49768  Biso   1.000  Zr
  Zr58     1.0000 0.98539  0.87542  0.98538  Biso   1.000  Zr
  Zr59     1.0000 0.99763  0.89623  0.50026  Biso   1.000  Zr
  Zr60     1.0000 0.49768  0.39596  0.00016  Biso   1.000  Zr
  Zr61     1.0000 0.50017  0.39612  0.50017  Biso   1.000  Zr
  Zr62     1.0000 0.50026  0.89623  0.99763  Biso   1.000  Zr
  Zr63     1.0000 0.49846  0.89598  0.49846  Biso   1.000  Zr
  Zr64     1.0000 0.25962  0.15236  0.25962  Biso   1.000  Zr
  Zr65     1.0000 0.24434  0.14638  0.74224  Biso   1.000  Zr
  Zr66     1.0000 0.24638  0.63953  0.24638  Biso   1.000  Zr
  Zr67     1.0000 0.24947  0.64503  0.74678  Biso   1.000  Zr
  Zr68     1.0000 0.74224  0.14638  0.24434  Biso   1.000  Zr
  Zr69     1.0000 0.74641  0.14675  0.74642  Biso   1.000  Zr
  Zr70     1.0000 0.74678  0.64503  0.24948  Biso   1.000  Zr
  Zr71     1.0000 0.74958  0.64595  0.74959  Biso   1.000  Zr
  Zr72     1.0000 0.26564  0.12534  0.98538  Biso   1.000  Zr
  Zr73     1.0000 0.25340  0.10453  0.50025  Biso   1.000  Zr
  Zr74     1.0000 0.25255  0.60493  0.99847  Biso   1.000  Zr
  Zr75     1.0000 0.25087  0.60480  0.49768  Biso   1.000  Zr
  Zr76     1.0000 0.75077  0.10453  0.99763  Biso   1.000  Zr
  Zr77     1.0000 0.75257  0.10478  0.49846  Biso   1.000  Zr
  Zr78     1.0000 0.75335  0.60480  0.00016  Biso   1.000  Zr
  Zr79     1.0000 0.75086  0.60464  0.50017  Biso   1.000  Zr
  Zr80     1.0000 0.24639  0.36123  0.00466  Biso   1.000  Zr
  Zr81     1.0000 0.24948  0.35573  0.50426  Biso   1.000  Zr
  Zr82     1.0000 0.25962  0.84840  0.99143  Biso   1.000  Zr
  Zr83     1.0000 0.24433  0.85437  0.50881  Biso   1.000  Zr
  Zr84     1.0000 0.74678  0.35573  0.00157  Biso   1.000  Zr
  Zr85     1.0000 0.74958  0.35481  0.50146  Biso   1.000  Zr
  Zr86     1.0000 0.74225  0.85438  0.00671  Biso   1.000  Zr
  Zr87     1.0000 0.74641  0.85401  0.50463  Biso   1.000  Zr
  Zr88     1.0000 0.25255  0.39583  0.25257  Biso   1.000  Zr
  Zr89     1.0000 0.25087  0.39596  0.75337  Biso   1.000  Zr
  Zr90     1.0000 0.26565  0.87542  0.26567  Biso   1.000  Zr
  Zr91     1.0000 0.25339  0.89623  0.75080  Biso   1.000  Zr
  Zr92     1.0000 0.75335  0.39596  0.25089  Biso   1.000  Zr
  Zr93     1.0000 0.75087  0.39611  0.75088  Biso   1.000  Zr
  Zr94     1.0000 0.75078  0.89623  0.25341  Biso   1.000  Zr
  Zr95     1.0000 0.75257  0.89598  0.75258  Biso   1.000  Zr
