data_image0
_cell_length_a       5.0924
_cell_length_b       10.3715
_cell_length_c       10.1634
_cell_angle_alpha    90.0002
_cell_angle_beta     90
_cell_angle_gamma    90.0001

_symmetry_space_group_name_H-M    "P 1"
_symmetry_int_tables_number       1

loop_
  _symmetry_equiv_pos_as_xyz
  'x, y, z'

loop_
  _atom_site_label
  _atom_site_occupancy
  _atom_site_fract_x
  _atom_site_fract_y
  _atom_site_fract_z
  _atom_site_thermal_displace_type
  _atom_site_B_iso_or_equiv
  _atom_site_type_symbol
  Zr1      1.0000 0.25080  0.97405  0.12540  Biso   1.000  Zr
  Zr2      1.0000 0.25079  0.25008  0.39399  Biso   1.000  Zr
  Zr3      1.0000 0.75078  0.25007  0.12540  Biso   1.000  Zr
  Zr4      1.0000 0.75300  0.00705  0.37393  Biso   1.000  Zr
  Zr5      1.0000 0.96318  0.15349  0.97796  Biso   1.000  Zr
  Zr6      1.0000 0.01772  0.09200  0.24500  Biso   1.000  Zr
  Zr7      1.0000 0.96318  0.34666  0.27283  Biso   1.000  Zr
  Zr8      1.0000 0.01772  0.40815  0.00580  Biso   1.000  Zr
  Zr9      1.0000 0.53837  0.15348  0.27282  Biso   1.000  Zr
  Zr10     1.0000 0.48384  0.09201  0.00579  Biso   1.000  Zr
  Zr11     1.0000 0.53837  0.34667  0.97797  Biso   1.000  Zr
  Zr12     1.0000 0.48384  0.40814  0.24500  Biso   1.000  Zr
  Zr13     1.0000 0.25079  0.99423  0.62540  Biso   1.000  Zr
  Zr14     1.0000 0.25079  0.25007  0.85680  Biso   1.000  Zr
  Zr15     1.0000 0.75079  0.25007  0.62540  Biso   1.000  Zr
  Zr16     1.0000 0.74858  0.00705  0.87686  Biso   1.000  Zr
  Zr17     1.0000 0.98395  0.14497  0.49701  Biso   1.000  Zr
  Zr18     1.0000 0.00992  0.10318  0.74282  Biso   1.000  Zr
  Zr19     1.0000 0.98395  0.35518  0.75378  Biso   1.000  Zr
  Zr20     1.0000 0.00992  0.39697  0.50798  Biso   1.000  Zr
  Zr21     1.0000 0.51763  0.14497  0.75378  Biso   1.000  Zr
  Zr22     1.0000 0.49167  0.10318  0.50797  Biso   1.000  Zr
  Zr23     1.0000 0.51764  0.35518  0.49702  Biso   1.000  Zr
  Zr24     1.0000 0.49166  0.39697  0.74282  Biso   1.000  Zr
  Zr25     1.0000 0.25080  0.52610  0.12539  Biso   1.000  Zr
  Zr26     1.0000 0.25079  0.75007  0.38340  Biso   1.000  Zr
  Zr27     1.0000 0.75080  0.75008  0.12540  Biso   1.000  Zr
  Zr28     1.0000 0.74858  0.49310  0.37393  Biso   1.000  Zr
  Zr29     1.0000 0.01314  0.65469  0.00174  Biso   1.000  Zr
  Zr30     1.0000 0.98496  0.60333  0.25012  Biso   1.000  Zr
  Zr31     1.0000 0.01314  0.84546  0.24905  Biso   1.000  Zr
  Zr32     1.0000 0.98496  0.89682  0.00067  Biso   1.000  Zr
  Zr33     1.0000 0.48847  0.65469  0.24905  Biso   1.000  Zr
  Zr34     1.0000 0.51664  0.60334  0.00067  Biso   1.000  Zr
  Zr35     1.0000 0.48847  0.84547  0.00174  Biso   1.000  Zr
  Zr36     1.0000 0.51664  0.89681  0.25012  Biso   1.000  Zr
  Zr37     1.0000 0.25079  0.50592  0.62540  Biso   1.000  Zr
  Zr38     1.0000 0.25080  0.75008  0.86740  Biso   1.000  Zr
  Zr39     1.0000 0.75079  0.75008  0.62539  Biso   1.000  Zr
  Zr40     1.0000 0.75300  0.49310  0.87686  Biso   1.000  Zr
  Zr41     1.0000 0.99499  0.64679  0.50113  Biso   1.000  Zr
  Zr42     1.0000 0.00796  0.60408  0.75201  Biso   1.000  Zr
  Zr43     1.0000 0.99500  0.85336  0.74966  Biso   1.000  Zr
  Zr44     1.0000 0.00796  0.89607  0.49878  Biso   1.000  Zr
  Zr45     1.0000 0.50659  0.64679  0.74966  Biso   1.000  Zr
  Zr46     1.0000 0.49363  0.60407  0.49878  Biso   1.000  Zr
  Zr47     1.0000 0.50659  0.85336  0.50113  Biso   1.000  Zr
  Zr48     1.0000 0.49363  0.89607  0.75201  Biso   1.000  Zr
  K1       1.0000 0.25078  0.25007  0.12540  Biso   1.000  K 
