data_image0
_cell_length_a       10.2676
_cell_length_b       5.2104
_cell_length_c       10.6256
_cell_angle_alpha    89.6952
_cell_angle_beta     80.4928
_cell_angle_gamma    90.427

_symmetry_space_group_name_H-M    "P 1"
_symmetry_int_tables_number       1

loop_
  _symmetry_equiv_pos_as_xyz
  'x, y, z'

loop_
  _atom_site_label
  _atom_site_occupancy
  _atom_site_fract_x
  _atom_site_fract_y
  _atom_site_fract_z
  _atom_site_thermal_displace_type
  _atom_site_B_iso_or_equiv
  _atom_site_type_symbol
  K1       1.0000 0.10296  0.98363  0.13576  Biso   1.000  K
  Zr1      1.0000 0.14303  0.04695  0.64412  Biso   1.000  Zr
  Zr2      1.0000 0.63478  0.04429  0.14252  Biso   1.000  Zr
  Zr3      1.0000 0.63839  0.04386  0.65025  Biso   1.000  Zr
  Zr4      1.0000 0.14285  0.45345  0.39386  Biso   1.000  Zr
  Zr5      1.0000 0.14947  0.46072  0.89156  Biso   1.000  Zr
  Zr6      1.0000 0.63325  0.44936  0.39983  Biso   1.000  Zr
  Zr7      1.0000 0.63923  0.46393  0.89399  Biso   1.000  Zr
  Zr8      1.0000 0.35769  0.52682  0.10231  Biso   1.000  Zr
  Zr9      1.0000 0.36143  0.54863  0.60138  Biso   1.000  Zr
  Zr10     1.0000 0.86765  0.49282  0.08098  Biso   1.000  Zr
  Zr11     1.0000 0.86596  0.54603  0.60847  Biso   1.000  Zr
  Zr12     1.0000 0.35691  0.95842  0.34764  Biso   1.000  Zr
  Zr13     1.0000 0.36279  0.95863  0.85396  Biso   1.000  Zr
  Zr14     1.0000 0.86280  0.98008  0.38146  Biso   1.000  Zr
  Zr15     1.0000 0.86500  0.95377  0.85048  Biso   1.000  Zr
  O1       1.0000 0.04826  0.41785  0.08117  Biso   1.000  O
  O2       1.0000 0.04039  0.35298  0.58803  Biso   1.000  O
  O3       1.0000 0.53629  0.32930  0.07443  Biso   1.000  O
  O4       1.0000 0.53047  0.32271  0.57463  Biso   1.000  O
  O5       1.0000 0.02688  0.17033  0.35181  Biso   1.000  O
  O6       1.0000 0.03983  0.15374  0.83470  Biso   1.000  O
  O7       1.0000 0.53424  0.16870  0.32460  Biso   1.000  O
  O8       1.0000 0.53745  0.17188  0.82579  Biso   1.000  O
  O9       1.0000 0.47261  0.81996  0.17196  Biso   1.000  O
  O10      1.0000 0.47045  0.82481  0.67373  Biso   1.000  O
  O11      1.0000 0.85791  0.80636  0.20383  Biso   1.000  O
  O12      1.0000 0.96530  0.85476  0.66483  Biso   1.000  O
  O13      1.0000 0.47380  0.67750  0.42246  Biso   1.000  O
  O14      1.0000 0.48043  0.68446  0.92209  Biso   1.000  O
  O15      1.0000 0.96710  0.66944  0.42298  Biso   1.000  O
  O16      1.0000 0.96678  0.65412  0.90621  Biso   1.000  O
  O17      1.0000 0.28447  0.25219  0.24502  Biso   1.000  O
  O18      1.0000 0.27881  0.26079  0.73547  Biso   1.000  O
  O19      1.0000 0.77235  0.28121  0.24249  Biso   1.000  O
  O20      1.0000 0.77855  0.26036  0.74150  Biso   1.000  O
  O21      1.0000 0.27636  0.24584  0.48968  Biso   1.000  O
  O22      1.0000 0.28929  0.24781  0.97701  Biso   1.000  O
  O23      1.0000 0.77072  0.25701  0.49972  Biso   1.000  O
  O24      1.0000 0.77491  0.22436  0.98672  Biso   1.000  O
  O25      1.0000 0.24671  0.73192  0.98915  Biso   1.000  O
  O26      1.0000 0.22857  0.76393  0.50728  Biso   1.000  O
  O27      1.0000 0.72832  0.74703  0.00947  Biso   1.000  O
  O28      1.0000 0.72656  0.76243  0.51813  Biso   1.000  O
  O29      1.0000 0.23750  0.71347  0.26117  Biso   1.000  O
  O30      1.0000 0.22673  0.74641  0.75253  Biso   1.000  O
  O31      1.0000 0.72227  0.78475  0.27155  Biso   1.000  O
  O32      1.0000 0.72905  0.74364  0.75952  Biso   1.000  O
