data_image0
_cell_length_a       10.2426
_cell_length_b       10.4491
_cell_length_c       5.25163
_cell_angle_alpha    90.0727
_cell_angle_beta     80.9285
_cell_angle_gamma    90.278

_symmetry_space_group_name_H-M    "P 1"
_symmetry_int_tables_number       1

loop_
  _symmetry_equiv_pos_as_xyz
  'x, y, z'

loop_
  _atom_site_label
  _atom_site_occupancy
  _atom_site_fract_x
  _atom_site_fract_y
  _atom_site_fract_z
  _atom_site_thermal_displace_type
  _atom_site_B_iso_or_equiv
  _atom_site_type_symbol
  La1      1.0000 0.13055  0.01282  0.27797  Biso   1.000  La
  Zr1      1.0000 0.13895  0.52036  0.28674  Biso   1.000  Zr
  Zr2      1.0000 0.64089  0.02181  0.29511  Biso   1.000  Zr
  Zr3      1.0000 0.63834  0.51750  0.29126  Biso   1.000  Zr
  Zr4      1.0000 0.13720  0.23274  0.78836  Biso   1.000  Zr
  Zr5      1.0000 0.14198  0.72610  0.78648  Biso   1.000  Zr
  Zr6      1.0000 0.63880  0.23024  0.79338  Biso   1.000  Zr
  Zr7      1.0000 0.63900  0.72601  0.79017  Biso   1.000  Zr
  Zr8      1.0000 0.36038  0.26885  0.20705  Biso   1.000  Zr
  Zr9      1.0000 0.36576  0.76728  0.20679  Biso   1.000  Zr
  Zr10     1.0000 0.86055  0.27404  0.20967  Biso   1.000  Zr
  Zr11     1.0000 0.85904  0.76476  0.20714  Biso   1.000  Zr
  Zr12     1.0000 0.36047  0.47696  0.70596  Biso   1.000  Zr
  Zr13     1.0000 0.36480  0.97880  0.70263  Biso   1.000  Zr
  Zr14     1.0000 0.86183  0.47945  0.70726  Biso   1.000  Zr
  Zr15     1.0000 0.85533  0.97896  0.72833  Biso   1.000  Zr
  O1       1.0000 0.03935  0.19927  0.16962  Biso   1.000  O
  O2       1.0000 0.04107  0.67950  0.17168  Biso   1.000  O
  O3       1.0000 0.53557  0.16884  0.16188  Biso   1.000  O
  O4       1.0000 0.53771  0.66629  0.15946  Biso   1.000  O
  O5       1.0000 0.03081  0.07563  0.70789  Biso   1.000  O
  O6       1.0000 0.03810  0.57640  0.66508  Biso   1.000  O
  O7       1.0000 0.53873  0.08008  0.66145  Biso   1.000  O
  O8       1.0000 0.53446  0.57970  0.65866  Biso   1.000  O
  O9       1.0000 0.46488  0.41687  0.33872  Biso   1.000  O
  O10      1.0000 0.46734  0.91941  0.33537  Biso   1.000  O
  O11      1.0000 0.95753  0.43298  0.32546  Biso   1.000  O
  O12      1.0000 0.92953  0.92624  0.34705  Biso   1.000  O
  O13      1.0000 0.46613  0.33144  0.83804  Biso   1.000  O
  O14      1.0000 0.47313  0.83276  0.83835  Biso   1.000  O
  O15      1.0000 0.95901  0.32828  0.82239  Biso   1.000  O
  O16      1.0000 0.96562  0.82798  0.83755  Biso   1.000  O
  O17      1.0000 0.28044  0.13383  0.48931  Biso   1.000  O
  O18      1.0000 0.27723  0.62386  0.47596  Biso   1.000  O
  O19      1.0000 0.77568  0.13234  0.48989  Biso   1.000  O
  O20      1.0000 0.77400  0.62896  0.48149  Biso   1.000  O
  O21      1.0000 0.28296  0.12637  0.96383  Biso   1.000  O
  O22      1.0000 0.27578  0.61762  0.97842  Biso   1.000  O
  O23      1.0000 0.77329  0.12193  0.99071  Biso   1.000  O
  O24      1.0000 0.77595  0.61904  0.98070  Biso   1.000  O
  O25      1.0000 0.22612  0.38042  0.01262  Biso   1.000  O
  O26      1.0000 0.24098  0.86689  0.99378  Biso   1.000  O
  O27      1.0000 0.72327  0.37971  0.01794  Biso   1.000  O
  O28      1.0000 0.72473  0.87710  0.02379  Biso   1.000  O
  O29      1.0000 0.22237  0.37220  0.51213  Biso   1.000  O
  O30      1.0000 0.23579  0.85933  0.51790  Biso   1.000  O
  O31      1.0000 0.72361  0.37220  0.51922  Biso   1.000  O
  O32      1.0000 0.71498  0.86984  0.52937  Biso   1.000  O
