data_image0
_cell_length_a       10.1438
_cell_length_b       5.13347
_cell_length_c       10.1438
_cell_angle_alpha    90.001
_cell_angle_beta     89.9993
_cell_angle_gamma    90.001

_symmetry_space_group_name_H-M    "P 1"
_symmetry_int_tables_number       1

loop_
  _symmetry_equiv_pos_as_xyz
  'x, y, z'

loop_
  _atom_site_label
  _atom_site_occupancy
  _atom_site_fract_x
  _atom_site_fract_y
  _atom_site_fract_z
  _atom_site_thermal_displace_type
  _atom_site_B_iso_or_equiv
  _atom_site_type_symbol
  La1      1.0000 0.12529  0.00141  0.12529  Biso   1.000  La
  Zr1      1.0000 0.12529  0.00141  0.62530  Biso   1.000  Zr
  Zr2      1.0000 0.62530  0.00141  0.12529  Biso   1.000  Zr
  Zr3      1.0000 0.62529  0.00141  0.62530  Biso   1.000  Zr
  Zr4      1.0000 0.12529  0.50141  0.38005  Biso   1.000  Zr
  Zr5      1.0000 0.12529  0.50142  0.87054  Biso   1.000  Zr
  Zr6      1.0000 0.62529  0.50142  0.37535  Biso   1.000  Zr
  Zr7      1.0000 0.62529  0.50142  0.87523  Biso   1.000  Zr
  Zr8      1.0000 0.38005  0.50141  0.12530  Biso   1.000  Zr
  Zr9      1.0000 0.37535  0.50142  0.62529  Biso   1.000  Zr
  Zr10     1.0000 0.87053  0.50141  0.12529  Biso   1.000  Zr
  Zr11     1.0000 0.87523  0.50142  0.62529  Biso   1.000  Zr
  Zr12     1.0000 0.37750  0.00451  0.37750  Biso   1.000  Zr
  Zr13     1.0000 0.37750  0.99835  0.87309  Biso   1.000  Zr
  Zr14     1.0000 0.87310  0.99835  0.37751  Biso   1.000  Zr
  Zr15     1.0000 0.87309  0.00450  0.87309  Biso   1.000  Zr
  Zr16     1.0000 0.99802  0.29762  0.99802  Biso   1.000  Zr
  Zr17     1.0000 0.00600  0.29354  0.51079  Biso   1.000  Zr
  Zr18     1.0000 0.51079  0.29354  0.00600  Biso   1.000  Zr
  Zr19     1.0000 0.50367  0.29530  0.50367  Biso   1.000  Zr
  Zr20     1.0000 0.98659  0.23495  0.26398  Biso   1.000  Zr
  Zr21     1.0000 0.99845  0.20866  0.75409  Biso   1.000  Zr
  Zr22     1.0000 0.49649  0.20866  0.25212  Biso   1.000  Zr
  Zr23     1.0000 0.49893  0.20890  0.75164  Biso   1.000  Zr
  Zr24     1.0000 0.99803  0.70521  0.25255  Biso   1.000  Zr
  Zr25     1.0000 0.00603  0.70926  0.73977  Biso   1.000  Zr
  Zr26     1.0000 0.51081  0.70926  0.24456  Biso   1.000  Zr
  Zr27     1.0000 0.50369  0.70753  0.74690  Biso   1.000  Zr
  Zr28     1.0000 0.98659  0.76789  0.98659  Biso   1.000  Zr
  Zr29     1.0000 0.99844  0.79415  0.49648  Biso   1.000  Zr
  Zr30     1.0000 0.49648  0.79415  0.99844  Biso   1.000  Zr
  Zr31     1.0000 0.49893  0.79393  0.49893  Biso   1.000  Zr
  Zr32     1.0000 0.25256  0.29762  0.25256  Biso   1.000  Zr
  Zr33     1.0000 0.24456  0.29357  0.73978  Biso   1.000  Zr
  Zr34     1.0000 0.73978  0.29356  0.24456  Biso   1.000  Zr
  Zr35     1.0000 0.74690  0.29531  0.74690  Biso   1.000  Zr
  Zr36     1.0000 0.26398  0.23495  0.98659  Biso   1.000  Zr
  Zr37     1.0000 0.25212  0.20866  0.49648  Biso   1.000  Zr
  Zr38     1.0000 0.75409  0.20866  0.99844  Biso   1.000  Zr
  Zr39     1.0000 0.75164  0.20889  0.49893  Biso   1.000  Zr
  Zr40     1.0000 0.25256  0.70521  0.99803  Biso   1.000  Zr
  Zr41     1.0000 0.24456  0.70926  0.51081  Biso   1.000  Zr
  Zr42     1.0000 0.73978  0.70926  0.00603  Biso   1.000  Zr
  Zr43     1.0000 0.74690  0.70754  0.50369  Biso   1.000  Zr
  Zr44     1.0000 0.26400  0.76790  0.26400  Biso   1.000  Zr
  Zr45     1.0000 0.25214  0.79416  0.75411  Biso   1.000  Zr
  Zr46     1.0000 0.75410  0.79417  0.25215  Biso   1.000  Zr
  Zr47     1.0000 0.75165  0.79394  0.75165  Biso   1.000  Zr
