data_image0
_cell_length_a       10.2071
_cell_length_b       5.20197
_cell_length_c       10.2071
_cell_angle_alpha    90
_cell_angle_beta     90
_cell_angle_gamma    89.9999

_symmetry_space_group_name_H-M    "P 1"
_symmetry_int_tables_number       1

loop_
  _symmetry_equiv_pos_as_xyz
  'x, y, z'

loop_
  _atom_site_label
  _atom_site_occupancy
  _atom_site_fract_x
  _atom_site_fract_y
  _atom_site_fract_z
  _atom_site_thermal_displace_type
  _atom_site_B_iso_or_equiv
  _atom_site_type_symbol
  Zr1      1.0000 0.12540  0.00015  0.12540  Biso   1.000  Zr
  Zr2      1.0000 0.12540  0.50015  0.40122  Biso   1.000  Zr
  Zr3      1.0000 0.40122  0.50015  0.12540  Biso   1.000  Zr
  Zr4      1.0000 0.37369  0.00358  0.37369  Biso   1.000  Zr
  Zr5      1.0000 0.98233  0.29128  0.98234  Biso   1.000  Zr
  Zr6      1.0000 0.00037  0.20163  0.25044  Biso   1.000  Zr
  Zr7      1.0000 0.98233  0.70903  0.26845  Biso   1.000  Zr
  Zr8      1.0000 0.00037  0.79868  0.00035  Biso   1.000  Zr
  Zr9      1.0000 0.26846  0.29127  0.26845  Biso   1.000  Zr
  Zr10     1.0000 0.25042  0.20163  0.00035  Biso   1.000  Zr
  Zr11     1.0000 0.26846  0.70903  0.98234  Biso   1.000  Zr
  Zr12     1.0000 0.25043  0.79868  0.25044  Biso   1.000  Zr
  Zr13     1.0000 0.12540  0.00015  0.62540  Biso   1.000  Zr
  Zr14     1.0000 0.12540  0.50015  0.84957  Biso   1.000  Zr
  Zr15     1.0000 0.38065  0.50015  0.62539  Biso   1.000  Zr
  Zr16     1.0000 0.37369  0.99671  0.87711  Biso   1.000  Zr
  Zr17     1.0000 0.98902  0.28278  0.49843  Biso   1.000  Zr
  Zr18     1.0000 0.00655  0.21404  0.74341  Biso   1.000  Zr
  Zr19     1.0000 0.98903  0.71752  0.75236  Biso   1.000  Zr
  Zr20     1.0000 0.00655  0.78625  0.50739  Biso   1.000  Zr
  Zr21     1.0000 0.26177  0.28278  0.75236  Biso   1.000  Zr
  Zr22     1.0000 0.24424  0.21404  0.50738  Biso   1.000  Zr
  Zr23     1.0000 0.26176  0.71752  0.49843  Biso   1.000  Zr
  Zr24     1.0000 0.24424  0.78625  0.74341  Biso   1.000  Zr
  Zr25     1.0000 0.62540  0.00015  0.12540  Biso   1.000  Zr
  Zr26     1.0000 0.62539  0.50015  0.38065  Biso   1.000  Zr
  Zr27     1.0000 0.84957  0.50015  0.12540  Biso   1.000  Zr
  Zr28     1.0000 0.87711  0.99671  0.37369  Biso   1.000  Zr
  Zr29     1.0000 0.49843  0.28278  0.98903  Biso   1.000  Zr
  Zr30     1.0000 0.50739  0.21405  0.24425  Biso   1.000  Zr
  Zr31     1.0000 0.49843  0.71752  0.26176  Biso   1.000  Zr
  Zr32     1.0000 0.50740  0.78625  0.00655  Biso   1.000  Zr
  Zr33     1.0000 0.75236  0.28278  0.26177  Biso   1.000  Zr
  Zr34     1.0000 0.74340  0.21405  0.00654  Biso   1.000  Zr
  Zr35     1.0000 0.75236  0.71752  0.98903  Biso   1.000  Zr
  Zr36     1.0000 0.74340  0.78624  0.24425  Biso   1.000  Zr
  Zr37     1.0000 0.62540  0.00015  0.62540  Biso   1.000  Zr
  Zr38     1.0000 0.62540  0.50015  0.87014  Biso   1.000  Zr
  Zr39     1.0000 0.87014  0.50015  0.62540  Biso   1.000  Zr
  Zr40     1.0000 0.87711  0.00358  0.87711  Biso   1.000  Zr
  Zr41     1.0000 0.49233  0.29485  0.49233  Biso   1.000  Zr
  Zr42     1.0000 0.50680  0.21004  0.74400  Biso   1.000  Zr
  Zr43     1.0000 0.49233  0.70545  0.75846  Biso   1.000  Zr
  Zr44     1.0000 0.50680  0.79027  0.50680  Biso   1.000  Zr
  Zr45     1.0000 0.75846  0.29485  0.75846  Biso   1.000  Zr
  Zr46     1.0000 0.74400  0.21004  0.50679  Biso   1.000  Zr
  Zr47     1.0000 0.75846  0.70545  0.49233  Biso   1.000  Zr
  Zr48     1.0000 0.74399  0.79027  0.74400  Biso   1.000  Zr
  La1      1.0000 0.12540  0.50015  0.12540  Biso   1.000  La
