data_image0
_cell_length_a       10.273
_cell_length_b       10.4238
_cell_length_c       5.18755
_cell_angle_alpha    84.446
_cell_angle_beta     89.822
_cell_angle_gamma    91.0537

_symmetry_space_group_name_H-M    "P 1"
_symmetry_int_tables_number       1

loop_
  _symmetry_equiv_pos_as_xyz
  'x, y, z'

loop_
  _atom_site_label
  _atom_site_occupancy
  _atom_site_fract_x
  _atom_site_fract_y
  _atom_site_fract_z
  _atom_site_thermal_displace_type
  _atom_site_B_iso_or_equiv
  _atom_site_type_symbol
  Zr1      1.0000 0.11093  0.97015  0.21979  Biso   1.000  Zr
  Zr2      1.0000 0.10612  0.22639  0.60686  Biso   1.000  Zr
  Zr3      1.0000 0.40377  0.24715  0.15535  Biso   1.000  Zr
  Zr4      1.0000 0.39304  0.48336  0.69129  Biso   1.000  Zr
  Zr5      1.0000 0.98073  0.11926  0.36805  Biso   1.000  Zr
  Zr6      1.0000 0.04581  0.06272  0.86589  Biso   1.000  Zr
  Zr7      1.0000 0.49129  0.38066  0.41453  Biso   1.000  Zr
  Zr8      1.0000 0.52288  0.35155  0.90574  Biso   1.000  Zr
  Zr9      1.0000 0.24044  0.11536  0.38316  Biso   1.000  Zr
  Zr10     1.0000 0.28364  0.18705  0.83481  Biso   1.000  Zr
  Zr11     1.0000 0.29177  0.42751  0.02916  Biso   1.000  Zr
  Zr12     1.0000 0.23105  0.38783  0.51447  Biso   1.000  Zr
  Zr13     1.0000 0.15129  0.53464  0.26160  Biso   1.000  Zr
  Zr14     1.0000 0.11049  0.72896  0.73745  Biso   1.000  Zr
  Zr15     1.0000 0.36929  0.77526  0.27536  Biso   1.000  Zr
  Zr16     1.0000 0.35121  0.01854  0.69306  Biso   1.000  Zr
  Zr17     1.0000 0.00212  0.63260  0.45114  Biso   1.000  Zr
  Zr18     1.0000 0.03433  0.55045  0.92076  Biso   1.000  Zr
  Zr19     1.0000 0.48678  0.88918  0.52213  Biso   1.000  Zr
  Zr20     1.0000 0.53164  0.84230  0.04416  Biso   1.000  Zr
  Zr21     1.0000 0.26139  0.62812  0.53546  Biso   1.000  Zr
  Zr22     1.0000 0.24203  0.68515  0.03942  Biso   1.000  Zr
  Zr23     1.0000 0.27958  0.92795  0.03225  Biso   1.000  Zr
  Zr24     1.0000 0.23705  0.86781  0.52181  Biso   1.000  Zr
  Zr25     1.0000 0.62293  0.99592  0.22210  Biso   1.000  Zr
  Zr26     1.0000 0.60992  0.22990  0.67940  Biso   1.000  Zr
  Zr27     1.0000 0.83501  0.26295  0.21659  Biso   1.000  Zr
  Zr28     1.0000 0.89087  0.47535  0.68132  Biso   1.000  Zr
  Zr29     1.0000 0.49685  0.12888  0.44084  Biso   1.000  Zr
  Zr30     1.0000 0.49427  0.09343  0.94996  Biso   1.000  Zr
  Zr31     1.0000 0.99123  0.38472  0.38043  Biso   1.000  Zr
  Zr32     1.0000 0.94015  0.29090  0.83711  Biso   1.000  Zr
  Zr33     1.0000 0.74200  0.10869  0.49244  Biso   1.000  Zr
  Zr34     1.0000 0.71876  0.16183  0.99756  Biso   1.000  Zr
  Zr35     1.0000 0.77122  0.43281  0.00933  Biso   1.000  Zr
  Zr36     1.0000 0.73724  0.36432  0.48940  Biso   1.000  Zr
  Zr37     1.0000 0.63631  0.51786  0.22921  Biso   1.000  Zr
  Zr38     1.0000 0.60320  0.74130  0.73972  Biso   1.000  Zr
  Zr39     1.0000 0.85464  0.75972  0.27045  Biso   1.000  Zr
  Zr40     1.0000 0.87849  0.99497  0.69920  Biso   1.000  Zr
  Zr41     1.0000 0.50529  0.63803  0.45587  Biso   1.000  Zr
  Zr42     1.0000 0.50604  0.59116  0.94738  Biso   1.000  Zr
  Zr43     1.0000 0.98728  0.87071  0.50703  Biso   1.000  Zr
  Zr44     1.0000 0.01335  0.81775  0.02064  Biso   1.000  Zr
  Zr45     1.0000 0.75219  0.60807  0.50654  Biso   1.000  Zr
  Zr46     1.0000 0.73905  0.67848  0.01546  Biso   1.000  Zr
  Zr47     1.0000 0.78649  0.92944  0.03644  Biso   1.000  Zr
  Zr48     1.0000 0.73890  0.86070  0.51259  Biso   1.000  Zr
  La1      1.0000 0.12358  0.27128  0.09486  Biso   1.000  La
