data_image0
_cell_length_a       10.1005
_cell_length_b       10.2999
_cell_length_c       10.5476
_cell_angle_alpha    89.9282
_cell_angle_beta     90.4964
_cell_angle_gamma    90.1563

_symmetry_space_group_name_H-M    "P 1"
_symmetry_int_tables_number       1

loop_
  _symmetry_equiv_pos_as_xyz
  'x, y, z'

loop_
  _atom_site_label
  _atom_site_occupancy
  _atom_site_fract_x
  _atom_site_fract_y
  _atom_site_fract_z
  _atom_site_thermal_displace_type
  _atom_site_B_iso_or_equiv
  _atom_site_type_symbol
  Zr1      1.0000 0.13883  0.02044  0.17256  Biso   1.000  Zr
  Zr2      1.0000 0.13946  0.22768  0.42510  Biso   1.000  Zr
  Zr3      1.0000 0.35166  0.27258  0.18125  Biso   1.000  Zr
  Zr4      1.0000 0.36109  0.47949  0.42577  Biso   1.000  Zr
  Zr5      1.0000 0.64231  0.01892  0.07857  Biso   1.000  Zr
  Zr6      1.0000 0.63865  0.22997  0.32807  Biso   1.000  Zr
  Zr7      1.0000 0.86164  0.27058  0.07943  Biso   1.000  Zr
  Zr8      1.0000 0.86164  0.47883  0.32901  Biso   1.000  Zr
  O1       1.0000 0.03377  0.16572  0.08513  Biso   1.000  O
  O2       1.0000 0.03334  0.08459  0.33397  Biso   1.000  O
  O3       1.0000 0.46677  0.41395  0.08553  Biso   1.000  O
  O4       1.0000 0.46582  0.33446  0.33697  Biso   1.000  O
  O5       1.0000 0.27553  0.12404  0.29879  Biso   1.000  O
  O6       1.0000 0.27670  0.12674  0.04886  Biso   1.000  O
  O7       1.0000 0.22077  0.37554  0.30161  Biso   1.000  O
  O8       1.0000 0.22234  0.37689  0.04987  Biso   1.000  O
  O9       1.0000 0.53260  0.17254  0.16122  Biso   1.000  O
  O10      1.0000 0.53323  0.08355  0.41389  Biso   1.000  O
  O11      1.0000 0.96691  0.41556  0.16747  Biso   1.000  O
  O12      1.0000 0.96875  0.33492  0.41734  Biso   1.000  O
  O13      1.0000 0.77670  0.12449  0.45169  Biso   1.000  O
  O14      1.0000 0.77489  0.12529  0.20292  Biso   1.000  O
  O15      1.0000 0.72459  0.37451  0.45420  Biso   1.000  O
  O16      1.0000 0.72351  0.37630  0.20467  Biso   1.000  O
  Zr9      1.0000 0.14113  0.02082  0.67341  Biso   1.000  Zr
  Zr10     1.0000 0.13947  0.22862  0.92387  Biso   1.000  Zr
  Zr11     1.0000 0.36316  0.27064  0.67541  Biso   1.000  Zr
  Zr12     1.0000 0.36065  0.47964  0.92323  Biso   1.000  Zr
  Zr13     1.0000 0.64133  0.01852  0.57477  Biso   1.000  Zr
  Zr14     1.0000 0.65009  0.22339  0.81547  Biso   1.000  Zr
  Zr15     1.0000 0.86419  0.27172  0.57636  Biso   1.000  Zr
  Zr16     1.0000 0.86251  0.47812  0.82977  Biso   1.000  Zr
  O17      1.0000 0.03427  0.16458  0.58446  Biso   1.000  O
  O18      1.0000 0.03478  0.08438  0.83421  Biso   1.000  O
  O19      1.0000 0.46938  0.41494  0.58735  Biso   1.000  O
  O20      1.0000 0.47227  0.33050  0.84034  Biso   1.000  O
  O21      1.0000 0.27783  0.12469  0.79852  Biso   1.000  O
  O22      1.0000 0.27835  0.12531  0.54848  Biso   1.000  O
  O23      1.0000 0.22676  0.37415  0.79889  Biso   1.000  O
  O24      1.0000 0.22572  0.37507  0.54998  Biso   1.000  O
  O25      1.0000 0.53434  0.16224  0.66470  Biso   1.000  O
  O26      1.0000 0.53388  0.09408  0.92228  Biso   1.000  O
  O27      1.0000 0.96877  0.41498  0.66835  Biso   1.000  O
  O28      1.0000 0.96537  0.33333  0.91774  Biso   1.000  O
  O29      1.0000 0.77981  0.12108  0.95118  Biso   1.000  O
  O30      1.0000 0.78165  0.12237  0.69833  Biso   1.000  O
  O31      1.0000 0.71529  0.36678  0.95657  Biso   1.000  O
  O32      1.0000 0.72712  0.37477  0.70282  Biso   1.000  O
  Zr17     1.0000 0.13848  0.52251  0.17329  Biso   1.000  Zr
  Zr18     1.0000 0.13943  0.72873  0.42298  Biso   1.000  Zr
  Zr19     1.0000 0.36173  0.77133  0.17363  Biso   1.000  Zr
  Zr20     1.0000 0.36170  0.97769  0.42353  Biso   1.000  Zr
  Zr21     1.0000 0.64073  0.52434  0.07966  Biso   1.000  Zr
  Zr22     1.0000 0.63946  0.72856  0.32939  Biso   1.000  Zr
  Zr23     1.0000 0.86269  0.77047  0.07973  Biso   1.000  Zr
  Zr24     1.0000 0.86228  0.97887  0.32901  Biso   1.000  Zr
  O33      1.0000 0.03423  0.66626  0.08462  Biso   1.000  O
  O34      1.0000 0.03272  0.58531  0.33456  Biso   1.000  O
  O35      1.0000 0.46979  0.91601  0.08518  Biso   1.000  O
  O36      1.0000 0.46843  0.83447  0.33447  Biso   1.000  O
  O37      1.0000 0.27633  0.62460  0.29773  Biso   1.000  O
  O38      1.0000 0.27712  0.62560  0.04662  Biso   1.000  O
  O39      1.0000 0.22474  0.87420  0.29705  Biso   1.000  O
  O40      1.0000 0.22600  0.87647  0.04694  Biso   1.000  O
  O41      1.0000 0.53232  0.66427  0.16838  Biso   1.000  O
  O42      1.0000 0.53277  0.58493  0.41859  Biso   1.000  O
  O43      1.0000 0.96733  0.91586  0.16644  Biso   1.000  O
  O44      1.0000 0.96823  0.83471  0.41745  Biso   1.000  O
  O45      1.0000 0.77673  0.62413  0.45473  Biso   1.000  O
  O46      1.0000 0.77700  0.62637  0.20525  Biso   1.000  O
  O47      1.0000 0.72585  0.87370  0.45454  Biso   1.000  O
  O48      1.0000 0.72552  0.87453  0.20534  Biso   1.000  O
  Zr25     1.0000 0.14008  0.52072  0.67327  Biso   1.000  Zr
  Zr26     1.0000 0.14057  0.72880  0.92256  Biso   1.000  Zr
  Zr27     1.0000 0.36240  0.77179  0.67371  Biso   1.000  Zr
  Zr28     1.0000 0.36319  0.98033  0.92414  Biso   1.000  Zr
  Zr29     1.0000 0.64017  0.52187  0.57880  Biso   1.000  Zr
  Zr30     1.0000 0.63989  0.72844  0.82843  Biso   1.000  Zr
  Zr31     1.0000 0.86331  0.77025  0.57934  Biso   1.000  Zr
  Zr32     1.0000 0.86476  0.97620  0.82880  Biso   1.000  Zr
  O49      1.0000 0.03403  0.66450  0.58466  Biso   1.000  O
  O50      1.0000 0.03425  0.58318  0.83555  Biso   1.000  O
  O51      1.0000 0.46984  0.91348  0.58276  Biso   1.000  O
  O52      1.0000 0.47090  0.83879  0.83402  Biso   1.000  O
  O53      1.0000 0.27701  0.62494  0.79724  Biso   1.000  O
  O54      1.0000 0.27673  0.62562  0.54768  Biso   1.000  O
  O55      1.0000 0.22643  0.87452  0.79798  Biso   1.000  O
  O56      1.0000 0.22540  0.87543  0.54783  Biso   1.000  O
  O57      1.0000 0.53311  0.66494  0.66830  Biso   1.000  O
  O58      1.0000 0.53265  0.58553  0.91818  Biso   1.000  O
  O59      1.0000 0.97040  0.91378  0.66753  Biso   1.000  O
  O60      1.0000 0.96838  0.83292  0.91727  Biso   1.000  O
  O61      1.0000 0.77735  0.62182  0.95469  Biso   1.000  O
  O62      1.0000 0.77710  0.62501  0.70519  Biso   1.000  O
  O63      1.0000 0.72545  0.87325  0.95574  Biso   1.000  O
  O64      1.0000 0.72651  0.87457  0.70455  Biso   1.000  O
  Li1      1.0000 0.53787  0.27278  0.01344  Biso   1.000  Li
