data_image0
_cell_length_a       10.1026
_cell_length_b       10.3646
_cell_length_c       5.03873
_cell_angle_alpha    90.0806
_cell_angle_beta     89.9159
_cell_angle_gamma    90.2265

_symmetry_space_group_name_H-M    "P 1"
_symmetry_int_tables_number       1

loop_
  _symmetry_equiv_pos_as_xyz
  'x, y, z'

loop_
  _atom_site_label
  _atom_site_occupancy
  _atom_site_fract_x
  _atom_site_fract_y
  _atom_site_fract_z
  _atom_site_thermal_displace_type
  _atom_site_B_iso_or_equiv
  _atom_site_type_symbol
  Li1      1.0000 0.12231  0.00498  0.22292  Biso   1.000  Li
  Zr1      1.0000 0.13643  0.51478  0.25184  Biso   1.000  Zr
  Zr2      1.0000 0.63189  0.01409  0.23969  Biso   1.000  Zr
  Zr3      1.0000 0.63339  0.51652  0.24939  Biso   1.000  Zr
  Zr4      1.0000 0.13468  0.22854  0.75606  Biso   1.000  Zr
  Zr5      1.0000 0.13773  0.73727  0.75620  Biso   1.000  Zr
  Zr6      1.0000 0.63204  0.23374  0.74398  Biso   1.000  Zr
  Zr7      1.0000 0.63503  0.73648  0.74687  Biso   1.000  Zr
  Zr8      1.0000 0.36299  0.26406  0.25431  Biso   1.000  Zr
  Zr9      1.0000 0.36366  0.76787  0.25246  Biso   1.000  Zr
  Zr10     1.0000 0.86316  0.26355  0.24520  Biso   1.000  Zr
  Zr11     1.0000 0.86819  0.76957  0.24680  Biso   1.000  Zr
  Zr12     1.0000 0.36500  0.48333  0.75156  Biso   1.000  Zr
  Zr13     1.0000 0.35833  0.98176  0.75296  Biso   1.000  Zr
  Zr14     1.0000 0.86484  0.48626  0.75117  Biso   1.000  Zr
  Zr15     1.0000 0.87087  0.98654  0.73726  Biso   1.000  Zr
  Zr16     1.0000 0.02431  0.18837  0.41618  Biso   1.000  Zr
  Zr17     1.0000 0.03347  0.68210  0.39336  Biso   1.000  Zr
  Zr18     1.0000 0.53661  0.18462  0.38018  Biso   1.000  Zr
  Zr19     1.0000 0.53380  0.68184  0.39369  Biso   1.000  Zr
  Zr20     1.0000 0.02858  0.07364  0.89115  Biso   1.000  Zr
  Zr21     1.0000 0.03335  0.56747  0.89598  Biso   1.000  Zr
  Zr22     1.0000 0.53344  0.06692  0.88294  Biso   1.000  Zr
  Zr23     1.0000 0.53405  0.56810  0.89073  Biso   1.000  Zr
  Zr24     1.0000 0.46571  0.43262  0.39268  Biso   1.000  Zr
  Zr25     1.0000 0.46819  0.93271  0.39674  Biso   1.000  Zr
  Zr26     1.0000 0.96681  0.43296  0.39418  Biso   1.000  Zr
  Zr27     1.0000 0.96863  0.92966  0.39472  Biso   1.000  Zr
  Zr28     1.0000 0.46628  0.31793  0.88981  Biso   1.000  Zr
  Zr29     1.0000 0.47174  0.82019  0.90234  Biso   1.000  Zr
  Zr30     1.0000 0.96785  0.32210  0.89891  Biso   1.000  Zr
  Zr31     1.0000 0.96597  0.81682  0.88571  Biso   1.000  Zr
  Zr32     1.0000 0.27827  0.12627  0.51189  Biso   1.000  Zr
  Zr33     1.0000 0.26860  0.61507  0.49833  Biso   1.000  Zr
  Zr34     1.0000 0.76609  0.11485  0.48713  Biso   1.000  Zr
  Zr35     1.0000 0.77018  0.61671  0.49317  Biso   1.000  Zr
  Zr36     1.0000 0.27628  0.13183  0.99583  Biso   1.000  Zr
  Zr37     1.0000 0.27099  0.62995  0.99870  Biso   1.000  Zr
  Zr38     1.0000 0.76731  0.13615  0.98667  Biso   1.000  Zr
  Zr39     1.0000 0.76822  0.63479  0.99396  Biso   1.000  Zr
  Zr40     1.0000 0.23112  0.38109  0.99963  Biso   1.000  Zr
  Zr41     1.0000 0.23231  0.87695  0.00255  Biso   1.000  Zr
  Zr42     1.0000 0.72978  0.38515  0.99288  Biso   1.000  Zr
  Zr43     1.0000 0.73459  0.88570  0.98756  Biso   1.000  Zr
  Zr44     1.0000 0.22829  0.36863  0.49886  Biso   1.000  Zr
  Zr45     1.0000 0.23939  0.86003  0.51084  Biso   1.000  Zr
  Zr46     1.0000 0.73152  0.36700  0.49375  Biso   1.000  Zr
  Zr47     1.0000 0.72891  0.86584  0.48638  Biso   1.000  Zr
