data_image0
_cell_length_a       10.0909
_cell_length_b       5.16514
_cell_length_c       10.1235
_cell_angle_alpha    90.0318
_cell_angle_beta     89.7962
_cell_angle_gamma    90.1493

_symmetry_space_group_name_H-M    "P 1"
_symmetry_int_tables_number       1

loop_
  _symmetry_equiv_pos_as_xyz
  'x, y, z'

loop_
  _atom_site_label
  _atom_site_occupancy
  _atom_site_fract_x
  _atom_site_fract_y
  _atom_site_fract_z
  _atom_site_thermal_displace_type
  _atom_site_B_iso_or_equiv
  _atom_site_type_symbol
  Li1      1.0000 0.12852  0.01145  0.11074  Biso   1.000  Li
  Zr1      1.0000 0.13450  0.03389  0.62855  Biso   1.000  Zr
  Zr2      1.0000 0.63349  0.02921  0.12272  Biso   1.000  Zr
  Zr3      1.0000 0.63125  0.02876  0.62189  Biso   1.000  Zr
  Zr4      1.0000 0.13656  0.46778  0.37419  Biso   1.000  Zr
  Zr5      1.0000 0.13750  0.46639  0.88224  Biso   1.000  Zr
  Zr6      1.0000 0.63289  0.47079  0.37337  Biso   1.000  Zr
  Zr7      1.0000 0.63346  0.46778  0.87251  Biso   1.000  Zr
  Zr8      1.0000 0.35878  0.52874  0.12665  Biso   1.000  Zr
  Zr9      1.0000 0.36511  0.53473  0.62721  Biso   1.000  Zr
  Zr10     1.0000 0.86505  0.53193  0.12203  Biso   1.000  Zr
  Zr11     1.0000 0.86532  0.53010  0.62218  Biso   1.000  Zr
  Zr12     1.0000 0.36033  0.96950  0.37243  Biso   1.000  Zr
  Zr13     1.0000 0.35994  0.96535  0.88160  Biso   1.000  Zr
  Zr14     1.0000 0.86989  0.97088  0.37176  Biso   1.000  Zr
  Zr15     1.0000 0.86496  0.97066  0.87168  Biso   1.000  Zr
  Zr16     1.0000 0.02677  0.38336  0.20542  Biso   1.000  Zr
  Zr17     1.0000 0.03477  0.37291  0.69528  Biso   1.000  Zr
  Zr18     1.0000 0.53475  0.36561  0.19502  Biso   1.000  Zr
  Zr19     1.0000 0.53400  0.36556  0.69429  Biso   1.000  Zr
  Zr20     1.0000 0.03261  0.13619  0.45178  Biso   1.000  Zr
  Zr21     1.0000 0.03136  0.13956  0.93229  Biso   1.000  Zr
  Zr22     1.0000 0.53258  0.13612  0.44446  Biso   1.000  Zr
  Zr23     1.0000 0.53473  0.13186  0.94450  Biso   1.000  Zr
  Zr24     1.0000 0.46963  0.86245  0.19815  Biso   1.000  Zr
  Zr25     1.0000 0.46499  0.86650  0.69874  Biso   1.000  Zr
  Zr26     1.0000 0.97141  0.85773  0.19926  Biso   1.000  Zr
  Zr27     1.0000 0.96395  0.86731  0.69269  Biso   1.000  Zr
  Zr28     1.0000 0.46875  0.63864  0.45092  Biso   1.000  Zr
  Zr29     1.0000 0.46858  0.63447  0.94714  Biso   1.000  Zr
  Zr30     1.0000 0.96732  0.63734  0.44710  Biso   1.000  Zr
  Zr31     1.0000 0.96467  0.63639  0.94310  Biso   1.000  Zr
  Zr32     1.0000 0.27597  0.24270  0.25270  Biso   1.000  Zr
  Zr33     1.0000 0.26992  0.23696  0.75024  Biso   1.000  Zr
  Zr34     1.0000 0.76878  0.22899  0.24442  Biso   1.000  Zr
  Zr35     1.0000 0.76793  0.23154  0.74389  Biso   1.000  Zr
  Zr36     1.0000 0.26934  0.26577  0.50097  Biso   1.000  Zr
  Zr37     1.0000 0.27550  0.26375  0.99698  Biso   1.000  Zr
  Zr38     1.0000 0.76748  0.27091  0.49453  Biso   1.000  Zr
  Zr39     1.0000 0.76877  0.26739  0.99449  Biso   1.000  Zr
  Zr40     1.0000 0.23038  0.76735  0.50251  Biso   1.000  Zr
  Zr41     1.0000 0.23199  0.75432  0.00093  Biso   1.000  Zr
  Zr42     1.0000 0.73259  0.77066  0.49491  Biso   1.000  Zr
  Zr43     1.0000 0.73033  0.76701  0.99559  Biso   1.000  Zr
  Zr44     1.0000 0.23925  0.72286  0.25683  Biso   1.000  Zr
  Zr45     1.0000 0.22909  0.73630  0.75092  Biso   1.000  Zr
  Zr46     1.0000 0.73143  0.73135  0.24557  Biso   1.000  Zr
  Zr47     1.0000 0.72962  0.73162  0.74467  Biso   1.000  Zr
