data_image0
_cell_length_a       10.1059
_cell_length_b       5.16346
_cell_length_c       10.5599
_cell_angle_alpha    89.9729
_cell_angle_beta     90.6091
_cell_angle_gamma    90.2779

_symmetry_space_group_name_H-M    "P 1"
_symmetry_int_tables_number       1

loop_
  _symmetry_equiv_pos_as_xyz
  'x, y, z'

loop_
  _atom_site_label
  _atom_site_occupancy
  _atom_site_fract_x
  _atom_site_fract_y
  _atom_site_fract_z
  _atom_site_thermal_displace_type
  _atom_site_B_iso_or_equiv
  _atom_site_type_symbol
  Zr1      1.0000 0.13814  0.04133  0.17329  Biso   1.000  Zr
  Zr2      1.0000 0.13751  0.45302  0.42458  Biso   1.000  Zr
  Zr3      1.0000 0.35349  0.54322  0.17845  Biso   1.000  Zr
  Zr4      1.0000 0.36040  0.95462  0.42535  Biso   1.000  Zr
  Zr5      1.0000 0.64649  0.06335  0.07551  Biso   1.000  Zr
  Zr6      1.0000 0.63787  0.45615  0.33287  Biso   1.000  Zr
  Zr7      1.0000 0.86454  0.53841  0.07862  Biso   1.000  Zr
  Zr8      1.0000 0.85967  0.95288  0.32680  Biso   1.000  Zr
  O1       1.0000 0.03393  0.32407  0.08298  Biso   1.000  O
  O2       1.0000 0.03125  0.16735  0.33393  Biso   1.000  O
  O3       1.0000 0.46849  0.83110  0.08601  Biso   1.000  O
  O4       1.0000 0.46583  0.66800  0.33684  Biso   1.000  O
  O5       1.0000 0.27417  0.24739  0.29853  Biso   1.000  O
  O6       1.0000 0.27690  0.25071  0.04752  Biso   1.000  O
  O7       1.0000 0.22140  0.74767  0.29977  Biso   1.000  O
  O8       1.0000 0.22404  0.75118  0.04920  Biso   1.000  O
  O9       1.0000 0.52887  0.33598  0.16914  Biso   1.000  O
  O10      1.0000 0.53174  0.16786  0.41761  Biso   1.000  O
  O11      1.0000 0.96587  0.82897  0.16837  Biso   1.000  O
  O12      1.0000 0.96830  0.66929  0.41898  Biso   1.000  O
  O13      1.0000 0.77552  0.24555  0.45473  Biso   1.000  O
  O14      1.0000 0.77838  0.25284  0.20784  Biso   1.000  O
  O15      1.0000 0.72453  0.74618  0.45386  Biso   1.000  O
  O16      1.0000 0.71810  0.74444  0.19955  Biso   1.000  O
  Zr9      1.0000 0.14110  0.03955  0.67380  Biso   1.000  Zr
  Zr10     1.0000 0.14068  0.45466  0.92278  Biso   1.000  Zr
  Zr11     1.0000 0.36329  0.54105  0.67484  Biso   1.000  Zr
  Zr12     1.0000 0.36317  0.95646  0.92477  Biso   1.000  Zr
  Zr13     1.0000 0.64065  0.03874  0.57784  Biso   1.000  Zr
  Zr14     1.0000 0.64436  0.45096  0.82233  Biso   1.000  Zr
  Zr15     1.0000 0.86389  0.53950  0.57816  Biso   1.000  Zr
  Zr16     1.0000 0.86427  0.95065  0.82886  Biso   1.000  Zr
  O17      1.0000 0.03309  0.32407  0.58391  Biso   1.000  O
  O18      1.0000 0.03511  0.16947  0.83266  Biso   1.000  O
  O19      1.0000 0.46956  0.82558  0.58420  Biso   1.000  O
  O20      1.0000 0.47315  0.67238  0.83443  Biso   1.000  O
  O21      1.0000 0.27842  0.24740  0.79774  Biso   1.000  O
  O22      1.0000 0.27636  0.24818  0.54804  Biso   1.000  O
  O23      1.0000 0.22757  0.74667  0.79864  Biso   1.000  O
  O24      1.0000 0.22547  0.74736  0.54919  Biso   1.000  O
  O25      1.0000 0.53308  0.32387  0.66646  Biso   1.000  O
  O26      1.0000 0.53424  0.17753  0.91919  Biso   1.000  O
  O27      1.0000 0.97078  0.82358  0.66890  Biso   1.000  O
  O28      1.0000 0.97124  0.67303  0.91986  Biso   1.000  O
  O29      1.0000 0.78691  0.24239  0.94834  Biso   1.000  O
  O30      1.0000 0.77878  0.24612  0.70184  Biso   1.000  O
  O31      1.0000 0.71999  0.74175  0.95696  Biso   1.000  O
  O32      1.0000 0.72680  0.74830  0.70285  Biso   1.000  O
  Li1      1.0000 0.59137  0.58955  0.06834  Biso   1.000  Li
