data_image0
_cell_length_a       5.12008
_cell_length_b       10.1155
_cell_length_c       10.1155
_cell_angle_alpha    89.9991
_cell_angle_beta     90.0007
_cell_angle_gamma    90

_symmetry_space_group_name_H-M    "P 1"
_symmetry_int_tables_number       1

loop_
  _symmetry_equiv_pos_as_xyz
  'x, y, z'

loop_
  _atom_site_label
  _atom_site_occupancy
  _atom_site_fract_x
  _atom_site_fract_y
  _atom_site_fract_z
  _atom_site_thermal_displace_type
  _atom_site_B_iso_or_equiv
  _atom_site_type_symbol
  Zr1      1.0000 0.25089  0.98854  0.12538  Biso   1.000  Zr
  Zr2      1.0000 0.25083  0.25006  0.38692  Biso   1.000  Zr
  Zr3      1.0000 0.75086  0.25008  0.12540  Biso   1.000  Zr
  Zr4      1.0000 0.75085  0.99883  0.37665  Biso   1.000  Zr
  Zr5      1.0000 0.06555  0.13838  0.01372  Biso   1.000  Zr
  Zr6      1.0000 0.94630  0.12008  0.25543  Biso   1.000  Zr
  Zr7      1.0000 0.06557  0.36174  0.23705  Biso   1.000  Zr
  Zr8      1.0000 0.94628  0.38005  0.99534  Biso   1.000  Zr
  Zr9      1.0000 0.43619  0.13838  0.23709  Biso   1.000  Zr
  Zr10     1.0000 0.55543  0.12004  0.99541  Biso   1.000  Zr
  Zr11     1.0000 0.43617  0.36175  0.01371  Biso   1.000  Zr
  Zr12     1.0000 0.55545  0.38011  0.25540  Biso   1.000  Zr
  Zr13     1.0000 0.25086  0.99715  0.62540  Biso   1.000  Zr
  Zr14     1.0000 0.25082  0.25010  0.86387  Biso   1.000  Zr
  Zr15     1.0000 0.75083  0.25008  0.62540  Biso   1.000  Zr
  Zr16     1.0000 0.75083  0.99882  0.87414  Biso   1.000  Zr
  Zr17     1.0000 0.03623  0.12740  0.50950  Biso   1.000  Zr
  Zr18     1.0000 0.96489  0.12480  0.75806  Biso   1.000  Zr
  Zr19     1.0000 0.03622  0.37276  0.74128  Biso   1.000  Zr
  Zr20     1.0000 0.96489  0.37535  0.49273  Biso   1.000  Zr
  Zr21     1.0000 0.46544  0.12740  0.74131  Biso   1.000  Zr
  Zr22     1.0000 0.53677  0.12479  0.49275  Biso   1.000  Zr
  Zr23     1.0000 0.46544  0.37276  0.50949  Biso   1.000  Zr
  Zr24     1.0000 0.53676  0.37536  0.75805  Biso   1.000  Zr
  Zr25     1.0000 0.25090  0.51160  0.12542  Biso   1.000  Zr
  Zr26     1.0000 0.25084  0.75008  0.37832  Biso   1.000  Zr
  Zr27     1.0000 0.75089  0.75007  0.12540  Biso   1.000  Zr
  Zr28     1.0000 0.75081  0.50134  0.37667  Biso   1.000  Zr
  Zr29     1.0000 0.03628  0.63415  0.00272  Biso   1.000  Zr
  Zr30     1.0000 0.96493  0.61742  0.25068  Biso   1.000  Zr
  Zr31     1.0000 0.03628  0.86599  0.24807  Biso   1.000  Zr
  Zr32     1.0000 0.96493  0.88272  0.00011  Biso   1.000  Zr
  Zr33     1.0000 0.46546  0.63417  0.24810  Biso   1.000  Zr
  Zr34     1.0000 0.53683  0.61741  0.00013  Biso   1.000  Zr
  Zr35     1.0000 0.46546  0.86597  0.00270  Biso   1.000  Zr
  Zr36     1.0000 0.53683  0.88272  0.25067  Biso   1.000  Zr
  Zr37     1.0000 0.25086  0.50301  0.62540  Biso   1.000  Zr
  Zr38     1.0000 0.25084  0.75007  0.87247  Biso   1.000  Zr
  Zr39     1.0000 0.75085  0.75009  0.62540  Biso   1.000  Zr
  Zr40     1.0000 0.75086  0.50133  0.87414  Biso   1.000  Zr
  Zr41     1.0000 0.03961  0.62847  0.50379  Biso   1.000  Zr
  Zr42     1.0000 0.96253  0.62298  0.75249  Biso   1.000  Zr
  Zr43     1.0000 0.03963  0.87168  0.74701  Biso   1.000  Zr
  Zr44     1.0000 0.96252  0.87718  0.49830  Biso   1.000  Zr
  Zr45     1.0000 0.46209  0.62847  0.74701  Biso   1.000  Zr
  Zr46     1.0000 0.53917  0.62298  0.49832  Biso   1.000  Zr
  Zr47     1.0000 0.46208  0.87169  0.50378  Biso   1.000  Zr
  Zr48     1.0000 0.53918  0.87718  0.75248  Biso   1.000  Zr
  Li1      1.0000 0.25087  0.25006  0.12539  Biso   1.000  Li
