data_image0
_cell_length_a       10.1212
_cell_length_b       10.2797
_cell_length_c       10.5036
_cell_angle_alpha    89.9301
_cell_angle_beta     90.0145
_cell_angle_gamma    89.9661

_symmetry_space_group_name_H-M    "P 1"
_symmetry_int_tables_number       1

loop_
  _symmetry_equiv_pos_as_xyz
  'x, y, z'

loop_
  _atom_site_label
  _atom_site_occupancy
  _atom_site_fract_x
  _atom_site_fract_y
  _atom_site_fract_z
  _atom_site_thermal_displace_type
  _atom_site_B_iso_or_equiv
  _atom_site_type_symbol
  Mg1      1.0000 0.13420  0.01454  0.17798  Biso   1.000  Mg
  Zr1      1.0000 0.13940  0.02099  0.67097  Biso   1.000  Zr
  Zr2      1.0000 0.14051  0.52109  0.17194  Biso   1.000  Zr
  Zr3      1.0000 0.13950  0.52118  0.67230  Biso   1.000  Zr
  Zr4      1.0000 0.13945  0.22695  0.41865  Biso   1.000  Zr
  Zr5      1.0000 0.14047  0.22541  0.92563  Biso   1.000  Zr
  Zr6      1.0000 0.14123  0.73046  0.42021  Biso   1.000  Zr
  Zr7      1.0000 0.14135  0.73140  0.92297  Biso   1.000  Zr
  Zr8      1.0000 0.35665  0.26587  0.17191  Biso   1.000  Zr
  Zr9      1.0000 0.35982  0.27088  0.67192  Biso   1.000  Zr
  Zr10     1.0000 0.35794  0.77431  0.17130  Biso   1.000  Zr
  Zr11     1.0000 0.36127  0.77199  0.67138  Biso   1.000  Zr
  Zr12     1.0000 0.36090  0.47837  0.42143  Biso   1.000  Zr
  Zr13     1.0000 0.36009  0.47803  0.92278  Biso   1.000  Zr
  Zr14     1.0000 0.35776  0.98071  0.41808  Biso   1.000  Zr
  Zr15     1.0000 0.35855  0.97995  0.92416  Biso   1.000  Zr
  Zr16     1.0000 0.63930  0.02120  0.07821  Biso   1.000  Zr
  Zr17     1.0000 0.63825  0.02084  0.57699  Biso   1.000  Zr
  Zr18     1.0000 0.63805  0.51992  0.07875  Biso   1.000  Zr
  Zr19     1.0000 0.63894  0.52119  0.57850  Biso   1.000  Zr
  Zr20     1.0000 0.63872  0.22960  0.32783  Biso   1.000  Zr
  Zr21     1.0000 0.63916  0.22913  0.82861  Biso   1.000  Zr
  Zr22     1.0000 0.63818  0.73014  0.32728  Biso   1.000  Zr
  Zr23     1.0000 0.63856  0.72902  0.82886  Biso   1.000  Zr
  Zr24     1.0000 0.86501  0.26814  0.07884  Biso   1.000  Zr
  Zr25     1.0000 0.86045  0.27113  0.57783  Biso   1.000  Zr
  Zr26     1.0000 0.86123  0.77256  0.07924  Biso   1.000  Zr
  Zr27     1.0000 0.86075  0.77064  0.57815  Biso   1.000  Zr
  Zr28     1.0000 0.86052  0.47991  0.32824  Biso   1.000  Zr
  Zr29     1.0000 0.86134  0.47887  0.82955  Biso   1.000  Zr
  Zr30     1.0000 0.86353  0.97991  0.32619  Biso   1.000  Zr
  Zr31     1.0000 0.86021  0.97896  0.82803  Biso   1.000  Zr
  O1       1.0000 0.03318  0.16151  0.08362  Biso   1.000  O
  O2       1.0000 0.03163  0.16501  0.58376  Biso   1.000  O
  O3       1.0000 0.03154  0.66350  0.08313  Biso   1.000  O
  O4       1.0000 0.03224  0.66463  0.58373  Biso   1.000  O
  O5       1.0000 0.02861  0.08802  0.33758  Biso   1.000  O
  O6       1.0000 0.03089  0.08582  0.83241  Biso   1.000  O
  O7       1.0000 0.03160  0.58742  0.33270  Biso   1.000  O
  O8       1.0000 0.03211  0.58568  0.83422  Biso   1.000  O
  O9       1.0000 0.46779  0.41162  0.08266  Biso   1.000  O
  O10      1.0000 0.46865  0.41352  0.58287  Biso   1.000  O
  O11      1.0000 0.47064  0.91294  0.08203  Biso   1.000  O
  O12      1.0000 0.46797  0.91370  0.58143  Biso   1.000  O
  O13      1.0000 0.46861  0.33691  0.33289  Biso   1.000  O
  O14      1.0000 0.46881  0.33661  0.83218  Biso   1.000  O
  O15      1.0000 0.46939  0.83890  0.33116  Biso   1.000  O
  O16      1.0000 0.46848  0.83689  0.83223  Biso   1.000  O
  O17      1.0000 0.27781  0.12579  0.29822  Biso   1.000  O
  O18      1.0000 0.27420  0.12356  0.79404  Biso   1.000  O
  O19      1.0000 0.27614  0.62326  0.29545  Biso   1.000  O
  O20      1.0000 0.27538  0.62479  0.79611  Biso   1.000  O
  O21      1.0000 0.28350  0.13094  0.04020  Biso   1.000  O
  O22      1.0000 0.27470  0.12578  0.54584  Biso   1.000  O
  O23      1.0000 0.27524  0.62464  0.04629  Biso   1.000  O
  O24      1.0000 0.27572  0.62636  0.54563  Biso   1.000  O
  O25      1.0000 0.22381  0.37457  0.29591  Biso   1.000  O
  O26      1.0000 0.22524  0.37409  0.79635  Biso   1.000  O
  O27      1.0000 0.22522  0.87212  0.29599  Biso   1.000  O
  O28      1.0000 0.22448  0.87455  0.79410  Biso   1.000  O
  O29      1.0000 0.22287  0.37685  0.04650  Biso   1.000  O
  O30      1.0000 0.22489  0.37621  0.54592  Biso   1.000  O
  O31      1.0000 0.22853  0.87340  0.04264  Biso   1.000  O
  O32      1.0000 0.22416  0.87649  0.54525  Biso   1.000  O
  O33      1.0000 0.53223  0.16385  0.16712  Biso   1.000  O
  O34      1.0000 0.53137  0.16391  0.66689  Biso   1.000  O
  O35      1.0000 0.53041  0.66277  0.16772  Biso   1.000  O
  O36      1.0000 0.53163  0.66360  0.66775  Biso   1.000  O
  O37      1.0000 0.53156  0.08630  0.41636  Biso   1.000  O
  O38      1.0000 0.53287  0.08590  0.91657  Biso   1.000  O
  O39      1.0000 0.53120  0.58739  0.41807  Biso   1.000  O
  O40      1.0000 0.53069  0.58611  0.91773  Biso   1.000  O
  O41      1.0000 0.96906  0.41398  0.16743  Biso   1.000  O
  O42      1.0000 0.96824  0.41438  0.66701  Biso   1.000  O
  O43      1.0000 0.96607  0.91123  0.16766  Biso   1.000  O
  O44      1.0000 0.96757  0.91475  0.66580  Biso   1.000  O
  O45      1.0000 0.96816  0.33778  0.41706  Biso   1.000  O
  O46      1.0000 0.96927  0.33574  0.91750  Biso   1.000  O
  O47      1.0000 0.96891  0.83585  0.41713  Biso   1.000  O
  O48      1.0000 0.96806  0.83548  0.91577  Biso   1.000  O
  O49      1.0000 0.77624  0.12369  0.95411  Biso   1.000  O
  O50      1.0000 0.77397  0.12593  0.45473  Biso   1.000  O
  O51      1.0000 0.77421  0.62319  0.95426  Biso   1.000  O
  O52      1.0000 0.77503  0.62477  0.45441  Biso   1.000  O
  O53      1.0000 0.77475  0.12580  0.20432  Biso   1.000  O
  O54      1.0000 0.77483  0.12573  0.70424  Biso   1.000  O
  O55      1.0000 0.77487  0.62614  0.20438  Biso   1.000  O
  O56      1.0000 0.77525  0.62566  0.70454  Biso   1.000  O
  O57      1.0000 0.72522  0.37330  0.95455  Biso   1.000  O
  O58      1.0000 0.72456  0.37555  0.45444  Biso   1.000  O
  O59      1.0000 0.72495  0.87418  0.95378  Biso   1.000  O
  O60      1.0000 0.72569  0.87471  0.45400  Biso   1.000  O
  O61      1.0000 0.72591  0.37590  0.20480  Biso   1.000  O
  O62      1.0000 0.72511  0.37583  0.70437  Biso   1.000  O
  O63      1.0000 0.72221  0.87586  0.20367  Biso   1.000  O
  O64      1.0000 0.72458  0.87537  0.70409  Biso   1.000  O
