data_image0
_cell_length_a       10.1002
_cell_length_b       10.0985
_cell_length_c       5.02528
_cell_angle_alpha    89.9989
_cell_angle_beta     90.0017
_cell_angle_gamma    89.9992

_symmetry_space_group_name_H-M    "P 1"
_symmetry_int_tables_number       1

loop_
  _symmetry_equiv_pos_as_xyz
  'x, y, z'

loop_
  _atom_site_label
  _atom_site_occupancy
  _atom_site_fract_x
  _atom_site_fract_y
  _atom_site_fract_z
  _atom_site_thermal_displace_type
  _atom_site_B_iso_or_equiv
  _atom_site_type_symbol
  Mn1      1.0000 0.12526  0.00020  0.25057  Biso   1.000  Mn
  Zr1      1.0000 0.12528  0.50014  0.25059  Biso   1.000  Zr
  Zr2      1.0000 0.62527  0.00013  0.25061  Biso   1.000  Zr
  Zr3      1.0000 0.62528  0.50015  0.25062  Biso   1.000  Zr
  Zr4      1.0000 0.12528  0.25035  0.75061  Biso   1.000  Zr
  Zr5      1.0000 0.12527  0.74992  0.75058  Biso   1.000  Zr
  Zr6      1.0000 0.62528  0.25095  0.75062  Biso   1.000  Zr
  Zr7      1.0000 0.62527  0.74934  0.75060  Biso   1.000  Zr
  Zr8      1.0000 0.37425  0.24910  0.26101  Biso   1.000  Zr
  Zr9      1.0000 0.37421  0.75120  0.24018  Biso   1.000  Zr
  Zr10     1.0000 0.87631  0.24908  0.24023  Biso   1.000  Zr
  Zr11     1.0000 0.87633  0.75118  0.26103  Biso   1.000  Zr
  Zr12     1.0000 0.37553  0.00014  0.75058  Biso   1.000  Zr
  Zr13     1.0000 0.37603  0.50014  0.75062  Biso   1.000  Zr
  Zr14     1.0000 0.87502  0.00013  0.75068  Biso   1.000  Zr
  Zr15     1.0000 0.87453  0.50013  0.75062  Biso   1.000  Zr
  Zr16     1.0000 0.97515  0.15019  0.94344  Biso   1.000  Zr
  Zr17     1.0000 0.98864  0.64593  0.99003  Biso   1.000  Zr
  Zr18     1.0000 0.47939  0.13660  0.99017  Biso   1.000  Zr
  Zr19     1.0000 0.48886  0.63638  0.99202  Biso   1.000  Zr
  Zr20     1.0000 0.02516  0.10035  0.45502  Biso   1.000  Zr
  Zr21     1.0000 0.01020  0.60733  0.49757  Biso   1.000  Zr
  Zr22     1.0000 0.51821  0.11540  0.49759  Biso   1.000  Zr
  Zr23     1.0000 0.51136  0.61424  0.49879  Biso   1.000  Zr
  Zr24     1.0000 0.98864  0.35433  0.51122  Biso   1.000  Zr
  Zr25     1.0000 0.97507  0.85002  0.55799  Biso   1.000  Zr
  Zr26     1.0000 0.48886  0.36391  0.50923  Biso   1.000  Zr
  Zr27     1.0000 0.47937  0.86370  0.51097  Biso   1.000  Zr
  Zr28     1.0000 0.01020  0.39292  0.00367  Biso   1.000  Zr
  Zr29     1.0000 0.02517  0.89991  0.04632  Biso   1.000  Zr
  Zr30     1.0000 0.51136  0.38605  0.00247  Biso   1.000  Zr
  Zr31     1.0000 0.51820  0.88490  0.00357  Biso   1.000  Zr
  Zr32     1.0000 0.27542  0.15023  0.55784  Biso   1.000  Zr
  Zr33     1.0000 0.26191  0.64595  0.51118  Biso   1.000  Zr
  Zr34     1.0000 0.77117  0.13660  0.51108  Biso   1.000  Zr
  Zr35     1.0000 0.76169  0.63638  0.50920  Biso   1.000  Zr
  Zr36     1.0000 0.22540  0.10036  0.04622  Biso   1.000  Zr
  Zr37     1.0000 0.24035  0.60734  0.00365  Biso   1.000  Zr
  Zr38     1.0000 0.73235  0.11539  0.00366  Biso   1.000  Zr
  Zr39     1.0000 0.73919  0.61423  0.00243  Biso   1.000  Zr
  Zr40     1.0000 0.26191  0.35434  0.99002  Biso   1.000  Zr
  Zr41     1.0000 0.27545  0.85004  0.94325  Biso   1.000  Zr
  Zr42     1.0000 0.76169  0.36390  0.99201  Biso   1.000  Zr
  Zr43     1.0000 0.77115  0.86369  0.99026  Biso   1.000  Zr
  Zr44     1.0000 0.24035  0.39294  0.49756  Biso   1.000  Zr
  Zr45     1.0000 0.22534  0.89992  0.45488  Biso   1.000  Zr
  Zr46     1.0000 0.73919  0.38605  0.49878  Biso   1.000  Zr
  Zr47     1.0000 0.73232  0.88490  0.49768  Biso   1.000  Zr
