data_image0
_cell_length_a       10.0357
_cell_length_b       5.14364
_cell_length_c       10.4398
_cell_angle_alpha    89.4935
_cell_angle_beta     89.9638
_cell_angle_gamma    90.1166

_symmetry_space_group_name_H-M    "P 1"
_symmetry_int_tables_number       1

loop_
  _symmetry_equiv_pos_as_xyz
  'x, y, z'

loop_
  _atom_site_label
  _atom_site_occupancy
  _atom_site_fract_x
  _atom_site_fract_y
  _atom_site_fract_z
  _atom_site_thermal_displace_type
  _atom_site_B_iso_or_equiv
  _atom_site_type_symbol
  Mn1      1.0000 0.12990  0.05661  0.18344  Biso   1.000  Mn
  Zr1      1.0000 0.13950  0.04192  0.67121  Biso   1.000  Zr
  Zr2      1.0000 0.13959  0.46899  0.41800  Biso   1.000  Zr
  Zr3      1.0000 0.14062  0.44651  0.92545  Biso   1.000  Zr
  Zr4      1.0000 0.35490  0.54045  0.17013  Biso   1.000  Zr
  Zr5      1.0000 0.36125  0.54340  0.67085  Biso   1.000  Zr
  Zr6      1.0000 0.35793  0.96337  0.41682  Biso   1.000  Zr
  Zr7      1.0000 0.35885  0.94944  0.92468  Biso   1.000  Zr
  Zr8      1.0000 0.63868  0.04456  0.07892  Biso   1.000  Zr
  Zr9      1.0000 0.63710  0.04209  0.57947  Biso   1.000  Zr
  Zr10     1.0000 0.63649  0.46118  0.32759  Biso   1.000  Zr
  Zr11     1.0000 0.63933  0.45922  0.83090  Biso   1.000  Zr
  Zr12     1.0000 0.86957  0.54144  0.08123  Biso   1.000  Zr
  Zr13     1.0000 0.86021  0.54203  0.57818  Biso   1.000  Zr
  Zr14     1.0000 0.86172  0.96593  0.32838  Biso   1.000  Zr
  Zr15     1.0000 0.86138  0.95629  0.82941  Biso   1.000  Zr
  O1       1.0000 0.03585  0.32266  0.09351  Biso   1.000  O
  O2       1.0000 0.03056  0.32388  0.57622  Biso   1.000  O
  O3       1.0000 0.03652  0.17421  0.32381  Biso   1.000  O
  O4       1.0000 0.03179  0.16655  0.83162  Biso   1.000  O
  O5       1.0000 0.46987  0.82937  0.08720  Biso   1.000  O
  O6       1.0000 0.46395  0.83867  0.58492  Biso   1.000  O
  O7       1.0000 0.46034  0.66099  0.33709  Biso   1.000  O
  O8       1.0000 0.46693  0.66632  0.83555  Biso   1.000  O
  O9       1.0000 0.26820  0.25181  0.29347  Biso   1.000  O
  O10      1.0000 0.27746  0.24545  0.79858  Biso   1.000  O
  O11      1.0000 0.26313  0.21922  0.05756  Biso   1.000  O
  O12      1.0000 0.27630  0.25602  0.54422  Biso   1.000  O
  O13      1.0000 0.21876  0.76937  0.28691  Biso   1.000  O
  O14      1.0000 0.22321  0.74432  0.79254  Biso   1.000  O
  O15      1.0000 0.23020  0.72614  0.03958  Biso   1.000  O
  O16      1.0000 0.22246  0.75442  0.54139  Biso   1.000  O
  O17      1.0000 0.53249  0.33719  0.16444  Biso   1.000  O
  O18      1.0000 0.53439  0.33701  0.66453  Biso   1.000  O
  O19      1.0000 0.53350  0.16444  0.41252  Biso   1.000  O
  O20      1.0000 0.53215  0.16824  0.91704  Biso   1.000  O
  O21      1.0000 0.98756  0.85017  0.16355  Biso   1.000  O
  O22      1.0000 0.96796  0.82624  0.66575  Biso   1.000  O
  O23      1.0000 0.96550  0.67078  0.41189  Biso   1.000  O
  O24      1.0000 0.96970  0.66246  0.91852  Biso   1.000  O
  O25      1.0000 0.77888  0.25260  0.95688  Biso   1.000  O
  O26      1.0000 0.77618  0.24926  0.45365  Biso   1.000  O
  O27      1.0000 0.77528  0.25299  0.20522  Biso   1.000  O
  O28      1.0000 0.77617  0.25061  0.70566  Biso   1.000  O
  O29      1.0000 0.72590  0.75019  0.95623  Biso   1.000  O
  O30      1.0000 0.72263  0.74991  0.45492  Biso   1.000  O
  O31      1.0000 0.73533  0.75316  0.20518  Biso   1.000  O
  O32      1.0000 0.72387  0.75192  0.70523  Biso   1.000  O
