data_image0
_cell_length_a       5.13446
_cell_length_b       10.2493
_cell_length_c       10.5462
_cell_angle_alpha    90.0109
_cell_angle_beta     80.0814
_cell_angle_gamma    89.8367

_symmetry_space_group_name_H-M    "P 1"
_symmetry_int_tables_number       1

loop_
  _symmetry_equiv_pos_as_xyz
  'x, y, z'

loop_
  _atom_site_label
  _atom_site_occupancy
  _atom_site_fract_x
  _atom_site_fract_y
  _atom_site_fract_z
  _atom_site_thermal_displace_type
  _atom_site_B_iso_or_equiv
  _atom_site_type_symbol
  N1       1.0000 0.09001  0.05364  0.16909  Biso   1.000  N
  Zr1      1.0000 0.27314  0.01798  0.64844  Biso   1.000  Zr
  Zr2      1.0000 0.26622  0.52213  0.14445  Biso   1.000  Zr
  Zr3      1.0000 0.28344  0.52126  0.64760  Biso   1.000  Zr
  Zr4      1.0000 0.29285  0.23105  0.39518  Biso   1.000  Zr
  Zr5      1.0000 0.29252  0.22653  0.89247  Biso   1.000  Zr
  Zr6      1.0000 0.28344  0.72644  0.39326  Biso   1.000  Zr
  Zr7      1.0000 0.28570  0.73357  0.89672  Biso   1.000  Zr
  Zr8      1.0000 0.69160  0.26834  0.10841  Biso   1.000  Zr
  Zr9      1.0000 0.73255  0.26794  0.60272  Biso   1.000  Zr
  Zr10     1.0000 0.71256  0.77115  0.09722  Biso   1.000  Zr
  Zr11     1.0000 0.72964  0.76991  0.60458  Biso   1.000  Zr
  Zr12     1.0000 0.72486  0.47714  0.35132  Biso   1.000  Zr
  Zr13     1.0000 0.73728  0.47384  0.85698  Biso   1.000  Zr
  Zr14     1.0000 0.70286  0.97791  0.36221  Biso   1.000  Zr
  Zr15     1.0000 0.71832  0.97946  0.85862  Biso   1.000  Zr
  O1       1.0000 0.06115  0.14720  0.08858  Biso   1.000  O
  O2       1.0000 0.05371  0.14567  0.55681  Biso   1.000  O
  O3       1.0000 0.06608  0.67089  0.07874  Biso   1.000  O
  O4       1.0000 0.06816  0.65907  0.57407  Biso   1.000  O
  O5       1.0000 0.07184  0.09295  0.29218  Biso   1.000  O
  O6       1.0000 0.06638  0.09094  0.82300  Biso   1.000  O
  O7       1.0000 0.05808  0.58789  0.32493  Biso   1.000  O
  O8       1.0000 0.07190  0.58440  0.82655  Biso   1.000  O
  O9       1.0000 0.92786  0.40891  0.17459  Biso   1.000  O
  O10      1.0000 0.95270  0.40293  0.67868  Biso   1.000  O
  O11      1.0000 0.94153  0.95026  0.16661  Biso   1.000  O
  O12      1.0000 0.93744  0.90778  0.67917  Biso   1.000  O
  O13      1.0000 0.93933  0.33514  0.42395  Biso   1.000  O
  O14      1.0000 0.94296  0.33297  0.93520  Biso   1.000  O
  O15      1.0000 0.94960  0.84415  0.42306  Biso   1.000  O
  O16      1.0000 0.95099  0.84274  0.92735  Biso   1.000  O
  O17      1.0000 0.58048  0.13931  0.25713  Biso   1.000  O
  O18      1.0000 0.55177  0.12551  0.73703  Biso   1.000  O
  O19      1.0000 0.54330  0.62267  0.23724  Biso   1.000  O
  O20      1.0000 0.55910  0.62592  0.73994  Biso   1.000  O
  O21      1.0000 0.54309  0.11870  0.49668  Biso   1.000  O
  O22      1.0000 0.56853  0.13352  0.97961  Biso   1.000  O
  O23      1.0000 0.55337  0.61972  0.48911  Biso   1.000  O
  O24      1.0000 0.55609  0.61946  0.99175  Biso   1.000  O
  O25      1.0000 0.44294  0.37889  0.00990  Biso   1.000  O
  O26      1.0000 0.45409  0.37357  0.50886  Biso   1.000  O
  O27      1.0000 0.47002  0.87057  0.99922  Biso   1.000  O
  O28      1.0000 0.45039  0.87467  0.51213  Biso   1.000  O
  O29      1.0000 0.43463  0.37438  0.25859  Biso   1.000  O
  O30      1.0000 0.46324  0.36892  0.75980  Biso   1.000  O
  O31      1.0000 0.49947  0.86038  0.26491  Biso   1.000  O
  O32      1.0000 0.45290  0.87130  0.75665  Biso   1.000  O
