data_image0
_cell_length_a       10.0672
_cell_length_b       10.4579
_cell_length_c       10.1087
_cell_angle_alpha    89.8479
_cell_angle_beta     89.9566
_cell_angle_gamma    89.8276

_symmetry_space_group_name_H-M    "P 1"
_symmetry_int_tables_number       1

loop_
  _symmetry_equiv_pos_as_xyz
  'x, y, z'

loop_
  _atom_site_label
  _atom_site_occupancy
  _atom_site_fract_x
  _atom_site_fract_y
  _atom_site_fract_z
  _atom_site_thermal_displace_type
  _atom_site_B_iso_or_equiv
  _atom_site_type_symbol
  Zr1      1.0000 0.12993  0.00984  0.12431  Biso   1.000  Zr
  Zr2      1.0000 0.13422  0.23025  0.38182  Biso   1.000  Zr
  Zr3      1.0000 0.37795  0.26690  0.11977  Biso   1.000  Zr
  Zr4      1.0000 0.36623  0.48273  0.37410  Biso   1.000  Zr
  Zr5      1.0000 0.00965  0.16531  0.21799  Biso   1.000  Zr
  Zr6      1.0000 0.03655  0.06278  0.45077  Biso   1.000  Zr
  Zr7      1.0000 0.46546  0.43422  0.19468  Biso   1.000  Zr
  Zr8      1.0000 0.46596  0.31732  0.44558  Biso   1.000  Zr
  Zr9      1.0000 0.26137  0.11645  0.24498  Biso   1.000  Zr
  Zr10     1.0000 0.27166  0.13122  0.49795  Biso   1.000  Zr
  Zr11     1.0000 0.23054  0.38169  0.49735  Biso   1.000  Zr
  Zr12     1.0000 0.23138  0.36497  0.24701  Biso   1.000  Zr
  Zr13     1.0000 0.13499  0.00946  0.62429  Biso   1.000  Zr
  Zr14     1.0000 0.12999  0.23427  0.85328  Biso   1.000  Zr
  Zr15     1.0000 0.37080  0.26555  0.62294  Biso   1.000  Zr
  Zr16     1.0000 0.36872  0.48768  0.87233  Biso   1.000  Zr
  Zr17     1.0000 0.03498  0.17793  0.68698  Biso   1.000  Zr
  Zr18     1.0000 0.03202  0.06783  0.94668  Biso   1.000  Zr
  Zr19     1.0000 0.46886  0.43235  0.69440  Biso   1.000  Zr
  Zr20     1.0000 0.46854  0.31935  0.94285  Biso   1.000  Zr
  Zr21     1.0000 0.27032  0.11501  0.74456  Biso   1.000  Zr
  Zr22     1.0000 0.25952  0.14424  0.99662  Biso   1.000  Zr
  Zr23     1.0000 0.23581  0.39686  0.99470  Biso   1.000  Zr
  Zr24     1.0000 0.23629  0.36724  0.74453  Biso   1.000  Zr
  Zr25     1.0000 0.13720  0.53016  0.12527  Biso   1.000  Zr
  Zr26     1.0000 0.13522  0.73476  0.37761  Biso   1.000  Zr
  Zr27     1.0000 0.36851  0.76796  0.12419  Biso   1.000  Zr
  Zr28     1.0000 0.36577  0.98555  0.37342  Biso   1.000  Zr
  Zr29     1.0000 0.03244  0.68301  0.20048  Biso   1.000  Zr
  Zr30     1.0000 0.03577  0.56626  0.44556  Biso   1.000  Zr
  Zr31     1.0000 0.46278  0.93451  0.19595  Biso   1.000  Zr
  Zr32     1.0000 0.46746  0.81850  0.44598  Biso   1.000  Zr
  Zr33     1.0000 0.27280  0.62022  0.24898  Biso   1.000  Zr
  Zr34     1.0000 0.27064  0.63213  0.49870  Biso   1.000  Zr
  Zr35     1.0000 0.23342  0.88180  0.49705  Biso   1.000  Zr
  Zr36     1.0000 0.22923  0.86570  0.24733  Biso   1.000  Zr
  Zr37     1.0000 0.13551  0.51511  0.62456  Biso   1.000  Zr
  Zr38     1.0000 0.13202  0.73685  0.87174  Biso   1.000  Zr
  Zr39     1.0000 0.36945  0.76513  0.62420  Biso   1.000  Zr
  Zr40     1.0000 0.36606  0.98662  0.87453  Biso   1.000  Zr
  Zr41     1.0000 0.03521  0.68078  0.69416  Biso   1.000  Zr
  Zr42     1.0000 0.03335  0.57070  0.94780  Biso   1.000  Zr
  Zr43     1.0000 0.46774  0.93194  0.69783  Biso   1.000  Zr
  Zr44     1.0000 0.46837  0.82047  0.94687  Biso   1.000  Zr
  Zr45     1.0000 0.26964  0.61653  0.74746  Biso   1.000  Zr
  Zr46     1.0000 0.26772  0.64173  0.99727  Biso   1.000  Zr
  Zr47     1.0000 0.23233  0.88756  0.99689  Biso   1.000  Zr
  Zr48     1.0000 0.23376  0.86492  0.74731  Biso   1.000  Zr
  Zr49     1.0000 0.63112  0.01177  0.12432  Biso   1.000  Zr
  Zr50     1.0000 0.63306  0.23170  0.37882  Biso   1.000  Zr
  Zr51     1.0000 0.84935  0.26122  0.12914  Biso   1.000  Zr
  Zr52     1.0000 0.87031  0.48239  0.37233  Biso   1.000  Zr
  Zr53     1.0000 0.53353  0.18124  0.20016  Biso   1.000  Zr
  Zr54     1.0000 0.53299  0.06671  0.44814  Biso   1.000  Zr
  Zr55     1.0000 0.96886  0.42619  0.19113  Biso   1.000  Zr
  Zr56     1.0000 0.96699  0.31790  0.44921  Biso   1.000  Zr
  Zr57     1.0000 0.75940  0.11258  0.24979  Biso   1.000  Zr
  Zr58     1.0000 0.77092  0.13241  0.49813  Biso   1.000  Zr
  Zr59     1.0000 0.73257  0.38286  0.49876  Biso   1.000  Zr
  Zr60     1.0000 0.72708  0.36650  0.25091  Biso   1.000  Zr
  Zr61     1.0000 0.63550  0.01324  0.62451  Biso   1.000  Zr
  Zr62     1.0000 0.63477  0.23289  0.87189  Biso   1.000  Zr
  Zr63     1.0000 0.86393  0.26649  0.62415  Biso   1.000  Zr
  Zr64     1.0000 0.86854  0.48184  0.87784  Biso   1.000  Zr
  Zr65     1.0000 0.53746  0.18143  0.69549  Biso   1.000  Zr
  Zr66     1.0000 0.52861  0.07165  0.95046  Biso   1.000  Zr
  Zr67     1.0000 0.97253  0.42676  0.70314  Biso   1.000  Zr
  Zr68     1.0000 0.96553  0.31169  0.94755  Biso   1.000  Zr
  Zr69     1.0000 0.77216  0.11592  0.74767  Biso   1.000  Zr
  Zr70     1.0000 0.76592  0.13075  0.99887  Biso   1.000  Zr
  Zr71     1.0000 0.72966  0.38237  0.99993  Biso   1.000  Zr
  Zr72     1.0000 0.73290  0.36770  0.74956  Biso   1.000  Zr
  Zr73     1.0000 0.63340  0.51774  0.12549  Biso   1.000  Zr
  Zr74     1.0000 0.63469  0.73356  0.37597  Biso   1.000  Zr
  Zr75     1.0000 0.86333  0.76373  0.12520  Biso   1.000  Zr
  Zr76     1.0000 0.87027  0.98585  0.37202  Biso   1.000  Zr
  Zr77     1.0000 0.53630  0.68483  0.19552  Biso   1.000  Zr
  Zr78     1.0000 0.53474  0.56668  0.44501  Biso   1.000  Zr
  Zr79     1.0000 0.96380  0.92674  0.19546  Biso   1.000  Zr
  Zr80     1.0000 0.96793  0.81804  0.44767  Biso   1.000  Zr
  Zr81     1.0000 0.77013  0.61488  0.24832  Biso   1.000  Zr
  Zr82     1.0000 0.77097  0.63238  0.49788  Biso   1.000  Zr
  Zr83     1.0000 0.73392  0.88379  0.49697  Biso   1.000  Zr
  Zr84     1.0000 0.72983  0.86467  0.24814  Biso   1.000  Zr
  Zr85     1.0000 0.63648  0.51562  0.62456  Biso   1.000  Zr
  Zr86     1.0000 0.63453  0.73407  0.87455  Biso   1.000  Zr
  Zr87     1.0000 0.86658  0.76483  0.62421  Biso   1.000  Zr
  Zr88     1.0000 0.86712  0.98304  0.87562  Biso   1.000  Zr
  Zr89     1.0000 0.53637  0.68189  0.69615  Biso   1.000  Zr
  Zr90     1.0000 0.53362  0.57002  0.94807  Biso   1.000  Zr
  Zr91     1.0000 0.96912  0.92834  0.70056  Biso   1.000  Zr
  Zr92     1.0000 0.96678  0.81735  0.94925  Biso   1.000  Zr
  Zr93     1.0000 0.77200  0.61489  0.74906  Biso   1.000  Zr
  Zr94     1.0000 0.76864  0.63213  0.99809  Biso   1.000  Zr
  Zr95     1.0000 0.73069  0.88208  0.99799  Biso   1.000  Zr
  Zr96     1.0000 0.73210  0.86528  0.74791  Biso   1.000  Zr
  Na1      1.0000 0.11081  0.28174  0.10136  Biso   1.000  Na
