data_image0
_cell_length_a       10.1203
_cell_length_b       5.12312
_cell_length_c       10.1255
_cell_angle_alpha    89.9999
_cell_angle_beta     90
_cell_angle_gamma    89.9998

_symmetry_space_group_name_H-M    "P 1"
_symmetry_int_tables_number       1

loop_
  _symmetry_equiv_pos_as_xyz
  'x, y, z'

loop_
  _atom_site_label
  _atom_site_occupancy
  _atom_site_fract_x
  _atom_site_fract_y
  _atom_site_fract_z
  _atom_site_thermal_displace_type
  _atom_site_B_iso_or_equiv
  _atom_site_type_symbol
  Zr1      1.0000 0.12540  0.00016  0.12539  Biso   1.000  Zr
  Zr2      1.0000 0.12540  0.50015  0.39210  Biso   1.000  Zr
  Zr3      1.0000 0.39310  0.50015  0.12540  Biso   1.000  Zr
  Zr4      1.0000 0.37188  0.00472  0.37208  Biso   1.000  Zr
  Zr5      1.0000 0.99364  0.30029  0.99305  Biso   1.000  Zr
  Zr6      1.0000 0.00372  0.20684  0.24637  Biso   1.000  Zr
  Zr7      1.0000 0.99364  0.70002  0.25774  Biso   1.000  Zr
  Zr8      1.0000 0.00372  0.79345  0.00442  Biso   1.000  Zr
  Zr9      1.0000 0.25715  0.30028  0.25774  Biso   1.000  Zr
  Zr10     1.0000 0.24707  0.20685  0.00442  Biso   1.000  Zr
  Zr11     1.0000 0.25715  0.70002  0.99305  Biso   1.000  Zr
  Zr12     1.0000 0.24707  0.79346  0.24637  Biso   1.000  Zr
  Zr13     1.0000 0.12540  0.00015  0.62540  Biso   1.000  Zr
  Zr14     1.0000 0.12540  0.50015  0.85869  Biso   1.000  Zr
  Zr15     1.0000 0.37921  0.50015  0.62539  Biso   1.000  Zr
  Zr16     1.0000 0.37188  0.99558  0.87871  Biso   1.000  Zr
  Zr17     1.0000 0.99316  0.28207  0.49790  Biso   1.000  Zr
  Zr18     1.0000 0.00420  0.21507  0.74681  Biso   1.000  Zr
  Zr19     1.0000 0.99316  0.71822  0.75290  Biso   1.000  Zr
  Zr20     1.0000 0.00420  0.78524  0.50398  Biso   1.000  Zr
  Zr21     1.0000 0.25763  0.28208  0.75290  Biso   1.000  Zr
  Zr22     1.0000 0.24659  0.21506  0.50398  Biso   1.000  Zr
  Zr23     1.0000 0.25763  0.71823  0.49790  Biso   1.000  Zr
  Zr24     1.0000 0.24659  0.78523  0.74681  Biso   1.000  Zr
  Zr25     1.0000 0.62540  0.00015  0.12540  Biso   1.000  Zr
  Zr26     1.0000 0.62540  0.50015  0.37865  Biso   1.000  Zr
  Zr27     1.0000 0.85769  0.50015  0.12540  Biso   1.000  Zr
  Zr28     1.0000 0.87891  0.99558  0.37208  Biso   1.000  Zr
  Zr29     1.0000 0.49797  0.28080  0.99201  Biso   1.000  Zr
  Zr30     1.0000 0.50311  0.21494  0.24604  Biso   1.000  Zr
  Zr31     1.0000 0.49797  0.71950  0.25879  Biso   1.000  Zr
  Zr32     1.0000 0.50311  0.78536  0.00475  Biso   1.000  Zr
  Zr33     1.0000 0.75282  0.28080  0.25878  Biso   1.000  Zr
  Zr34     1.0000 0.74768  0.21494  0.00475  Biso   1.000  Zr
  Zr35     1.0000 0.75282  0.71950  0.99201  Biso   1.000  Zr
  Zr36     1.0000 0.74768  0.78536  0.24604  Biso   1.000  Zr
  Zr37     1.0000 0.62539  0.00015  0.62540  Biso   1.000  Zr
  Zr38     1.0000 0.62540  0.50015  0.87214  Biso   1.000  Zr
  Zr39     1.0000 0.87158  0.50015  0.62539  Biso   1.000  Zr
  Zr40     1.0000 0.87891  0.00472  0.87871  Biso   1.000  Zr
  Zr41     1.0000 0.49524  0.29216  0.49467  Biso   1.000  Zr
  Zr42     1.0000 0.50310  0.20889  0.74658  Biso   1.000  Zr
  Zr43     1.0000 0.49524  0.70815  0.75612  Biso   1.000  Zr
  Zr44     1.0000 0.50311  0.79141  0.50421  Biso   1.000  Zr
  Zr45     1.0000 0.75555  0.29215  0.75612  Biso   1.000  Zr
  Zr46     1.0000 0.74768  0.20888  0.50421  Biso   1.000  Zr
  Zr47     1.0000 0.75555  0.70815  0.49467  Biso   1.000  Zr
  Zr48     1.0000 0.74769  0.79142  0.74658  Biso   1.000  Zr
  Na1      1.0000 0.12540  0.50015  0.12540  Biso   1.000  Na
