data_image0
_cell_length_a       10.0697
_cell_length_b       5.14377
_cell_length_c       10.5009
_cell_angle_alpha    90.0369
_cell_angle_beta     89.9379
_cell_angle_gamma    89.9023

_symmetry_space_group_name_H-M    "P 1"
_symmetry_int_tables_number       1

loop_
  _symmetry_equiv_pos_as_xyz
  'x, y, z'

loop_
  _atom_site_label
  _atom_site_occupancy
  _atom_site_fract_x
  _atom_site_fract_y
  _atom_site_fract_z
  _atom_site_thermal_displace_type
  _atom_site_B_iso_or_equiv
  _atom_site_type_symbol
  Nb1      1.0000 0.13832  0.04572  0.17242  Biso   1.000  Nb
  Zr1      1.0000 0.13864  0.04242  0.67143  Biso   1.000  Zr
  Zr2      1.0000 0.13918  0.45937  0.42061  Biso   1.000  Zr
  Zr3      1.0000 0.13955  0.45711  0.92202  Biso   1.000  Zr
  Zr4      1.0000 0.35930  0.54780  0.17183  Biso   1.000  Zr
  Zr5      1.0000 0.36131  0.54300  0.67139  Biso   1.000  Zr
  Zr6      1.0000 0.36043  0.95973  0.42108  Biso   1.000  Zr
  Zr7      1.0000 0.36039  0.95814  0.92229  Biso   1.000  Zr
  Zr8      1.0000 0.63876  0.04410  0.07829  Biso   1.000  Zr
  Zr9      1.0000 0.63871  0.04186  0.57873  Biso   1.000  Zr
  Zr10     1.0000 0.63857  0.45734  0.32819  Biso   1.000  Zr
  Zr11     1.0000 0.63887  0.45856  0.82911  Biso   1.000  Zr
  Zr12     1.0000 0.86278  0.54326  0.07870  Biso   1.000  Zr
  Zr13     1.0000 0.86078  0.54108  0.57852  Biso   1.000  Zr
  Zr14     1.0000 0.86129  0.95727  0.32790  Biso   1.000  Zr
  Zr15     1.0000 0.86120  0.95691  0.82906  Biso   1.000  Zr
  O1       1.0000 0.03489  0.32393  0.08717  Biso   1.000  O
  O2       1.0000 0.03212  0.32790  0.58132  Biso   1.000  O
  O3       1.0000 0.03743  0.15980  0.33090  Biso   1.000  O
  O4       1.0000 0.03226  0.16993  0.83325  Biso   1.000  O
  O5       1.0000 0.46695  0.83144  0.08330  Biso   1.000  O
  O6       1.0000 0.46674  0.83251  0.58402  Biso   1.000  O
  O7       1.0000 0.46606  0.66855  0.33404  Biso   1.000  O
  O8       1.0000 0.46663  0.66962  0.83423  Biso   1.000  O
  O9       1.0000 0.27539  0.24812  0.29455  Biso   1.000  O
  O10      1.0000 0.27606  0.24833  0.79577  Biso   1.000  O
  O11      1.0000 0.27381  0.25093  0.04854  Biso   1.000  O
  O12      1.0000 0.27614  0.25242  0.54535  Biso   1.000  O
  O13      1.0000 0.22208  0.75318  0.29571  Biso   1.000  O
  O14      1.0000 0.22356  0.74809  0.79570  Biso   1.000  O
  O15      1.0000 0.21857  0.75790  0.04714  Biso   1.000  O
  O16      1.0000 0.22369  0.75110  0.54499  Biso   1.000  O
  O17      1.0000 0.53241  0.33414  0.16584  Biso   1.000  O
  O18      1.0000 0.53308  0.33236  0.66594  Biso   1.000  O
  O19      1.0000 0.53320  0.16842  0.41566  Biso   1.000  O
  O20      1.0000 0.53191  0.16998  0.91635  Biso   1.000  O
  O21      1.0000 0.97425  0.83092  0.16476  Biso   1.000  O
  O22      1.0000 0.96765  0.82882  0.66612  Biso   1.000  O
  O23      1.0000 0.96628  0.66459  0.41394  Biso   1.000  O
  O24      1.0000 0.96715  0.66543  0.91670  Biso   1.000  O
  O25      1.0000 0.77577  0.24923  0.95463  Biso   1.000  O
  O26      1.0000 0.77686  0.24641  0.45423  Biso   1.000  O
  O27      1.0000 0.77652  0.25079  0.20480  Biso   1.000  O
  O28      1.0000 0.77604  0.25095  0.70469  Biso   1.000  O
  O29      1.0000 0.72353  0.74920  0.95449  Biso   1.000  O
  O30      1.0000 0.72414  0.74757  0.45469  Biso   1.000  O
  O31      1.0000 0.72670  0.75220  0.20479  Biso   1.000  O
  O32      1.0000 0.72405  0.75157  0.70481  Biso   1.000  O
