data_image0
_cell_length_a       10.0304
_cell_length_b       10.1972
_cell_length_c       5.02257
_cell_angle_alpha    90.0074
_cell_angle_beta     88.4164
_cell_angle_gamma    90.0018

_symmetry_space_group_name_H-M    "P 1"
_symmetry_int_tables_number       1

loop_
  _symmetry_equiv_pos_as_xyz
  'x, y, z'

loop_
  _atom_site_label
  _atom_site_occupancy
  _atom_site_fract_x
  _atom_site_fract_y
  _atom_site_fract_z
  _atom_site_thermal_displace_type
  _atom_site_B_iso_or_equiv
  _atom_site_type_symbol
  Ni1      1.0000 0.12551  0.96321  0.25014  Biso   1.000  Ni
  Zr1      1.0000 0.12548  0.50641  0.25007  Biso   1.000  Zr
  Zr2      1.0000 0.62553  0.99956  0.25009  Biso   1.000  Zr
  Zr3      1.0000 0.62547  0.49383  0.25013  Biso   1.000  Zr
  Zr4      1.0000 0.12546  0.25776  0.74999  Biso   1.000  Zr
  Zr5      1.0000 0.12547  0.75565  0.75011  Biso   1.000  Zr
  Zr6      1.0000 0.62547  0.24508  0.75009  Biso   1.000  Zr
  Zr7      1.0000 0.62546  0.74947  0.75018  Biso   1.000  Zr
  Zr8      1.0000 0.36924  0.24742  0.26761  Biso   1.000  Zr
  Zr9      1.0000 0.38212  0.74933  0.25882  Biso   1.000  Zr
  Zr10     1.0000 0.88167  0.24746  0.23252  Biso   1.000  Zr
  Zr11     1.0000 0.86881  0.74932  0.24148  Biso   1.000  Zr
  Zr12     1.0000 0.36887  0.00474  0.77940  Biso   1.000  Zr
  Zr13     1.0000 0.37818  0.49621  0.75598  Biso   1.000  Zr
  Zr14     1.0000 0.88217  0.00475  0.72081  Biso   1.000  Zr
  Zr15     1.0000 0.87277  0.49625  0.74423  Biso   1.000  Zr
  Zr16     1.0000 0.97180  0.16200  0.91387  Biso   1.000  Zr
  Zr17     1.0000 0.00269  0.65297  0.00374  Biso   1.000  Zr
  Zr18     1.0000 0.48879  0.14365  0.00908  Biso   1.000  Zr
  Zr19     1.0000 0.50168  0.64141  0.00254  Biso   1.000  Zr
  Zr20     1.0000 0.02003  0.09044  0.42936  Biso   1.000  Zr
  Zr21     1.0000 0.99920  0.60665  0.50693  Biso   1.000  Zr
  Zr22     1.0000 0.51282  0.10021  0.51828  Biso   1.000  Zr
  Zr23     1.0000 0.49969  0.60325  0.49960  Biso   1.000  Zr
  Zr24     1.0000 0.99961  0.35196  0.49034  Biso   1.000  Zr
  Zr25     1.0000 0.00914  0.85298  0.46534  Biso   1.000  Zr
  Zr26     1.0000 0.49926  0.35176  0.49950  Biso   1.000  Zr
  Zr27     1.0000 0.49201  0.85229  0.52546  Biso   1.000  Zr
  Zr28     1.0000 0.00370  0.40382  0.99626  Biso   1.000  Zr
  Zr29     1.0000 0.00881  0.91425  0.98024  Biso   1.000  Zr
  Zr30     1.0000 0.50323  0.39226  0.99675  Biso   1.000  Zr
  Zr31     1.0000 0.50050  0.89128  0.01832  Biso   1.000  Zr
  Zr32     1.0000 0.27925  0.16201  0.58648  Biso   1.000  Zr
  Zr33     1.0000 0.24821  0.65296  0.49638  Biso   1.000  Zr
  Zr34     1.0000 0.76225  0.14365  0.49118  Biso   1.000  Zr
  Zr35     1.0000 0.74924  0.64141  0.49773  Biso   1.000  Zr
  Zr36     1.0000 0.23106  0.09038  0.07104  Biso   1.000  Zr
  Zr37     1.0000 0.25170  0.60662  0.99317  Biso   1.000  Zr
  Zr38     1.0000 0.73821  0.10025  0.98198  Biso   1.000  Zr
  Zr39     1.0000 0.75122  0.60327  0.00066  Biso   1.000  Zr
  Zr40     1.0000 0.25133  0.35193  0.00979  Biso   1.000  Zr
  Zr41     1.0000 0.24182  0.85295  0.03488  Biso   1.000  Zr
  Zr42     1.0000 0.75169  0.35179  0.00068  Biso   1.000  Zr
  Zr43     1.0000 0.75893  0.85231  0.97491  Biso   1.000  Zr
  Zr44     1.0000 0.24724  0.40380  0.50384  Biso   1.000  Zr
  Zr45     1.0000 0.24219  0.91423  0.51998  Biso   1.000  Zr
  Zr46     1.0000 0.74771  0.39227  0.50345  Biso   1.000  Zr
  Zr47     1.0000 0.75046  0.89128  0.48203  Biso   1.000  Zr
