data_image0
_cell_length_a       10.1899
_cell_length_b       10.3779
_cell_length_c       10.5135
_cell_angle_alpha    90.2461
_cell_angle_beta     80.3429
_cell_angle_gamma    90.1067

_symmetry_space_group_name_H-M    "P 1"
_symmetry_int_tables_number       1

loop_
  _symmetry_equiv_pos_as_xyz
  'x, y, z'

loop_
  _atom_site_label
  _atom_site_occupancy
  _atom_site_fract_x
  _atom_site_fract_y
  _atom_site_fract_z
  _atom_site_thermal_displace_type
  _atom_site_B_iso_or_equiv
  _atom_site_type_symbol
  Zr1      1.0000 0.13802  0.02319  0.14723  Biso   1.000  Zr
  Zr2      1.0000 0.14021  0.23139  0.39707  Biso   1.000  Zr
  Zr3      1.0000 0.36053  0.27556  0.10195  Biso   1.000  Zr
  Zr4      1.0000 0.35741  0.47663  0.34985  Biso   1.000  Zr
  O1       1.0000 0.03500  0.17062  0.08105  Biso   1.000  O
  O2       1.0000 0.03718  0.08122  0.33023  Biso   1.000  O
  O3       1.0000 0.46027  0.42948  0.16203  Biso   1.000  O
  O4       1.0000 0.47406  0.34147  0.42396  Biso   1.000  O
  O5       1.0000 0.28167  0.13175  0.24419  Biso   1.000  O
  O6       1.0000 0.27366  0.11479  0.49563  Biso   1.000  O
  O7       1.0000 0.22251  0.38132  0.00638  Biso   1.000  O
  O8       1.0000 0.21195  0.37701  0.25492  Biso   1.000  O
  Zr5      1.0000 0.13753  0.02022  0.64736  Biso   1.000  Zr
  Zr6      1.0000 0.13780  0.22923  0.89629  Biso   1.000  Zr
  Zr7      1.0000 0.36006  0.27164  0.60795  Biso   1.000  Zr
  Zr8      1.0000 0.36041  0.47942  0.85487  Biso   1.000  Zr
  O9       1.0000 0.03600  0.16984  0.58159  Biso   1.000  O
  O10      1.0000 0.03475  0.08053  0.83106  Biso   1.000  O
  O11      1.0000 0.46461  0.41832  0.67136  Biso   1.000  O
  O12      1.0000 0.46469  0.33156  0.91836  Biso   1.000  O
  O13      1.0000 0.27570  0.12966  0.74294  Biso   1.000  O
  O14      1.0000 0.27464  0.12218  0.99246  Biso   1.000  O
  O15      1.0000 0.22460  0.37785  0.51145  Biso   1.000  O
  O16      1.0000 0.22360  0.37111  0.75936  Biso   1.000  O
  Zr9      1.0000 0.13726  0.52284  0.14369  Biso   1.000  Zr
  Zr10     1.0000 0.13738  0.72711  0.39616  Biso   1.000  Zr
  Zr11     1.0000 0.36024  0.77169  0.10441  Biso   1.000  Zr
  Zr12     1.0000 0.35925  0.96891  0.35834  Biso   1.000  Zr
  O17      1.0000 0.03416  0.67260  0.08026  Biso   1.000  O
  O18      1.0000 0.03319  0.58263  0.32907  Biso   1.000  O
  O19      1.0000 0.46334  0.91944  0.17193  Biso   1.000  O
  O20      1.0000 0.46375  0.82617  0.42160  Biso   1.000  O
  O21      1.0000 0.27428  0.63065  0.24042  Biso   1.000  O
  O22      1.0000 0.27376  0.61882  0.49047  Biso   1.000  O
  O23      1.0000 0.22339  0.88050  0.01066  Biso   1.000  O
  O24      1.0000 0.22213  0.87073  0.26033  Biso   1.000  O
  Zr13     1.0000 0.13830  0.52180  0.64556  Biso   1.000  Zr
  Zr14     1.0000 0.13731  0.72998  0.89616  Biso   1.000  Zr
  Zr15     1.0000 0.36100  0.76900  0.60625  Biso   1.000  Zr
  Zr16     1.0000 0.36031  0.97935  0.85581  Biso   1.000  Zr
  O25      1.0000 0.03344  0.66830  0.58049  Biso   1.000  O
  O26      1.0000 0.03526  0.58113  0.83105  Biso   1.000  O
  O27      1.0000 0.46335  0.91879  0.67008  Biso   1.000  O
  O28      1.0000 0.46366  0.83182  0.91997  Biso   1.000  O
  O29      1.0000 0.27531  0.62865  0.74103  Biso   1.000  O
  O30      1.0000 0.27505  0.62286  0.99028  Biso   1.000  O
  O31      1.0000 0.22282  0.87475  0.51171  Biso   1.000  O
  O32      1.0000 0.22350  0.87124  0.76070  Biso   1.000  O
  Zr17     1.0000 0.63874  0.02129  0.14502  Biso   1.000  Zr
  Zr18     1.0000 0.64666  0.22907  0.39823  Biso   1.000  Zr
  Zr19     1.0000 0.86016  0.27229  0.10466  Biso   1.000  Zr
  Zr20     1.0000 0.86153  0.47876  0.35428  Biso   1.000  Zr
  O33      1.0000 0.53472  0.16846  0.07931  Biso   1.000  O
  O34      1.0000 0.53949  0.07359  0.33648  Biso   1.000  O
  O35      1.0000 0.96165  0.42225  0.16759  Biso   1.000  O
  O36      1.0000 0.96433  0.33217  0.42060  Biso   1.000  O
  O37      1.0000 0.77646  0.12918  0.24042  Biso   1.000  O
  O38      1.0000 0.77874  0.11998  0.49201  Biso   1.000  O
  O39      1.0000 0.72315  0.37970  0.01003  Biso   1.000  O
  O40      1.0000 0.72391  0.37139  0.25978  Biso   1.000  O
  Zr21     1.0000 0.63765  0.02124  0.64551  Biso   1.000  Zr
  Zr22     1.0000 0.63854  0.22893  0.89557  Biso   1.000  Zr
  Zr23     1.0000 0.86268  0.27145  0.60631  Biso   1.000  Zr
  Zr24     1.0000 0.86069  0.47914  0.85566  Biso   1.000  Zr
  O41      1.0000 0.53547  0.16947  0.57995  Biso   1.000  O
  O42      1.0000 0.53471  0.08115  0.82991  Biso   1.000  O
  O43      1.0000 0.96443  0.41984  0.67091  Biso   1.000  O
  O44      1.0000 0.96322  0.33041  0.91929  Biso   1.000  O
  O45      1.0000 0.77507  0.12916  0.74118  Biso   1.000  O
  O46      1.0000 0.77525  0.12166  0.99081  Biso   1.000  O
  O47      1.0000 0.72555  0.37827  0.51114  Biso   1.000  O
  O48      1.0000 0.72424  0.37146  0.76037  Biso   1.000  O
  Zr25     1.0000 0.63775  0.52340  0.14520  Biso   1.000  Zr
  Zr26     1.0000 0.63913  0.72656  0.39526  Biso   1.000  Zr
  Zr27     1.0000 0.86008  0.77221  0.10476  Biso   1.000  Zr
  Zr28     1.0000 0.86215  0.97808  0.35482  Biso   1.000  Zr
  O49      1.0000 0.53619  0.67304  0.08011  Biso   1.000  O
  O50      1.0000 0.53396  0.58150  0.32860  Biso   1.000  O
  O51      1.0000 0.96478  0.92124  0.16889  Biso   1.000  O
  O52      1.0000 0.96387  0.83103  0.42026  Biso   1.000  O
  O53      1.0000 0.77555  0.62993  0.24073  Biso   1.000  O
  O54      1.0000 0.77519  0.62034  0.49074  Biso   1.000  O
  O55      1.0000 0.72318  0.88035  0.00985  Biso   1.000  O
  O56      1.0000 0.72421  0.87132  0.25978  Biso   1.000  O
  Zr29     1.0000 0.63896  0.52107  0.64627  Biso   1.000  Zr
  Zr30     1.0000 0.63786  0.72946  0.89551  Biso   1.000  Zr
  Zr31     1.0000 0.85981  0.77141  0.60489  Biso   1.000  Zr
  Zr32     1.0000 0.86000  0.97919  0.85490  Biso   1.000  Zr
  O57      1.0000 0.53547  0.66763  0.58082  Biso   1.000  O
  O58      1.0000 0.53488  0.58159  0.83056  Biso   1.000  O
  O59      1.0000 0.96310  0.91937  0.66987  Biso   1.000  O
  O60      1.0000 0.96286  0.83137  0.91939  Biso   1.000  O
  O61      1.0000 0.77545  0.62921  0.74093  Biso   1.000  O
  O62      1.0000 0.77512  0.62226  0.99071  Biso   1.000  O
  O63      1.0000 0.72337  0.87861  0.50969  Biso   1.000  O
  O64      1.0000 0.72289  0.87148  0.75974  Biso   1.000  O
  Ni1      1.0000 0.40966  0.21320  0.32953  Biso   1.000  Ni
