data_image0
_cell_length_a       10.2356
_cell_length_b       10.3383
_cell_length_c       10.5934
_cell_angle_alpha    89.9189
_cell_angle_beta     79.9628
_cell_angle_gamma    90.4396

_symmetry_space_group_name_H-M    "P 1"
_symmetry_int_tables_number       1

loop_
  _symmetry_equiv_pos_as_xyz
  'x, y, z'

loop_
  _atom_site_label
  _atom_site_occupancy
  _atom_site_fract_x
  _atom_site_fract_y
  _atom_site_fract_z
  _atom_site_thermal_displace_type
  _atom_site_B_iso_or_equiv
  _atom_site_type_symbol
  Zr1      1.0000 0.13654  0.02231  0.14636  Biso   1.000  Zr
  Zr2      1.0000 0.13974  0.23622  0.39434  Biso   1.000  Zr
  Zr3      1.0000 0.35674  0.27061  0.09614  Biso   1.000  Zr
  Zr4      1.0000 0.34889  0.48299  0.35449  Biso   1.000  Zr
  O1       1.0000 0.03456  0.16726  0.07622  Biso   1.000  O
  O2       1.0000 0.03610  0.08671  0.32506  Biso   1.000  O
  O3       1.0000 0.47637  0.38163  0.19858  Biso   1.000  O
  O4       1.0000 0.48566  0.36380  0.44147  Biso   1.000  O
  O5       1.0000 0.28384  0.12667  0.23905  Biso   1.000  O
  O6       1.0000 0.29195  0.12383  0.47853  Biso   1.000  O
  O7       1.0000 0.22308  0.38029  0.00378  Biso   1.000  O
  O8       1.0000 0.20715  0.38024  0.24896  Biso   1.000  O
  Zr5      1.0000 0.13739  0.02121  0.64565  Biso   1.000  Zr
  Zr6      1.0000 0.13627  0.22900  0.89276  Biso   1.000  Zr
  Zr7      1.0000 0.36173  0.27733  0.60548  Biso   1.000  Zr
  Zr8      1.0000 0.35984  0.48028  0.85471  Biso   1.000  Zr
  O9       1.0000 0.04001  0.16681  0.57570  Biso   1.000  O
  O10      1.0000 0.03220  0.08385  0.82579  Biso   1.000  O
  O11      1.0000 0.46988  0.40969  0.68380  Biso   1.000  O
  O12      1.0000 0.47218  0.34656  0.93200  Biso   1.000  O
  O13      1.0000 0.27395  0.12910  0.73740  Biso   1.000  O
  O14      1.0000 0.27313  0.12249  0.98675  Biso   1.000  O
  O15      1.0000 0.21802  0.38397  0.51684  Biso   1.000  O
  O16      1.0000 0.22469  0.37306  0.75921  Biso   1.000  O
  Zr9      1.0000 0.13639  0.52345  0.14172  Biso   1.000  Zr
  Zr10     1.0000 0.13393  0.72958  0.39623  Biso   1.000  Zr
  Zr11     1.0000 0.35971  0.77059  0.10285  Biso   1.000  Zr
  Zr12     1.0000 0.36477  0.96575  0.35437  Biso   1.000  Zr
  O17      1.0000 0.03045  0.66987  0.07664  Biso   1.000  O
  O18      1.0000 0.03021  0.58960  0.32424  Biso   1.000  O
  O19      1.0000 0.46936  0.90732  0.17511  Biso   1.000  O
  O20      1.0000 0.46511  0.82734  0.42613  Biso   1.000  O
  O21      1.0000 0.27275  0.62929  0.23955  Biso   1.000  O
  O22      1.0000 0.26825  0.62553  0.49285  Biso   1.000  O
  O23      1.0000 0.22460  0.87964  0.01038  Biso   1.000  O
  O24      1.0000 0.22336  0.87012  0.25921  Biso   1.000  O
  Zr13     1.0000 0.13512  0.52530  0.64759  Biso   1.000  Zr
  Zr14     1.0000 0.13569  0.73071  0.89628  Biso   1.000  Zr
  Zr15     1.0000 0.36095  0.76954  0.60627  Biso   1.000  Zr
  Zr16     1.0000 0.36111  0.97869  0.85368  Biso   1.000  Zr
  O25      1.0000 0.02774  0.66597  0.57708  Biso   1.000  O
  O26      1.0000 0.03062  0.58635  0.82937  Biso   1.000  O
  O27      1.0000 0.46684  0.91287  0.67418  Biso   1.000  O
  O28      1.0000 0.46757  0.83795  0.92518  Biso   1.000  O
  O29      1.0000 0.27367  0.62894  0.74146  Biso   1.000  O
  O30      1.0000 0.27238  0.62382  0.98904  Biso   1.000  O
  O31      1.0000 0.22474  0.88021  0.51124  Biso   1.000  O
  O32      1.0000 0.22359  0.87241  0.76047  Biso   1.000  O
  Zr17     1.0000 0.63983  0.02046  0.14461  Biso   1.000  Zr
  Zr18     1.0000 0.64495  0.22991  0.40111  Biso   1.000  Zr
  Zr19     1.0000 0.86152  0.27232  0.10548  Biso   1.000  Zr
  Zr20     1.0000 0.86183  0.47892  0.35506  Biso   1.000  Zr
  O33      1.0000 0.52821  0.15354  0.06813  Biso   1.000  O
  O34      1.0000 0.54908  0.06287  0.33353  Biso   1.000  O
  O35      1.0000 0.96281  0.41959  0.17031  Biso   1.000  O
  O36      1.0000 0.96774  0.33906  0.42495  Biso   1.000  O
  O37      1.0000 0.77868  0.12862  0.23841  Biso   1.000  O
  O38      1.0000 0.77997  0.12021  0.49210  Biso   1.000  O
  O39      1.0000 0.72383  0.37728  0.01306  Biso   1.000  O
  O40      1.0000 0.72691  0.37170  0.26281  Biso   1.000  O
  Zr21     1.0000 0.63790  0.02267  0.64437  Biso   1.000  Zr
  Zr22     1.0000 0.63799  0.22735  0.89678  Biso   1.000  Zr
  Zr23     1.0000 0.86405  0.27205  0.60704  Biso   1.000  Zr
  Zr24     1.0000 0.85878  0.47835  0.85735  Biso   1.000  Zr
  O41      1.0000 0.53356  0.16621  0.57764  Biso   1.000  O
  O42      1.0000 0.53035  0.08968  0.82216  Biso   1.000  O
  O43      1.0000 0.96517  0.41597  0.67631  Biso   1.000  O
  O44      1.0000 0.96490  0.33403  0.92176  Biso   1.000  O
  O45      1.0000 0.77526  0.12842  0.74064  Biso   1.000  O
  O46      1.0000 0.77496  0.12196  0.98955  Biso   1.000  O
  O47      1.0000 0.72995  0.37753  0.51456  Biso   1.000  O
  O48      1.0000 0.72451  0.37180  0.76258  Biso   1.000  O
  Zr25     1.0000 0.63664  0.51928  0.14949  Biso   1.000  Zr
  Zr26     1.0000 0.63753  0.72478  0.39467  Biso   1.000  Zr
  Zr27     1.0000 0.85939  0.77151  0.10434  Biso   1.000  Zr
  Zr28     1.0000 0.86066  0.97977  0.35374  Biso   1.000  Zr
  O49      1.0000 0.52526  0.65173  0.07182  Biso   1.000  O
  O50      1.0000 0.52642  0.59050  0.31940  Biso   1.000  O
  O51      1.0000 0.96678  0.91725  0.17146  Biso   1.000  O
  O52      1.0000 0.96531  0.83818  0.42420  Biso   1.000  O
  O53      1.0000 0.77190  0.62568  0.23914  Biso   1.000  O
  O54      1.0000 0.77357  0.62162  0.48939  Biso   1.000  O
  O55      1.0000 0.72282  0.87782  0.01071  Biso   1.000  O
  O56      1.0000 0.72752  0.86803  0.25938  Biso   1.000  O
  Zr29     1.0000 0.63899  0.52095  0.64665  Biso   1.000  Zr
  Zr30     1.0000 0.63672  0.72687  0.89612  Biso   1.000  Zr
  Zr31     1.0000 0.85797  0.77327  0.60462  Biso   1.000  Zr
  Zr32     1.0000 0.85889  0.97849  0.85471  Biso   1.000  Zr
  O57      1.0000 0.53045  0.65890  0.57483  Biso   1.000  O
  O58      1.0000 0.53017  0.59106  0.82227  Biso   1.000  O
  O59      1.0000 0.96595  0.91562  0.67363  Biso   1.000  O
  O60      1.0000 0.96412  0.83616  0.92274  Biso   1.000  O
  O61      1.0000 0.77397  0.62863  0.74080  Biso   1.000  O
  O62      1.0000 0.77181  0.62168  0.99167  Biso   1.000  O
  O63      1.0000 0.72239  0.87797  0.50956  Biso   1.000  O
  O64      1.0000 0.72297  0.87193  0.76022  Biso   1.000  O
  Os1      1.0000 0.40863  0.23615  0.33315  Biso   1.000  Os
