data_image0
_cell_length_a       5.06078
_cell_length_b       10.0402
_cell_length_c       10.0402
_cell_angle_alpha    89.9978
_cell_angle_beta     90.0019
_cell_angle_gamma    90.0015

_symmetry_space_group_name_H-M    "P 1"
_symmetry_int_tables_number       1

loop_
  _symmetry_equiv_pos_as_xyz
  'x, y, z'

loop_
  _atom_site_label
  _atom_site_occupancy
  _atom_site_fract_x
  _atom_site_fract_y
  _atom_site_fract_z
  _atom_site_thermal_displace_type
  _atom_site_B_iso_or_equiv
  _atom_site_type_symbol
  Os1      1.0000 0.25036  0.99991  0.12509  Biso   1.000  Os
  Zr1      1.0000 0.25035  0.99991  0.62510  Biso   1.000  Zr
  Zr2      1.0000 0.25035  0.49992  0.12510  Biso   1.000  Zr
  Zr3      1.0000 0.25035  0.49991  0.62510  Biso   1.000  Zr
  Zr4      1.0000 0.24732  0.24883  0.37401  Biso   1.000  Zr
  Zr5      1.0000 0.25340  0.24883  0.87618  Biso   1.000  Zr
  Zr6      1.0000 0.25340  0.75099  0.37401  Biso   1.000  Zr
  Zr7      1.0000 0.24731  0.75100  0.87617  Biso   1.000  Zr
  Zr8      1.0000 0.75036  0.24669  0.12509  Biso   1.000  Zr
  Zr9      1.0000 0.75036  0.25062  0.62509  Biso   1.000  Zr
  Zr10     1.0000 0.75035  0.75313  0.12509  Biso   1.000  Zr
  Zr11     1.0000 0.75036  0.74919  0.62509  Biso   1.000  Zr
  Zr12     1.0000 0.75036  0.99991  0.37188  Biso   1.000  Zr
  Zr13     1.0000 0.75036  0.99991  0.87831  Biso   1.000  Zr
  Zr14     1.0000 0.75035  0.49991  0.37581  Biso   1.000  Zr
  Zr15     1.0000 0.75036  0.49991  0.87438  Biso   1.000  Zr
  Zr16     1.0000 0.98381  0.12569  0.99932  Biso   1.000  Zr
  Zr17     1.0000 0.96281  0.13192  0.49220  Biso   1.000  Zr
  Zr18     1.0000 0.96281  0.63281  0.99310  Biso   1.000  Zr
  Zr19     1.0000 0.96674  0.63136  0.49365  Biso   1.000  Zr
  Zr20     1.0000 0.02874  0.11796  0.24314  Biso   1.000  Zr
  Zr21     1.0000 0.03467  0.12073  0.74691  Biso   1.000  Zr
  Zr22     1.0000 0.03468  0.62173  0.24591  Biso   1.000  Zr
  Zr23     1.0000 0.03296  0.62080  0.74597  Biso   1.000  Zr
  Zr24     1.0000 0.96280  0.36702  0.25709  Biso   1.000  Zr
  Zr25     1.0000 0.96675  0.36847  0.75653  Biso   1.000  Zr
  Zr26     1.0000 0.98379  0.87414  0.25087  Biso   1.000  Zr
  Zr27     1.0000 0.96281  0.86792  0.75798  Biso   1.000  Zr
  Zr28     1.0000 0.03468  0.37810  0.00427  Biso   1.000  Zr
  Zr29     1.0000 0.03295  0.37903  0.50421  Biso   1.000  Zr
  Zr30     1.0000 0.02874  0.88187  0.00704  Biso   1.000  Zr
  Zr31     1.0000 0.03468  0.87909  0.50328  Biso   1.000  Zr
  Zr32     1.0000 0.51692  0.12569  0.25087  Biso   1.000  Zr
  Zr33     1.0000 0.53789  0.13191  0.75799  Biso   1.000  Zr
  Zr34     1.0000 0.53790  0.63281  0.25709  Biso   1.000  Zr
  Zr35     1.0000 0.53398  0.63136  0.75654  Biso   1.000  Zr
  Zr36     1.0000 0.47199  0.11796  0.00704  Biso   1.000  Zr
  Zr37     1.0000 0.46604  0.12072  0.50328  Biso   1.000  Zr
  Zr38     1.0000 0.46603  0.62173  0.00427  Biso   1.000  Zr
  Zr39     1.0000 0.46777  0.62079  0.50421  Biso   1.000  Zr
  Zr40     1.0000 0.53789  0.36702  0.99310  Biso   1.000  Zr
  Zr41     1.0000 0.53397  0.36846  0.49365  Biso   1.000  Zr
  Zr42     1.0000 0.51692  0.87414  0.99932  Biso   1.000  Zr
  Zr43     1.0000 0.53790  0.86791  0.49220  Biso   1.000  Zr
  Zr44     1.0000 0.46604  0.37810  0.24591  Biso   1.000  Zr
  Zr45     1.0000 0.46778  0.37903  0.74597  Biso   1.000  Zr
  Zr46     1.0000 0.47198  0.88186  0.24314  Biso   1.000  Zr
  Zr47     1.0000 0.46603  0.87909  0.74690  Biso   1.000  Zr
