data_image0
_cell_length_a       5.06995
_cell_length_b       10.5399
_cell_length_c       10.1912
_cell_angle_alpha    90.6651
_cell_angle_beta     89.1744
_cell_angle_gamma    89.7142

_symmetry_space_group_name_H-M    "P 1"
_symmetry_int_tables_number       1

loop_
  _symmetry_equiv_pos_as_xyz
  'x, y, z'

loop_
  _atom_site_label
  _atom_site_occupancy
  _atom_site_fract_x
  _atom_site_fract_y
  _atom_site_fract_z
  _atom_site_thermal_displace_type
  _atom_site_B_iso_or_equiv
  _atom_site_type_symbol
  Zr1      1.0000 0.23529  0.94427  0.11051  Biso   1.000  Zr
  Zr2      1.0000 0.29248  0.24856  0.37001  Biso   1.000  Zr
  Zr3      1.0000 0.79641  0.28518  0.14199  Biso   1.000  Zr
  Zr4      1.0000 0.76335  0.99569  0.35844  Biso   1.000  Zr
  Zr5      1.0000 0.96061  0.16169  0.99638  Biso   1.000  Zr
  Zr6      1.0000 0.08047  0.08077  0.25434  Biso   1.000  Zr
  Zr7      1.0000 0.99869  0.37220  0.29962  Biso   1.000  Zr
  Zr8      1.0000 0.99322  0.41270  0.01506  Biso   1.000  Zr
  Zr9      1.0000 0.58147  0.15328  0.25115  Biso   1.000  Zr
  Zr10     1.0000 0.43340  0.05399  0.96113  Biso   1.000  Zr
  Zr11     1.0000 0.48683  0.31571  0.01259  Biso   1.000  Zr
  Zr12     1.0000 0.51946  0.40329  0.26256  Biso   1.000  Zr
  Zr13     1.0000 0.27150  0.01735  0.61055  Biso   1.000  Zr
  Zr14     1.0000 0.25453  0.24215  0.86492  Biso   1.000  Zr
  Zr15     1.0000 0.76760  0.26721  0.62188  Biso   1.000  Zr
  Zr16     1.0000 0.75170  0.00643  0.85221  Biso   1.000  Zr
  Zr17     1.0000 0.04091  0.17604  0.51044  Biso   1.000  Zr
  Zr18     1.0000 0.01888  0.11075  0.74563  Biso   1.000  Zr
  Zr19     1.0000 0.00311  0.36120  0.76550  Biso   1.000  Zr
  Zr20     1.0000 0.95014  0.43556  0.53977  Biso   1.000  Zr
  Zr21     1.0000 0.51966  0.15135  0.73669  Biso   1.000  Zr
  Zr22     1.0000 0.53773  0.10961  0.48979  Biso   1.000  Zr
  Zr23     1.0000 0.48235  0.36381  0.51154  Biso   1.000  Zr
  Zr24     1.0000 0.50285  0.39617  0.76632  Biso   1.000  Zr
  Zr25     1.0000 0.25766  0.49149  0.14432  Biso   1.000  Zr
  Zr26     1.0000 0.25230  0.76311  0.38371  Biso   1.000  Zr
  Zr27     1.0000 0.72956  0.72785  0.12347  Biso   1.000  Zr
  Zr28     1.0000 0.75068  0.51668  0.38705  Biso   1.000  Zr
  Zr29     1.0000 0.99108  0.65158  0.98255  Biso   1.000  Zr
  Zr30     1.0000 0.96243  0.59524  0.23377  Biso   1.000  Zr
  Zr31     1.0000 0.99613  0.83479  0.24059  Biso   1.000  Zr
  Zr32     1.0000 0.94467  0.89162  0.98256  Biso   1.000  Zr
  Zr33     1.0000 0.47159  0.64555  0.26118  Biso   1.000  Zr
  Zr34     1.0000 0.53392  0.56490  0.02473  Biso   1.000  Zr
  Zr35     1.0000 0.44266  0.80425  0.00459  Biso   1.000  Zr
  Zr36     1.0000 0.51418  0.88936  0.24361  Biso   1.000  Zr
  Zr37     1.0000 0.26807  0.49482  0.64155  Biso   1.000  Zr
  Zr38     1.0000 0.20042  0.75903  0.85383  Biso   1.000  Zr
  Zr39     1.0000 0.71137  0.74838  0.63019  Biso   1.000  Zr
  Zr40     1.0000 0.77474  0.50746  0.87580  Biso   1.000  Zr
  Zr41     1.0000 0.94405  0.67987  0.47809  Biso   1.000  Zr
  Zr42     1.0000 0.98939  0.61671  0.73728  Biso   1.000  Zr
  Zr43     1.0000 0.97581  0.86554  0.72795  Biso   1.000  Zr
  Zr44     1.0000 0.04996  0.92692  0.47555  Biso   1.000  Zr
  Zr45     1.0000 0.49244  0.64338  0.76550  Biso   1.000  Zr
  Zr46     1.0000 0.45600  0.61778  0.51419  Biso   1.000  Zr
  Zr47     1.0000 0.52884  0.86438  0.49396  Biso   1.000  Zr
  Zr48     1.0000 0.47801  0.89570  0.74374  Biso   1.000  Zr
  Os1      1.0000 0.28450  0.18097  0.11895  Biso   1.000  Os
