data_image0
_cell_length_a       10.2497
_cell_length_b       5.19882
_cell_length_c       10.6258
_cell_angle_alpha    89.673
_cell_angle_beta     79.7683
_cell_angle_gamma    90.8545

_symmetry_space_group_name_H-M    "P 1"
_symmetry_int_tables_number       1

loop_
  _symmetry_equiv_pos_as_xyz
  'x, y, z'

loop_
  _atom_site_label
  _atom_site_occupancy
  _atom_site_fract_x
  _atom_site_fract_y
  _atom_site_fract_z
  _atom_site_thermal_displace_type
  _atom_site_B_iso_or_equiv
  _atom_site_type_symbol
  Zr1      1.0000 0.13380  0.04716  0.14203  Biso   1.000  Zr
  Zr2      1.0000 0.13580  0.47305  0.39501  Biso   1.000  Zr
  Zr3      1.0000 0.35557  0.53915  0.09639  Biso   1.000  Zr
  Zr4      1.0000 0.34898  0.93930  0.35407  Biso   1.000  Zr
  O1       1.0000 0.03171  0.34426  0.07607  Biso   1.000  O
  O2       1.0000 0.03313  0.18202  0.32227  Biso   1.000  O
  O3       1.0000 0.47747  0.75316  0.19601  Biso   1.000  O
  O4       1.0000 0.48364  0.71337  0.44332  Biso   1.000  O
  O5       1.0000 0.28078  0.25153  0.23895  Biso   1.000  O
  O6       1.0000 0.28443  0.25456  0.48211  Biso   1.000  O
  O7       1.0000 0.22338  0.76202  0.00469  Biso   1.000  O
  O8       1.0000 0.20553  0.75999  0.24873  Biso   1.000  O
  Zr5      1.0000 0.13458  0.05158  0.64771  Biso   1.000  Zr
  Zr6      1.0000 0.13389  0.46225  0.89402  Biso   1.000  Zr
  Zr7      1.0000 0.36109  0.55297  0.60825  Biso   1.000  Zr
  Zr8      1.0000 0.36016  0.96051  0.85466  Biso   1.000  Zr
  O9       1.0000 0.03462  0.33579  0.57634  Biso   1.000  O
  O10      1.0000 0.03030  0.17034  0.82835  Biso   1.000  O
  O11      1.0000 0.46987  0.81869  0.68396  Biso   1.000  O
  O12      1.0000 0.47181  0.69076  0.93222  Biso   1.000  O
  O13      1.0000 0.27290  0.26032  0.73935  Biso   1.000  O
  O14      1.0000 0.27031  0.24782  0.98649  Biso   1.000  O
  O15      1.0000 0.21789  0.77105  0.51855  Biso   1.000  O
  O16      1.0000 0.22443  0.74818  0.76004  Biso   1.000  O
  Zr9      1.0000 0.63955  0.03480  0.14732  Biso   1.000  Zr
  Zr10     1.0000 0.64253  0.45512  0.40054  Biso   1.000  Zr
  Zr11     1.0000 0.85972  0.54407  0.10561  Biso   1.000  Zr
  Zr12     1.0000 0.86147  0.96177  0.35451  Biso   1.000  Zr
  O17      1.0000 0.52298  0.28683  0.06733  Biso   1.000  O
  O18      1.0000 0.54128  0.13499  0.32593  Biso   1.000  O
  O19      1.0000 0.96232  0.84336  0.16829  Biso   1.000  O
  O20      1.0000 0.96661  0.68468  0.42591  Biso   1.000  O
  O21      1.0000 0.77531  0.25364  0.23795  Biso   1.000  O
  O22      1.0000 0.77778  0.24186  0.49169  Biso   1.000  O
  O23      1.0000 0.72283  0.75180  0.01297  Biso   1.000  O
  O24      1.0000 0.72907  0.73832  0.26240  Biso   1.000  O
  Zr13     1.0000 0.63870  0.04535  0.64604  Biso   1.000  Zr
  Zr14     1.0000 0.63636  0.45103  0.89809  Biso   1.000  Zr
  Zr15     1.0000 0.86103  0.54859  0.60686  Biso   1.000  Zr
  Zr16     1.0000 0.85729  0.95603  0.85697  Biso   1.000  Zr
  O25      1.0000 0.53074  0.32289  0.57646  Biso   1.000  O
  O26      1.0000 0.52870  0.18706  0.82001  Biso   1.000  O
  O27      1.0000 0.96522  0.83339  0.67648  Biso   1.000  O
  O28      1.0000 0.96314  0.67024  0.92131  Biso   1.000  O
  O29      1.0000 0.77419  0.25752  0.74150  Biso   1.000  O
  O30      1.0000 0.77241  0.24230  0.99103  Biso   1.000  O
  O31      1.0000 0.72750  0.75587  0.51406  Biso   1.000  O
  O32      1.0000 0.72341  0.74331  0.76262  Biso   1.000  O
  Os1      1.0000 0.40511  0.46552  0.33353  Biso   1.000  Os
