data_image0
_cell_length_a       10.1463
_cell_length_b       5.21598
_cell_length_c       10.1463
_cell_angle_alpha    89.9836
_cell_angle_beta     88.8846
_cell_angle_gamma    90.0226

_symmetry_space_group_name_H-M    "P 1"
_symmetry_int_tables_number       1

loop_
  _symmetry_equiv_pos_as_xyz
  'x, y, z'

loop_
  _atom_site_label
  _atom_site_occupancy
  _atom_site_fract_x
  _atom_site_fract_y
  _atom_site_fract_z
  _atom_site_thermal_displace_type
  _atom_site_B_iso_or_equiv
  _atom_site_type_symbol
  Zr1      1.0000 0.11892  0.86414  0.13149  Biso   1.000  Zr
  Zr2      1.0000 0.12824  0.51345  0.38023  Biso   1.000  Zr
  Zr3      1.0000 0.39570  0.51053  0.13701  Biso   1.000  Zr
  Zr4      1.0000 0.38187  0.01673  0.38166  Biso   1.000  Zr
  Zr5      1.0000 0.98759  0.31288  0.98401  Biso   1.000  Zr
  Zr6      1.0000 0.01358  0.16150  0.23689  Biso   1.000  Zr
  Zr7      1.0000 0.97270  0.69649  0.27771  Biso   1.000  Zr
  Zr8      1.0000 0.98730  0.80378  0.98758  Biso   1.000  Zr
  Zr9      1.0000 0.26638  0.31287  0.26279  Biso   1.000  Zr
  Zr10     1.0000 0.24460  0.07739  0.00571  Biso   1.000  Zr
  Zr11     1.0000 0.25088  0.59600  0.99953  Biso   1.000  Zr
  Zr12     1.0000 0.26288  0.80376  0.26305  Biso   1.000  Zr
  Zr13     1.0000 0.12780  0.00420  0.62454  Biso   1.000  Zr
  Zr14     1.0000 0.11341  0.51046  0.85469  Biso   1.000  Zr
  Zr15     1.0000 0.37502  0.51152  0.62741  Biso   1.000  Zr
  Zr16     1.0000 0.38024  0.00457  0.87018  Biso   1.000  Zr
  Zr17     1.0000 0.99382  0.30210  0.49067  Biso   1.000  Zr
  Zr18     1.0000 0.00035  0.22342  0.74072  Biso   1.000  Zr
  Zr19     1.0000 0.99078  0.72662  0.74370  Biso   1.000  Zr
  Zr20     1.0000 0.00510  0.80890  0.50387  Biso   1.000  Zr
  Zr21     1.0000 0.25424  0.29626  0.75525  Biso   1.000  Zr
  Zr22     1.0000 0.25049  0.22040  0.50536  Biso   1.000  Zr
  Zr23     1.0000 0.25430  0.72059  0.50598  Biso   1.000  Zr
  Zr24     1.0000 0.24316  0.79866  0.75428  Biso   1.000  Zr
  Zr25     1.0000 0.62590  0.00423  0.12263  Biso   1.000  Zr
  Zr26     1.0000 0.63374  0.51317  0.37552  Biso   1.000  Zr
  Zr27     1.0000 0.87014  0.51354  0.12212  Biso   1.000  Zr
  Zr28     1.0000 0.87819  0.01087  0.37225  Biso   1.000  Zr
  Zr29     1.0000 0.49511  0.29631  0.99613  Biso   1.000  Zr
  Zr30     1.0000 0.50967  0.22345  0.25003  Biso   1.000  Zr
  Zr31     1.0000 0.50675  0.72665  0.25964  Biso   1.000  Zr
  Zr32     1.0000 0.49610  0.79872  0.00727  Biso   1.000  Zr
  Zr33     1.0000 0.75974  0.30205  0.25655  Biso   1.000  Zr
  Zr34     1.0000 0.74502  0.22043  0.99990  Biso   1.000  Zr
  Zr35     1.0000 0.74439  0.72062  0.99608  Biso   1.000  Zr
  Zr36     1.0000 0.74656  0.80887  0.24526  Biso   1.000  Zr
  Zr37     1.0000 0.62662  0.01969  0.62380  Biso   1.000  Zr
  Zr38     1.0000 0.62296  0.51149  0.87537  Biso   1.000  Zr
  Zr39     1.0000 0.87486  0.51323  0.61667  Biso   1.000  Zr
  Zr40     1.0000 0.86875  0.01673  0.86854  Biso   1.000  Zr
  Zr41     1.0000 0.49879  0.31772  0.49732  Biso   1.000  Zr
  Zr42     1.0000 0.50309  0.22170  0.74729  Biso   1.000  Zr
  Zr43     1.0000 0.49289  0.71453  0.75752  Biso   1.000  Zr
  Zr44     1.0000 0.50264  0.81504  0.50777  Biso   1.000  Zr
  Zr45     1.0000 0.75306  0.31769  0.75160  Biso   1.000  Zr
  Zr46     1.0000 0.74773  0.22535  0.50265  Biso   1.000  Zr
  Zr47     1.0000 0.75520  0.72550  0.49519  Biso   1.000  Zr
  Zr48     1.0000 0.74267  0.81500  0.74772  Biso   1.000  Zr
  Os1      1.0000 0.13449  0.35911  0.11590  Biso   1.000  Os
