data_image0
_cell_length_a       10.0632
_cell_length_b       10.4445
_cell_length_c       10.1266
_cell_angle_alpha    89.793
_cell_angle_beta     89.8272
_cell_angle_gamma    90.5611

_symmetry_space_group_name_H-M    "P 1"
_symmetry_int_tables_number       1

loop_
  _symmetry_equiv_pos_as_xyz
  'x, y, z'

loop_
  _atom_site_label
  _atom_site_occupancy
  _atom_site_fract_x
  _atom_site_fract_y
  _atom_site_fract_z
  _atom_site_thermal_displace_type
  _atom_site_B_iso_or_equiv
  _atom_site_type_symbol
  Zr1      1.0000 0.14304  0.01328  0.11990  Biso   1.000  Zr
  Zr2      1.0000 0.13771  0.23135  0.39971  Biso   1.000  Zr
  Zr3      1.0000 0.36724  0.26059  0.12102  Biso   1.000  Zr
  Zr4      1.0000 0.36840  0.48492  0.37535  Biso   1.000  Zr
  Zr5      1.0000 0.02206  0.18729  0.22408  Biso   1.000  Zr
  Zr6      1.0000 0.03772  0.06352  0.45071  Biso   1.000  Zr
  Zr7      1.0000 0.45894  0.43221  0.19357  Biso   1.000  Zr
  Zr8      1.0000 0.46507  0.31613  0.44600  Biso   1.000  Zr
  Zr9      1.0000 0.26576  0.11448  0.25455  Biso   1.000  Zr
  Zr10     1.0000 0.27668  0.12905  0.50517  Biso   1.000  Zr
  Zr11     1.0000 0.23499  0.38335  0.50343  Biso   1.000  Zr
  Zr12     1.0000 0.22400  0.36249  0.25737  Biso   1.000  Zr
  Zr13     1.0000 0.13722  0.01029  0.62817  Biso   1.000  Zr
  Zr14     1.0000 0.13480  0.22780  0.86815  Biso   1.000  Zr
  Zr15     1.0000 0.37031  0.26628  0.62939  Biso   1.000  Zr
  Zr16     1.0000 0.36921  0.48608  0.87372  Biso   1.000  Zr
  Zr17     1.0000 0.03996  0.18217  0.68613  Biso   1.000  Zr
  Zr18     1.0000 0.03982  0.06057  0.94241  Biso   1.000  Zr
  Zr19     1.0000 0.46534  0.43412  0.69478  Biso   1.000  Zr
  Zr20     1.0000 0.46654  0.31449  0.94081  Biso   1.000  Zr
  Zr21     1.0000 0.27020  0.11439  0.74927  Biso   1.000  Zr
  Zr22     1.0000 0.28986  0.11931  0.99157  Biso   1.000  Zr
  Zr23     1.0000 0.23683  0.38620  0.99504  Biso   1.000  Zr
  Zr24     1.0000 0.23061  0.36657  0.74868  Biso   1.000  Zr
  Zr25     1.0000 0.12671  0.52049  0.12432  Biso   1.000  Zr
  Zr26     1.0000 0.13404  0.73442  0.37613  Biso   1.000  Zr
  Zr27     1.0000 0.36568  0.76290  0.12613  Biso   1.000  Zr
  Zr28     1.0000 0.36832  0.98299  0.37518  Biso   1.000  Zr
  Zr29     1.0000 0.03377  0.68698  0.19643  Biso   1.000  Zr
  Zr30     1.0000 0.03539  0.56834  0.44576  Biso   1.000  Zr
  Zr31     1.0000 0.46540  0.93201  0.19468  Biso   1.000  Zr
  Zr32     1.0000 0.46540  0.81537  0.44461  Biso   1.000  Zr
  Zr33     1.0000 0.26705  0.61482  0.24949  Biso   1.000  Zr
  Zr34     1.0000 0.27000  0.63266  0.49870  Biso   1.000  Zr
  Zr35     1.0000 0.23195  0.88167  0.49883  Biso   1.000  Zr
  Zr36     1.0000 0.23273  0.86519  0.24829  Biso   1.000  Zr
  Zr37     1.0000 0.13423  0.51612  0.62546  Biso   1.000  Zr
  Zr38     1.0000 0.13313  0.73344  0.87510  Biso   1.000  Zr
  Zr39     1.0000 0.36865  0.76355  0.62471  Biso   1.000  Zr
  Zr40     1.0000 0.37252  0.97940  0.87358  Biso   1.000  Zr
  Zr41     1.0000 0.03633  0.68439  0.69468  Biso   1.000  Zr
  Zr42     1.0000 0.03383  0.56410  0.94502  Biso   1.000  Zr
  Zr43     1.0000 0.46800  0.93170  0.69166  Biso   1.000  Zr
  Zr44     1.0000 0.46722  0.81444  0.94700  Biso   1.000  Zr
  Zr45     1.0000 0.26892  0.61598  0.74902  Biso   1.000  Zr
  Zr46     1.0000 0.26750  0.63370  0.99844  Biso   1.000  Zr
  Zr47     1.0000 0.23148  0.87914  0.99906  Biso   1.000  Zr
  Zr48     1.0000 0.23441  0.86377  0.74925  Biso   1.000  Zr
  Zr49     1.0000 0.63417  0.01599  0.12554  Biso   1.000  Zr
  Zr50     1.0000 0.63339  0.23315  0.37752  Biso   1.000  Zr
  Zr51     1.0000 0.85122  0.27510  0.11940  Biso   1.000  Zr
  Zr52     1.0000 0.86508  0.48653  0.37804  Biso   1.000  Zr
  Zr53     1.0000 0.53369  0.18023  0.19586  Biso   1.000  Zr
  Zr54     1.0000 0.53789  0.06457  0.44484  Biso   1.000  Zr
  Zr55     1.0000 0.94426  0.44876  0.19740  Biso   1.000  Zr
  Zr56     1.0000 0.96879  0.32047  0.45233  Biso   1.000  Zr
  Zr57     1.0000 0.76853  0.12074  0.24811  Biso   1.000  Zr
  Zr58     1.0000 0.77251  0.13475  0.49888  Biso   1.000  Zr
  Zr59     1.0000 0.73042  0.38213  0.49965  Biso   1.000  Zr
  Zr60     1.0000 0.72111  0.37029  0.25029  Biso   1.000  Zr
  Zr61     1.0000 0.63771  0.01543  0.62488  Biso   1.000  Zr
  Zr62     1.0000 0.63481  0.23277  0.87371  Biso   1.000  Zr
  Zr63     1.0000 0.86735  0.26849  0.62938  Biso   1.000  Zr
  Zr64     1.0000 0.86420  0.48463  0.87195  Biso   1.000  Zr
  Zr65     1.0000 0.53803  0.18215  0.69376  Biso   1.000  Zr
  Zr66     1.0000 0.54370  0.06224  0.94088  Biso   1.000  Zr
  Zr67     1.0000 0.96101  0.43968  0.68919  Biso   1.000  Zr
  Zr68     1.0000 0.94719  0.30985  0.91179  Biso   1.000  Zr
  Zr69     1.0000 0.77223  0.11664  0.74888  Biso   1.000  Zr
  Zr70     1.0000 0.77099  0.13316  0.99929  Biso   1.000  Zr
  Zr71     1.0000 0.72502  0.38471  0.99936  Biso   1.000  Zr
  Zr72     1.0000 0.72589  0.36961  0.74729  Biso   1.000  Zr
  Zr73     1.0000 0.63104  0.51872  0.12927  Biso   1.000  Zr
  Zr74     1.0000 0.63548  0.73652  0.37651  Biso   1.000  Zr
  Zr75     1.0000 0.86601  0.76746  0.12655  Biso   1.000  Zr
  Zr76     1.0000 0.86873  0.98778  0.37339  Biso   1.000  Zr
  Zr77     1.0000 0.53273  0.68279  0.19872  Biso   1.000  Zr
  Zr78     1.0000 0.53547  0.56675  0.44584  Biso   1.000  Zr
  Zr79     1.0000 0.96854  0.93856  0.19272  Biso   1.000  Zr
  Zr80     1.0000 0.96556  0.81829  0.44427  Biso   1.000  Zr
  Zr81     1.0000 0.76531  0.62193  0.25275  Biso   1.000  Zr
  Zr82     1.0000 0.76854  0.63499  0.50051  Biso   1.000  Zr
  Zr83     1.0000 0.73380  0.88490  0.49862  Biso   1.000  Zr
  Zr84     1.0000 0.73229  0.87018  0.24929  Biso   1.000  Zr
  Zr85     1.0000 0.63514  0.51623  0.62514  Biso   1.000  Zr
  Zr86     1.0000 0.63578  0.73392  0.87678  Biso   1.000  Zr
  Zr87     1.0000 0.86829  0.76670  0.62528  Biso   1.000  Zr
  Zr88     1.0000 0.86654  0.98345  0.87607  Biso   1.000  Zr
  Zr89     1.0000 0.53483  0.68183  0.69766  Biso   1.000  Zr
  Zr90     1.0000 0.53481  0.56757  0.94862  Biso   1.000  Zr
  Zr91     1.0000 0.96708  0.93181  0.69857  Biso   1.000  Zr
  Zr92     1.0000 0.96456  0.81444  0.94532  Biso   1.000  Zr
  Zr93     1.0000 0.76897  0.61877  0.74912  Biso   1.000  Zr
  Zr94     1.0000 0.76846  0.63355  0.00155  Biso   1.000  Zr
  Zr95     1.0000 0.73212  0.88266  0.99997  Biso   1.000  Zr
  Zr96     1.0000 0.73229  0.86693  0.74901  Biso   1.000  Zr
  P1       1.0000 0.10544  0.27522  0.11483  Biso   1.000  P 
