data_image0
_cell_length_a       10.251
_cell_length_b       10.293
_cell_length_c       5.09443
_cell_angle_alpha    92.2514
_cell_angle_beta     92.7239
_cell_angle_gamma    90.0694

_symmetry_space_group_name_H-M    "P 1"
_symmetry_int_tables_number       1

loop_
  _symmetry_equiv_pos_as_xyz
  'x, y, z'

loop_
  _atom_site_label
  _atom_site_occupancy
  _atom_site_fract_x
  _atom_site_fract_y
  _atom_site_fract_z
  _atom_site_thermal_displace_type
  _atom_site_B_iso_or_equiv
  _atom_site_type_symbol
  Zr1      1.0000 0.13188  0.97855  0.34170  Biso   1.000  Zr
  Zr2      1.0000 0.12898  0.27826  0.62890  Biso   1.000  Zr
  Zr3      1.0000 0.37390  0.24684  0.23011  Biso   1.000  Zr
  Zr4      1.0000 0.39447  0.01166  0.74585  Biso   1.000  Zr
  Zr5      1.0000 0.95564  0.18382  0.97760  Biso   1.000  Zr
  Zr6      1.0000 0.98912  0.11589  0.51046  Biso   1.000  Zr
  Zr7      1.0000 0.98904  0.38016  0.40028  Biso   1.000  Zr
  Zr8      1.0000 0.04205  0.42472  0.89164  Biso   1.000  Zr
  Zr9      1.0000 0.26248  0.13640  0.53428  Biso   1.000  Zr
  Zr10     1.0000 0.27822  0.07023  0.06156  Biso   1.000  Zr
  Zr11     1.0000 0.29137  0.33601  0.89462  Biso   1.000  Zr
  Zr12     1.0000 0.25217  0.39860  0.41929  Biso   1.000  Zr
  Zr13     1.0000 0.11552  0.52120  0.23337  Biso   1.000  Zr
  Zr14     1.0000 0.13882  0.74034  0.76806  Biso   1.000  Zr
  Zr15     1.0000 0.38460  0.73507  0.24583  Biso   1.000  Zr
  Zr16     1.0000 0.38183  0.49123  0.73321  Biso   1.000  Zr
  Zr17     1.0000 0.99710  0.66099  0.01121  Biso   1.000  Zr
  Zr18     1.0000 0.00402  0.62145  0.50432  Biso   1.000  Zr
  Zr19     1.0000 0.99929  0.86317  0.56795  Biso   1.000  Zr
  Zr20     1.0000 0.97457  0.92343  0.08323  Biso   1.000  Zr
  Zr21     1.0000 0.25729  0.64046  0.50698  Biso   1.000  Zr
  Zr22     1.0000 0.25743  0.59455  0.99313  Biso   1.000  Zr
  Zr23     1.0000 0.21540  0.82459  0.12293  Biso   1.000  Zr
  Zr24     1.0000 0.24766  0.88886  0.62724  Biso   1.000  Zr
  Zr25     1.0000 0.62132  0.99399  0.25855  Biso   1.000  Zr
  Zr26     1.0000 0.62012  0.25892  0.76368  Biso   1.000  Zr
  Zr27     1.0000 0.84638  0.24248  0.28988  Biso   1.000  Zr
  Zr28     1.0000 0.87352  0.00950  0.77526  Biso   1.000  Zr
  Zr29     1.0000 0.50538  0.14695  0.98923  Biso   1.000  Zr
  Zr30     1.0000 0.50297  0.10783  0.48415  Biso   1.000  Zr
  Zr31     1.0000 0.49444  0.35145  0.51140  Biso   1.000  Zr
  Zr32     1.0000 0.51354  0.39686  0.01020  Biso   1.000  Zr
  Zr33     1.0000 0.74392  0.14294  0.54777  Biso   1.000  Zr
  Zr34     1.0000 0.74041  0.10247  0.04119  Biso   1.000  Zr
  Zr35     1.0000 0.76019  0.36245  0.01017  Biso   1.000  Zr
  Zr36     1.0000 0.74398  0.39599  0.51537  Biso   1.000  Zr
  Zr37     1.0000 0.64037  0.50627  0.23643  Biso   1.000  Zr
  Zr38     1.0000 0.62461  0.74659  0.74719  Biso   1.000  Zr
  Zr39     1.0000 0.87562  0.76768  0.26644  Biso   1.000  Zr
  Zr40     1.0000 0.88064  0.51329  0.73954  Biso   1.000  Zr
  Zr41     1.0000 0.50325  0.64084  0.97913  Biso   1.000  Zr
  Zr42     1.0000 0.50651  0.60243  0.47835  Biso   1.000  Zr
  Zr43     1.0000 0.49889  0.85628  0.51273  Biso   1.000  Zr
  Zr44     1.0000 0.48691  0.88687  0.01882  Biso   1.000  Zr
  Zr45     1.0000 0.75596  0.65024  0.50236  Biso   1.000  Zr
  Zr46     1.0000 0.75493  0.60924  0.99707  Biso   1.000  Zr
  Zr47     1.0000 0.73969  0.85500  0.00688  Biso   1.000  Zr
  Zr48     1.0000 0.75027  0.89748  0.50687  Biso   1.000  Zr
  P1       1.0000 0.11789  0.16657  0.04802  Biso   1.000  P 
