data_image0
_cell_length_a       5.09443
_cell_length_b       10.2929
_cell_length_c       10.251
_cell_angle_alpha    90.0695
_cell_angle_beta     92.7239
_cell_angle_gamma    92.2518

_symmetry_space_group_name_H-M    "P 1"
_symmetry_int_tables_number       1

loop_
  _symmetry_equiv_pos_as_xyz
  'x, y, z'

loop_
  _atom_site_label
  _atom_site_occupancy
  _atom_site_fract_x
  _atom_site_fract_y
  _atom_site_fract_z
  _atom_site_thermal_displace_type
  _atom_site_B_iso_or_equiv
  _atom_site_type_symbol
  Zr1      1.0000 0.34171  0.97855  0.13188  Biso   1.000  Zr
  Zr2      1.0000 0.23011  0.24685  0.37392  Biso   1.000  Zr
  Zr3      1.0000 0.62888  0.27826  0.12899  Biso   1.000  Zr
  Zr4      1.0000 0.74584  0.01166  0.39447  Biso   1.000  Zr
  Zr5      1.0000 0.97763  0.18378  0.95564  Biso   1.000  Zr
  Zr6      1.0000 0.06154  0.07024  0.27820  Biso   1.000  Zr
  Zr7      1.0000 0.89461  0.33601  0.29137  Biso   1.000  Zr
  Zr8      1.0000 0.89164  0.42472  0.04205  Biso   1.000  Zr
  Zr9      1.0000 0.53429  0.13639  0.26248  Biso   1.000  Zr
  Zr10     1.0000 0.51045  0.11589  0.98912  Biso   1.000  Zr
  Zr11     1.0000 0.40028  0.38016  0.98905  Biso   1.000  Zr
  Zr12     1.0000 0.41929  0.39861  0.25219  Biso   1.000  Zr
  Zr13     1.0000 0.25852  0.99399  0.62132  Biso   1.000  Zr
  Zr14     1.0000 0.28987  0.24247  0.84639  Biso   1.000  Zr
  Zr15     1.0000 0.76371  0.25891  0.62014  Biso   1.000  Zr
  Zr16     1.0000 0.77526  0.00949  0.87351  Biso   1.000  Zr
  Zr17     1.0000 0.98920  0.14695  0.50536  Biso   1.000  Zr
  Zr18     1.0000 0.04114  0.10249  0.74039  Biso   1.000  Zr
  Zr19     1.0000 0.01017  0.36246  0.76021  Biso   1.000  Zr
  Zr20     1.0000 0.01025  0.39685  0.51354  Biso   1.000  Zr
  Zr21     1.0000 0.54774  0.14293  0.74392  Biso   1.000  Zr
  Zr22     1.0000 0.48412  0.10783  0.50297  Biso   1.000  Zr
  Zr23     1.0000 0.51144  0.35145  0.49444  Biso   1.000  Zr
  Zr24     1.0000 0.51537  0.39598  0.74398  Biso   1.000  Zr
  Zr25     1.0000 0.23338  0.52120  0.11552  Biso   1.000  Zr
  Zr26     1.0000 0.24583  0.73507  0.38460  Biso   1.000  Zr
  Zr27     1.0000 0.76806  0.74035  0.13881  Biso   1.000  Zr
  Zr28     1.0000 0.73322  0.49123  0.38184  Biso   1.000  Zr
  Zr29     1.0000 0.01121  0.66098  0.99710  Biso   1.000  Zr
  Zr30     1.0000 0.99314  0.59455  0.25744  Biso   1.000  Zr
  Zr31     1.0000 0.12293  0.82459  0.21540  Biso   1.000  Zr
  Zr32     1.0000 0.08322  0.92342  0.97457  Biso   1.000  Zr
  Zr33     1.0000 0.50699  0.64046  0.25728  Biso   1.000  Zr
  Zr34     1.0000 0.50432  0.62145  0.00402  Biso   1.000  Zr
  Zr35     1.0000 0.56796  0.86316  0.99928  Biso   1.000  Zr
  Zr36     1.0000 0.62725  0.88886  0.24765  Biso   1.000  Zr
  Zr37     1.0000 0.23646  0.50627  0.64037  Biso   1.000  Zr
  Zr38     1.0000 0.26642  0.76768  0.87561  Biso   1.000  Zr
  Zr39     1.0000 0.74718  0.74659  0.62460  Biso   1.000  Zr
  Zr40     1.0000 0.73957  0.51329  0.88064  Biso   1.000  Zr
  Zr41     1.0000 0.97913  0.64083  0.50326  Biso   1.000  Zr
  Zr42     1.0000 0.99713  0.60925  0.75494  Biso   1.000  Zr
  Zr43     1.0000 0.00680  0.85502  0.73970  Biso   1.000  Zr
  Zr44     1.0000 0.01883  0.88687  0.48689  Biso   1.000  Zr
  Zr45     1.0000 0.50241  0.65024  0.75596  Biso   1.000  Zr
  Zr46     1.0000 0.47834  0.60244  0.50651  Biso   1.000  Zr
  Zr47     1.0000 0.51275  0.85628  0.49888  Biso   1.000  Zr
  Zr48     1.0000 0.50679  0.89747  0.75027  Biso   1.000  Zr
  P1       1.0000 0.04803  0.16658  0.11791  Biso   1.000  P 
