data_image0
_cell_length_a       10.5711
_cell_length_b       5.35589
_cell_length_c       10.4578
_cell_angle_alpha    88.0001
_cell_angle_beta     89.1906
_cell_angle_gamma    77.9093

_symmetry_space_group_name_H-M    "P 1"
_symmetry_int_tables_number       1

loop_
  _symmetry_equiv_pos_as_xyz
  'x, y, z'

loop_
  _atom_site_label
  _atom_site_occupancy
  _atom_site_fract_x
  _atom_site_fract_y
  _atom_site_fract_z
  _atom_site_thermal_displace_type
  _atom_site_B_iso_or_equiv
  _atom_site_type_symbol
  Zr1      1.0000 0.11599  0.97757  0.08496  Biso   1.000  Zr
  Zr2      1.0000 0.12375  0.49337  0.42960  Biso   1.000  Zr
  Zr3      1.0000 0.39953  0.54182  0.13987  Biso   1.000  Zr
  Zr4      1.0000 0.38017  0.02801  0.34364  Biso   1.000  Zr
  Zr5      1.0000 0.96668  0.27576  0.99029  Biso   1.000  Zr
  Zr6      1.0000 0.96108  0.05631  0.22215  Biso   1.000  Zr
  Zr7      1.0000 0.93812  0.54268  0.31008  Biso   1.000  Zr
  Zr8      1.0000 0.99864  0.77136  0.98168  Biso   1.000  Zr
  Zr9      1.0000 0.29035  0.41046  0.29599  Biso   1.000  Zr
  Zr10     1.0000 0.22835  0.12112  0.94958  Biso   1.000  Zr
  Zr11     1.0000 0.24251  0.62275  0.01220  Biso   1.000  Zr
  Zr12     1.0000 0.27474  0.90493  0.20972  Biso   1.000  Zr
  Zr13     1.0000 0.11780  0.98901  0.60989  Biso   1.000  Zr
  Zr14     1.0000 0.11923  0.46728  0.88305  Biso   1.000  Zr
  Zr15     1.0000 0.40219  0.57781  0.64596  Biso   1.000  Zr
  Zr16     1.0000 0.39568  0.06564  0.84701  Biso   1.000  Zr
  Zr17     1.0000 0.00096  0.31624  0.52985  Biso   1.000  Zr
  Zr18     1.0000 0.02869  0.23673  0.75881  Biso   1.000  Zr
  Zr19     1.0000 0.02698  0.74083  0.74241  Biso   1.000  Zr
  Zr20     1.0000 0.99081  0.81425  0.49987  Biso   1.000  Zr
  Zr21     1.0000 0.28884  0.41882  0.77344  Biso   1.000  Zr
  Zr22     1.0000 0.22864  0.13133  0.47253  Biso   1.000  Zr
  Zr23     1.0000 0.23697  0.64926  0.53723  Biso   1.000  Zr
  Zr24     1.0000 0.29094  0.92315  0.71447  Biso   1.000  Zr
  Zr25     1.0000 0.61655  0.96339  0.09886  Biso   1.000  Zr
  Zr26     1.0000 0.63284  0.50230  0.40036  Biso   1.000  Zr
  Zr27     1.0000 0.84601  0.41581  0.15558  Biso   1.000  Zr
  Zr28     1.0000 0.84824  0.92603  0.35517  Biso   1.000  Zr
  Zr29     1.0000 0.48868  0.29408  0.99051  Biso   1.000  Zr
  Zr30     1.0000 0.49651  0.18700  0.22449  Biso   1.000  Zr
  Zr31     1.0000 0.50534  0.69461  0.25968  Biso   1.000  Zr
  Zr32     1.0000 0.48454  0.79435  0.99770  Biso   1.000  Zr
  Zr33     1.0000 0.72157  0.25706  0.25290  Biso   1.000  Zr
  Zr34     1.0000 0.73519  0.12897  0.98278  Biso   1.000  Zr
  Zr35     1.0000 0.72361  0.62260  0.02040  Biso   1.000  Zr
  Zr36     1.0000 0.72671  0.76180  0.24935  Biso   1.000  Zr
  Zr37     1.0000 0.61966  0.00737  0.60283  Biso   1.000  Zr
  Zr38     1.0000 0.61821  0.47834  0.89225  Biso   1.000  Zr
  Zr39     1.0000 0.89112  0.56468  0.65383  Biso   1.000  Zr
  Zr40     1.0000 0.89402  0.04652  0.85445  Biso   1.000  Zr
  Zr41     1.0000 0.49938  0.33174  0.50265  Biso   1.000  Zr
  Zr42     1.0000 0.53106  0.25612  0.74536  Biso   1.000  Zr
  Zr43     1.0000 0.53198  0.75562  0.75089  Biso   1.000  Zr
  Zr44     1.0000 0.49644  0.82267  0.49777  Biso   1.000  Zr
  Zr45     1.0000 0.77980  0.39573  0.77377  Biso   1.000  Zr
  Zr46     1.0000 0.74033  0.16824  0.48824  Biso   1.000  Zr
  Zr47     1.0000 0.74694  0.67938  0.51122  Biso   1.000  Zr
  Zr48     1.0000 0.77934  0.90307  0.72588  Biso   1.000  Zr
  Pb1      1.0000 0.11593  0.48034  0.16700  Biso   1.000  Pb
