data_image0
_cell_length_a       10.055
_cell_length_b       5.22803
_cell_length_c       10.0917
_cell_angle_alpha    90.063
_cell_angle_beta     89.8898
_cell_angle_gamma    89.9365

_symmetry_space_group_name_H-M    "P 1"
_symmetry_int_tables_number       1

loop_
  _symmetry_equiv_pos_as_xyz
  'x, y, z'

loop_
  _atom_site_label
  _atom_site_occupancy
  _atom_site_fract_x
  _atom_site_fract_y
  _atom_site_fract_z
  _atom_site_thermal_displace_type
  _atom_site_B_iso_or_equiv
  _atom_site_type_symbol
  Pb1      1.0000 0.13004  0.03146  0.12209  Biso   1.000  Pb
  Zr1      1.0000 0.13328  0.03228  0.62633  Biso   1.000  Zr
  Zr2      1.0000 0.63427  0.03006  0.12679  Biso   1.000  Zr
  Zr3      1.0000 0.63356  0.03200  0.62520  Biso   1.000  Zr
  Zr4      1.0000 0.13478  0.46838  0.37789  Biso   1.000  Zr
  Zr5      1.0000 0.13340  0.47300  0.87324  Biso   1.000  Zr
  Zr6      1.0000 0.63389  0.46840  0.37593  Biso   1.000  Zr
  Zr7      1.0000 0.63346  0.46702  0.87551  Biso   1.000  Zr
  Zr8      1.0000 0.36842  0.53007  0.12635  Biso   1.000  Zr
  Zr9      1.0000 0.36632  0.53143  0.62575  Biso   1.000  Zr
  Zr10     1.0000 0.86326  0.52880  0.12479  Biso   1.000  Zr
  Zr11     1.0000 0.86626  0.53178  0.62477  Biso   1.000  Zr
  Zr12     1.0000 0.36633  0.96729  0.37668  Biso   1.000  Zr
  Zr13     1.0000 0.36823  0.97187  0.87407  Biso   1.000  Zr
  Zr14     1.0000 0.86582  0.96968  0.37774  Biso   1.000  Zr
  Zr15     1.0000 0.86352  0.96511  0.87411  Biso   1.000  Zr
  Zr16     1.0000 0.03361  0.37810  0.19715  Biso   1.000  Zr
  Zr17     1.0000 0.03687  0.37221  0.69126  Biso   1.000  Zr
  Zr18     1.0000 0.53732  0.36750  0.19453  Biso   1.000  Zr
  Zr19     1.0000 0.53494  0.36652  0.69538  Biso   1.000  Zr
  Zr20     1.0000 0.03565  0.13089  0.44468  Biso   1.000  Zr
  Zr21     1.0000 0.03388  0.13548  0.93208  Biso   1.000  Zr
  Zr22     1.0000 0.53595  0.13236  0.44473  Biso   1.000  Zr
  Zr23     1.0000 0.53636  0.13229  0.94496  Biso   1.000  Zr
  Zr24     1.0000 0.46611  0.86676  0.19514  Biso   1.000  Zr
  Zr25     1.0000 0.46495  0.86755  0.69397  Biso   1.000  Zr
  Zr26     1.0000 0.95586  0.86674  0.19413  Biso   1.000  Zr
  Zr27     1.0000 0.96324  0.86798  0.69310  Biso   1.000  Zr
  Zr28     1.0000 0.46502  0.63188  0.44562  Biso   1.000  Zr
  Zr29     1.0000 0.46384  0.63292  0.94308  Biso   1.000  Zr
  Zr30     1.0000 0.96434  0.63314  0.44472  Biso   1.000  Zr
  Zr31     1.0000 0.96435  0.63424  0.94510  Biso   1.000  Zr
  Zr32     1.0000 0.27258  0.23476  0.25103  Biso   1.000  Zr
  Zr33     1.0000 0.26991  0.23495  0.74789  Biso   1.000  Zr
  Zr34     1.0000 0.76850  0.23332  0.25022  Biso   1.000  Zr
  Zr35     1.0000 0.76910  0.23371  0.74860  Biso   1.000  Zr
  Zr36     1.0000 0.27007  0.26564  0.49968  Biso   1.000  Zr
  Zr37     1.0000 0.27167  0.27119  0.99542  Biso   1.000  Zr
  Zr38     1.0000 0.76918  0.26678  0.49937  Biso   1.000  Zr
  Zr39     1.0000 0.76971  0.26272  0.99882  Biso   1.000  Zr
  Zr40     1.0000 0.23062  0.76664  0.50066  Biso   1.000  Zr
  Zr41     1.0000 0.23327  0.76364  0.99835  Biso   1.000  Zr
  Zr42     1.0000 0.73033  0.76625  0.49952  Biso   1.000  Zr
  Zr43     1.0000 0.72847  0.76255  0.99912  Biso   1.000  Zr
  Zr44     1.0000 0.23579  0.72376  0.25298  Biso   1.000  Zr
  Zr45     1.0000 0.23121  0.73589  0.74904  Biso   1.000  Zr
  Zr46     1.0000 0.73042  0.73376  0.24994  Biso   1.000  Zr
  Zr47     1.0000 0.72983  0.73280  0.74882  Biso   1.000  Zr
