data_image0
_cell_length_a       10.3789
_cell_length_b       5.21786
_cell_length_c       10.6922
_cell_angle_alpha    90.2568
_cell_angle_beta     78.0989
_cell_angle_gamma    90.0315

_symmetry_space_group_name_H-M    "P 1"
_symmetry_int_tables_number       1

loop_
  _symmetry_equiv_pos_as_xyz
  'x, y, z'

loop_
  _atom_site_label
  _atom_site_occupancy
  _atom_site_fract_x
  _atom_site_fract_y
  _atom_site_fract_z
  _atom_site_thermal_displace_type
  _atom_site_B_iso_or_equiv
  _atom_site_type_symbol
  Zr1      1.0000 0.12899  0.04607  0.14301  Biso   1.000  Zr
  Zr2      1.0000 0.13972  0.45827  0.39227  Biso   1.000  Zr
  Zr3      1.0000 0.33841  0.54519  0.08817  Biso   1.000  Zr
  Zr4      1.0000 0.34867  0.95874  0.34902  Biso   1.000  Zr
  O1       1.0000 0.02505  0.33233  0.07491  Biso   1.000  O
  O2       1.0000 0.02963  0.17698  0.32741  Biso   1.000  O
  O3       1.0000 0.45698  0.88389  0.15351  Biso   1.000  O
  O4       1.0000 0.48109  0.68745  0.45091  Biso   1.000  O
  O5       1.0000 0.26179  0.24098  0.23375  Biso   1.000  O
  O6       1.0000 0.27507  0.24415  0.48551  Biso   1.000  O
  O7       1.0000 0.21323  0.76886  0.00063  Biso   1.000  O
  O8       1.0000 0.20915  0.74354  0.25065  Biso   1.000  O
  Zr5      1.0000 0.13860  0.04266  0.64398  Biso   1.000  Zr
  Zr6      1.0000 0.12803  0.45848  0.89198  Biso   1.000  Zr
  Zr7      1.0000 0.36304  0.54388  0.60750  Biso   1.000  Zr
  Zr8      1.0000 0.35663  0.95951  0.85136  Biso   1.000  Zr
  O9       1.0000 0.03524  0.32587  0.57742  Biso   1.000  O
  O10      1.0000 0.02679  0.17451  0.82518  Biso   1.000  O
  O11      1.0000 0.46926  0.81940  0.68238  Biso   1.000  O
  O12      1.0000 0.45981  0.67524  0.92034  Biso   1.000  O
  O13      1.0000 0.27005  0.25059  0.73704  Biso   1.000  O
  O14      1.0000 0.26343  0.25369  0.98359  Biso   1.000  O
  O15      1.0000 0.22670  0.75317  0.50554  Biso   1.000  O
  O16      1.0000 0.22287  0.74201  0.75582  Biso   1.000  O
  Zr9      1.0000 0.63924  0.03967  0.15179  Biso   1.000  Zr
  Zr10     1.0000 0.65884  0.46006  0.41847  Biso   1.000  Zr
  Zr11     1.0000 0.85436  0.54246  0.11354  Biso   1.000  Zr
  Zr12     1.0000 0.86554  0.95626  0.36079  Biso   1.000  Zr
  O17      1.0000 0.51626  0.31915  0.06085  Biso   1.000  O
  O18      1.0000 0.53172  0.10541  0.34025  Biso   1.000  O
  O19      1.0000 0.96485  0.82548  0.17638  Biso   1.000  O
  O20      1.0000 0.96883  0.66861  0.43003  Biso   1.000  O
  O21      1.0000 0.78164  0.25744  0.25415  Biso   1.000  O
  O22      1.0000 0.78238  0.23145  0.50469  Biso   1.000  O
  O23      1.0000 0.71924  0.75367  0.01950  Biso   1.000  O
  O24      1.0000 0.73350  0.75847  0.27165  Biso   1.000  O
  Zr13     1.0000 0.63831  0.04030  0.65476  Biso   1.000  Zr
  Zr14     1.0000 0.63229  0.45722  0.89816  Biso   1.000  Zr
  Zr15     1.0000 0.86764  0.54210  0.61370  Biso   1.000  Zr
  Zr16     1.0000 0.85719  0.95775  0.86130  Biso   1.000  Zr
  O25      1.0000 0.53449  0.31680  0.58244  Biso   1.000  O
  O26      1.0000 0.52664  0.17781  0.82576  Biso   1.000  O
  O27      1.0000 0.96860  0.82669  0.67988  Biso   1.000  O
  O28      1.0000 0.95972  0.67448  0.92779  Biso   1.000  O
  O29      1.0000 0.77202  0.25848  0.74924  Biso   1.000  O
  O30      1.0000 0.76718  0.24535  0.99922  Biso   1.000  O
  O31      1.0000 0.73178  0.74786  0.52246  Biso   1.000  O
  O32      1.0000 0.72561  0.74860  0.76886  Biso   1.000  O
  Pb1      1.0000 0.49519  0.50318  0.25745  Biso   1.000  Pb
