data_image0
_cell_length_a       10.1948
_cell_length_b       10.3879
_cell_length_c       5.25426
_cell_angle_alpha    90.0152
_cell_angle_beta     80.7215
_cell_angle_gamma    89.9612

_symmetry_space_group_name_H-M    "P 1"
_symmetry_int_tables_number       1

loop_
  _symmetry_equiv_pos_as_xyz
  'x, y, z'

loop_
  _atom_site_label
  _atom_site_occupancy
  _atom_site_fract_x
  _atom_site_fract_y
  _atom_site_fract_z
  _atom_site_thermal_displace_type
  _atom_site_B_iso_or_equiv
  _atom_site_type_symbol
  Pb1      1.0000 0.13574  0.01750  0.29116  Biso   1.000  Pb
  Zr1      1.0000 0.13880  0.52135  0.28942  Biso   1.000  Zr
  Zr2      1.0000 0.63927  0.02166  0.29184  Biso   1.000  Zr
  Zr3      1.0000 0.63877  0.52000  0.29078  Biso   1.000  Zr
  Zr4      1.0000 0.13940  0.23038  0.78790  Biso   1.000  Zr
  Zr5      1.0000 0.13793  0.72767  0.79070  Biso   1.000  Zr
  Zr6      1.0000 0.63891  0.22955  0.79198  Biso   1.000  Zr
  Zr7      1.0000 0.63857  0.72778  0.78924  Biso   1.000  Zr
  Zr8      1.0000 0.36145  0.27158  0.20689  Biso   1.000  Zr
  Zr9      1.0000 0.36368  0.76966  0.20963  Biso   1.000  Zr
  Zr10     1.0000 0.86082  0.27180  0.21124  Biso   1.000  Zr
  Zr11     1.0000 0.85945  0.76888  0.20823  Biso   1.000  Zr
  Zr12     1.0000 0.36122  0.47903  0.70807  Biso   1.000  Zr
  Zr13     1.0000 0.36388  0.97937  0.70738  Biso   1.000  Zr
  Zr14     1.0000 0.86163  0.47846  0.70930  Biso   1.000  Zr
  Zr15     1.0000 0.85737  0.97855  0.71717  Biso   1.000  Zr
  O1       1.0000 0.03866  0.17945  0.16148  Biso   1.000  O
  O2       1.0000 0.03644  0.67171  0.16387  Biso   1.000  O
  O3       1.0000 0.53657  0.17051  0.16188  Biso   1.000  O
  O4       1.0000 0.53731  0.66930  0.16123  Biso   1.000  O
  O5       1.0000 0.03295  0.07921  0.67573  Biso   1.000  O
  O6       1.0000 0.03657  0.57888  0.66231  Biso   1.000  O
  O7       1.0000 0.53787  0.07950  0.66207  Biso   1.000  O
  O8       1.0000 0.53586  0.57951  0.66094  Biso   1.000  O
  O9       1.0000 0.46427  0.41986  0.33786  Biso   1.000  O
  O10      1.0000 0.46517  0.92014  0.33699  Biso   1.000  O
  O11      1.0000 0.96267  0.42270  0.33711  Biso   1.000  O
  O12      1.0000 0.95236  0.92138  0.34006  Biso   1.000  O
  O13      1.0000 0.46472  0.33036  0.83724  Biso   1.000  O
  O14      1.0000 0.46409  0.82846  0.83757  Biso   1.000  O
  O15      1.0000 0.96303  0.32997  0.83827  Biso   1.000  O
  O16      1.0000 0.96318  0.82894  0.83835  Biso   1.000  O
  O17      1.0000 0.27836  0.12983  0.48000  Biso   1.000  O
  O18      1.0000 0.27624  0.62745  0.47996  Biso   1.000  O
  O19      1.0000 0.77580  0.13013  0.48424  Biso   1.000  O
  O20      1.0000 0.77520  0.62849  0.48097  Biso   1.000  O
  O21      1.0000 0.28040  0.12428  0.96877  Biso   1.000  O
  O22      1.0000 0.27575  0.62132  0.98047  Biso   1.000  O
  O23      1.0000 0.77543  0.12116  0.98487  Biso   1.000  O
  O24      1.0000 0.77571  0.62005  0.98012  Biso   1.000  O
  O25      1.0000 0.22503  0.38086  0.01612  Biso   1.000  O
  O26      1.0000 0.22815  0.87744  0.01366  Biso   1.000  O
  O27      1.0000 0.72402  0.37888  0.01952  Biso   1.000  O
  O28      1.0000 0.72255  0.87839  0.02016  Biso   1.000  O
  O29      1.0000 0.22451  0.37108  0.51611  Biso   1.000  O
  O30      1.0000 0.22744  0.86607  0.52036  Biso   1.000  O
  O31      1.0000 0.72415  0.37125  0.51975  Biso   1.000  O
  O32      1.0000 0.72263  0.87020  0.52104  Biso   1.000  O
