data_image0
_cell_length_a       10.2234
_cell_length_b       5.30834
_cell_length_c       10.3295
_cell_angle_alpha    84.0046
_cell_angle_beta     92.0528
_cell_angle_gamma    93.359

_symmetry_space_group_name_H-M    "P 1"
_symmetry_int_tables_number       1

loop_
  _symmetry_equiv_pos_as_xyz
  'x, y, z'

loop_
  _atom_site_label
  _atom_site_occupancy
  _atom_site_fract_x
  _atom_site_fract_y
  _atom_site_fract_z
  _atom_site_thermal_displace_type
  _atom_site_B_iso_or_equiv
  _atom_site_type_symbol
  Zr1      1.0000 0.14516  0.98015  0.10469  Biso   1.000  Zr
  Zr2      1.0000 0.11637  0.50472  0.40046  Biso   1.000  Zr
  Zr3      1.0000 0.35326  0.49472  0.12970  Biso   1.000  Zr
  Zr4      1.0000 0.39074  0.99826  0.35650  Biso   1.000  Zr
  Zr5      1.0000 0.95468  0.41744  0.27621  Biso   1.000  Zr
  Zr6      1.0000 0.05016  0.14265  0.44533  Biso   1.000  Zr
  Zr7      1.0000 0.44878  0.85206  0.18504  Biso   1.000  Zr
  Zr8      1.0000 0.47665  0.65932  0.44610  Biso   1.000  Zr
  Zr9      1.0000 0.24888  0.17866  0.23782  Biso   1.000  Zr
  Zr10     1.0000 0.27977  0.29317  0.48787  Biso   1.000  Zr
  Zr11     1.0000 0.25040  0.79329  0.48447  Biso   1.000  Zr
  Zr12     1.0000 0.20523  0.66284  0.23014  Biso   1.000  Zr
  Zr13     1.0000 0.15123  0.01342  0.60773  Biso   1.000  Zr
  Zr14     1.0000 0.15867  0.41214  0.83744  Biso   1.000  Zr
  Zr15     1.0000 0.37769  0.52346  0.60938  Biso   1.000  Zr
  Zr16     1.0000 0.37639  0.92900  0.87392  Biso   1.000  Zr
  Zr17     1.0000 0.07425  0.37499  0.65030  Biso   1.000  Zr
  Zr18     1.0000 0.05759  0.06564  0.91546  Biso   1.000  Zr
  Zr19     1.0000 0.50276  0.80011  0.72883  Biso   1.000  Zr
  Zr20     1.0000 0.46892  0.61133  0.96575  Biso   1.000  Zr
  Zr21     1.0000 0.28762  0.20006  0.73747  Biso   1.000  Zr
  Zr22     1.0000 0.28734  0.21487  0.98884  Biso   1.000  Zr
  Zr23     1.0000 0.22985  0.71629  0.98244  Biso   1.000  Zr
  Zr24     1.0000 0.25838  0.71220  0.73288  Biso   1.000  Zr
  Zr25     1.0000 0.62254  0.07630  0.12620  Biso   1.000  Zr
  Zr26     1.0000 0.63569  0.47570  0.40697  Biso   1.000  Zr
  Zr27     1.0000 0.81162  0.61135  0.16293  Biso   1.000  Zr
  Zr28     1.0000 0.87554  0.03517  0.37465  Biso   1.000  Zr
  Zr29     1.0000 0.49660  0.32074  0.23512  Biso   1.000  Zr
  Zr30     1.0000 0.53841  0.13547  0.47084  Biso   1.000  Zr
  Zr31     1.0000 0.95936  0.93718  0.20781  Biso   1.000  Zr
  Zr32     1.0000 0.97486  0.69288  0.46695  Biso   1.000  Zr
  Zr33     1.0000 0.72933  0.27241  0.26921  Biso   1.000  Zr
  Zr34     1.0000 0.78472  0.28552  0.51490  Biso   1.000  Zr
  Zr35     1.0000 0.74152  0.77518  0.51419  Biso   1.000  Zr
  Zr36     1.0000 0.69863  0.79195  0.27094  Biso   1.000  Zr
  Zr37     1.0000 0.65837  0.01495  0.63730  Biso   1.000  Zr
  Zr38     1.0000 0.60533  0.47803  0.85565  Biso   1.000  Zr
  Zr39     1.0000 0.89021  0.54017  0.64285  Biso   1.000  Zr
  Zr40     1.0000 0.88685  0.90989  0.86507  Biso   1.000  Zr
  Zr41     1.0000 0.54318  0.33776  0.68305  Biso   1.000  Zr
  Zr42     1.0000 0.53436  0.12651  0.94022  Biso   1.000  Zr
  Zr43     1.0000 0.97278  0.90285  0.67701  Biso   1.000  Zr
  Zr44     1.0000 0.97696  0.55261  0.84607  Biso   1.000  Zr
  Zr45     1.0000 0.78220  0.20294  0.76576  Biso   1.000  Zr
  Zr46     1.0000 0.72034  0.40545  0.02592  Biso   1.000  Zr
  Zr47     1.0000 0.76088  0.90114  0.02087  Biso   1.000  Zr
  Zr48     1.0000 0.74727  0.70570  0.75917  Biso   1.000  Zr
  Pb1      1.0000 0.03569  0.45957  0.07337  Biso   1.000  Pb
