data_image0
_cell_length_a       10.3822
_cell_length_b       10.5311
_cell_length_c       5.29871
_cell_angle_alpha    89.0097
_cell_angle_beta     78.3265
_cell_angle_gamma    89.2111

_symmetry_space_group_name_H-M    "P 1"
_symmetry_int_tables_number       1

loop_
  _symmetry_equiv_pos_as_xyz
  'x, y, z'

loop_
  _atom_site_label
  _atom_site_occupancy
  _atom_site_fract_x
  _atom_site_fract_y
  _atom_site_fract_z
  _atom_site_thermal_displace_type
  _atom_site_B_iso_or_equiv
  _atom_site_type_symbol
  Zr1      1.0000 0.13019  0.01564  0.28408  Biso   1.000  Zr
  Zr2      1.0000 0.12980  0.22620  0.76832  Biso   1.000  Zr
  Zr3      1.0000 0.33132  0.26211  0.17112  Biso   1.000  Zr
  Zr4      1.0000 0.35832  0.48979  0.71010  Biso   1.000  Zr
  O1       1.0000 0.03768  0.17224  0.16183  Biso   1.000  O
  O2       1.0000 0.02733  0.07857  0.66308  Biso   1.000  O
  O3       1.0000 0.46237  0.45372  0.34508  Biso   1.000  O
  O4       1.0000 0.47076  0.35364  0.89591  Biso   1.000  O
  O5       1.0000 0.25868  0.11756  0.45612  Biso   1.000  O
  O6       1.0000 0.26814  0.11972  0.94948  Biso   1.000  O
  O7       1.0000 0.21395  0.38315  0.98881  Biso   1.000  O
  O8       1.0000 0.21329  0.36800  0.49194  Biso   1.000  O
  Zr5      1.0000 0.13776  0.52153  0.29260  Biso   1.000  Zr
  Zr6      1.0000 0.13405  0.72824  0.79480  Biso   1.000  Zr
  Zr7      1.0000 0.35818  0.76989  0.20757  Biso   1.000  Zr
  Zr8      1.0000 0.35533  0.96774  0.69757  Biso   1.000  Zr
  O9       1.0000 0.03032  0.66770  0.16275  Biso   1.000  O
  O10      1.0000 0.03447  0.58355  0.66109  Biso   1.000  O
  O11      1.0000 0.45965  0.91513  0.32774  Biso   1.000  O
  O12      1.0000 0.45650  0.81996  0.83525  Biso   1.000  O
  O13      1.0000 0.27047  0.62881  0.48664  Biso   1.000  O
  O14      1.0000 0.27144  0.62351  0.98723  Biso   1.000  O
  O15      1.0000 0.21977  0.87690  0.01619  Biso   1.000  O
  O16      1.0000 0.21899  0.86644  0.51376  Biso   1.000  O
  Zr9      1.0000 0.63603  0.01022  0.30012  Biso   1.000  Zr
  Zr10     1.0000 0.66299  0.23788  0.83907  Biso   1.000  Zr
  Zr11     1.0000 0.86453  0.27380  0.24188  Biso   1.000  Zr
  Zr12     1.0000 0.86414  0.48436  0.72611  Biso   1.000  Zr
  O17      1.0000 0.52357  0.14633  0.11428  Biso   1.000  O
  O18      1.0000 0.53197  0.04631  0.66513  Biso   1.000  O
  O19      1.0000 0.96701  0.42144  0.34712  Biso   1.000  O
  O20      1.0000 0.95666  0.32777  0.84837  Biso   1.000  O
  O21      1.0000 0.78105  0.13200  0.51825  Biso   1.000  O
  O22      1.0000 0.78039  0.11686  0.02138  Biso   1.000  O
  O23      1.0000 0.72619  0.38028  0.06070  Biso   1.000  O
  O24      1.0000 0.73566  0.38245  0.55407  Biso   1.000  O
  Zr13     1.0000 0.63901  0.53226  0.31264  Biso   1.000  Zr
  Zr14     1.0000 0.63616  0.73012  0.80265  Biso   1.000  Zr
  Zr15     1.0000 0.86029  0.77176  0.21540  Biso   1.000  Zr
  Zr16     1.0000 0.85658  0.97847  0.71760  Biso   1.000  Zr
  O25      1.0000 0.53785  0.68006  0.17498  Biso   1.000  O
  O26      1.0000 0.53469  0.58487  0.68250  Biso   1.000  O
  O27      1.0000 0.95987  0.91645  0.34912  Biso   1.000  O
  O28      1.0000 0.96402  0.83230  0.84746  Biso   1.000  O
  O29      1.0000 0.77535  0.63356  0.49645  Biso   1.000  O
  O30      1.0000 0.77458  0.62310  0.99402  Biso   1.000  O
  O31      1.0000 0.72291  0.87649  0.02298  Biso   1.000  O
  O32      1.0000 0.72387  0.87119  0.52358  Biso   1.000  O
  Pb1      1.0000 0.49718  0.25001  0.50506  Biso   1.000  Pb
