data_image0
_cell_length_a       10.3575
_cell_length_b       5.41204
_cell_length_c       10.3575
_cell_angle_alpha    101.187
_cell_angle_beta     84.0748
_cell_angle_gamma    101.187

_symmetry_space_group_name_H-M    "P 1"
_symmetry_int_tables_number       1

loop_
  _symmetry_equiv_pos_as_xyz
  'x, y, z'

loop_
  _atom_site_label
  _atom_site_occupancy
  _atom_site_fract_x
  _atom_site_fract_y
  _atom_site_fract_z
  _atom_site_thermal_displace_type
  _atom_site_B_iso_or_equiv
  _atom_site_type_symbol
  Zr1      1.0000 0.15001  0.96066  0.15022  Biso   1.000  Zr
  Zr2      1.0000 0.10961  0.51638  0.35661  Biso   1.000  Zr
  Zr3      1.0000 0.35641  0.51638  0.10982  Biso   1.000  Zr
  Zr4      1.0000 0.39952  0.97976  0.39972  Biso   1.000  Zr
  Zr5      1.0000 0.94243  0.38820  0.94263  Biso   1.000  Zr
  Zr6      1.0000 0.00777  0.16834  0.25607  Biso   1.000  Zr
  Zr7      1.0000 0.99611  0.68941  0.25120  Biso   1.000  Zr
  Zr8      1.0000 0.00654  0.85082  0.00676  Biso   1.000  Zr
  Zr9      1.0000 0.25282  0.31476  0.25303  Biso   1.000  Zr
  Zr10     1.0000 0.25586  0.16833  0.00797  Biso   1.000  Zr
  Zr11     1.0000 0.25100  0.68940  0.99632  Biso   1.000  Zr
  Zr12     1.0000 0.25797  0.79900  0.25817  Biso   1.000  Zr
  Zr13     1.0000 0.15106  0.98228  0.64500  Biso   1.000  Zr
  Zr14     1.0000 0.11077  0.53571  0.84298  Biso   1.000  Zr
  Zr15     1.0000 0.35928  0.52195  0.60527  Biso   1.000  Zr
  Zr16     1.0000 0.40013  0.98007  0.89942  Biso   1.000  Zr
  Zr17     1.0000 0.99892  0.32992  0.49797  Biso   1.000  Zr
  Zr18     1.0000 0.01291  0.16670  0.74611  Biso   1.000  Zr
  Zr19     1.0000 0.99935  0.69688  0.74162  Biso   1.000  Zr
  Zr20     1.0000 0.00851  0.81041  0.50227  Biso   1.000  Zr
  Zr21     1.0000 0.25252  0.33529  0.74539  Biso   1.000  Zr
  Zr22     1.0000 0.25866  0.17114  0.50342  Biso   1.000  Zr
  Zr23     1.0000 0.25122  0.68586  0.49807  Biso   1.000  Zr
  Zr24     1.0000 0.25865  0.81870  0.75402  Biso   1.000  Zr
  Zr25     1.0000 0.64479  0.98229  0.15126  Biso   1.000  Zr
  Zr26     1.0000 0.60507  0.52195  0.35948  Biso   1.000  Zr
  Zr27     1.0000 0.84278  0.53573  0.11097  Biso   1.000  Zr
  Zr28     1.0000 0.89922  0.98008  0.40034  Biso   1.000  Zr
  Zr29     1.0000 0.49777  0.32992  0.99912  Biso   1.000  Zr
  Zr30     1.0000 0.50322  0.17116  0.25885  Biso   1.000  Zr
  Zr31     1.0000 0.49787  0.68587  0.25141  Biso   1.000  Zr
  Zr32     1.0000 0.50207  0.81042  0.00871  Biso   1.000  Zr
  Zr33     1.0000 0.74519  0.33530  0.25271  Biso   1.000  Zr
  Zr34     1.0000 0.74591  0.16671  0.01310  Biso   1.000  Zr
  Zr35     1.0000 0.74142  0.69690  0.99955  Biso   1.000  Zr
  Zr36     1.0000 0.75381  0.81871  0.25885  Biso   1.000  Zr
  Zr37     1.0000 0.64848  0.98607  0.64869  Biso   1.000  Zr
  Zr38     1.0000 0.60445  0.52272  0.85721  Biso   1.000  Zr
  Zr39     1.0000 0.85701  0.52273  0.60465  Biso   1.000  Zr
  Zr40     1.0000 0.89189  0.99167  0.89210  Biso   1.000  Zr
  Zr41     1.0000 0.50152  0.33085  0.50172  Biso   1.000  Zr
  Zr42     1.0000 0.50633  0.17145  0.75727  Biso   1.000  Zr
  Zr43     1.0000 0.49919  0.69272  0.75039  Biso   1.000  Zr
  Zr44     1.0000 0.50719  0.81455  0.50739  Biso   1.000  Zr
  Zr45     1.0000 0.74789  0.33656  0.74809  Biso   1.000  Zr
  Zr46     1.0000 0.75707  0.17146  0.50653  Biso   1.000  Zr
  Zr47     1.0000 0.75020  0.69273  0.49939  Biso   1.000  Zr
  Zr48     1.0000 0.75447  0.81503  0.75467  Biso   1.000  Zr
  Pd1      1.0000 0.07172  0.35051  0.07193  Biso   1.000  Pd
