data_image0
_cell_length_a       10.2513
_cell_length_b       10.4119
_cell_length_c       5.27855
_cell_angle_alpha    90.5269
_cell_angle_beta     79.8629
_cell_angle_gamma    90.0963

_symmetry_space_group_name_H-M    "P 1"
_symmetry_int_tables_number       1

loop_
  _symmetry_equiv_pos_as_xyz
  'x, y, z'

loop_
  _atom_site_label
  _atom_site_occupancy
  _atom_site_fract_x
  _atom_site_fract_y
  _atom_site_fract_z
  _atom_site_thermal_displace_type
  _atom_site_B_iso_or_equiv
  _atom_site_type_symbol
  Zr1      1.0000 0.13431  0.02092  0.29516  Biso   1.000  Zr
  Zr2      1.0000 0.13688  0.22979  0.78801  Biso   1.000  Zr
  Zr3      1.0000 0.35652  0.27866  0.19461  Biso   1.000  Zr
  Zr4      1.0000 0.35699  0.48097  0.69916  Biso   1.000  Zr
  O1       1.0000 0.03384  0.16969  0.15980  Biso   1.000  O
  O2       1.0000 0.03130  0.08216  0.65958  Biso   1.000  O
  O3       1.0000 0.46179  0.42635  0.33558  Biso   1.000  O
  O4       1.0000 0.48103  0.35829  0.86601  Biso   1.000  O
  O5       1.0000 0.27167  0.13017  0.47837  Biso   1.000  O
  O6       1.0000 0.26649  0.11426  0.98877  Biso   1.000  O
  O7       1.0000 0.22171  0.38088  0.00760  Biso   1.000  O
  O8       1.0000 0.21397  0.37673  0.50370  Biso   1.000  O
  Zr5      1.0000 0.13617  0.52381  0.28823  Biso   1.000  Zr
  Zr6      1.0000 0.13543  0.72932  0.79493  Biso   1.000  Zr
  Zr7      1.0000 0.35973  0.76968  0.21312  Biso   1.000  Zr
  Zr8      1.0000 0.36005  0.96950  0.72027  Biso   1.000  Zr
  O9       1.0000 0.03053  0.66955  0.15847  Biso   1.000  O
  O10      1.0000 0.03238  0.58476  0.65727  Biso   1.000  O
  O11      1.0000 0.46239  0.91926  0.34550  Biso   1.000  O
  O12      1.0000 0.46097  0.82554  0.84585  Biso   1.000  O
  O13      1.0000 0.27267  0.63014  0.48209  Biso   1.000  O
  O14      1.0000 0.27184  0.62164  0.98225  Biso   1.000  O
  O15      1.0000 0.22239  0.87539  0.02685  Biso   1.000  O
  O16      1.0000 0.22252  0.87086  0.52555  Biso   1.000  O
  Zr9      1.0000 0.63711  0.02039  0.29559  Biso   1.000  Zr
  Zr10     1.0000 0.64997  0.23092  0.80691  Biso   1.000  Zr
  Zr11     1.0000 0.86270  0.27232  0.21673  Biso   1.000  Zr
  Zr12     1.0000 0.86184  0.47962  0.71155  Biso   1.000  Zr
  O17      1.0000 0.53116  0.16828  0.15799  Biso   1.000  O
  O18      1.0000 0.55025  0.05856  0.68597  Biso   1.000  O
  O19      1.0000 0.96349  0.42142  0.34018  Biso   1.000  O
  O20      1.0000 0.96361  0.33214  0.84055  Biso   1.000  O
  O21      1.0000 0.77596  0.13060  0.48575  Biso   1.000  O
  O22      1.0000 0.77748  0.12044  0.99090  Biso   1.000  O
  O23      1.0000 0.72723  0.37845  0.02898  Biso   1.000  O
  O24      1.0000 0.72557  0.37264  0.52707  Biso   1.000  O
  Zr13     1.0000 0.63715  0.52344  0.29405  Biso   1.000  Zr
  Zr14     1.0000 0.63763  0.72736  0.79183  Biso   1.000  Zr
  Zr15     1.0000 0.85807  0.77152  0.21024  Biso   1.000  Zr
  Zr16     1.0000 0.85871  0.97781  0.71136  Biso   1.000  Zr
  O25      1.0000 0.53448  0.66946  0.15888  Biso   1.000  O
  O26      1.0000 0.53130  0.58753  0.65208  Biso   1.000  O
  O27      1.0000 0.96224  0.91826  0.34254  Biso   1.000  O
  O28      1.0000 0.96253  0.83325  0.84333  Biso   1.000  O
  O29      1.0000 0.77450  0.62887  0.48272  Biso   1.000  O
  O30      1.0000 0.77308  0.62132  0.98192  Biso   1.000  O
  O31      1.0000 0.72171  0.87942  0.02269  Biso   1.000  O
  O32      1.0000 0.72385  0.86956  0.51951  Biso   1.000  O
  Pd1      1.0000 0.42611  0.21819  0.63393  Biso   1.000  Pd
