data_image0
_cell_length_a       10.1877
_cell_length_b       10.3213
_cell_length_c       10.5131
_cell_angle_alpha    90.0261
_cell_angle_beta     80.5973
_cell_angle_gamma    89.6428

_symmetry_space_group_name_H-M    "P 1"
_symmetry_int_tables_number       1

loop_
  _symmetry_equiv_pos_as_xyz
  'x, y, z'

loop_
  _atom_site_label
  _atom_site_occupancy
  _atom_site_fract_x
  _atom_site_fract_y
  _atom_site_fract_z
  _atom_site_thermal_displace_type
  _atom_site_B_iso_or_equiv
  _atom_site_type_symbol
  Pt1      1.0000 0.12505  0.00872  0.16915  Biso   1.000  Pt
  Zr1      1.0000 0.13973  0.23142  0.39245  Biso   1.000  Zr
  Zr2      1.0000 0.35932  0.26943  0.10047  Biso   1.000  Zr
  Zr3      1.0000 0.36174  0.47901  0.35346  Biso   1.000  Zr
  O1       1.0000 0.04354  0.15524  0.08139  Biso   1.000  O
  O2       1.0000 0.02907  0.08564  0.32804  Biso   1.000  O
  O3       1.0000 0.46478  0.41788  0.17041  Biso   1.000  O
  O4       1.0000 0.46494  0.33194  0.42034  Biso   1.000  O
  O5       1.0000 0.27039  0.12071  0.23038  Biso   1.000  O
  O6       1.0000 0.27617  0.12287  0.48424  Biso   1.000  O
  O7       1.0000 0.22491  0.38378  0.00883  Biso   1.000  O
  O8       1.0000 0.22622  0.36984  0.25846  Biso   1.000  O
  Zr4      1.0000 0.13732  0.02082  0.64264  Biso   1.000  Zr
  Zr5      1.0000 0.14310  0.22397  0.89486  Biso   1.000  Zr
  Zr6      1.0000 0.36130  0.27186  0.60377  Biso   1.000  Zr
  Zr7      1.0000 0.36141  0.48006  0.85500  Biso   1.000  Zr
  O9       1.0000 0.03437  0.16567  0.57367  Biso   1.000  O
  O10      1.0000 0.03481  0.08247  0.82590  Biso   1.000  O
  O11      1.0000 0.46538  0.41817  0.67092  Biso   1.000  O
  O12      1.0000 0.47143  0.33937  0.92228  Biso   1.000  O
  O13      1.0000 0.27422  0.12704  0.73258  Biso   1.000  O
  O14      1.0000 0.29609  0.13985  0.96961  Biso   1.000  O
  O15      1.0000 0.22348  0.37884  0.50852  Biso   1.000  O
  O16      1.0000 0.22641  0.37029  0.75966  Biso   1.000  O
  Zr8      1.0000 0.13924  0.52326  0.14507  Biso   1.000  Zr
  Zr9      1.0000 0.13648  0.72639  0.39791  Biso   1.000  Zr
  Zr10     1.0000 0.35964  0.77517  0.10306  Biso   1.000  Zr
  Zr11     1.0000 0.36162  0.97888  0.35365  Biso   1.000  Zr
  O17      1.0000 0.03495  0.66950  0.07964  Biso   1.000  O
  O18      1.0000 0.03461  0.58150  0.32955  Biso   1.000  O
  O19      1.0000 0.46402  0.91767  0.17220  Biso   1.000  O
  O20      1.0000 0.46336  0.83035  0.41979  Biso   1.000  O
  O21      1.0000 0.27556  0.63119  0.24116  Biso   1.000  O
  O22      1.0000 0.27562  0.62068  0.49157  Biso   1.000  O
  O23      1.0000 0.22243  0.89613  0.01512  Biso   1.000  O
  O24      1.0000 0.21556  0.87057  0.25994  Biso   1.000  O
  Zr12     1.0000 0.14000  0.52081  0.64686  Biso   1.000  Zr
  Zr13     1.0000 0.13834  0.73220  0.89571  Biso   1.000  Zr
  Zr14     1.0000 0.36138  0.77226  0.60603  Biso   1.000  Zr
  Zr15     1.0000 0.36163  0.98474  0.85486  Biso   1.000  Zr
  O25      1.0000 0.03338  0.66572  0.57984  Biso   1.000  O
  O26      1.0000 0.03645  0.58281  0.83092  Biso   1.000  O
  O27      1.0000 0.46520  0.91972  0.66955  Biso   1.000  O
  O28      1.0000 0.46109  0.83223  0.92041  Biso   1.000  O
  O29      1.0000 0.27548  0.62960  0.74061  Biso   1.000  O
  O30      1.0000 0.27549  0.62669  0.99039  Biso   1.000  O
  O31      1.0000 0.22431  0.87854  0.50898  Biso   1.000  O
  O32      1.0000 0.22460  0.87198  0.76087  Biso   1.000  O
  Zr16     1.0000 0.63801  0.02177  0.14453  Biso   1.000  Zr
  Zr17     1.0000 0.63870  0.22909  0.39524  Biso   1.000  Zr
  Zr18     1.0000 0.86838  0.26596  0.10715  Biso   1.000  Zr
  Zr19     1.0000 0.86066  0.47835  0.35439  Biso   1.000  Zr
  O33      1.0000 0.53606  0.16879  0.07918  Biso   1.000  O
  O34      1.0000 0.53359  0.08212  0.32950  Biso   1.000  O
  O35      1.0000 0.96797  0.41599  0.17249  Biso   1.000  O
  O36      1.0000 0.96555  0.33345  0.42239  Biso   1.000  O
  O37      1.0000 0.77417  0.12643  0.24148  Biso   1.000  O
  O38      1.0000 0.77594  0.12026  0.49061  Biso   1.000  O
  O39      1.0000 0.72899  0.37684  0.01147  Biso   1.000  O
  O40      1.0000 0.72678  0.36902  0.25957  Biso   1.000  O
  Zr20     1.0000 0.63851  0.02189  0.64629  Biso   1.000  Zr
  Zr21     1.0000 0.64083  0.23028  0.89650  Biso   1.000  Zr
  Zr22     1.0000 0.86181  0.27156  0.60530  Biso   1.000  Zr
  Zr23     1.0000 0.86443  0.47648  0.85725  Biso   1.000  Zr
  O41      1.0000 0.53548  0.16903  0.57892  Biso   1.000  O
  O42      1.0000 0.53931  0.08212  0.82898  Biso   1.000  O
  O43      1.0000 0.96802  0.41444  0.67471  Biso   1.000  O
  O44      1.0000 0.96921  0.33017  0.92734  Biso   1.000  O
  O45      1.0000 0.77765  0.12965  0.73997  Biso   1.000  O
  O46      1.0000 0.77741  0.12078  0.99132  Biso   1.000  O
  O47      1.0000 0.72435  0.37808  0.51019  Biso   1.000  O
  O48      1.0000 0.72646  0.37239  0.76092  Biso   1.000  O
  Zr24     1.0000 0.63754  0.51897  0.14422  Biso   1.000  Zr
  Zr25     1.0000 0.63722  0.72664  0.39524  Biso   1.000  Zr
  Zr26     1.0000 0.85859  0.76863  0.10317  Biso   1.000  Zr
  Zr27     1.0000 0.85389  0.97564  0.35714  Biso   1.000  Zr
  O49      1.0000 0.53434  0.66886  0.07907  Biso   1.000  O
  O50      1.0000 0.53569  0.57958  0.32946  Biso   1.000  O
  O51      1.0000 0.95808  0.91642  0.17024  Biso   1.000  O
  O52      1.0000 0.96415  0.83335  0.42236  Biso   1.000  O
  O53      1.0000 0.77492  0.62710  0.23998  Biso   1.000  O
  O54      1.0000 0.77563  0.62062  0.49076  Biso   1.000  O
  O55      1.0000 0.72193  0.87889  0.00934  Biso   1.000  O
  O56      1.0000 0.72277  0.86965  0.25996  Biso   1.000  O
  Zr28     1.0000 0.63890  0.52120  0.64646  Biso   1.000  Zr
  Zr29     1.0000 0.63729  0.72923  0.89534  Biso   1.000  Zr
  Zr30     1.0000 0.85964  0.77048  0.60617  Biso   1.000  Zr
  Zr31     1.0000 0.86179  0.97928  0.85472  Biso   1.000  Zr
  O57      1.0000 0.53501  0.66804  0.57904  Biso   1.000  O
  O58      1.0000 0.53415  0.58449  0.82780  Biso   1.000  O
  O59      1.0000 0.96456  0.91630  0.67107  Biso   1.000  O
  O60      1.0000 0.96296  0.83086  0.92065  Biso   1.000  O
  O61      1.0000 0.77623  0.62816  0.74144  Biso   1.000  O
  O62      1.0000 0.77511  0.62029  0.99006  Biso   1.000  O
  O63      1.0000 0.72171  0.87748  0.51005  Biso   1.000  O
  O64      1.0000 0.72399  0.87136  0.75987  Biso   1.000  O
