data_image0
_cell_length_a       10.0226
_cell_length_b       10.4417
_cell_length_c       5.04227
_cell_angle_alpha    90.3884
_cell_angle_beta     89.1159
_cell_angle_gamma    90.395

_symmetry_space_group_name_H-M    "P 1"
_symmetry_int_tables_number       1

loop_
  _symmetry_equiv_pos_as_xyz
  'x, y, z'

loop_
  _atom_site_label
  _atom_site_occupancy
  _atom_site_fract_x
  _atom_site_fract_y
  _atom_site_fract_z
  _atom_site_thermal_displace_type
  _atom_site_B_iso_or_equiv
  _atom_site_type_symbol
  Pt1      1.0000 0.12797  0.04126  0.20702  Biso   1.000  Pt
  Zr1      1.0000 0.13222  0.23621  0.74398  Biso   1.000  Zr
  Zr2      1.0000 0.36934  0.26559  0.25197  Biso   1.000  Zr
  Zr3      1.0000 0.36705  0.48586  0.75207  Biso   1.000  Zr
  Zr4      1.0000 0.03503  0.18861  0.37539  Biso   1.000  Zr
  Zr5      1.0000 0.03472  0.06118  0.86857  Biso   1.000  Zr
  Zr6      1.0000 0.46618  0.43171  0.39225  Biso   1.000  Zr
  Zr7      1.0000 0.46282  0.31607  0.89144  Biso   1.000  Zr
  Zr8      1.0000 0.25937  0.10448  0.49702  Biso   1.000  Zr
  Zr9      1.0000 0.26727  0.13590  0.99576  Biso   1.000  Zr
  Zr10     1.0000 0.22951  0.38363  0.99575  Biso   1.000  Zr
  Zr11     1.0000 0.23241  0.36203  0.49632  Biso   1.000  Zr
  Zr12     1.0000 0.13337  0.51403  0.25062  Biso   1.000  Zr
  Zr13     1.0000 0.13327  0.73370  0.75681  Biso   1.000  Zr
  Zr14     1.0000 0.36703  0.76366  0.26038  Biso   1.000  Zr
  Zr15     1.0000 0.36338  0.97986  0.75423  Biso   1.000  Zr
  Zr16     1.0000 0.03714  0.68369  0.39122  Biso   1.000  Zr
  Zr17     1.0000 0.03275  0.56430  0.89555  Biso   1.000  Zr
  Zr18     1.0000 0.47209  0.92998  0.40477  Biso   1.000  Zr
  Zr19     1.0000 0.46692  0.81879  0.90578  Biso   1.000  Zr
  Zr20     1.0000 0.26710  0.60737  0.49869  Biso   1.000  Zr
  Zr21     1.0000 0.26885  0.63557  0.99978  Biso   1.000  Zr
  Zr22     1.0000 0.22688  0.89233  0.03305  Biso   1.000  Zr
  Zr23     1.0000 0.24995  0.84818  0.53806  Biso   1.000  Zr
  Zr24     1.0000 0.63264  0.01356  0.24396  Biso   1.000  Zr
  Zr25     1.0000 0.63241  0.23286  0.75086  Biso   1.000  Zr
  Zr26     1.0000 0.86068  0.26686  0.24456  Biso   1.000  Zr
  Zr27     1.0000 0.86477  0.48587  0.74920  Biso   1.000  Zr
  Zr28     1.0000 0.53152  0.18142  0.39708  Biso   1.000  Zr
  Zr29     1.0000 0.53189  0.06865  0.89784  Biso   1.000  Zr
  Zr30     1.0000 0.96434  0.43096  0.39105  Biso   1.000  Zr
  Zr31     1.0000 0.96229  0.31434  0.88154  Biso   1.000  Zr
  Zr32     1.0000 0.76631  0.11740  0.49003  Biso   1.000  Zr
  Zr33     1.0000 0.76966  0.13363  0.98914  Biso   1.000  Zr
  Zr34     1.0000 0.72952  0.38339  0.99857  Biso   1.000  Zr
  Zr35     1.0000 0.72802  0.36744  0.49783  Biso   1.000  Zr
  Zr36     1.0000 0.63512  0.51839  0.25521  Biso   1.000  Zr
  Zr37     1.0000 0.63487  0.73571  0.75341  Biso   1.000  Zr
  Zr38     1.0000 0.87511  0.76886  0.24187  Biso   1.000  Zr
  Zr39     1.0000 0.86525  0.98446  0.73395  Biso   1.000  Zr
  Zr40     1.0000 0.53387  0.68106  0.40448  Biso   1.000  Zr
  Zr41     1.0000 0.53493  0.56766  0.89793  Biso   1.000  Zr
  Zr42     1.0000 0.97456  0.94128  0.37359  Biso   1.000  Zr
  Zr43     1.0000 0.96226  0.81655  0.87777  Biso   1.000  Zr
  Zr44     1.0000 0.77092  0.61698  0.49935  Biso   1.000  Zr
  Zr45     1.0000 0.76893  0.63533  0.00030  Biso   1.000  Zr
  Zr46     1.0000 0.73102  0.88470  0.98842  Biso   1.000  Zr
  Zr47     1.0000 0.73765  0.86556  0.48758  Biso   1.000  Zr
