data_image0
_cell_length_a       10.1541
_cell_length_b       10.3614
_cell_length_c       10.1399
_cell_angle_alpha    92.055
_cell_angle_beta     90.1766
_cell_angle_gamma    91.4048

_symmetry_space_group_name_H-M    "P 1"
_symmetry_int_tables_number       1

loop_
  _symmetry_equiv_pos_as_xyz
  'x, y, z'

loop_
  _atom_site_label
  _atom_site_occupancy
  _atom_site_fract_x
  _atom_site_fract_y
  _atom_site_fract_z
  _atom_site_thermal_displace_type
  _atom_site_B_iso_or_equiv
  _atom_site_type_symbol
  Zr1      1.0000 0.13790  0.96940  0.14174  Biso   1.000  Zr
  Zr2      1.0000 0.10266  0.25837  0.36369  Biso   1.000  Zr
  Zr3      1.0000 0.37378  0.24047  0.11187  Biso   1.000  Zr
  Zr4      1.0000 0.39136  0.99252  0.39211  Biso   1.000  Zr
  Zr5      1.0000 0.95408  0.20216  0.95020  Biso   1.000  Zr
  Zr6      1.0000 0.98485  0.09762  0.25916  Biso   1.000  Zr
  Zr7      1.0000 0.98025  0.36673  0.24619  Biso   1.000  Zr
  Zr8      1.0000 0.03690  0.42671  0.96914  Biso   1.000  Zr
  Zr9      1.0000 0.22487  0.15765  0.23230  Biso   1.000  Zr
  Zr10     1.0000 0.28635  0.06427  0.02228  Biso   1.000  Zr
  Zr11     1.0000 0.28881  0.32705  0.95556  Biso   1.000  Zr
  Zr12     1.0000 0.24328  0.40107  0.23398  Biso   1.000  Zr
  Zr13     1.0000 0.14475  0.99689  0.63498  Biso   1.000  Zr
  Zr14     1.0000 0.12464  0.26824  0.84008  Biso   1.000  Zr
  Zr15     1.0000 0.36513  0.25578  0.60782  Biso   1.000  Zr
  Zr16     1.0000 0.39669  0.00155  0.87529  Biso   1.000  Zr
  Zr17     1.0000 0.99778  0.15827  0.49905  Biso   1.000  Zr
  Zr18     1.0000 0.01414  0.10531  0.74239  Biso   1.000  Zr
  Zr19     1.0000 0.99451  0.36685  0.72994  Biso   1.000  Zr
  Zr20     1.0000 0.99518  0.40553  0.48908  Biso   1.000  Zr
  Zr21     1.0000 0.26322  0.14671  0.74531  Biso   1.000  Zr
  Zr22     1.0000 0.25373  0.09851  0.49598  Biso   1.000  Zr
  Zr23     1.0000 0.24543  0.34993  0.48179  Biso   1.000  Zr
  Zr24     1.0000 0.24791  0.40189  0.72910  Biso   1.000  Zr
  Zr25     1.0000 0.11971  0.51315  0.13180  Biso   1.000  Zr
  Zr26     1.0000 0.12848  0.75151  0.38577  Biso   1.000  Zr
  Zr27     1.0000 0.38051  0.74030  0.12904  Biso   1.000  Zr
  Zr28     1.0000 0.36807  0.49811  0.36788  Biso   1.000  Zr
  Zr29     1.0000 0.00110  0.66018  0.00832  Biso   1.000  Zr
  Zr30     1.0000 0.99969  0.61006  0.25998  Biso   1.000  Zr
  Zr31     1.0000 0.00736  0.84914  0.25627  Biso   1.000  Zr
  Zr32     1.0000 0.99370  0.91096  0.00527  Biso   1.000  Zr
  Zr33     1.0000 0.25126  0.64806  0.25853  Biso   1.000  Zr
  Zr34     1.0000 0.26439  0.58420  0.01250  Biso   1.000  Zr
  Zr35     1.0000 0.23205  0.82423  0.02889  Biso   1.000  Zr
  Zr36     1.0000 0.25794  0.89219  0.27572  Biso   1.000  Zr
  Zr37     1.0000 0.11616  0.50853  0.62155  Biso   1.000  Zr
  Zr38     1.0000 0.12014  0.75363  0.87419  Biso   1.000  Zr
  Zr39     1.0000 0.37864  0.74094  0.63408  Biso   1.000  Zr
  Zr40     1.0000 0.37709  0.49233  0.87552  Biso   1.000  Zr
  Zr41     1.0000 0.99992  0.65247  0.50877  Biso   1.000  Zr
  Zr42     1.0000 0.99913  0.61215  0.75397  Biso   1.000  Zr
  Zr43     1.0000 0.00444  0.85951  0.75402  Biso   1.000  Zr
  Zr44     1.0000 0.01148  0.90162  0.50450  Biso   1.000  Zr
  Zr45     1.0000 0.24953  0.64749  0.75795  Biso   1.000  Zr
  Zr46     1.0000 0.24874  0.60116  0.50181  Biso   1.000  Zr
  Zr47     1.0000 0.25784  0.84886  0.52029  Biso   1.000  Zr
  Zr48     1.0000 0.25316  0.89651  0.77051  Biso   1.000  Zr
  Zr49     1.0000 0.62606  0.99455  0.13382  Biso   1.000  Zr
  Zr50     1.0000 0.60638  0.25521  0.36963  Biso   1.000  Zr
  Zr51     1.0000 0.84636  0.24650  0.13091  Biso   1.000  Zr
  Zr52     1.0000 0.88316  0.99673  0.38952  Biso   1.000  Zr
  Zr53     1.0000 0.51898  0.14867  0.00291  Biso   1.000  Zr
  Zr54     1.0000 0.48300  0.09906  0.25147  Biso   1.000  Zr
  Zr55     1.0000 0.48857  0.35123  0.24667  Biso   1.000  Zr
  Zr56     1.0000 0.51471  0.39865  0.99142  Biso   1.000  Zr
  Zr57     1.0000 0.72865  0.14639  0.25538  Biso   1.000  Zr
  Zr58     1.0000 0.75707  0.08960  0.01385  Biso   1.000  Zr
  Zr59     1.0000 0.75782  0.36010  0.99971  Biso   1.000  Zr
  Zr60     1.0000 0.73653  0.39623  0.25182  Biso   1.000  Zr
  Zr61     1.0000 0.63914  0.99852  0.63497  Biso   1.000  Zr
  Zr62     1.0000 0.62247  0.25814  0.86644  Biso   1.000  Zr
  Zr63     1.0000 0.86511  0.25342  0.61592  Biso   1.000  Zr
  Zr64     1.0000 0.88726  0.01389  0.87359  Biso   1.000  Zr
  Zr65     1.0000 0.50276  0.14775  0.50397  Biso   1.000  Zr
  Zr66     1.0000 0.51807  0.10244  0.75596  Biso   1.000  Zr
  Zr67     1.0000 0.49860  0.34959  0.74151  Biso   1.000  Zr
  Zr68     1.0000 0.49168  0.39959  0.49575  Biso   1.000  Zr
  Zr69     1.0000 0.76171  0.15207  0.75599  Biso   1.000  Zr
  Zr70     1.0000 0.75459  0.09787  0.50830  Biso   1.000  Zr
  Zr71     1.0000 0.74022  0.35100  0.49965  Biso   1.000  Zr
  Zr72     1.0000 0.74606  0.40144  0.75088  Biso   1.000  Zr
  Zr73     1.0000 0.62780  0.50302  0.12181  Biso   1.000  Zr
  Zr74     1.0000 0.62660  0.74774  0.38118  Biso   1.000  Zr
  Zr75     1.0000 0.86943  0.75673  0.12892  Biso   1.000  Zr
  Zr76     1.0000 0.87002  0.50509  0.37176  Biso   1.000  Zr
  Zr77     1.0000 0.50611  0.64318  0.00169  Biso   1.000  Zr
  Zr78     1.0000 0.49954  0.59991  0.24954  Biso   1.000  Zr
  Zr79     1.0000 0.50729  0.84879  0.25724  Biso   1.000  Zr
  Zr80     1.0000 0.49286  0.88954  0.00712  Biso   1.000  Zr
  Zr81     1.0000 0.75104  0.64753  0.25316  Biso   1.000  Zr
  Zr82     1.0000 0.75504  0.60428  0.00256  Biso   1.000  Zr
  Zr83     1.0000 0.73860  0.84759  0.01404  Biso   1.000  Zr
  Zr84     1.0000 0.75486  0.89798  0.25887  Biso   1.000  Zr
  Zr85     1.0000 0.62328  0.49875  0.62488  Biso   1.000  Zr
  Zr86     1.0000 0.62474  0.74804  0.87967  Biso   1.000  Zr
  Zr87     1.0000 0.87433  0.75161  0.63353  Biso   1.000  Zr
  Zr88     1.0000 0.87935  0.50279  0.87713  Biso   1.000  Zr
  Zr89     1.0000 0.49885  0.64677  0.50116  Biso   1.000  Zr
  Zr90     1.0000 0.49944  0.60030  0.74929  Biso   1.000  Zr
  Zr91     1.0000 0.50642  0.85102  0.75521  Biso   1.000  Zr
  Zr92     1.0000 0.51165  0.89433  0.50816  Biso   1.000  Zr
  Zr93     1.0000 0.75013  0.64945  0.75300  Biso   1.000  Zr
  Zr94     1.0000 0.74701  0.60177  0.50261  Biso   1.000  Zr
  Zr95     1.0000 0.75712  0.84915  0.50799  Biso   1.000  Zr
  Zr96     1.0000 0.75637  0.90012  0.75913  Biso   1.000  Zr
  Pt1      1.0000 0.09409  0.19722  0.08025  Biso   1.000  Pt
