data_image0
_cell_length_a       5.01156
_cell_length_b       10.4415
_cell_length_c       10.0777
_cell_angle_alpha    90.3777
_cell_angle_beta     89.0625
_cell_angle_gamma    90.4004

_symmetry_space_group_name_H-M    "P 1"
_symmetry_int_tables_number       1

loop_
  _symmetry_equiv_pos_as_xyz
  'x, y, z'

loop_
  _atom_site_label
  _atom_site_occupancy
  _atom_site_fract_x
  _atom_site_fract_y
  _atom_site_fract_z
  _atom_site_thermal_displace_type
  _atom_site_B_iso_or_equiv
  _atom_site_type_symbol
  Pt1      1.0000 0.25244  0.04112  0.10216  Biso   1.000  Pt
  Zr1      1.0000 0.27002  0.22926  0.37737  Biso   1.000  Zr
  Zr2      1.0000 0.72557  0.26785  0.12496  Biso   1.000  Zr
  Zr3      1.0000 0.73549  0.48364  0.37648  Biso   1.000  Zr
  Zr4      1.0000 0.06417  0.18494  0.19151  Biso   1.000  Zr
  Zr5      1.0000 0.07138  0.06641  0.44893  Biso   1.000  Zr
  Zr6      1.0000 0.93037  0.43026  0.19538  Biso   1.000  Zr
  Zr7      1.0000 0.92997  0.31439  0.44241  Biso   1.000  Zr
  Zr8      1.0000 0.51553  0.10407  0.24630  Biso   1.000  Zr
  Zr9      1.0000 0.54456  0.13256  0.49584  Biso   1.000  Zr
  Zr10     1.0000 0.46172  0.38159  0.49963  Biso   1.000  Zr
  Zr11     1.0000 0.45973  0.36198  0.24958  Biso   1.000  Zr
  Zr12     1.0000 0.26540  0.01412  0.62393  Biso   1.000  Zr
  Zr13     1.0000 0.25953  0.23980  0.86980  Biso   1.000  Zr
  Zr14     1.0000 0.73217  0.26467  0.62324  Biso   1.000  Zr
  Zr15     1.0000 0.72941  0.48813  0.87463  Biso   1.000  Zr
  Zr16     1.0000 0.06992  0.18530  0.69366  Biso   1.000  Zr
  Zr17     1.0000 0.06341  0.06229  0.93236  Biso   1.000  Zr
  Zr18     1.0000 0.93043  0.43243  0.69639  Biso   1.000  Zr
  Zr19     1.0000 0.92085  0.31575  0.94422  Biso   1.000  Zr
  Zr20     1.0000 0.53559  0.11750  0.74728  Biso   1.000  Zr
  Zr21     1.0000 0.52904  0.13715  0.99586  Biso   1.000  Zr
  Zr22     1.0000 0.45778  0.38552  0.99844  Biso   1.000  Zr
  Zr23     1.0000 0.46041  0.36810  0.74803  Biso   1.000  Zr
  Zr24     1.0000 0.26941  0.51582  0.12834  Biso   1.000  Zr
  Zr25     1.0000 0.27896  0.73504  0.37627  Biso   1.000  Zr
  Zr26     1.0000 0.74920  0.76514  0.12501  Biso   1.000  Zr
  Zr27     1.0000 0.74179  0.98187  0.37026  Biso   1.000  Zr
  Zr28     1.0000 0.07753  0.68314  0.19874  Biso   1.000  Zr
  Zr29     1.0000 0.07303  0.56473  0.44697  Biso   1.000  Zr
  Zr30     1.0000 0.96227  0.93848  0.19185  Biso   1.000  Zr
  Zr31     1.0000 0.94403  0.81748  0.45084  Biso   1.000  Zr
  Zr32     1.0000 0.54303  0.60744  0.24879  Biso   1.000  Zr
  Zr33     1.0000 0.54270  0.63317  0.49999  Biso   1.000  Zr
  Zr34     1.0000 0.46913  0.88379  0.50275  Biso   1.000  Zr
  Zr35     1.0000 0.51745  0.84864  0.26123  Biso   1.000  Zr
  Zr36     1.0000 0.26760  0.51702  0.62517  Biso   1.000  Zr
  Zr37     1.0000 0.26082  0.73570  0.87934  Biso   1.000  Zr
  Zr38     1.0000 0.73663  0.76637  0.62585  Biso   1.000  Zr
  Zr39     1.0000 0.71520  0.98239  0.87380  Biso   1.000  Zr
  Zr40     1.0000 0.06683  0.68221  0.69985  Biso   1.000  Zr
  Zr41     1.0000 0.06257  0.56806  0.95031  Biso   1.000  Zr
  Zr42     1.0000 0.92543  0.93406  0.69551  Biso   1.000  Zr
  Zr43     1.0000 0.91311  0.81724  0.93955  Biso   1.000  Zr
  Zr44     1.0000 0.53416  0.61724  0.75072  Biso   1.000  Zr
  Zr45     1.0000 0.53292  0.63745  0.00020  Biso   1.000  Zr
  Zr46     1.0000 0.44663  0.89271  0.01014  Biso   1.000  Zr
  Zr47     1.0000 0.45582  0.86580  0.75245  Biso   1.000  Zr
