data_image0
_cell_length_a       10.2024
_cell_length_b       10.3749
_cell_length_c       5.1048
_cell_angle_alpha    90.4882
_cell_angle_beta     92.5881
_cell_angle_gamma    88.9833

_symmetry_space_group_name_H-M    "P 1"
_symmetry_int_tables_number       1

loop_
  _symmetry_equiv_pos_as_xyz
  'x, y, z'

loop_
  _atom_site_label
  _atom_site_occupancy
  _atom_site_fract_x
  _atom_site_fract_y
  _atom_site_fract_z
  _atom_site_thermal_displace_type
  _atom_site_B_iso_or_equiv
  _atom_site_type_symbol
  Zr1      1.0000 0.13610  0.98177  0.24932  Biso   1.000  Zr
  Zr2      1.0000 0.13061  0.20780  0.72261  Biso   1.000  Zr
  Zr3      1.0000 0.38353  0.24315  0.20710  Biso   1.000  Zr
  Zr4      1.0000 0.39617  0.00623  0.72139  Biso   1.000  Zr
  Zr5      1.0000 0.01490  0.16612  0.04731  Biso   1.000  Zr
  Zr6      1.0000 0.00050  0.08745  0.50941  Biso   1.000  Zr
  Zr7      1.0000 0.97599  0.34173  0.64427  Biso   1.000  Zr
  Zr8      1.0000 0.94590  0.43868  0.13882  Biso   1.000  Zr
  Zr9      1.0000 0.26620  0.11870  0.47501  Biso   1.000  Zr
  Zr10     1.0000 0.26029  0.07815  0.97756  Biso   1.000  Zr
  Zr11     1.0000 0.28800  0.31979  0.82790  Biso   1.000  Zr
  Zr12     1.0000 0.27003  0.41649  0.35145  Biso   1.000  Zr
  Zr13     1.0000 0.11243  0.54649  0.23914  Biso   1.000  Zr
  Zr14     1.0000 0.12403  0.75415  0.74409  Biso   1.000  Zr
  Zr15     1.0000 0.38774  0.75549  0.28571  Biso   1.000  Zr
  Zr16     1.0000 0.36351  0.49187  0.71986  Biso   1.000  Zr
  Zr17     1.0000 0.98601  0.66903  0.00621  Biso   1.000  Zr
  Zr18     1.0000 0.99256  0.61005  0.53426  Biso   1.000  Zr
  Zr19     1.0000 0.02060  0.84039  0.42418  Biso   1.000  Zr
  Zr20     1.0000 0.02321  0.91860  0.92445  Biso   1.000  Zr
  Zr21     1.0000 0.24944  0.64969  0.47569  Biso   1.000  Zr
  Zr22     1.0000 0.21656  0.57897  0.91977  Biso   1.000  Zr
  Zr23     1.0000 0.23927  0.82500  0.05736  Biso   1.000  Zr
  Zr24     1.0000 0.26111  0.88495  0.54439  Biso   1.000  Zr
  Zr25     1.0000 0.63584  0.00174  0.24059  Biso   1.000  Zr
  Zr26     1.0000 0.62379  0.26051  0.74700  Biso   1.000  Zr
  Zr27     1.0000 0.87040  0.26154  0.29851  Biso   1.000  Zr
  Zr28     1.0000 0.86632  0.00614  0.76099  Biso   1.000  Zr
  Zr29     1.0000 0.51298  0.13929  0.96891  Biso   1.000  Zr
  Zr30     1.0000 0.50729  0.10837  0.46329  Biso   1.000  Zr
  Zr31     1.0000 0.49997  0.35394  0.48408  Biso   1.000  Zr
  Zr32     1.0000 0.49639  0.39552  0.99142  Biso   1.000  Zr
  Zr33     1.0000 0.75220  0.15122  0.53411  Biso   1.000  Zr
  Zr34     1.0000 0.76754  0.10511  0.04037  Biso   1.000  Zr
  Zr35     1.0000 0.73360  0.34952  0.03315  Biso   1.000  Zr
  Zr36     1.0000 0.74138  0.40168  0.52698  Biso   1.000  Zr
  Zr37     1.0000 0.61404  0.49365  0.25724  Biso   1.000  Zr
  Zr38     1.0000 0.61350  0.73682  0.79482  Biso   1.000  Zr
  Zr39     1.0000 0.85892  0.74377  0.28481  Biso   1.000  Zr
  Zr40     1.0000 0.87187  0.50405  0.78104  Biso   1.000  Zr
  Zr41     1.0000 0.48040  0.63949  0.00934  Biso   1.000  Zr
  Zr42     1.0000 0.49968  0.60591  0.51386  Biso   1.000  Zr
  Zr43     1.0000 0.51620  0.86047  0.52223  Biso   1.000  Zr
  Zr44     1.0000 0.50043  0.88899  0.02325  Biso   1.000  Zr
  Zr45     1.0000 0.74627  0.65088  0.54443  Biso   1.000  Zr
  Zr46     1.0000 0.73435  0.60609  0.03654  Biso   1.000  Zr
  Zr47     1.0000 0.75311  0.85613  0.98879  Biso   1.000  Zr
  Zr48     1.0000 0.76874  0.90257  0.48021  Biso   1.000  Zr
  Pt1      1.0000 0.13401  0.29939  0.21257  Biso   1.000  Pt
