data_image0
_cell_length_a       10.3036
_cell_length_b       10.4014
_cell_length_c       5.14257
_cell_angle_alpha    84.5579
_cell_angle_beta     89.8787
_cell_angle_gamma    91.0594

_symmetry_space_group_name_H-M    "P 1"
_symmetry_int_tables_number       1

loop_
  _symmetry_equiv_pos_as_xyz
  'x, y, z'

loop_
  _atom_site_label
  _atom_site_occupancy
  _atom_site_fract_x
  _atom_site_fract_y
  _atom_site_fract_z
  _atom_site_thermal_displace_type
  _atom_site_B_iso_or_equiv
  _atom_site_type_symbol
  Zr1      1.0000 0.11093  0.96984  0.21647  Biso   1.000  Zr
  Zr2      1.0000 0.10499  0.22578  0.59921  Biso   1.000  Zr
  Zr3      1.0000 0.39848  0.24496  0.15050  Biso   1.000  Zr
  Zr4      1.0000 0.39275  0.48472  0.70028  Biso   1.000  Zr
  Zr5      1.0000 0.98169  0.11925  0.36395  Biso   1.000  Zr
  Zr6      1.0000 0.05231  0.06239  0.85907  Biso   1.000  Zr
  Zr7      1.0000 0.48898  0.37859  0.43058  Biso   1.000  Zr
  Zr8      1.0000 0.52557  0.35042  0.92286  Biso   1.000  Zr
  Zr9      1.0000 0.23923  0.11640  0.37696  Biso   1.000  Zr
  Zr10     1.0000 0.28840  0.18714  0.82603  Biso   1.000  Zr
  Zr11     1.0000 0.30399  0.43137  0.04995  Biso   1.000  Zr
  Zr12     1.0000 0.22371  0.38881  0.53817  Biso   1.000  Zr
  Zr13     1.0000 0.15246  0.53046  0.26462  Biso   1.000  Zr
  Zr14     1.0000 0.11035  0.72781  0.73538  Biso   1.000  Zr
  Zr15     1.0000 0.37017  0.77407  0.27202  Biso   1.000  Zr
  Zr16     1.0000 0.35116  0.01853  0.68992  Biso   1.000  Zr
  Zr17     1.0000 0.00380  0.63206  0.44732  Biso   1.000  Zr
  Zr18     1.0000 0.03589  0.54803  0.91997  Biso   1.000  Zr
  Zr19     1.0000 0.48703  0.88894  0.52096  Biso   1.000  Zr
  Zr20     1.0000 0.53278  0.84227  0.04292  Biso   1.000  Zr
  Zr21     1.0000 0.26251  0.62779  0.53451  Biso   1.000  Zr
  Zr22     1.0000 0.24011  0.68270  0.04078  Biso   1.000  Zr
  Zr23     1.0000 0.27961  0.92627  0.02939  Biso   1.000  Zr
  Zr24     1.0000 0.23612  0.86798  0.51714  Biso   1.000  Zr
  Zr25     1.0000 0.62281  0.99589  0.22252  Biso   1.000  Zr
  Zr26     1.0000 0.60768  0.23078  0.67915  Biso   1.000  Zr
  Zr27     1.0000 0.83610  0.26127  0.21449  Biso   1.000  Zr
  Zr28     1.0000 0.88966  0.47308  0.68464  Biso   1.000  Zr
  Zr29     1.0000 0.49669  0.12963  0.43269  Biso   1.000  Zr
  Zr30     1.0000 0.49378  0.09203  0.94675  Biso   1.000  Zr
  Zr31     1.0000 0.98801  0.38525  0.38760  Biso   1.000  Zr
  Zr32     1.0000 0.92961  0.28307  0.82681  Biso   1.000  Zr
  Zr33     1.0000 0.74236  0.10890  0.49828  Biso   1.000  Zr
  Zr34     1.0000 0.71341  0.16235  0.00676  Biso   1.000  Zr
  Zr35     1.0000 0.77128  0.43206  0.01009  Biso   1.000  Zr
  Zr36     1.0000 0.73429  0.36297  0.48366  Biso   1.000  Zr
  Zr37     1.0000 0.63469  0.51533  0.23082  Biso   1.000  Zr
  Zr38     1.0000 0.60482  0.74126  0.73746  Biso   1.000  Zr
  Zr39     1.0000 0.85529  0.75837  0.27039  Biso   1.000  Zr
  Zr40     1.0000 0.87978  0.99578  0.69893  Biso   1.000  Zr
  Zr41     1.0000 0.50584  0.63768  0.45611  Biso   1.000  Zr
  Zr42     1.0000 0.50656  0.59278  0.94898  Biso   1.000  Zr
  Zr43     1.0000 0.98805  0.87125  0.50464  Biso   1.000  Zr
  Zr44     1.0000 0.01364  0.81867  0.01862  Biso   1.000  Zr
  Zr45     1.0000 0.75236  0.60706  0.50831  Biso   1.000  Zr
  Zr46     1.0000 0.73912  0.67759  0.01623  Biso   1.000  Zr
  Zr47     1.0000 0.78872  0.93084  0.03714  Biso   1.000  Zr
  Zr48     1.0000 0.74064  0.86077  0.51394  Biso   1.000  Zr
  Rb1      1.0000 0.12165  0.28470  0.07308  Biso   1.000  Rb
