data_image0
_cell_length_a       10.2846
_cell_length_b       10.4517
_cell_length_c       5.34296
_cell_angle_alpha    89.9226
_cell_angle_beta     79.1622
_cell_angle_gamma    90.3399

_symmetry_space_group_name_H-M    "P 1"
_symmetry_int_tables_number       1

loop_
  _symmetry_equiv_pos_as_xyz
  'x, y, z'

loop_
  _atom_site_label
  _atom_site_occupancy
  _atom_site_fract_x
  _atom_site_fract_y
  _atom_site_fract_z
  _atom_site_thermal_displace_type
  _atom_site_B_iso_or_equiv
  _atom_site_type_symbol
  Zr1      1.0000 0.13386  0.02176  0.28461  Biso   1.000  Zr
  Zr2      1.0000 0.12799  0.22623  0.77480  Biso   1.000  Zr
  Zr3      1.0000 0.34482  0.28361  0.17116  Biso   1.000  Zr
  Zr4      1.0000 0.35674  0.49362  0.71344  Biso   1.000  Zr
  O1       1.0000 0.03540  0.16671  0.14806  Biso   1.000  O
  O2       1.0000 0.02500  0.08283  0.65057  Biso   1.000  O
  O3       1.0000 0.45805  0.43507  0.35255  Biso   1.000  O
  O4       1.0000 0.47423  0.37072  0.89722  Biso   1.000  O
  O5       1.0000 0.25953  0.12848  0.45588  Biso   1.000  O
  O6       1.0000 0.27797  0.12713  0.95014  Biso   1.000  O
  O7       1.0000 0.21311  0.38501  0.00266  Biso   1.000  O
  O8       1.0000 0.22261  0.37250  0.50924  Biso   1.000  O
  Zr5      1.0000 0.13456  0.52457  0.29741  Biso   1.000  Zr
  Zr6      1.0000 0.13337  0.72963  0.79608  Biso   1.000  Zr
  Zr7      1.0000 0.35918  0.77173  0.21617  Biso   1.000  Zr
  Zr8      1.0000 0.36406  0.96588  0.71556  Biso   1.000  Zr
  O9       1.0000 0.02914  0.66447  0.15683  Biso   1.000  O
  O10      1.0000 0.02957  0.58547  0.65736  Biso   1.000  O
  O11      1.0000 0.46455  0.91608  0.34989  Biso   1.000  O
  O12      1.0000 0.46141  0.82573  0.85155  Biso   1.000  O
  O13      1.0000 0.27023  0.63138  0.48659  Biso   1.000  O
  O14      1.0000 0.27021  0.62807  0.98910  Biso   1.000  O
  O15      1.0000 0.22395  0.88007  0.02611  Biso   1.000  O
  O16      1.0000 0.22311  0.87057  0.52685  Biso   1.000  O
  Zr9      1.0000 0.64209  0.01486  0.29761  Biso   1.000  Zr
  Zr10     1.0000 0.65624  0.22397  0.82524  Biso   1.000  Zr
  Zr11     1.0000 0.86235  0.27223  0.22384  Biso   1.000  Zr
  Zr12     1.0000 0.85717  0.47787  0.71528  Biso   1.000  Zr
  O17      1.0000 0.53291  0.16023  0.14317  Biso   1.000  O
  O18      1.0000 0.55605  0.05111  0.68262  Biso   1.000  O
  O19      1.0000 0.96554  0.41533  0.35348  Biso   1.000  O
  O20      1.0000 0.96023  0.33227  0.84674  Biso   1.000  O
  O21      1.0000 0.77821  0.12835  0.49015  Biso   1.000  O
  O22      1.0000 0.78430  0.11764  0.99848  Biso   1.000  O
  O23      1.0000 0.72615  0.37642  0.04027  Biso   1.000  O
  O24      1.0000 0.72037  0.37015  0.53552  Biso   1.000  O
  Zr13     1.0000 0.63428  0.52432  0.29779  Biso   1.000  Zr
  Zr14     1.0000 0.63875  0.72695  0.79719  Biso   1.000  Zr
  Zr15     1.0000 0.85891  0.76911  0.21351  Biso   1.000  Zr
  Zr16     1.0000 0.85720  0.97405  0.71074  Biso   1.000  Zr
  O25      1.0000 0.53331  0.67052  0.16101  Biso   1.000  O
  O26      1.0000 0.53046  0.59391  0.65403  Biso   1.000  O
  O27      1.0000 0.96416  0.91144  0.35200  Biso   1.000  O
  O28      1.0000 0.96469  0.83475  0.85186  Biso   1.000  O
  O29      1.0000 0.77449  0.62561  0.48503  Biso   1.000  O
  O30      1.0000 0.77195  0.61924  0.98346  Biso   1.000  O
  O31      1.0000 0.72397  0.87477  0.02393  Biso   1.000  O
  O32      1.0000 0.72543  0.86521  0.51943  Biso   1.000  O
  Rb1      1.0000 0.44948  0.23246  0.56780  Biso   1.000  Rb
