data_image0
_cell_length_a       10.2342
_cell_length_b       10.3421
_cell_length_c       10.5966
_cell_angle_alpha    89.8484
_cell_angle_beta     79.9184
_cell_angle_gamma    90.2497

_symmetry_space_group_name_H-M    "P 1"
_symmetry_int_tables_number       1

loop_
  _symmetry_equiv_pos_as_xyz
  'x, y, z'

loop_
  _atom_site_label
  _atom_site_occupancy
  _atom_site_fract_x
  _atom_site_fract_y
  _atom_site_fract_z
  _atom_site_thermal_displace_type
  _atom_site_B_iso_or_equiv
  _atom_site_type_symbol
  Zr1      1.0000 0.13605  0.02228  0.14544  Biso   1.000  Zr
  Zr2      1.0000 0.14011  0.23403  0.39505  Biso   1.000  Zr
  Zr3      1.0000 0.35682  0.26869  0.09215  Biso   1.000  Zr
  Zr4      1.0000 0.35131  0.48587  0.35742  Biso   1.000  Zr
  O1       1.0000 0.03354  0.16633  0.07530  Biso   1.000  O
  O2       1.0000 0.03523  0.08638  0.32498  Biso   1.000  O
  O3       1.0000 0.47543  0.38260  0.19722  Biso   1.000  O
  O4       1.0000 0.48722  0.36340  0.43844  Biso   1.000  O
  O5       1.0000 0.28206  0.12350  0.23552  Biso   1.000  O
  O6       1.0000 0.29008  0.12238  0.47757  Biso   1.000  O
  O7       1.0000 0.22202  0.38045  0.00316  Biso   1.000  O
  O8       1.0000 0.21598  0.37699  0.25007  Biso   1.000  O
  Zr5      1.0000 0.13752  0.02082  0.64572  Biso   1.000  Zr
  Zr6      1.0000 0.13592  0.22899  0.89120  Biso   1.000  Zr
  Zr7      1.0000 0.36203  0.27692  0.60203  Biso   1.000  Zr
  Zr8      1.0000 0.35985  0.47984  0.85352  Biso   1.000  Zr
  O9       1.0000 0.03965  0.16639  0.57648  Biso   1.000  O
  O10      1.0000 0.03186  0.08366  0.82574  Biso   1.000  O
  O11      1.0000 0.46897  0.41155  0.68122  Biso   1.000  O
  O12      1.0000 0.47247  0.34508  0.92867  Biso   1.000  O
  O13      1.0000 0.27390  0.12882  0.73587  Biso   1.000  O
  O14      1.0000 0.27199  0.12209  0.98428  Biso   1.000  O
  O15      1.0000 0.21780  0.38519  0.51606  Biso   1.000  O
  O16      1.0000 0.22454  0.37273  0.75831  Biso   1.000  O
  Zr9      1.0000 0.13839  0.52218  0.14290  Biso   1.000  Zr
  Zr10     1.0000 0.13339  0.72895  0.39678  Biso   1.000  Zr
  Zr11     1.0000 0.35970  0.77058  0.10307  Biso   1.000  Zr
  Zr12     1.0000 0.36023  0.96474  0.35419  Biso   1.000  Zr
  O17      1.0000 0.03112  0.66816  0.07759  Biso   1.000  O
  O18      1.0000 0.03201  0.58799  0.32465  Biso   1.000  O
  O19      1.0000 0.46910  0.90750  0.17609  Biso   1.000  O
  O20      1.0000 0.46518  0.82920  0.42676  Biso   1.000  O
  O21      1.0000 0.27411  0.62870  0.24063  Biso   1.000  O
  O22      1.0000 0.26882  0.62661  0.49399  Biso   1.000  O
  O23      1.0000 0.22451  0.87940  0.01014  Biso   1.000  O
  O24      1.0000 0.22144  0.86805  0.25851  Biso   1.000  O
  Zr13     1.0000 0.13540  0.52517  0.64822  Biso   1.000  Zr
  Zr14     1.0000 0.13617  0.72993  0.89704  Biso   1.000  Zr
  Zr15     1.0000 0.36105  0.77035  0.60663  Biso   1.000  Zr
  Zr16     1.0000 0.36124  0.97870  0.85296  Biso   1.000  Zr
  O25      1.0000 0.02724  0.66517  0.57722  Biso   1.000  O
  O26      1.0000 0.03055  0.58640  0.82993  Biso   1.000  O
  O27      1.0000 0.46706  0.91362  0.67399  Biso   1.000  O
  O28      1.0000 0.46752  0.83797  0.92550  Biso   1.000  O
  O29      1.0000 0.27366  0.62909  0.74200  Biso   1.000  O
  O30      1.0000 0.27327  0.62328  0.98990  Biso   1.000  O
  O31      1.0000 0.22301  0.87895  0.51143  Biso   1.000  O
  O32      1.0000 0.22373  0.87207  0.76062  Biso   1.000  O
  Zr17     1.0000 0.63947  0.02047  0.14522  Biso   1.000  Zr
  Zr18     1.0000 0.64688  0.23310  0.40208  Biso   1.000  Zr
  Zr19     1.0000 0.86156  0.27242  0.10589  Biso   1.000  Zr
  Zr20     1.0000 0.86294  0.47930  0.35551  Biso   1.000  Zr
  O33      1.0000 0.52817  0.15258  0.06763  Biso   1.000  O
  O34      1.0000 0.53894  0.07159  0.33691  Biso   1.000  O
  O35      1.0000 0.96591  0.41726  0.17176  Biso   1.000  O
  O36      1.0000 0.96869  0.33950  0.42585  Biso   1.000  O
  O37      1.0000 0.77563  0.12863  0.23958  Biso   1.000  O
  O38      1.0000 0.78130  0.12017  0.49318  Biso   1.000  O
  O39      1.0000 0.72326  0.37718  0.01343  Biso   1.000  O
  O40      1.0000 0.72894  0.37356  0.26233  Biso   1.000  O
  Zr21     1.0000 0.63815  0.02340  0.64472  Biso   1.000  Zr
  Zr22     1.0000 0.63906  0.22721  0.89617  Biso   1.000  Zr
  Zr23     1.0000 0.86473  0.27235  0.60759  Biso   1.000  Zr
  Zr24     1.0000 0.85869  0.47872  0.85754  Biso   1.000  Zr
  O41      1.0000 0.53441  0.16748  0.57776  Biso   1.000  O
  O42      1.0000 0.53074  0.08935  0.82254  Biso   1.000  O
  O43      1.0000 0.96558  0.41587  0.67714  Biso   1.000  O
  O44      1.0000 0.96416  0.33413  0.92242  Biso   1.000  O
  O45      1.0000 0.77555  0.12856  0.74138  Biso   1.000  O
  O46      1.0000 0.77486  0.12143  0.99061  Biso   1.000  O
  O47      1.0000 0.73095  0.37851  0.51494  Biso   1.000  O
  O48      1.0000 0.72471  0.37196  0.76267  Biso   1.000  O
  Zr25     1.0000 0.63675  0.51963  0.14981  Biso   1.000  Zr
  Zr26     1.0000 0.63773  0.72624  0.39552  Biso   1.000  Zr
  Zr27     1.0000 0.85978  0.77161  0.10529  Biso   1.000  Zr
  Zr28     1.0000 0.86058  0.98011  0.35467  Biso   1.000  Zr
  O49      1.0000 0.52567  0.65236  0.07237  Biso   1.000  O
  O50      1.0000 0.52746  0.59161  0.32012  Biso   1.000  O
  O51      1.0000 0.96562  0.91669  0.17247  Biso   1.000  O
  O52      1.0000 0.96472  0.83750  0.42450  Biso   1.000  O
  O53      1.0000 0.77249  0.62707  0.23973  Biso   1.000  O
  O54      1.0000 0.77373  0.62203  0.48984  Biso   1.000  O
  O55      1.0000 0.72252  0.87811  0.01180  Biso   1.000  O
  O56      1.0000 0.72510  0.87054  0.26076  Biso   1.000  O
  Zr29     1.0000 0.63859  0.52120  0.64687  Biso   1.000  Zr
  Zr30     1.0000 0.63658  0.72676  0.89649  Biso   1.000  Zr
  Zr31     1.0000 0.85778  0.77319  0.60543  Biso   1.000  Zr
  Zr32     1.0000 0.85906  0.97801  0.85523  Biso   1.000  Zr
  O57      1.0000 0.53062  0.66009  0.57526  Biso   1.000  O
  O58      1.0000 0.53019  0.59067  0.82292  Biso   1.000  O
  O59      1.0000 0.96586  0.91499  0.67426  Biso   1.000  O
  O60      1.0000 0.96432  0.83567  0.92380  Biso   1.000  O
  O61      1.0000 0.77374  0.62873  0.74132  Biso   1.000  O
  O62      1.0000 0.77202  0.62167  0.99228  Biso   1.000  O
  O63      1.0000 0.72223  0.87835  0.51030  Biso   1.000  O
  O64      1.0000 0.72296  0.87207  0.76110  Biso   1.000  O
  Re1      1.0000 0.41167  0.23276  0.32582  Biso   1.000  Re
