data_image0
_cell_length_a       10.0783
_cell_length_b       5.02696
_cell_length_c       10.079
_cell_angle_alpha    90.0001
_cell_angle_beta     90
_cell_angle_gamma    90

_symmetry_space_group_name_H-M    "P 1"
_symmetry_int_tables_number       1

loop_
  _symmetry_equiv_pos_as_xyz
  'x, y, z'

loop_
  _atom_site_label
  _atom_site_occupancy
  _atom_site_fract_x
  _atom_site_fract_y
  _atom_site_fract_z
  _atom_site_thermal_displace_type
  _atom_site_B_iso_or_equiv
  _atom_site_type_symbol
  Re1      1.0000 0.12540  0.00015  0.12540  Biso   1.000  Re
  Zr1      1.0000 0.12540  0.50015  0.37406  Biso   1.000  Zr
  Zr2      1.0000 0.37407  0.50015  0.12540  Biso   1.000  Zr
  Zr3      1.0000 0.37417  0.00052  0.37417  Biso   1.000  Zr
  Zr4      1.0000 0.99164  0.26105  0.99157  Biso   1.000  Zr
  Zr5      1.0000 0.01402  0.23613  0.23668  Biso   1.000  Zr
  Zr6      1.0000 0.99164  0.73926  0.25922  Biso   1.000  Zr
  Zr7      1.0000 0.01402  0.76418  0.01411  Biso   1.000  Zr
  Zr8      1.0000 0.25915  0.26105  0.25922  Biso   1.000  Zr
  Zr9      1.0000 0.23677  0.23612  0.01411  Biso   1.000  Zr
  Zr10     1.0000 0.25915  0.73926  0.99157  Biso   1.000  Zr
  Zr11     1.0000 0.23677  0.76418  0.23668  Biso   1.000  Zr
  Zr12     1.0000 0.12540  0.00015  0.62540  Biso   1.000  Zr
  Zr13     1.0000 0.12540  0.50015  0.87673  Biso   1.000  Zr
  Zr14     1.0000 0.37609  0.50015  0.62540  Biso   1.000  Zr
  Zr15     1.0000 0.37417  0.99979  0.87662  Biso   1.000  Zr
  Zr16     1.0000 0.98727  0.26812  0.48607  Biso   1.000  Zr
  Zr17     1.0000 0.01106  0.24025  0.73981  Biso   1.000  Zr
  Zr18     1.0000 0.98726  0.73219  0.76472  Biso   1.000  Zr
  Zr19     1.0000 0.01106  0.76005  0.51098  Biso   1.000  Zr
  Zr20     1.0000 0.26353  0.26812  0.76472  Biso   1.000  Zr
  Zr21     1.0000 0.23973  0.24025  0.51098  Biso   1.000  Zr
  Zr22     1.0000 0.26353  0.73219  0.48607  Biso   1.000  Zr
  Zr23     1.0000 0.23973  0.76005  0.73981  Biso   1.000  Zr
  Zr24     1.0000 0.62540  0.00015  0.12540  Biso   1.000  Zr
  Zr25     1.0000 0.62540  0.50015  0.37609  Biso   1.000  Zr
  Zr26     1.0000 0.87672  0.50015  0.12540  Biso   1.000  Zr
  Zr27     1.0000 0.87663  0.99979  0.37417  Biso   1.000  Zr
  Zr28     1.0000 0.48615  0.26813  0.98718  Biso   1.000  Zr
  Zr29     1.0000 0.51089  0.24025  0.23964  Biso   1.000  Zr
  Zr30     1.0000 0.48614  0.73218  0.26361  Biso   1.000  Zr
  Zr31     1.0000 0.51089  0.76006  0.01116  Biso   1.000  Zr
  Zr32     1.0000 0.76465  0.26813  0.26361  Biso   1.000  Zr
  Zr33     1.0000 0.73990  0.24025  0.01116  Biso   1.000  Zr
  Zr34     1.0000 0.76465  0.73218  0.98718  Biso   1.000  Zr
  Zr35     1.0000 0.73990  0.76006  0.23964  Biso   1.000  Zr
  Zr36     1.0000 0.62540  0.00015  0.62540  Biso   1.000  Zr
  Zr37     1.0000 0.62540  0.50015  0.87470  Biso   1.000  Zr
  Zr38     1.0000 0.87471  0.50015  0.62540  Biso   1.000  Zr
  Zr39     1.0000 0.87663  0.00052  0.87662  Biso   1.000  Zr
  Zr40     1.0000 0.48746  0.26507  0.48737  Biso   1.000  Zr
  Zr41     1.0000 0.51145  0.24230  0.73924  Biso   1.000  Zr
  Zr42     1.0000 0.48746  0.73523  0.76342  Biso   1.000  Zr
  Zr43     1.0000 0.51145  0.75800  0.51155  Biso   1.000  Zr
  Zr44     1.0000 0.76334  0.26507  0.76342  Biso   1.000  Zr
  Zr45     1.0000 0.73934  0.24230  0.51155  Biso   1.000  Zr
  Zr46     1.0000 0.76334  0.73524  0.48737  Biso   1.000  Zr
  Zr47     1.0000 0.73934  0.75800  0.73924  Biso   1.000  Zr
