data_image0
_cell_length_a       10.1179
_cell_length_b       10.3071
_cell_length_c       10.1179
_cell_angle_alpha    90.0011
_cell_angle_beta     89.3047
_cell_angle_gamma    90.0011

_symmetry_space_group_name_H-M    "P 1"
_symmetry_int_tables_number       1

loop_
  _symmetry_equiv_pos_as_xyz
  'x, y, z'

loop_
  _atom_site_label
  _atom_site_occupancy
  _atom_site_fract_x
  _atom_site_fract_y
  _atom_site_fract_z
  _atom_site_thermal_displace_type
  _atom_site_B_iso_or_equiv
  _atom_site_type_symbol
  Zr1      1.0000 0.12533  0.95108  0.12533  Biso   1.000  Zr
  Zr2      1.0000 0.13401  0.25854  0.38917  Biso   1.000  Zr
  Zr3      1.0000 0.38917  0.25854  0.13402  Biso   1.000  Zr
  Zr4      1.0000 0.37869  0.00409  0.37869  Biso   1.000  Zr
  Zr5      1.0000 0.98359  0.15588  0.98359  Biso   1.000  Zr
  Zr6      1.0000 0.00994  0.08092  0.24041  Biso   1.000  Zr
  Zr7      1.0000 0.01158  0.32856  0.23910  Biso   1.000  Zr
  Zr8      1.0000 0.99414  0.40551  0.99414  Biso   1.000  Zr
  Zr9      1.0000 0.26692  0.15576  0.26692  Biso   1.000  Zr
  Zr10     1.0000 0.24041  0.08092  0.00995  Biso   1.000  Zr
  Zr11     1.0000 0.23910  0.32856  0.01158  Biso   1.000  Zr
  Zr12     1.0000 0.25657  0.40543  0.25657  Biso   1.000  Zr
  Zr13     1.0000 0.12535  0.99864  0.62530  Biso   1.000  Zr
  Zr14     1.0000 0.11673  0.25848  0.86147  Biso   1.000  Zr
  Zr15     1.0000 0.37580  0.24986  0.63034  Biso   1.000  Zr
  Zr16     1.0000 0.37234  0.00003  0.87832  Biso   1.000  Zr
  Zr17     1.0000 0.99877  0.14750  0.49281  Biso   1.000  Zr
  Zr18     1.0000 0.99718  0.10776  0.74196  Biso   1.000  Zr
  Zr19     1.0000 0.99435  0.36195  0.74135  Biso   1.000  Zr
  Zr20     1.0000 0.00543  0.40005  0.49313  Biso   1.000  Zr
  Zr21     1.0000 0.25189  0.14748  0.75767  Biso   1.000  Zr
  Zr22     1.0000 0.25348  0.10777  0.50858  Biso   1.000  Zr
  Zr23     1.0000 0.25633  0.36197  0.50934  Biso   1.000  Zr
  Zr24     1.0000 0.24526  0.40006  0.75759  Biso   1.000  Zr
  Zr25     1.0000 0.12535  0.49835  0.12535  Biso   1.000  Zr
  Zr26     1.0000 0.12959  0.74630  0.38163  Biso   1.000  Zr
  Zr27     1.0000 0.38163  0.74630  0.12959  Biso   1.000  Zr
  Zr28     1.0000 0.37972  0.50361  0.37972  Biso   1.000  Zr
  Zr29     1.0000 0.00566  0.64907  0.00566  Biso   1.000  Zr
  Zr30     1.0000 0.99782  0.58687  0.25315  Biso   1.000  Zr
  Zr31     1.0000 0.99839  0.83260  0.25227  Biso   1.000  Zr
  Zr32     1.0000 0.99169  0.89141  0.99169  Biso   1.000  Zr
  Zr33     1.0000 0.24523  0.64898  0.24523  Biso   1.000  Zr
  Zr34     1.0000 0.25314  0.58687  0.99781  Biso   1.000  Zr
  Zr35     1.0000 0.25227  0.83260  0.99839  Biso   1.000  Zr
  Zr36     1.0000 0.25894  0.89134  0.25894  Biso   1.000  Zr
  Zr37     1.0000 0.12533  0.50425  0.62538  Biso   1.000  Zr
  Zr38     1.0000 0.12101  0.74639  0.86901  Biso   1.000  Zr
  Zr39     1.0000 0.37613  0.75550  0.62631  Biso   1.000  Zr
  Zr40     1.0000 0.38067  0.50363  0.87003  Biso   1.000  Zr
  Zr41     1.0000 0.99827  0.64722  0.50391  Biso   1.000  Zr
  Zr42     1.0000 0.00189  0.60840  0.75314  Biso   1.000  Zr
  Zr43     1.0000 0.99905  0.85708  0.74687  Biso   1.000  Zr
  Zr44     1.0000 0.00316  0.89815  0.49795  Biso   1.000  Zr
  Zr45     1.0000 0.25241  0.64723  0.74691  Biso   1.000  Zr
  Zr46     1.0000 0.24879  0.60839  0.49766  Biso   1.000  Zr
  Zr47     1.0000 0.25158  0.85706  0.50378  Biso   1.000  Zr
  Zr48     1.0000 0.24747  0.89814  0.75268  Biso   1.000  Zr
  Zr49     1.0000 0.62530  0.99864  0.12536  Biso   1.000  Zr
  Zr50     1.0000 0.63034  0.24986  0.37580  Biso   1.000  Zr
  Zr51     1.0000 0.86147  0.25848  0.11673  Biso   1.000  Zr
  Zr52     1.0000 0.87832  0.00003  0.37234  Biso   1.000  Zr
  Zr53     1.0000 0.49281  0.14750  0.99877  Biso   1.000  Zr
  Zr54     1.0000 0.50858  0.10778  0.25348  Biso   1.000  Zr
  Zr55     1.0000 0.50934  0.36197  0.25633  Biso   1.000  Zr
  Zr56     1.0000 0.49313  0.40005  0.00543  Biso   1.000  Zr
  Zr57     1.0000 0.75768  0.14748  0.25189  Biso   1.000  Zr
  Zr58     1.0000 0.74196  0.10776  0.99718  Biso   1.000  Zr
  Zr59     1.0000 0.74135  0.36195  0.99435  Biso   1.000  Zr
  Zr60     1.0000 0.75759  0.40006  0.24526  Biso   1.000  Zr
  Zr61     1.0000 0.62531  0.00493  0.62531  Biso   1.000  Zr
  Zr62     1.0000 0.62029  0.24983  0.87492  Biso   1.000  Zr
  Zr63     1.0000 0.87492  0.24983  0.62029  Biso   1.000  Zr
  Zr64     1.0000 0.87192  0.00417  0.87192  Biso   1.000  Zr
  Zr65     1.0000 0.50278  0.15123  0.50278  Biso   1.000  Zr
  Zr66     1.0000 0.49893  0.10505  0.75175  Biso   1.000  Zr
  Zr67     1.0000 0.49723  0.35648  0.75345  Biso   1.000  Zr
  Zr68     1.0000 0.50352  0.40036  0.50352  Biso   1.000  Zr
  Zr69     1.0000 0.74790  0.15124  0.74790  Biso   1.000  Zr
  Zr70     1.0000 0.75176  0.10505  0.49893  Biso   1.000  Zr
  Zr71     1.0000 0.75345  0.35648  0.49723  Biso   1.000  Zr
  Zr72     1.0000 0.74715  0.40034  0.74715  Biso   1.000  Zr
  Zr73     1.0000 0.62538  0.50425  0.12533  Biso   1.000  Zr
  Zr74     1.0000 0.62631  0.75550  0.37613  Biso   1.000  Zr
  Zr75     1.0000 0.86901  0.74639  0.12101  Biso   1.000  Zr
  Zr76     1.0000 0.87003  0.50363  0.38067  Biso   1.000  Zr
  Zr77     1.0000 0.50391  0.64722  0.99827  Biso   1.000  Zr
  Zr78     1.0000 0.49766  0.60839  0.24879  Biso   1.000  Zr
  Zr79     1.0000 0.50378  0.85706  0.25158  Biso   1.000  Zr
  Zr80     1.0000 0.49795  0.89815  0.00317  Biso   1.000  Zr
  Zr81     1.0000 0.74691  0.64723  0.25242  Biso   1.000  Zr
  Zr82     1.0000 0.75314  0.60840  0.00189  Biso   1.000  Zr
  Zr83     1.0000 0.74687  0.85708  0.99905  Biso   1.000  Zr
  Zr84     1.0000 0.75268  0.89814  0.24747  Biso   1.000  Zr
  Zr85     1.0000 0.62534  0.50254  0.62534  Biso   1.000  Zr
  Zr86     1.0000 0.62435  0.75553  0.87448  Biso   1.000  Zr
  Zr87     1.0000 0.87448  0.75553  0.62435  Biso   1.000  Zr
  Zr88     1.0000 0.87095  0.50352  0.87095  Biso   1.000  Zr
  Zr89     1.0000 0.49928  0.65187  0.49928  Biso   1.000  Zr
  Zr90     1.0000 0.50211  0.60845  0.74856  Biso   1.000  Zr
  Zr91     1.0000 0.49786  0.85715  0.75277  Biso   1.000  Zr
  Zr92     1.0000 0.50227  0.90140  0.50227  Biso   1.000  Zr
  Zr93     1.0000 0.75138  0.65186  0.75138  Biso   1.000  Zr
  Zr94     1.0000 0.74856  0.60845  0.50211  Biso   1.000  Zr
  Zr95     1.0000 0.75277  0.85715  0.49786  Biso   1.000  Zr
  Zr96     1.0000 0.74836  0.90140  0.74836  Biso   1.000  Zr
  Re1      1.0000 0.12526  0.19420  0.12526  Biso   1.000  Re
