data_image0
_cell_length_a       10.0512
_cell_length_b       10.1836
_cell_length_c       10.0512
_cell_angle_alpha    90
_cell_angle_beta     90
_cell_angle_gamma    90

_symmetry_space_group_name_H-M    "P 1"
_symmetry_int_tables_number       1

loop_
  _symmetry_equiv_pos_as_xyz
  'x, y, z'

loop_
  _atom_site_label
  _atom_site_occupancy
  _atom_site_fract_x
  _atom_site_fract_y
  _atom_site_fract_z
  _atom_site_thermal_displace_type
  _atom_site_B_iso_or_equiv
  _atom_site_type_symbol
  Re1      1.0000 0.12540  0.00007  0.12540  Biso   1.000  Re
  Zr1      1.0000 0.12585  0.24912  0.37405  Biso   1.000  Zr
  Zr2      1.0000 0.37405  0.24912  0.12585  Biso   1.000  Zr
  Zr3      1.0000 0.37443  0.99920  0.37443  Biso   1.000  Zr
  Zr4      1.0000 0.00010  0.13939  0.00010  Biso   1.000  Zr
  Zr5      1.0000 0.00593  0.10422  0.24487  Biso   1.000  Zr
  Zr6      1.0000 0.99808  0.35528  0.25272  Biso   1.000  Zr
  Zr7      1.0000 0.00185  0.39335  0.00185  Biso   1.000  Zr
  Zr8      1.0000 0.25069  0.13938  0.25069  Biso   1.000  Zr
  Zr9      1.0000 0.24487  0.10422  0.00593  Biso   1.000  Zr
  Zr10     1.0000 0.25272  0.35528  0.99808  Biso   1.000  Zr
  Zr11     1.0000 0.24894  0.39335  0.24894  Biso   1.000  Zr
  Zr12     1.0000 0.12540  0.00007  0.62540  Biso   1.000  Zr
  Zr13     1.0000 0.12495  0.24912  0.87674  Biso   1.000  Zr
  Zr14     1.0000 0.37559  0.25007  0.62548  Biso   1.000  Zr
  Zr15     1.0000 0.37443  0.00096  0.87637  Biso   1.000  Zr
  Zr16     1.0000 0.99672  0.14555  0.49540  Biso   1.000  Zr
  Zr17     1.0000 0.00219  0.10498  0.74838  Biso   1.000  Zr
  Zr18     1.0000 0.99837  0.35425  0.75282  Biso   1.000  Zr
  Zr19     1.0000 0.00136  0.39542  0.50174  Biso   1.000  Zr
  Zr20     1.0000 0.25408  0.14555  0.75539  Biso   1.000  Zr
  Zr21     1.0000 0.24860  0.10498  0.50242  Biso   1.000  Zr
  Zr22     1.0000 0.25242  0.35426  0.49798  Biso   1.000  Zr
  Zr23     1.0000 0.24943  0.39542  0.74905  Biso   1.000  Zr
  Zr24     1.0000 0.12540  0.50008  0.12540  Biso   1.000  Zr
  Zr25     1.0000 0.12495  0.75103  0.37405  Biso   1.000  Zr
  Zr26     1.0000 0.37405  0.75103  0.12495  Biso   1.000  Zr
  Zr27     1.0000 0.37558  0.49992  0.37558  Biso   1.000  Zr
  Zr28     1.0000 0.99808  0.64487  0.99808  Biso   1.000  Zr
  Zr29     1.0000 0.00185  0.60680  0.24894  Biso   1.000  Zr
  Zr30     1.0000 0.00010  0.86077  0.25069  Biso   1.000  Zr
  Zr31     1.0000 0.00593  0.89593  0.00593  Biso   1.000  Zr
  Zr32     1.0000 0.25272  0.64487  0.25272  Biso   1.000  Zr
  Zr33     1.0000 0.24894  0.60680  0.00185  Biso   1.000  Zr
  Zr34     1.0000 0.25069  0.86077  0.00010  Biso   1.000  Zr
  Zr35     1.0000 0.24487  0.89594  0.24487  Biso   1.000  Zr
  Zr36     1.0000 0.12540  0.50008  0.62540  Biso   1.000  Zr
  Zr37     1.0000 0.12585  0.75103  0.87674  Biso   1.000  Zr
  Zr38     1.0000 0.37559  0.75008  0.62531  Biso   1.000  Zr
  Zr39     1.0000 0.37558  0.50023  0.87521  Biso   1.000  Zr
  Zr40     1.0000 0.99837  0.64590  0.49797  Biso   1.000  Zr
  Zr41     1.0000 0.00136  0.60473  0.74906  Biso   1.000  Zr
  Zr42     1.0000 0.99672  0.85461  0.75539  Biso   1.000  Zr
  Zr43     1.0000 0.00219  0.89517  0.50242  Biso   1.000  Zr
  Zr44     1.0000 0.25243  0.64590  0.75282  Biso   1.000  Zr
  Zr45     1.0000 0.24943  0.60473  0.50174  Biso   1.000  Zr
  Zr46     1.0000 0.25408  0.85461  0.49540  Biso   1.000  Zr
  Zr47     1.0000 0.24860  0.89517  0.74838  Biso   1.000  Zr
  Zr48     1.0000 0.62540  0.00007  0.12540  Biso   1.000  Zr
  Zr49     1.0000 0.62548  0.25007  0.37559  Biso   1.000  Zr
  Zr50     1.0000 0.87674  0.24912  0.12495  Biso   1.000  Zr
  Zr51     1.0000 0.87637  0.00096  0.37443  Biso   1.000  Zr
  Zr52     1.0000 0.49540  0.14555  0.99672  Biso   1.000  Zr
  Zr53     1.0000 0.50242  0.10498  0.24860  Biso   1.000  Zr
  Zr54     1.0000 0.49798  0.35426  0.25242  Biso   1.000  Zr
  Zr55     1.0000 0.50174  0.39542  0.00136  Biso   1.000  Zr
  Zr56     1.0000 0.75539  0.14555  0.25407  Biso   1.000  Zr
  Zr57     1.0000 0.74837  0.10498  0.00219  Biso   1.000  Zr
  Zr58     1.0000 0.75282  0.35425  0.99837  Biso   1.000  Zr
  Zr59     1.0000 0.74905  0.39542  0.24943  Biso   1.000  Zr
  Zr60     1.0000 0.62540  0.00007  0.62540  Biso   1.000  Zr
  Zr61     1.0000 0.62531  0.25007  0.87520  Biso   1.000  Zr
  Zr62     1.0000 0.87520  0.25007  0.62531  Biso   1.000  Zr
  Zr63     1.0000 0.87637  0.99920  0.87637  Biso   1.000  Zr
  Zr64     1.0000 0.49711  0.14507  0.49711  Biso   1.000  Zr
  Zr65     1.0000 0.50215  0.10528  0.74864  Biso   1.000  Zr
  Zr66     1.0000 0.49863  0.35530  0.75217  Biso   1.000  Zr
  Zr67     1.0000 0.50160  0.39496  0.50160  Biso   1.000  Zr
  Zr68     1.0000 0.75368  0.14507  0.75368  Biso   1.000  Zr
  Zr69     1.0000 0.74864  0.10528  0.50215  Biso   1.000  Zr
  Zr70     1.0000 0.75217  0.35530  0.49863  Biso   1.000  Zr
  Zr71     1.0000 0.74919  0.39496  0.74919  Biso   1.000  Zr
  Zr72     1.0000 0.62540  0.50008  0.12540  Biso   1.000  Zr
  Zr73     1.0000 0.62531  0.75008  0.37559  Biso   1.000  Zr
  Zr74     1.0000 0.87674  0.75103  0.12585  Biso   1.000  Zr
  Zr75     1.0000 0.87521  0.50023  0.37558  Biso   1.000  Zr
  Zr76     1.0000 0.49797  0.64590  0.99837  Biso   1.000  Zr
  Zr77     1.0000 0.50174  0.60473  0.24943  Biso   1.000  Zr
  Zr78     1.0000 0.49540  0.85461  0.25408  Biso   1.000  Zr
  Zr79     1.0000 0.50242  0.89517  0.00219  Biso   1.000  Zr
  Zr80     1.0000 0.75282  0.64590  0.25242  Biso   1.000  Zr
  Zr81     1.0000 0.74906  0.60473  0.00136  Biso   1.000  Zr
  Zr82     1.0000 0.75539  0.85461  0.99672  Biso   1.000  Zr
  Zr83     1.0000 0.74838  0.89517  0.24860  Biso   1.000  Zr
  Zr84     1.0000 0.62540  0.50008  0.62540  Biso   1.000  Zr
  Zr85     1.0000 0.62548  0.75008  0.87520  Biso   1.000  Zr
  Zr86     1.0000 0.87520  0.75008  0.62548  Biso   1.000  Zr
  Zr87     1.0000 0.87521  0.49992  0.87521  Biso   1.000  Zr
  Zr88     1.0000 0.49862  0.64485  0.49863  Biso   1.000  Zr
  Zr89     1.0000 0.50160  0.60519  0.74919  Biso   1.000  Zr
  Zr90     1.0000 0.49711  0.85508  0.75368  Biso   1.000  Zr
  Zr91     1.0000 0.50215  0.89488  0.50215  Biso   1.000  Zr
  Zr92     1.0000 0.75217  0.64485  0.75217  Biso   1.000  Zr
  Zr93     1.0000 0.74919  0.60519  0.50160  Biso   1.000  Zr
  Zr94     1.0000 0.75368  0.85508  0.49711  Biso   1.000  Zr
  Zr95     1.0000 0.74864  0.89487  0.74864  Biso   1.000  Zr
