data_image0
_cell_length_a       10.0205
_cell_length_b       10.4322
_cell_length_c       10.0589
_cell_angle_alpha    90.1838
_cell_angle_beta     89.6635
_cell_angle_gamma    90.1814

_symmetry_space_group_name_H-M    "P 1"
_symmetry_int_tables_number       1

loop_
  _symmetry_equiv_pos_as_xyz
  'x, y, z'

loop_
  _atom_site_label
  _atom_site_occupancy
  _atom_site_fract_x
  _atom_site_fract_y
  _atom_site_fract_z
  _atom_site_thermal_displace_type
  _atom_site_B_iso_or_equiv
  _atom_site_type_symbol
  Rh1      1.0000 0.12616  0.03569  0.10699  Biso   1.000  Rh
  Zr1      1.0000 0.13470  0.01656  0.62798  Biso   1.000  Zr
  Zr2      1.0000 0.13346  0.51393  0.12606  Biso   1.000  Zr
  Zr3      1.0000 0.13407  0.51660  0.62583  Biso   1.000  Zr
  Zr4      1.0000 0.63404  0.01567  0.12561  Biso   1.000  Zr
  Zr5      1.0000 0.63102  0.01415  0.62211  Biso   1.000  Zr
  Zr6      1.0000 0.63487  0.51694  0.12749  Biso   1.000  Zr
  Zr7      1.0000 0.63343  0.51649  0.62499  Biso   1.000  Zr
  Zr8      1.0000 0.13358  0.23127  0.37442  Biso   1.000  Zr
  Zr9      1.0000 0.13257  0.23891  0.87395  Biso   1.000  Zr
  Zr10     1.0000 0.13615  0.73323  0.37707  Biso   1.000  Zr
  Zr11     1.0000 0.13288  0.73604  0.87896  Biso   1.000  Zr
  Zr12     1.0000 0.63348  0.23341  0.37657  Biso   1.000  Zr
  Zr13     1.0000 0.63208  0.23410  0.87401  Biso   1.000  Zr
  Zr14     1.0000 0.63591  0.73630  0.37484  Biso   1.000  Zr
  Zr15     1.0000 0.63224  0.73431  0.87620  Biso   1.000  Zr
  Zr16     1.0000 0.36705  0.26498  0.12563  Biso   1.000  Zr
  Zr17     1.0000 0.36612  0.26576  0.62515  Biso   1.000  Zr
  Zr18     1.0000 0.36573  0.76388  0.12774  Biso   1.000  Zr
  Zr19     1.0000 0.36621  0.76693  0.62846  Biso   1.000  Zr
  Zr20     1.0000 0.86314  0.26639  0.12435  Biso   1.000  Zr
  Zr21     1.0000 0.86556  0.26534  0.62452  Biso   1.000  Zr
  Zr22     1.0000 0.87245  0.76641  0.12297  Biso   1.000  Zr
  Zr23     1.0000 0.86780  0.76616  0.62361  Biso   1.000  Zr
  Zr24     1.0000 0.36692  0.48352  0.37612  Biso   1.000  Zr
  Zr25     1.0000 0.36599  0.48620  0.87568  Biso   1.000  Zr
  Zr26     1.0000 0.36366  0.98060  0.37379  Biso   1.000  Zr
  Zr27     1.0000 0.36272  0.98384  0.88027  Biso   1.000  Zr
  Zr28     1.0000 0.86628  0.48439  0.37587  Biso   1.000  Zr
  Zr29     1.0000 0.86485  0.48551  0.87480  Biso   1.000  Zr
  Zr30     1.0000 0.87066  0.98729  0.37303  Biso   1.000  Zr
  Zr31     1.0000 0.86095  0.98328  0.87212  Biso   1.000  Zr
  Zr32     1.0000 0.03398  0.18446  0.19119  Biso   1.000  Zr
  Zr33     1.0000 0.03394  0.18401  0.69747  Biso   1.000  Zr
  Zr34     1.0000 0.03709  0.68340  0.19486  Biso   1.000  Zr
  Zr35     1.0000 0.03565  0.68480  0.69522  Biso   1.000  Zr
  Zr36     1.0000 0.53279  0.18247  0.19724  Biso   1.000  Zr
  Zr37     1.0000 0.53546  0.18433  0.69295  Biso   1.000  Zr
  Zr38     1.0000 0.53662  0.68366  0.19697  Biso   1.000  Zr
  Zr39     1.0000 0.53429  0.68280  0.69686  Biso   1.000  Zr
  Zr40     1.0000 0.03543  0.06707  0.44959  Biso   1.000  Zr
  Zr41     1.0000 0.03452  0.06455  0.94029  Biso   1.000  Zr
  Zr42     1.0000 0.03519  0.56478  0.44630  Biso   1.000  Zr
  Zr43     1.0000 0.03356  0.56727  0.94611  Biso   1.000  Zr
  Zr44     1.0000 0.53511  0.06593  0.44366  Biso   1.000  Zr
  Zr45     1.0000 0.53192  0.06829  0.94785  Biso   1.000  Zr
  Zr46     1.0000 0.53691  0.56693  0.44392  Biso   1.000  Zr
  Zr47     1.0000 0.53475  0.56678  0.94671  Biso   1.000  Zr
  Zr48     1.0000 0.46513  0.43248  0.19394  Biso   1.000  Zr
  Zr49     1.0000 0.46404  0.43397  0.69496  Biso   1.000  Zr
  Zr50     1.0000 0.47061  0.93060  0.19751  Biso   1.000  Zr
  Zr51     1.0000 0.46371  0.93436  0.69867  Biso   1.000  Zr
  Zr52     1.0000 0.96456  0.43168  0.19573  Biso   1.000  Zr
  Zr53     1.0000 0.96448  0.43342  0.69457  Biso   1.000  Zr
  Zr54     1.0000 0.97975  0.93954  0.18888  Biso   1.000  Zr
  Zr55     1.0000 0.96394  0.93424  0.69360  Biso   1.000  Zr
  Zr56     1.0000 0.46503  0.31672  0.44528  Biso   1.000  Zr
  Zr57     1.0000 0.46143  0.31520  0.94347  Biso   1.000  Zr
  Zr58     1.0000 0.46901  0.81802  0.45137  Biso   1.000  Zr
  Zr59     1.0000 0.46017  0.81668  0.94381  Biso   1.000  Zr
  Zr60     1.0000 0.96401  0.31467  0.44291  Biso   1.000  Zr
  Zr61     1.0000 0.96324  0.31734  0.94431  Biso   1.000  Zr
  Zr62     1.0000 0.96572  0.81734  0.44151  Biso   1.000  Zr
  Zr63     1.0000 0.96071  0.81688  0.94069  Biso   1.000  Zr
  Zr64     1.0000 0.26033  0.10708  0.24489  Biso   1.000  Zr
  Zr65     1.0000 0.27022  0.11882  0.75031  Biso   1.000  Zr
  Zr66     1.0000 0.26869  0.60938  0.24898  Biso   1.000  Zr
  Zr67     1.0000 0.26848  0.61809  0.75078  Biso   1.000  Zr
  Zr68     1.0000 0.76903  0.11745  0.24762  Biso   1.000  Zr
  Zr69     1.0000 0.76679  0.11583  0.74677  Biso   1.000  Zr
  Zr70     1.0000 0.77194  0.61699  0.24895  Biso   1.000  Zr
  Zr71     1.0000 0.76882  0.61723  0.74891  Biso   1.000  Zr
  Zr72     1.0000 0.27093  0.13267  0.49693  Biso   1.000  Zr
  Zr73     1.0000 0.26366  0.13404  0.99979  Biso   1.000  Zr
  Zr74     1.0000 0.27166  0.63269  0.50026  Biso   1.000  Zr
  Zr75     1.0000 0.26803  0.63437  0.99974  Biso   1.000  Zr
  Zr76     1.0000 0.77006  0.13325  0.49732  Biso   1.000  Zr
  Zr77     1.0000 0.76883  0.13342  0.99657  Biso   1.000  Zr
  Zr78     1.0000 0.76927  0.63423  0.49879  Biso   1.000  Zr
  Zr79     1.0000 0.76927  0.63436  0.99948  Biso   1.000  Zr
  Zr80     1.0000 0.22974  0.38213  0.49903  Biso   1.000  Zr
  Zr81     1.0000 0.23013  0.38435  0.99870  Biso   1.000  Zr
  Zr82     1.0000 0.23042  0.88272  0.50470  Biso   1.000  Zr
  Zr83     1.0000 0.22505  0.88871  0.01017  Biso   1.000  Zr
  Zr84     1.0000 0.73087  0.38317  0.49943  Biso   1.000  Zr
  Zr85     1.0000 0.72878  0.38328  0.99869  Biso   1.000  Zr
  Zr86     1.0000 0.73368  0.88488  0.49647  Biso   1.000  Zr
  Zr87     1.0000 0.72767  0.88340  0.99718  Biso   1.000  Zr
  Zr88     1.0000 0.23211  0.36239  0.24895  Biso   1.000  Zr
  Zr89     1.0000 0.22979  0.36839  0.74880  Biso   1.000  Zr
  Zr90     1.0000 0.24618  0.85175  0.26120  Biso   1.000  Zr
  Zr91     1.0000 0.22936  0.86827  0.75439  Biso   1.000  Zr
  Zr92     1.0000 0.72908  0.36723  0.24920  Biso   1.000  Zr
  Zr93     1.0000 0.72997  0.36684  0.74865  Biso   1.000  Zr
  Zr94     1.0000 0.74037  0.86759  0.24629  Biso   1.000  Zr
  Zr95     1.0000 0.72932  0.86592  0.74697  Biso   1.000  Zr
