data_image0
_cell_length_a       10.208
_cell_length_b       10.2987
_cell_length_c       5.10671
_cell_angle_alpha    90.0004
_cell_angle_beta     86.2419
_cell_angle_gamma    89.998

_symmetry_space_group_name_H-M    "P 1"
_symmetry_int_tables_number       1

loop_
  _symmetry_equiv_pos_as_xyz
  'x, y, z'

loop_
  _atom_site_label
  _atom_site_occupancy
  _atom_site_fract_x
  _atom_site_fract_y
  _atom_site_fract_z
  _atom_site_thermal_displace_type
  _atom_site_B_iso_or_equiv
  _atom_site_type_symbol
  Zr1      1.0000 0.12547  0.95489  0.25096  Biso   1.000  Zr
  Zr2      1.0000 0.12545  0.28909  0.75095  Biso   1.000  Zr
  Zr3      1.0000 0.38051  0.24786  0.30533  Biso   1.000  Zr
  Zr4      1.0000 0.37323  0.00305  0.78665  Biso   1.000  Zr
  Zr5      1.0000 0.97267  0.16318  0.84745  Biso   1.000  Zr
  Zr6      1.0000 0.97327  0.08209  0.36229  Biso   1.000  Zr
  Zr7      1.0000 0.00516  0.35110  0.45511  Biso   1.000  Zr
  Zr8      1.0000 0.99081  0.41322  0.98029  Biso   1.000  Zr
  Zr9      1.0000 0.27825  0.16318  0.65447  Biso   1.000  Zr
  Zr10     1.0000 0.27767  0.08207  0.13965  Biso   1.000  Zr
  Zr11     1.0000 0.24572  0.35104  0.04690  Biso   1.000  Zr
  Zr12     1.0000 0.26011  0.41320  0.52165  Biso   1.000  Zr
  Zr13     1.0000 0.12547  0.51168  0.25098  Biso   1.000  Zr
  Zr14     1.0000 0.12547  0.74123  0.75097  Biso   1.000  Zr
  Zr15     1.0000 0.38861  0.75996  0.27363  Biso   1.000  Zr
  Zr16     1.0000 0.39017  0.49410  0.77625  Biso   1.000  Zr
  Zr17     1.0000 0.01432  0.65960  0.07465  Biso   1.000  Zr
  Zr18     1.0000 0.01332  0.59285  0.57144  Biso   1.000  Zr
  Zr19     1.0000 0.99326  0.84114  0.49228  Biso   1.000  Zr
  Zr20     1.0000 0.00385  0.89770  0.96310  Biso   1.000  Zr
  Zr21     1.0000 0.23665  0.65958  0.42733  Biso   1.000  Zr
  Zr22     1.0000 0.23762  0.59283  0.93053  Biso   1.000  Zr
  Zr23     1.0000 0.25767  0.84112  0.00966  Biso   1.000  Zr
  Zr24     1.0000 0.24708  0.89770  0.53884  Biso   1.000  Zr
  Zr25     1.0000 0.62546  0.00684  0.25096  Biso   1.000  Zr
  Zr26     1.0000 0.62545  0.24182  0.75096  Biso   1.000  Zr
  Zr27     1.0000 0.87040  0.24787  0.19660  Biso   1.000  Zr
  Zr28     1.0000 0.87769  0.00306  0.71528  Biso   1.000  Zr
  Zr29     1.0000 0.50437  0.14706  0.01545  Biso   1.000  Zr
  Zr30     1.0000 0.50283  0.10536  0.51241  Biso   1.000  Zr
  Zr31     1.0000 0.50855  0.35760  0.53413  Biso   1.000  Zr
  Zr32     1.0000 0.49364  0.39583  0.04521  Biso   1.000  Zr
  Zr33     1.0000 0.74656  0.14706  0.48650  Biso   1.000  Zr
  Zr34     1.0000 0.74809  0.10537  0.98954  Biso   1.000  Zr
  Zr35     1.0000 0.74237  0.35760  0.96771  Biso   1.000  Zr
  Zr36     1.0000 0.75727  0.39583  0.45661  Biso   1.000  Zr
  Zr37     1.0000 0.62547  0.50025  0.25089  Biso   1.000  Zr
  Zr38     1.0000 0.62548  0.75555  0.75096  Biso   1.000  Zr
  Zr39     1.0000 0.86234  0.75997  0.22829  Biso   1.000  Zr
  Zr40     1.0000 0.86078  0.49407  0.72556  Biso   1.000  Zr
  Zr41     1.0000 0.49972  0.64491  0.00202  Biso   1.000  Zr
  Zr42     1.0000 0.49818  0.60999  0.50233  Biso   1.000  Zr
  Zr43     1.0000 0.49729  0.85908  0.53147  Biso   1.000  Zr
  Zr44     1.0000 0.50555  0.89683  0.02435  Biso   1.000  Zr
  Zr45     1.0000 0.75122  0.64490  0.49985  Biso   1.000  Zr
  Zr46     1.0000 0.75277  0.61000  0.99953  Biso   1.000  Zr
  Zr47     1.0000 0.75364  0.85909  0.97044  Biso   1.000  Zr
  Zr48     1.0000 0.74538  0.89683  0.47758  Biso   1.000  Zr
  Rh1      1.0000 0.12544  0.20513  0.25093  Biso   1.000  Rh
