data_image0
_cell_length_a       10.1125
_cell_length_b       5.25693
_cell_length_c       10.1309
_cell_angle_alpha    89.6063
_cell_angle_beta     90.1599
_cell_angle_gamma    90.06

_symmetry_space_group_name_H-M    "P 1"
_symmetry_int_tables_number       1

loop_
  _symmetry_equiv_pos_as_xyz
  'x, y, z'

loop_
  _atom_site_label
  _atom_site_occupancy
  _atom_site_fract_x
  _atom_site_fract_y
  _atom_site_fract_z
  _atom_site_thermal_displace_type
  _atom_site_B_iso_or_equiv
  _atom_site_type_symbol
  Zr1      1.0000 0.13416  0.07833  0.11895  Biso   1.000  Zr
  Zr2      1.0000 0.13641  0.46548  0.38540  Biso   1.000  Zr
  Zr3      1.0000 0.36780  0.53105  0.12220  Biso   1.000  Zr
  Zr4      1.0000 0.36707  0.96978  0.37496  Biso   1.000  Zr
  Zr5      1.0000 0.01015  0.34275  0.22418  Biso   1.000  Zr
  Zr6      1.0000 0.03559  0.13170  0.45280  Biso   1.000  Zr
  Zr7      1.0000 0.46290  0.86602  0.19512  Biso   1.000  Zr
  Zr8      1.0000 0.46568  0.63335  0.44527  Biso   1.000  Zr
  Zr9      1.0000 0.26944  0.24099  0.25168  Biso   1.000  Zr
  Zr10     1.0000 0.27184  0.26344  0.50024  Biso   1.000  Zr
  Zr11     1.0000 0.23423  0.76612  0.50045  Biso   1.000  Zr
  Zr12     1.0000 0.23247  0.73508  0.25341  Biso   1.000  Zr
  Zr13     1.0000 0.13468  0.02243  0.62635  Biso   1.000  Zr
  Zr14     1.0000 0.14098  0.45585  0.86544  Biso   1.000  Zr
  Zr15     1.0000 0.37168  0.52853  0.62389  Biso   1.000  Zr
  Zr16     1.0000 0.37375  0.96371  0.87166  Biso   1.000  Zr
  Zr17     1.0000 0.03743  0.36034  0.69118  Biso   1.000  Zr
  Zr18     1.0000 0.03842  0.12626  0.93890  Biso   1.000  Zr
  Zr19     1.0000 0.47129  0.86103  0.69282  Biso   1.000  Zr
  Zr20     1.0000 0.47068  0.63123  0.94427  Biso   1.000  Zr
  Zr21     1.0000 0.27152  0.22389  0.74519  Biso   1.000  Zr
  Zr22     1.0000 0.28589  0.25621  0.98946  Biso   1.000  Zr
  Zr23     1.0000 0.23755  0.77813  0.99715  Biso   1.000  Zr
  Zr24     1.0000 0.23840  0.72539  0.74712  Biso   1.000  Zr
  Zr25     1.0000 0.62962  0.02837  0.12569  Biso   1.000  Zr
  Zr26     1.0000 0.63177  0.46523  0.37759  Biso   1.000  Zr
  Zr27     1.0000 0.84598  0.52724  0.12793  Biso   1.000  Zr
  Zr28     1.0000 0.86976  0.97326  0.37326  Biso   1.000  Zr
  Zr29     1.0000 0.53243  0.36176  0.19603  Biso   1.000  Zr
  Zr30     1.0000 0.53450  0.13182  0.44727  Biso   1.000  Zr
  Zr31     1.0000 0.95275  0.88058  0.19223  Biso   1.000  Zr
  Zr32     1.0000 0.96968  0.64127  0.44933  Biso   1.000  Zr
  Zr33     1.0000 0.75860  0.23023  0.25142  Biso   1.000  Zr
  Zr34     1.0000 0.77021  0.27009  0.49875  Biso   1.000  Zr
  Zr35     1.0000 0.73462  0.76876  0.49849  Biso   1.000  Zr
  Zr36     1.0000 0.72323  0.73364  0.25150  Biso   1.000  Zr
  Zr37     1.0000 0.63878  0.02814  0.62431  Biso   1.000  Zr
  Zr38     1.0000 0.63565  0.46290  0.87288  Biso   1.000  Zr
  Zr39     1.0000 0.86880  0.53099  0.62506  Biso   1.000  Zr
  Zr40     1.0000 0.86726  0.96085  0.87615  Biso   1.000  Zr
  Zr41     1.0000 0.53823  0.36137  0.69466  Biso   1.000  Zr
  Zr42     1.0000 0.54068  0.12859  0.94214  Biso   1.000  Zr
  Zr43     1.0000 0.96931  0.85802  0.70049  Biso   1.000  Zr
  Zr44     1.0000 0.96245  0.62017  0.94159  Biso   1.000  Zr
  Zr45     1.0000 0.77310  0.22854  0.74879  Biso   1.000  Zr
  Zr46     1.0000 0.76896  0.25957  0.99969  Biso   1.000  Zr
  Zr47     1.0000 0.72805  0.76073  0.99952  Biso   1.000  Zr
  Zr48     1.0000 0.73411  0.72968  0.74861  Biso   1.000  Zr
  Rh1      1.0000 0.09542  0.59930  0.10627  Biso   1.000  Rh
