data_image0
_cell_length_a       10.022
_cell_length_b       10.4046
_cell_length_c       10.0477
_cell_angle_alpha    89.8755
_cell_angle_beta     89.9199
_cell_angle_gamma    90.0306

_symmetry_space_group_name_H-M    "P 1"
_symmetry_int_tables_number       1

loop_
  _symmetry_equiv_pos_as_xyz
  'x, y, z'

loop_
  _atom_site_label
  _atom_site_occupancy
  _atom_site_fract_x
  _atom_site_fract_y
  _atom_site_fract_z
  _atom_site_thermal_displace_type
  _atom_site_B_iso_or_equiv
  _atom_site_type_symbol
  Ru1      1.0000 0.13734  0.02085  0.12007  Biso   1.000  Ru
  Zr1      1.0000 0.13451  0.01562  0.62730  Biso   1.000  Zr
  Zr2      1.0000 0.13470  0.51554  0.12679  Biso   1.000  Zr
  Zr3      1.0000 0.13340  0.51571  0.62519  Biso   1.000  Zr
  Zr4      1.0000 0.63359  0.01550  0.12498  Biso   1.000  Zr
  Zr5      1.0000 0.63365  0.01518  0.62397  Biso   1.000  Zr
  Zr6      1.0000 0.63482  0.51644  0.12578  Biso   1.000  Zr
  Zr7      1.0000 0.63400  0.51614  0.62518  Biso   1.000  Zr
  Zr8      1.0000 0.13216  0.23254  0.37444  Biso   1.000  Zr
  Zr9      1.0000 0.13482  0.23386  0.87874  Biso   1.000  Zr
  Zr10     1.0000 0.13334  0.73629  0.37475  Biso   1.000  Zr
  Zr11     1.0000 0.13296  0.73372  0.87611  Biso   1.000  Zr
  Zr12     1.0000 0.63376  0.23442  0.37597  Biso   1.000  Zr
  Zr13     1.0000 0.63308  0.23386  0.87486  Biso   1.000  Zr
  Zr14     1.0000 0.63486  0.73563  0.37355  Biso   1.000  Zr
  Zr15     1.0000 0.63368  0.73409  0.87572  Biso   1.000  Zr
  Zr16     1.0000 0.36649  0.26620  0.12573  Biso   1.000  Zr
  Zr17     1.0000 0.36599  0.26620  0.62565  Biso   1.000  Zr
  Zr18     1.0000 0.36368  0.76798  0.12645  Biso   1.000  Zr
  Zr19     1.0000 0.36647  0.76574  0.62520  Biso   1.000  Zr
  Zr20     1.0000 0.86729  0.26327  0.12565  Biso   1.000  Zr
  Zr21     1.0000 0.86624  0.26452  0.62627  Biso   1.000  Zr
  Zr22     1.0000 0.87046  0.76762  0.12379  Biso   1.000  Zr
  Zr23     1.0000 0.86604  0.76645  0.62531  Biso   1.000  Zr
  Zr24     1.0000 0.36644  0.48503  0.37612  Biso   1.000  Zr
  Zr25     1.0000 0.36580  0.48470  0.87543  Biso   1.000  Zr
  Zr26     1.0000 0.36472  0.98471  0.37409  Biso   1.000  Zr
  Zr27     1.0000 0.36499  0.98265  0.87730  Biso   1.000  Zr
  Zr28     1.0000 0.86623  0.48428  0.37559  Biso   1.000  Zr
  Zr29     1.0000 0.86573  0.48402  0.87572  Biso   1.000  Zr
  Zr30     1.0000 0.87091  0.98632  0.37132  Biso   1.000  Zr
  Zr31     1.0000 0.86661  0.98459  0.87619  Biso   1.000  Zr
  Zr32     1.0000 0.03427  0.17565  0.19818  Biso   1.000  Zr
  Zr33     1.0000 0.03274  0.18030  0.70384  Biso   1.000  Zr
  Zr34     1.0000 0.03610  0.68116  0.19453  Biso   1.000  Zr
  Zr35     1.0000 0.03504  0.68338  0.69442  Biso   1.000  Zr
  Zr36     1.0000 0.53361  0.18299  0.19558  Biso   1.000  Zr
  Zr37     1.0000 0.53603  0.18434  0.69302  Biso   1.000  Zr
  Zr38     1.0000 0.53625  0.68492  0.19276  Biso   1.000  Zr
  Zr39     1.0000 0.53584  0.68427  0.69417  Biso   1.000  Zr
  Zr40     1.0000 0.03374  0.06817  0.45219  Biso   1.000  Zr
  Zr41     1.0000 0.03508  0.06591  0.96116  Biso   1.000  Zr
  Zr42     1.0000 0.03544  0.56708  0.44391  Biso   1.000  Zr
  Zr43     1.0000 0.03542  0.56524  0.94569  Biso   1.000  Zr
  Zr44     1.0000 0.53465  0.06653  0.44374  Biso   1.000  Zr
  Zr45     1.0000 0.53496  0.06562  0.94420  Biso   1.000  Zr
  Zr46     1.0000 0.53619  0.56739  0.44379  Biso   1.000  Zr
  Zr47     1.0000 0.53649  0.56482  0.94296  Biso   1.000  Zr
  Zr48     1.0000 0.46445  0.43423  0.19389  Biso   1.000  Zr
  Zr49     1.0000 0.46368  0.43433  0.69393  Biso   1.000  Zr
  Zr50     1.0000 0.46504  0.93302  0.19501  Biso   1.000  Zr
  Zr51     1.0000 0.46398  0.93391  0.69414  Biso   1.000  Zr
  Zr52     1.0000 0.96699  0.42932  0.19613  Biso   1.000  Zr
  Zr53     1.0000 0.96423  0.43287  0.69451  Biso   1.000  Zr
  Zr54     1.0000 0.97329  0.93292  0.19123  Biso   1.000  Zr
  Zr55     1.0000 0.96596  0.93319  0.69747  Biso   1.000  Zr
  Zr56     1.0000 0.46439  0.31721  0.44443  Biso   1.000  Zr
  Zr57     1.0000 0.46177  0.31410  0.94341  Biso   1.000  Zr
  Zr58     1.0000 0.46373  0.81659  0.44243  Biso   1.000  Zr
  Zr59     1.0000 0.46154  0.81509  0.94429  Biso   1.000  Zr
  Zr60     1.0000 0.96501  0.31621  0.44620  Biso   1.000  Zr
  Zr61     1.0000 0.96461  0.31528  0.94510  Biso   1.000  Zr
  Zr62     1.0000 0.96544  0.81758  0.44507  Biso   1.000  Zr
  Zr63     1.0000 0.96186  0.81510  0.94068  Biso   1.000  Zr
  Zr64     1.0000 0.26412  0.11479  0.24443  Biso   1.000  Zr
  Zr65     1.0000 0.26990  0.11753  0.75034  Biso   1.000  Zr
  Zr66     1.0000 0.27060  0.61971  0.24942  Biso   1.000  Zr
  Zr67     1.0000 0.26920  0.61685  0.74887  Biso   1.000  Zr
  Zr68     1.0000 0.76762  0.11708  0.24828  Biso   1.000  Zr
  Zr69     1.0000 0.76865  0.11610  0.74883  Biso   1.000  Zr
  Zr70     1.0000 0.77081  0.61716  0.24865  Biso   1.000  Zr
  Zr71     1.0000 0.76934  0.61708  0.74893  Biso   1.000  Zr
  Zr72     1.0000 0.26994  0.13359  0.49729  Biso   1.000  Zr
  Zr73     1.0000 0.26968  0.12753  0.00193  Biso   1.000  Zr
  Zr74     1.0000 0.26918  0.63370  0.49867  Biso   1.000  Zr
  Zr75     1.0000 0.26999  0.63259  0.99918  Biso   1.000  Zr
  Zr76     1.0000 0.76979  0.13364  0.49808  Biso   1.000  Zr
  Zr77     1.0000 0.76879  0.13292  0.99827  Biso   1.000  Zr
  Zr78     1.0000 0.76965  0.63386  0.49863  Biso   1.000  Zr
  Zr79     1.0000 0.77003  0.63302  0.99876  Biso   1.000  Zr
  Zr80     1.0000 0.23031  0.38324  0.49935  Biso   1.000  Zr
  Zr81     1.0000 0.22986  0.38178  0.99978  Biso   1.000  Zr
  Zr82     1.0000 0.23066  0.88350  0.49935  Biso   1.000  Zr
  Zr83     1.0000 0.22457  0.88340  0.00262  Biso   1.000  Zr
  Zr84     1.0000 0.73055  0.38329  0.49917  Biso   1.000  Zr
  Zr85     1.0000 0.73011  0.38205  0.99908  Biso   1.000  Zr
  Zr86     1.0000 0.73182  0.88448  0.49633  Biso   1.000  Zr
  Zr87     1.0000 0.72951  0.88350  0.99719  Biso   1.000  Zr
  Zr88     1.0000 0.23156  0.36705  0.24984  Biso   1.000  Zr
  Zr89     1.0000 0.22945  0.36638  0.75012  Biso   1.000  Zr
  Zr90     1.0000 0.22562  0.87371  0.24699  Biso   1.000  Zr
  Zr91     1.0000 0.23098  0.86637  0.75031  Biso   1.000  Zr
  Zr92     1.0000 0.73118  0.36665  0.24875  Biso   1.000  Zr
  Zr93     1.0000 0.73036  0.36665  0.74880  Biso   1.000  Zr
  Zr94     1.0000 0.73530  0.86794  0.24646  Biso   1.000  Zr
  Zr95     1.0000 0.73040  0.86737  0.74826  Biso   1.000  Zr
