data_image0
_cell_length_a       10.1419
_cell_length_b       5.20731
_cell_length_c       10.1418
_cell_angle_alpha    90.1041
_cell_angle_beta     89.0555
_cell_angle_gamma    89.9164

_symmetry_space_group_name_H-M    "P 1"
_symmetry_int_tables_number       1

loop_
  _symmetry_equiv_pos_as_xyz
  'x, y, z'

loop_
  _atom_site_label
  _atom_site_occupancy
  _atom_site_fract_x
  _atom_site_fract_y
  _atom_site_fract_z
  _atom_site_thermal_displace_type
  _atom_site_B_iso_or_equiv
  _atom_site_type_symbol
  Zr1      1.0000 0.12973  0.87729  0.12108  Biso   1.000  Zr
  Zr2      1.0000 0.13602  0.50745  0.39500  Biso   1.000  Zr
  Zr3      1.0000 0.37994  0.51292  0.12825  Biso   1.000  Zr
  Zr4      1.0000 0.38146  0.01667  0.38103  Biso   1.000  Zr
  Zr5      1.0000 0.98445  0.31580  0.98698  Biso   1.000  Zr
  Zr6      1.0000 0.00517  0.08676  0.24683  Biso   1.000  Zr
  Zr7      1.0000 0.00244  0.60600  0.24823  Biso   1.000  Zr
  Zr8      1.0000 0.98924  0.80298  0.98808  Biso   1.000  Zr
  Zr9      1.0000 0.26376  0.31571  0.26603  Biso   1.000  Zr
  Zr10     1.0000 0.23788  0.17097  0.01234  Biso   1.000  Zr
  Zr11     1.0000 0.27521  0.69961  0.97553  Biso   1.000  Zr
  Zr12     1.0000 0.26308  0.80272  0.26112  Biso   1.000  Zr
  Zr13     1.0000 0.12304  0.00310  0.62582  Biso   1.000  Zr
  Zr14     1.0000 0.12253  0.51259  0.87088  Biso   1.000  Zr
  Zr15     1.0000 0.37558  0.51263  0.63339  Biso   1.000  Zr
  Zr16     1.0000 0.37184  0.01159  0.87880  Biso   1.000  Zr
  Zr17     1.0000 0.99615  0.29617  0.49603  Biso   1.000  Zr
  Zr18     1.0000 0.99999  0.21856  0.74514  Biso   1.000  Zr
  Zr19     1.0000 0.99713  0.71913  0.74467  Biso   1.000  Zr
  Zr20     1.0000 0.00687  0.79736  0.49624  Biso   1.000  Zr
  Zr21     1.0000 0.25596  0.30204  0.75848  Biso   1.000  Zr
  Zr22     1.0000 0.24988  0.22059  0.50869  Biso   1.000  Zr
  Zr23     1.0000 0.25879  0.72386  0.50594  Biso   1.000  Zr
  Zr24     1.0000 0.24635  0.80828  0.74676  Biso   1.000  Zr
  Zr25     1.0000 0.62498  0.00327  0.12764  Biso   1.000  Zr
  Zr26     1.0000 0.62714  0.51046  0.37554  Biso   1.000  Zr
  Zr27     1.0000 0.85562  0.50824  0.11446  Biso   1.000  Zr
  Zr28     1.0000 0.87030  0.00368  0.38054  Biso   1.000  Zr
  Zr29     1.0000 0.49200  0.30221  0.99466  Biso   1.000  Zr
  Zr30     1.0000 0.50568  0.21864  0.25069  Biso   1.000  Zr
  Zr31     1.0000 0.50640  0.71906  0.25349  Biso   1.000  Zr
  Zr32     1.0000 0.50387  0.80856  0.00435  Biso   1.000  Zr
  Zr33     1.0000 0.75508  0.29637  0.25456  Biso   1.000  Zr
  Zr34     1.0000 0.74186  0.22108  0.00082  Biso   1.000  Zr
  Zr35     1.0000 0.74453  0.72431  0.99180  Biso   1.000  Zr
  Zr36     1.0000 0.75471  0.79784  0.24372  Biso   1.000  Zr
  Zr37     1.0000 0.62380  0.01807  0.62690  Biso   1.000  Zr
  Zr38     1.0000 0.61715  0.51265  0.87502  Biso   1.000  Zr
  Zr39     1.0000 0.87515  0.51065  0.62371  Biso   1.000  Zr
  Zr40     1.0000 0.86965  0.01676  0.86930  Biso   1.000  Zr
  Zr41     1.0000 0.49732  0.31610  0.49894  Biso   1.000  Zr
  Zr42     1.0000 0.50237  0.22414  0.74827  Biso   1.000  Zr
  Zr43     1.0000 0.49591  0.72439  0.75473  Biso   1.000  Zr
  Zr44     1.0000 0.50706  0.81381  0.50238  Biso   1.000  Zr
  Zr45     1.0000 0.75170  0.31612  0.75343  Biso   1.000  Zr
  Zr46     1.0000 0.74725  0.22053  0.50348  Biso   1.000  Zr
  Zr47     1.0000 0.75667  0.71383  0.49403  Biso   1.000  Zr
  Zr48     1.0000 0.74829  0.81385  0.74358  Biso   1.000  Zr
  Ru1      1.0000 0.11656  0.36340  0.13403  Biso   1.000  Ru
