data_image0
_cell_length_a       5.00559
_cell_length_b       10.3831
_cell_length_c       10.0328
_cell_angle_alpha    89.7638
_cell_angle_beta     89.8196
_cell_angle_gamma    90.042

_symmetry_space_group_name_H-M    "P 1"
_symmetry_int_tables_number       1

loop_
  _symmetry_equiv_pos_as_xyz
  'x, y, z'

loop_
  _atom_site_label
  _atom_site_occupancy
  _atom_site_fract_x
  _atom_site_fract_y
  _atom_site_fract_z
  _atom_site_thermal_displace_type
  _atom_site_B_iso_or_equiv
  _atom_site_type_symbol
  Ru1      1.0000 0.27363  0.02058  0.11911  Biso   1.000  Ru
  Zr1      1.0000 0.26885  0.01518  0.62558  Biso   1.000  Zr
  Zr2      1.0000 0.27128  0.51627  0.12690  Biso   1.000  Zr
  Zr3      1.0000 0.26729  0.51626  0.62473  Biso   1.000  Zr
  Zr4      1.0000 0.26456  0.23278  0.37476  Biso   1.000  Zr
  Zr5      1.0000 0.26854  0.23355  0.87787  Biso   1.000  Zr
  Zr6      1.0000 0.26894  0.73775  0.37270  Biso   1.000  Zr
  Zr7      1.0000 0.26541  0.73357  0.87628  Biso   1.000  Zr
  Zr8      1.0000 0.73514  0.26362  0.12569  Biso   1.000  Zr
  Zr9      1.0000 0.73251  0.26509  0.62613  Biso   1.000  Zr
  Zr10     1.0000 0.73575  0.76984  0.12483  Biso   1.000  Zr
  Zr11     1.0000 0.73272  0.76659  0.62485  Biso   1.000  Zr
  Zr12     1.0000 0.73330  0.48509  0.37599  Biso   1.000  Zr
  Zr13     1.0000 0.73088  0.48445  0.87546  Biso   1.000  Zr
  Zr14     1.0000 0.73956  0.98690  0.36954  Biso   1.000  Zr
  Zr15     1.0000 0.73060  0.98303  0.87779  Biso   1.000  Zr
  Zr16     1.0000 0.06374  0.17402  0.19937  Biso   1.000  Zr
  Zr17     1.0000 0.06678  0.18108  0.70218  Biso   1.000  Zr
  Zr18     1.0000 0.07270  0.68195  0.19315  Biso   1.000  Zr
  Zr19     1.0000 0.07034  0.68389  0.69439  Biso   1.000  Zr
  Zr20     1.0000 0.06574  0.06857  0.45156  Biso   1.000  Zr
  Zr21     1.0000 0.06850  0.06558  0.96091  Biso   1.000  Zr
  Zr22     1.0000 0.07176  0.56836  0.44357  Biso   1.000  Zr
  Zr23     1.0000 0.07250  0.56386  0.94432  Biso   1.000  Zr
  Zr24     1.0000 0.93467  0.42938  0.19584  Biso   1.000  Zr
  Zr25     1.0000 0.92744  0.43343  0.69412  Biso   1.000  Zr
  Zr26     1.0000 0.94774  0.93183  0.19154  Biso   1.000  Zr
  Zr27     1.0000 0.93153  0.93333  0.69740  Biso   1.000  Zr
  Zr28     1.0000 0.93065  0.31733  0.44627  Biso   1.000  Zr
  Zr29     1.0000 0.92458  0.31331  0.94423  Biso   1.000  Zr
  Zr30     1.0000 0.92995  0.81823  0.44310  Biso   1.000  Zr
  Zr31     1.0000 0.91832  0.81408  0.94094  Biso   1.000  Zr
  Zr32     1.0000 0.52412  0.11485  0.24325  Biso   1.000  Zr
  Zr33     1.0000 0.53842  0.11669  0.74982  Biso   1.000  Zr
  Zr34     1.0000 0.54342  0.61973  0.24898  Biso   1.000  Zr
  Zr35     1.0000 0.53796  0.61699  0.74872  Biso   1.000  Zr
  Zr36     1.0000 0.54065  0.13437  0.49596  Biso   1.000  Zr
  Zr37     1.0000 0.53792  0.12759  0.00070  Biso   1.000  Zr
  Zr38     1.0000 0.53848  0.63471  0.49825  Biso   1.000  Zr
  Zr39     1.0000 0.54071  0.63264  0.99889  Biso   1.000  Zr
  Zr40     1.0000 0.46123  0.38361  0.49938  Biso   1.000  Zr
  Zr41     1.0000 0.45948  0.38075  0.99983  Biso   1.000  Zr
  Zr42     1.0000 0.46453  0.88515  0.49664  Biso   1.000  Zr
  Zr43     1.0000 0.44722  0.88418  0.00083  Biso   1.000  Zr
  Zr44     1.0000 0.46480  0.36658  0.24947  Biso   1.000  Zr
  Zr45     1.0000 0.45917  0.36611  0.74981  Biso   1.000  Zr
  Zr46     1.0000 0.46075  0.87437  0.24446  Biso   1.000  Zr
  Zr47     1.0000 0.46203  0.86675  0.74964  Biso   1.000  Zr
