data_image0
_cell_length_a       10.0528
_cell_length_b       10.0527
_cell_length_c       5.04329
_cell_angle_alpha    89.9993
_cell_angle_beta     89.9996
_cell_angle_gamma    90.0009

_symmetry_space_group_name_H-M    "P 1"
_symmetry_int_tables_number       1

loop_
  _symmetry_equiv_pos_as_xyz
  'x, y, z'

loop_
  _atom_site_label
  _atom_site_occupancy
  _atom_site_fract_x
  _atom_site_fract_y
  _atom_site_fract_z
  _atom_site_thermal_displace_type
  _atom_site_B_iso_or_equiv
  _atom_site_type_symbol
  Ru1      1.0000 0.12523  0.99995  0.24998  Biso   1.000  Ru
  Zr1      1.0000 0.12523  0.49996  0.24998  Biso   1.000  Zr
  Zr2      1.0000 0.62523  0.99996  0.24997  Biso   1.000  Zr
  Zr3      1.0000 0.62523  0.49995  0.24997  Biso   1.000  Zr
  Zr4      1.0000 0.12523  0.24695  0.74998  Biso   1.000  Zr
  Zr5      1.0000 0.12523  0.75296  0.74997  Biso   1.000  Zr
  Zr6      1.0000 0.62523  0.25057  0.74998  Biso   1.000  Zr
  Zr7      1.0000 0.62523  0.74934  0.74997  Biso   1.000  Zr
  Zr8      1.0000 0.37413  0.24885  0.24937  Biso   1.000  Zr
  Zr9      1.0000 0.37413  0.75106  0.25058  Biso   1.000  Zr
  Zr10     1.0000 0.87634  0.24886  0.25059  Biso   1.000  Zr
  Zr11     1.0000 0.87633  0.75106  0.24937  Biso   1.000  Zr
  Zr12     1.0000 0.37222  0.99995  0.74998  Biso   1.000  Zr
  Zr13     1.0000 0.37584  0.49996  0.74998  Biso   1.000  Zr
  Zr14     1.0000 0.87824  0.99996  0.74997  Biso   1.000  Zr
  Zr15     1.0000 0.87462  0.49996  0.74999  Biso   1.000  Zr
  Zr16     1.0000 0.99435  0.13083  0.98145  Biso   1.000  Zr
  Zr17     1.0000 0.98957  0.63729  0.96904  Biso   1.000  Zr
  Zr18     1.0000 0.48790  0.13561  0.96903  Biso   1.000  Zr
  Zr19     1.0000 0.49007  0.63511  0.97294  Biso   1.000  Zr
  Zr20     1.0000 0.01084  0.11436  0.47280  Biso   1.000  Zr
  Zr21     1.0000 0.00727  0.61791  0.47465  Biso   1.000  Zr
  Zr22     1.0000 0.50729  0.11794  0.47465  Biso   1.000  Zr
  Zr23     1.0000 0.50749  0.61772  0.47644  Biso   1.000  Zr
  Zr24     1.0000 0.98957  0.36263  0.53094  Biso   1.000  Zr
  Zr25     1.0000 0.99435  0.86908  0.51850  Biso   1.000  Zr
  Zr26     1.0000 0.49008  0.36481  0.52701  Biso   1.000  Zr
  Zr27     1.0000 0.48789  0.86430  0.53091  Biso   1.000  Zr
  Zr28     1.0000 0.00726  0.38200  0.02532  Biso   1.000  Zr
  Zr29     1.0000 0.01084  0.88556  0.02715  Biso   1.000  Zr
  Zr30     1.0000 0.50748  0.38220  0.02349  Biso   1.000  Zr
  Zr31     1.0000 0.50729  0.88199  0.02529  Biso   1.000  Zr
  Zr32     1.0000 0.25611  0.13084  0.51851  Biso   1.000  Zr
  Zr33     1.0000 0.26089  0.63729  0.53091  Biso   1.000  Zr
  Zr34     1.0000 0.76257  0.13562  0.53094  Biso   1.000  Zr
  Zr35     1.0000 0.76039  0.63511  0.52702  Biso   1.000  Zr
  Zr36     1.0000 0.23963  0.11435  0.02716  Biso   1.000  Zr
  Zr37     1.0000 0.24320  0.61790  0.02529  Biso   1.000  Zr
  Zr38     1.0000 0.74317  0.11794  0.02532  Biso   1.000  Zr
  Zr39     1.0000 0.74298  0.61772  0.02351  Biso   1.000  Zr
  Zr40     1.0000 0.26089  0.36262  0.96903  Biso   1.000  Zr
  Zr41     1.0000 0.25611  0.86907  0.98146  Biso   1.000  Zr
  Zr42     1.0000 0.76038  0.36481  0.97297  Biso   1.000  Zr
  Zr43     1.0000 0.76257  0.86430  0.96903  Biso   1.000  Zr
  Zr44     1.0000 0.24320  0.38201  0.47465  Biso   1.000  Zr
  Zr45     1.0000 0.23963  0.88556  0.47282  Biso   1.000  Zr
  Zr46     1.0000 0.74298  0.38220  0.47646  Biso   1.000  Zr
  Zr47     1.0000 0.74317  0.88199  0.47465  Biso   1.000  Zr
