data_image0
_cell_length_a       5.09574
_cell_length_b       10.3678
_cell_length_c       10.5126
_cell_angle_alpha    90.048
_cell_angle_beta     80.6279
_cell_angle_gamma    89.869

_symmetry_space_group_name_H-M    "P 1"
_symmetry_int_tables_number       1

loop_
  _symmetry_equiv_pos_as_xyz
  'x, y, z'

loop_
  _atom_site_label
  _atom_site_occupancy
  _atom_site_fract_x
  _atom_site_fract_y
  _atom_site_fract_z
  _atom_site_thermal_displace_type
  _atom_site_B_iso_or_equiv
  _atom_site_type_symbol
  Sb1      1.0000 0.25935  0.01919  0.15084  Biso   1.000  Sb
  Zr1      1.0000 0.27708  0.02130  0.64583  Biso   1.000  Zr
  Zr2      1.0000 0.27610  0.52055  0.14474  Biso   1.000  Zr
  Zr3      1.0000 0.27901  0.52137  0.64581  Biso   1.000  Zr
  Zr4      1.0000 0.27865  0.23037  0.39608  Biso   1.000  Zr
  Zr5      1.0000 0.28259  0.22912  0.89381  Biso   1.000  Zr
  Zr6      1.0000 0.27435  0.72667  0.39616  Biso   1.000  Zr
  Zr7      1.0000 0.27920  0.72980  0.89450  Biso   1.000  Zr
  Zr8      1.0000 0.72049  0.27063  0.10410  Biso   1.000  Zr
  Zr9      1.0000 0.72402  0.27157  0.60453  Biso   1.000  Zr
  Zr10     1.0000 0.72123  0.76845  0.10334  Biso   1.000  Zr
  Zr11     1.0000 0.72237  0.77140  0.60509  Biso   1.000  Zr
  Zr12     1.0000 0.72157  0.47839  0.35387  Biso   1.000  Zr
  Zr13     1.0000 0.72594  0.47850  0.85478  Biso   1.000  Zr
  Zr14     1.0000 0.71187  0.97777  0.35804  Biso   1.000  Zr
  Zr15     1.0000 0.72441  0.97997  0.85467  Biso   1.000  Zr
  O1       1.0000 0.07654  0.17196  0.08037  Biso   1.000  O
  O2       1.0000 0.07212  0.16952  0.57963  Biso   1.000  O
  O3       1.0000 0.07396  0.67123  0.08091  Biso   1.000  O
  O4       1.0000 0.07079  0.66893  0.58088  Biso   1.000  O
  O5       1.0000 0.06955  0.07867  0.33248  Biso   1.000  O
  O6       1.0000 0.07515  0.08056  0.83006  Biso   1.000  O
  O7       1.0000 0.06999  0.57960  0.33027  Biso   1.000  O
  O8       1.0000 0.07341  0.58044  0.83035  Biso   1.000  O
  O9       1.0000 0.92658  0.42010  0.16923  Biso   1.000  O
  O10      1.0000 0.93148  0.41891  0.66988  Biso   1.000  O
  O11      1.0000 0.91294  0.92248  0.16998  Biso   1.000  O
  O12      1.0000 0.92893  0.91957  0.66951  Biso   1.000  O
  O13      1.0000 0.92814  0.33029  0.41939  Biso   1.000  O
  O14      1.0000 0.93327  0.33165  0.92058  Biso   1.000  O
  O15      1.0000 0.92678  0.83026  0.41972  Biso   1.000  O
  O16      1.0000 0.93089  0.83087  0.91995  Biso   1.000  O
  O17      1.0000 0.55208  0.13031  0.24261  Biso   1.000  O
  O18      1.0000 0.55340  0.12927  0.73841  Biso   1.000  O
  O19      1.0000 0.54998  0.62734  0.24017  Biso   1.000  O
  O20      1.0000 0.55319  0.62918  0.74030  Biso   1.000  O
  O21      1.0000 0.55178  0.12097  0.49091  Biso   1.000  O
  O22      1.0000 0.56360  0.12605  0.98448  Biso   1.000  O
  O23      1.0000 0.55131  0.62053  0.49060  Biso   1.000  O
  O24      1.0000 0.55285  0.62087  0.99026  Biso   1.000  O
  O25      1.0000 0.45033  0.38008  0.00891  Biso   1.000  O
  O26      1.0000 0.44842  0.37868  0.50916  Biso   1.000  O
  O27      1.0000 0.45332  0.87719  0.00640  Biso   1.000  O
  O28      1.0000 0.44544  0.87840  0.51047  Biso   1.000  O
  O29      1.0000 0.44612  0.37125  0.25897  Biso   1.000  O
  O30      1.0000 0.45192  0.37149  0.75889  Biso   1.000  O
  O31      1.0000 0.44804  0.86692  0.26132  Biso   1.000  O
  O32      1.0000 0.44944  0.87138  0.75877  Biso   1.000  O
