data_image0
_cell_length_a       10.1576
_cell_length_b       5.15254
_cell_length_c       10.4014
_cell_angle_alpha    89.9992
_cell_angle_beta     91.5892
_cell_angle_gamma    89.9981

_symmetry_space_group_name_H-M    "P 1"
_symmetry_int_tables_number       1

loop_
  _symmetry_equiv_pos_as_xyz
  'x, y, z'

loop_
  _atom_site_label
  _atom_site_occupancy
  _atom_site_fract_x
  _atom_site_fract_y
  _atom_site_fract_z
  _atom_site_thermal_displace_type
  _atom_site_B_iso_or_equiv
  _atom_site_type_symbol
  Zr1      1.0000 0.12482  0.14279  0.12468  Biso   1.000  Zr
  Zr2      1.0000 0.12081  0.51835  0.40423  Biso   1.000  Zr
  Zr3      1.0000 0.39599  0.48063  0.09526  Biso   1.000  Zr
  Zr4      1.0000 0.36130  0.00577  0.37740  Biso   1.000  Zr
  Zr5      1.0000 0.00313  0.33199  0.97836  Biso   1.000  Zr
  Zr6      1.0000 0.95618  0.14313  0.22482  Biso   1.000  Zr
  Zr7      1.0000 0.94218  0.64231  0.31362  Biso   1.000  Zr
  Zr8      1.0000 0.06767  0.86752  0.96014  Biso   1.000  Zr
  Zr9      1.0000 0.24650  0.33191  0.27101  Biso   1.000  Zr
  Zr10     1.0000 0.29343  0.14314  0.02453  Biso   1.000  Zr
  Zr11     1.0000 0.30742  0.64232  0.93575  Biso   1.000  Zr
  Zr12     1.0000 0.18194  0.86746  0.28920  Biso   1.000  Zr
  Zr13     1.0000 0.12480  0.00769  0.62468  Biso   1.000  Zr
  Zr14     1.0000 0.12881  0.51837  0.84512  Biso   1.000  Zr
  Zr15     1.0000 0.38067  0.48469  0.62949  Biso   1.000  Zr
  Zr16     1.0000 0.38551  0.98046  0.86471  Biso   1.000  Zr
  Zr17     1.0000 0.98989  0.26070  0.48818  Biso   1.000  Zr
  Zr18     1.0000 0.00815  0.23448  0.73412  Biso   1.000  Zr
  Zr19     1.0000 0.98867  0.72789  0.75238  Biso   1.000  Zr
  Zr20     1.0000 0.99996  0.76786  0.52424  Biso   1.000  Zr
  Zr21     1.0000 0.25973  0.26072  0.76117  Biso   1.000  Zr
  Zr22     1.0000 0.24148  0.23446  0.51524  Biso   1.000  Zr
  Zr23     1.0000 0.26095  0.72786  0.49697  Biso   1.000  Zr
  Zr24     1.0000 0.24966  0.76789  0.72512  Biso   1.000  Zr
  Zr25     1.0000 0.62483  0.02433  0.12466  Biso   1.000  Zr
  Zr26     1.0000 0.59577  0.51616  0.36648  Biso   1.000  Zr
  Zr27     1.0000 0.85362  0.48065  0.15409  Biso   1.000  Zr
  Zr28     1.0000 0.86411  0.98047  0.38464  Biso   1.000  Zr
  Zr29     1.0000 0.51810  0.26086  0.97155  Biso   1.000  Zr
  Zr30     1.0000 0.49303  0.22521  0.23011  Biso   1.000  Zr
  Zr31     1.0000 0.45308  0.72321  0.25784  Biso   1.000  Zr
  Zr32     1.0000 0.53259  0.75352  0.01145  Biso   1.000  Zr
  Zr33     1.0000 0.73152  0.26083  0.27780  Biso   1.000  Zr
  Zr34     1.0000 0.75660  0.22529  0.01923  Biso   1.000  Zr
  Zr35     1.0000 0.79651  0.72331  0.99153  Biso   1.000  Zr
  Zr36     1.0000 0.71699  0.75348  0.23790  Biso   1.000  Zr
  Zr37     1.0000 0.62479  0.97312  0.62466  Biso   1.000  Zr
  Zr38     1.0000 0.65384  0.51622  0.88287  Biso   1.000  Zr
  Zr39     1.0000 0.86894  0.48471  0.61985  Biso   1.000  Zr
  Zr40     1.0000 0.88831  0.00582  0.87195  Biso   1.000  Zr
  Zr41     1.0000 0.48370  0.28403  0.47929  Biso   1.000  Zr
  Zr42     1.0000 0.49728  0.18749  0.72283  Biso   1.000  Zr
  Zr43     1.0000 0.50727  0.69026  0.75742  Biso   1.000  Zr
  Zr44     1.0000 0.49810  0.78163  0.50187  Biso   1.000  Zr
  Zr45     1.0000 0.76594  0.28412  0.77007  Biso   1.000  Zr
  Zr46     1.0000 0.75233  0.18751  0.52653  Biso   1.000  Zr
  Zr47     1.0000 0.74234  0.69029  0.49193  Biso   1.000  Zr
  Zr48     1.0000 0.75150  0.78171  0.74748  Biso   1.000  Zr
  Sb1      1.0000 0.12478  0.64704  0.12467  Biso   1.000  Sb
