data_image0
_cell_length_a       10.1304
_cell_length_b       10.1304
_cell_length_c       5.11151
_cell_angle_alpha    90.0003
_cell_angle_beta     90.0001
_cell_angle_gamma    90

_symmetry_space_group_name_H-M    "P 1"
_symmetry_int_tables_number       1

loop_
  _symmetry_equiv_pos_as_xyz
  'x, y, z'

loop_
  _atom_site_label
  _atom_site_occupancy
  _atom_site_fract_x
  _atom_site_fract_y
  _atom_site_fract_z
  _atom_site_thermal_displace_type
  _atom_site_B_iso_or_equiv
  _atom_site_type_symbol
  Zr1      1.0000 0.12543  0.98234  0.25079  Biso   1.000  Zr
  Zr2      1.0000 0.12543  0.25007  0.75079  Biso   1.000  Zr
  Zr3      1.0000 0.39316  0.25007  0.25079  Biso   1.000  Zr
  Zr4      1.0000 0.37012  0.00539  0.74849  Biso   1.000  Zr
  Zr5      1.0000 0.00246  0.12710  0.98758  Biso   1.000  Zr
  Zr6      1.0000 0.99729  0.12194  0.47513  Biso   1.000  Zr
  Zr7      1.0000 0.00246  0.37305  0.51400  Biso   1.000  Zr
  Zr8      1.0000 0.99729  0.37821  0.02645  Biso   1.000  Zr
  Zr9      1.0000 0.24840  0.12710  0.51400  Biso   1.000  Zr
  Zr10     1.0000 0.25357  0.12194  0.02645  Biso   1.000  Zr
  Zr11     1.0000 0.24840  0.37305  0.98759  Biso   1.000  Zr
  Zr12     1.0000 0.25357  0.37821  0.47513  Biso   1.000  Zr
  Zr13     1.0000 0.12543  0.51781  0.25080  Biso   1.000  Zr
  Zr14     1.0000 0.12543  0.75008  0.75079  Biso   1.000  Zr
  Zr15     1.0000 0.38030  0.75007  0.25079  Biso   1.000  Zr
  Zr16     1.0000 0.37012  0.49476  0.75309  Biso   1.000  Zr
  Zr17     1.0000 0.00518  0.62710  0.96787  Biso   1.000  Zr
  Zr18     1.0000 0.99259  0.62536  0.47242  Biso   1.000  Zr
  Zr19     1.0000 0.00518  0.87305  0.53371  Biso   1.000  Zr
  Zr20     1.0000 0.99259  0.87479  0.02917  Biso   1.000  Zr
  Zr21     1.0000 0.24568  0.62710  0.53372  Biso   1.000  Zr
  Zr22     1.0000 0.25827  0.62536  0.02917  Biso   1.000  Zr
  Zr23     1.0000 0.24568  0.87305  0.96787  Biso   1.000  Zr
  Zr24     1.0000 0.25827  0.87479  0.47241  Biso   1.000  Zr
  Zr25     1.0000 0.62543  0.99522  0.25079  Biso   1.000  Zr
  Zr26     1.0000 0.62543  0.25008  0.75079  Biso   1.000  Zr
  Zr27     1.0000 0.85770  0.25007  0.25079  Biso   1.000  Zr
  Zr28     1.0000 0.88074  0.00539  0.75309  Biso   1.000  Zr
  Zr29     1.0000 0.50247  0.12983  0.96787  Biso   1.000  Zr
  Zr30     1.0000 0.50070  0.11722  0.47242  Biso   1.000  Zr
  Zr31     1.0000 0.50246  0.37032  0.53371  Biso   1.000  Zr
  Zr32     1.0000 0.50070  0.38293  0.02916  Biso   1.000  Zr
  Zr33     1.0000 0.74839  0.12983  0.53371  Biso   1.000  Zr
  Zr34     1.0000 0.75015  0.11722  0.02916  Biso   1.000  Zr
  Zr35     1.0000 0.74839  0.37032  0.96788  Biso   1.000  Zr
  Zr36     1.0000 0.75016  0.38292  0.47243  Biso   1.000  Zr
  Zr37     1.0000 0.62543  0.50493  0.25079  Biso   1.000  Zr
  Zr38     1.0000 0.62543  0.75007  0.75079  Biso   1.000  Zr
  Zr39     1.0000 0.87056  0.75007  0.25079  Biso   1.000  Zr
  Zr40     1.0000 0.88074  0.49476  0.74849  Biso   1.000  Zr
  Zr41     1.0000 0.50423  0.62889  0.96370  Biso   1.000  Zr
  Zr42     1.0000 0.49420  0.61883  0.46307  Biso   1.000  Zr
  Zr43     1.0000 0.50423  0.87126  0.53788  Biso   1.000  Zr
  Zr44     1.0000 0.49420  0.88131  0.03852  Biso   1.000  Zr
  Zr45     1.0000 0.74663  0.62889  0.53788  Biso   1.000  Zr
  Zr46     1.0000 0.75666  0.61884  0.03852  Biso   1.000  Zr
  Zr47     1.0000 0.74663  0.87126  0.96370  Biso   1.000  Zr
  Zr48     1.0000 0.75666  0.88131  0.46307  Biso   1.000  Zr
  Sc1      1.0000 0.12543  0.25008  0.25079  Biso   1.000  Sc
