data_image0
_cell_length_a       10.1188
_cell_length_b       5.14134
_cell_length_c       10.4903
_cell_angle_alpha    89.9593
_cell_angle_beta     89.9635
_cell_angle_gamma    90.0142

_symmetry_space_group_name_H-M    "P 1"
_symmetry_int_tables_number       1

loop_
  _symmetry_equiv_pos_as_xyz
  'x, y, z'

loop_
  _atom_site_label
  _atom_site_occupancy
  _atom_site_fract_x
  _atom_site_fract_y
  _atom_site_fract_z
  _atom_site_thermal_displace_type
  _atom_site_B_iso_or_equiv
  _atom_site_type_symbol
  Sc1      1.0000 0.13952  0.03929  0.17359  Biso   1.000  Sc
  Zr1      1.0000 0.13949  0.04223  0.67181  Biso   1.000  Zr
  Zr2      1.0000 0.14047  0.45685  0.41939  Biso   1.000  Zr
  Zr3      1.0000 0.14059  0.45660  0.92482  Biso   1.000  Zr
  Zr4      1.0000 0.35692  0.53936  0.17173  Biso   1.000  Zr
  Zr5      1.0000 0.36040  0.54295  0.67182  Biso   1.000  Zr
  Zr6      1.0000 0.35911  0.95890  0.41972  Biso   1.000  Zr
  Zr7      1.0000 0.35871  0.95822  0.92399  Biso   1.000  Zr
  Zr8      1.0000 0.63887  0.04106  0.07852  Biso   1.000  Zr
  Zr9      1.0000 0.63876  0.04168  0.57764  Biso   1.000  Zr
  Zr10     1.0000 0.63883  0.46005  0.32763  Biso   1.000  Zr
  Zr11     1.0000 0.63862  0.45818  0.82877  Biso   1.000  Zr
  Zr12     1.0000 0.86302  0.54161  0.07886  Biso   1.000  Zr
  Zr13     1.0000 0.86071  0.54159  0.57781  Biso   1.000  Zr
  Zr14     1.0000 0.86303  0.96023  0.32670  Biso   1.000  Zr
  Zr15     1.0000 0.86059  0.95820  0.82862  Biso   1.000  Zr
  O1       1.0000 0.03196  0.32860  0.08429  Biso   1.000  O
  O2       1.0000 0.03232  0.33114  0.58436  Biso   1.000  O
  O3       1.0000 0.03155  0.17301  0.33474  Biso   1.000  O
  O4       1.0000 0.03170  0.16989  0.83408  Biso   1.000  O
  O5       1.0000 0.46909  0.82532  0.08346  Biso   1.000  O
  O6       1.0000 0.46791  0.82873  0.58296  Biso   1.000  O
  O7       1.0000 0.46869  0.67371  0.33284  Biso   1.000  O
  O8       1.0000 0.46798  0.67187  0.83344  Biso   1.000  O
  O9       1.0000 0.27723  0.24894  0.29723  Biso   1.000  O
  O10      1.0000 0.27487  0.24891  0.79580  Biso   1.000  O
  O11      1.0000 0.27698  0.25118  0.04535  Biso   1.000  O
  O12      1.0000 0.27538  0.25184  0.54608  Biso   1.000  O
  O13      1.0000 0.22473  0.74664  0.29594  Biso   1.000  O
  O14      1.0000 0.22460  0.74907  0.79540  Biso   1.000  O
  O15      1.0000 0.22610  0.74829  0.04491  Biso   1.000  O
  O16      1.0000 0.22437  0.75240  0.54562  Biso   1.000  O
  O17      1.0000 0.53150  0.32779  0.16673  Biso   1.000  O
  O18      1.0000 0.53175  0.32907  0.66655  Biso   1.000  O
  O19      1.0000 0.53184  0.17199  0.41632  Biso   1.000  O
  O20      1.0000 0.53165  0.17090  0.91691  Biso   1.000  O
  O21      1.0000 0.96775  0.82929  0.16582  Biso   1.000  O
  O22      1.0000 0.96741  0.83123  0.66530  Biso   1.000  O
  O23      1.0000 0.96816  0.67067  0.41564  Biso   1.000  O
  O24      1.0000 0.96811  0.66965  0.91535  Biso   1.000  O
  O25      1.0000 0.77506  0.24765  0.95408  Biso   1.000  O
  O26      1.0000 0.77484  0.25063  0.45434  Biso   1.000  O
  O27      1.0000 0.77483  0.25209  0.20427  Biso   1.000  O
  O28      1.0000 0.77498  0.25128  0.70428  Biso   1.000  O
  O29      1.0000 0.72480  0.74808  0.95403  Biso   1.000  O
  O30      1.0000 0.72531  0.75044  0.45411  Biso   1.000  O
  O31      1.0000 0.72434  0.75172  0.20416  Biso   1.000  O
  O32      1.0000 0.72460  0.75099  0.70416  Biso   1.000  O
