data_image0
_cell_length_a       5.02146
_cell_length_b       10.1885
_cell_length_c       10.0474
_cell_angle_alpha    89.9995
_cell_angle_beta     89.9999
_cell_angle_gamma    89.9977

_symmetry_space_group_name_H-M    "P 1"
_symmetry_int_tables_number       1

loop_
  _symmetry_equiv_pos_as_xyz
  'x, y, z'

loop_
  _atom_site_label
  _atom_site_occupancy
  _atom_site_fract_x
  _atom_site_fract_y
  _atom_site_fract_z
  _atom_site_thermal_displace_type
  _atom_site_B_iso_or_equiv
  _atom_site_type_symbol
  Sc1      1.0000 0.25062  0.00005  0.12486  Biso   1.000  Sc
  Zr1      1.0000 0.25063  0.00006  0.62486  Biso   1.000  Zr
  Zr2      1.0000 0.25063  0.50006  0.12486  Biso   1.000  Zr
  Zr3      1.0000 0.25063  0.50006  0.62486  Biso   1.000  Zr
  Zr4      1.0000 0.25025  0.24869  0.37318  Biso   1.000  Zr
  Zr5      1.0000 0.25102  0.24869  0.87656  Biso   1.000  Zr
  Zr6      1.0000 0.25102  0.75143  0.37318  Biso   1.000  Zr
  Zr7      1.0000 0.25024  0.75143  0.87656  Biso   1.000  Zr
  Zr8      1.0000 0.75064  0.24773  0.12487  Biso   1.000  Zr
  Zr9      1.0000 0.75063  0.24954  0.62487  Biso   1.000  Zr
  Zr10     1.0000 0.75063  0.75238  0.12487  Biso   1.000  Zr
  Zr11     1.0000 0.75063  0.75058  0.62487  Biso   1.000  Zr
  Zr12     1.0000 0.75063  0.00006  0.37076  Biso   1.000  Zr
  Zr13     1.0000 0.75062  0.00006  0.87897  Biso   1.000  Zr
  Zr14     1.0000 0.75063  0.50006  0.37460  Biso   1.000  Zr
  Zr15     1.0000 0.75063  0.50006  0.87511  Biso   1.000  Zr
  Zr16     1.0000 0.99593  0.14221  0.99759  Biso   1.000  Zr
  Zr17     1.0000 0.00171  0.14384  0.49979  Biso   1.000  Zr
  Zr18     1.0000 0.00030  0.64161  0.99967  Biso   1.000  Zr
  Zr19     1.0000 0.00046  0.64384  0.49941  Biso   1.000  Zr
  Zr20     1.0000 0.00201  0.10967  0.24952  Biso   1.000  Zr
  Zr21     1.0000 0.99937  0.10617  0.74924  Biso   1.000  Zr
  Zr22     1.0000 0.00097  0.60785  0.24957  Biso   1.000  Zr
  Zr23     1.0000 0.00031  0.60622  0.74954  Biso   1.000  Zr
  Zr24     1.0000 0.00031  0.35851  0.25006  Biso   1.000  Zr
  Zr25     1.0000 0.00047  0.35628  0.75031  Biso   1.000  Zr
  Zr26     1.0000 0.99593  0.85790  0.25213  Biso   1.000  Zr
  Zr27     1.0000 0.00170  0.85628  0.74994  Biso   1.000  Zr
  Zr28     1.0000 0.00098  0.39227  0.00016  Biso   1.000  Zr
  Zr29     1.0000 0.00031  0.39390  0.50019  Biso   1.000  Zr
  Zr30     1.0000 0.00200  0.89045  0.00021  Biso   1.000  Zr
  Zr31     1.0000 0.99938  0.89395  0.50048  Biso   1.000  Zr
  Zr32     1.0000 0.50533  0.14221  0.25214  Biso   1.000  Zr
  Zr33     1.0000 0.49956  0.14384  0.74995  Biso   1.000  Zr
  Zr34     1.0000 0.50096  0.64161  0.25006  Biso   1.000  Zr
  Zr35     1.0000 0.50080  0.64384  0.75032  Biso   1.000  Zr
  Zr36     1.0000 0.49925  0.10967  0.00022  Biso   1.000  Zr
  Zr37     1.0000 0.50191  0.10617  0.50049  Biso   1.000  Zr
  Zr38     1.0000 0.50029  0.60785  0.00016  Biso   1.000  Zr
  Zr39     1.0000 0.50095  0.60622  0.50019  Biso   1.000  Zr
  Zr40     1.0000 0.50097  0.35850  0.99967  Biso   1.000  Zr
  Zr41     1.0000 0.50081  0.35627  0.49941  Biso   1.000  Zr
  Zr42     1.0000 0.50532  0.85790  0.99759  Biso   1.000  Zr
  Zr43     1.0000 0.49957  0.85628  0.49978  Biso   1.000  Zr
  Zr44     1.0000 0.50030  0.39227  0.24957  Biso   1.000  Zr
  Zr45     1.0000 0.50096  0.39390  0.74954  Biso   1.000  Zr
  Zr46     1.0000 0.49926  0.89045  0.24952  Biso   1.000  Zr
  Zr47     1.0000 0.50189  0.89395  0.74925  Biso   1.000  Zr
