data_image0
_cell_length_a       10.0651
_cell_length_b       10.4536
_cell_length_c       10.1143
_cell_angle_alpha    89.9672
_cell_angle_beta     89.7451
_cell_angle_gamma    90.6892

_symmetry_space_group_name_H-M    "P 1"
_symmetry_int_tables_number       1

loop_
  _symmetry_equiv_pos_as_xyz
  'x, y, z'

loop_
  _atom_site_label
  _atom_site_occupancy
  _atom_site_fract_x
  _atom_site_fract_y
  _atom_site_fract_z
  _atom_site_thermal_displace_type
  _atom_site_B_iso_or_equiv
  _atom_site_type_symbol
  Zr1      1.0000 0.14330  0.01588  0.12014  Biso   1.000  Zr
  Zr2      1.0000 0.13389  0.22659  0.40305  Biso   1.000  Zr
  Zr3      1.0000 0.37149  0.25774  0.11691  Biso   1.000  Zr
  Zr4      1.0000 0.37120  0.48520  0.37455  Biso   1.000  Zr
  Zr5      1.0000 0.01614  0.18048  0.23286  Biso   1.000  Zr
  Zr6      1.0000 0.03706  0.06141  0.45750  Biso   1.000  Zr
  Zr7      1.0000 0.45619  0.43064  0.19410  Biso   1.000  Zr
  Zr8      1.0000 0.46487  0.31599  0.44481  Biso   1.000  Zr
  Zr9      1.0000 0.26719  0.11598  0.25754  Biso   1.000  Zr
  Zr10     1.0000 0.27661  0.12814  0.50751  Biso   1.000  Zr
  Zr11     1.0000 0.23472  0.38287  0.49824  Biso   1.000  Zr
  Zr12     1.0000 0.20395  0.35606  0.24173  Biso   1.000  Zr
  Zr13     1.0000 0.13894  0.01127  0.63251  Biso   1.000  Zr
  Zr14     1.0000 0.13450  0.23060  0.87500  Biso   1.000  Zr
  Zr15     1.0000 0.37035  0.26642  0.62998  Biso   1.000  Zr
  Zr16     1.0000 0.36748  0.48629  0.87390  Biso   1.000  Zr
  Zr17     1.0000 0.04089  0.18342  0.68864  Biso   1.000  Zr
  Zr18     1.0000 0.04014  0.06257  0.94368  Biso   1.000  Zr
  Zr19     1.0000 0.46423  0.43516  0.69416  Biso   1.000  Zr
  Zr20     1.0000 0.46692  0.31463  0.93858  Biso   1.000  Zr
  Zr21     1.0000 0.27062  0.11654  0.75235  Biso   1.000  Zr
  Zr22     1.0000 0.29432  0.11700  0.99146  Biso   1.000  Zr
  Zr23     1.0000 0.23649  0.38568  0.99991  Biso   1.000  Zr
  Zr24     1.0000 0.22966  0.36716  0.74914  Biso   1.000  Zr
  Zr25     1.0000 0.12437  0.52645  0.12145  Biso   1.000  Zr
  Zr26     1.0000 0.13443  0.73508  0.37698  Biso   1.000  Zr
  Zr27     1.0000 0.36573  0.76359  0.12639  Biso   1.000  Zr
  Zr28     1.0000 0.36809  0.98291  0.37631  Biso   1.000  Zr
  Zr29     1.0000 0.03438  0.68902  0.19509  Biso   1.000  Zr
  Zr30     1.0000 0.03493  0.56886  0.44479  Biso   1.000  Zr
  Zr31     1.0000 0.46572  0.93192  0.19516  Biso   1.000  Zr
  Zr32     1.0000 0.46609  0.81527  0.44471  Biso   1.000  Zr
  Zr33     1.0000 0.26626  0.61298  0.24903  Biso   1.000  Zr
  Zr34     1.0000 0.27031  0.63248  0.49803  Biso   1.000  Zr
  Zr35     1.0000 0.23193  0.88157  0.50038  Biso   1.000  Zr
  Zr36     1.0000 0.23381  0.86501  0.24964  Biso   1.000  Zr
  Zr37     1.0000 0.13408  0.51568  0.62375  Biso   1.000  Zr
  Zr38     1.0000 0.13292  0.73500  0.87362  Biso   1.000  Zr
  Zr39     1.0000 0.36916  0.76312  0.62418  Biso   1.000  Zr
  Zr40     1.0000 0.37351  0.97832  0.87355  Biso   1.000  Zr
  Zr41     1.0000 0.03751  0.68533  0.69205  Biso   1.000  Zr
  Zr42     1.0000 0.03319  0.56525  0.94254  Biso   1.000  Zr
  Zr43     1.0000 0.46845  0.93185  0.69082  Biso   1.000  Zr
  Zr44     1.0000 0.46833  0.81439  0.94793  Biso   1.000  Zr
  Zr45     1.0000 0.26866  0.61578  0.74849  Biso   1.000  Zr
  Zr46     1.0000 0.26684  0.63487  0.99739  Biso   1.000  Zr
  Zr47     1.0000 0.23171  0.87882  0.99912  Biso   1.000  Zr
  Zr48     1.0000 0.23586  0.86398  0.74960  Biso   1.000  Zr
  Zr49     1.0000 0.63459  0.01557  0.12498  Biso   1.000  Zr
  Zr50     1.0000 0.63458  0.23333  0.37709  Biso   1.000  Zr
  Zr51     1.0000 0.85502  0.27441  0.11802  Biso   1.000  Zr
  Zr52     1.0000 0.86460  0.48633  0.37805  Biso   1.000  Zr
  Zr53     1.0000 0.53494  0.18016  0.19474  Biso   1.000  Zr
  Zr54     1.0000 0.53817  0.06500  0.44441  Biso   1.000  Zr
  Zr55     1.0000 0.94639  0.44898  0.19714  Biso   1.000  Zr
  Zr56     1.0000 0.96887  0.32152  0.45461  Biso   1.000  Zr
  Zr57     1.0000 0.76637  0.11948  0.24799  Biso   1.000  Zr
  Zr58     1.0000 0.77326  0.13613  0.49857  Biso   1.000  Zr
  Zr59     1.0000 0.72986  0.38271  0.49945  Biso   1.000  Zr
  Zr60     1.0000 0.72176  0.37085  0.24957  Biso   1.000  Zr
  Zr61     1.0000 0.63811  0.01594  0.62378  Biso   1.000  Zr
  Zr62     1.0000 0.63663  0.23199  0.87375  Biso   1.000  Zr
  Zr63     1.0000 0.86869  0.26854  0.63094  Biso   1.000  Zr
  Zr64     1.0000 0.86260  0.48476  0.87122  Biso   1.000  Zr
  Zr65     1.0000 0.53823  0.18285  0.69311  Biso   1.000  Zr
  Zr66     1.0000 0.54510  0.06223  0.94025  Biso   1.000  Zr
  Zr67     1.0000 0.96047  0.44132  0.68889  Biso   1.000  Zr
  Zr68     1.0000 0.94526  0.30985  0.90979  Biso   1.000  Zr
  Zr69     1.0000 0.77230  0.11652  0.74855  Biso   1.000  Zr
  Zr70     1.0000 0.77224  0.13193  0.99876  Biso   1.000  Zr
  Zr71     1.0000 0.72519  0.38441  0.99917  Biso   1.000  Zr
  Zr72     1.0000 0.72509  0.37018  0.74697  Biso   1.000  Zr
  Zr73     1.0000 0.63121  0.51792  0.12887  Biso   1.000  Zr
  Zr74     1.0000 0.63609  0.73740  0.37597  Biso   1.000  Zr
  Zr75     1.0000 0.86547  0.76815  0.12610  Biso   1.000  Zr
  Zr76     1.0000 0.87022  0.98963  0.37094  Biso   1.000  Zr
  Zr77     1.0000 0.53188  0.68121  0.19941  Biso   1.000  Zr
  Zr78     1.0000 0.53376  0.56706  0.44624  Biso   1.000  Zr
  Zr79     1.0000 0.96807  0.93685  0.19201  Biso   1.000  Zr
  Zr80     1.0000 0.96518  0.81810  0.44273  Biso   1.000  Zr
  Zr81     1.0000 0.76574  0.62175  0.25213  Biso   1.000  Zr
  Zr82     1.0000 0.76716  0.63529  0.50003  Biso   1.000  Zr
  Zr83     1.0000 0.73510  0.88628  0.49745  Biso   1.000  Zr
  Zr84     1.0000 0.73177  0.86977  0.24866  Biso   1.000  Zr
  Zr85     1.0000 0.63517  0.51602  0.62549  Biso   1.000  Zr
  Zr86     1.0000 0.63600  0.73380  0.87625  Biso   1.000  Zr
  Zr87     1.0000 0.86899  0.76755  0.62397  Biso   1.000  Zr
  Zr88     1.0000 0.86687  0.98349  0.87612  Biso   1.000  Zr
  Zr89     1.0000 0.53503  0.68200  0.69758  Biso   1.000  Zr
  Zr90     1.0000 0.53378  0.56704  0.94846  Biso   1.000  Zr
  Zr91     1.0000 0.96836  0.93125  0.70037  Biso   1.000  Zr
  Zr92     1.0000 0.96425  0.81468  0.94464  Biso   1.000  Zr
  Zr93     1.0000 0.76926  0.61912  0.74858  Biso   1.000  Zr
  Zr94     1.0000 0.76751  0.63285  0.00123  Biso   1.000  Zr
  Zr95     1.0000 0.73243  0.88197  0.99950  Biso   1.000  Zr
  Zr96     1.0000 0.73245  0.86709  0.74832  Biso   1.000  Zr
  Si1      1.0000 0.10828  0.27310  0.12924  Biso   1.000  Si
