data_image0
_cell_length_a       10.0851
_cell_length_b       10.4706
_cell_length_c       5.10579
_cell_angle_alpha    90.0708
_cell_angle_beta     89.2481
_cell_angle_gamma    91.3722

_symmetry_space_group_name_H-M    "P 1"
_symmetry_int_tables_number       1

loop_
  _symmetry_equiv_pos_as_xyz
  'x, y, z'

loop_
  _atom_site_label
  _atom_site_occupancy
  _atom_site_fract_x
  _atom_site_fract_y
  _atom_site_fract_z
  _atom_site_thermal_displace_type
  _atom_site_B_iso_or_equiv
  _atom_site_type_symbol
  Zr1      1.0000 0.14997  0.01026  0.25695  Biso   1.000  Zr
  Zr2      1.0000 0.13825  0.22348  0.81540  Biso   1.000  Zr
  Zr3      1.0000 0.37317  0.25907  0.23859  Biso   1.000  Zr
  Zr4      1.0000 0.37293  0.48792  0.74357  Biso   1.000  Zr
  Zr5      1.0000 0.01754  0.16860  0.48130  Biso   1.000  Zr
  Zr6      1.0000 0.03438  0.06504  0.94096  Biso   1.000  Zr
  Zr7      1.0000 0.45784  0.43040  0.38728  Biso   1.000  Zr
  Zr8      1.0000 0.46605  0.31469  0.87597  Biso   1.000  Zr
  Zr9      1.0000 0.27072  0.11534  0.52007  Biso   1.000  Zr
  Zr10     1.0000 0.29734  0.11267  0.99534  Biso   1.000  Zr
  Zr11     1.0000 0.23997  0.38743  0.99569  Biso   1.000  Zr
  Zr12     1.0000 0.20457  0.35727  0.49079  Biso   1.000  Zr
  Zr13     1.0000 0.12519  0.52574  0.23262  Biso   1.000  Zr
  Zr14     1.0000 0.13331  0.73567  0.74548  Biso   1.000  Zr
  Zr15     1.0000 0.36992  0.76012  0.24515  Biso   1.000  Zr
  Zr16     1.0000 0.37522  0.97661  0.74633  Biso   1.000  Zr
  Zr17     1.0000 0.03575  0.68817  0.38336  Biso   1.000  Zr
  Zr18     1.0000 0.03122  0.57162  0.88543  Biso   1.000  Zr
  Zr19     1.0000 0.47076  0.92865  0.38162  Biso   1.000  Zr
  Zr20     1.0000 0.47195  0.81436  0.89494  Biso   1.000  Zr
  Zr21     1.0000 0.26545  0.61025  0.48992  Biso   1.000  Zr
  Zr22     1.0000 0.26804  0.63500  0.98641  Biso   1.000  Zr
  Zr23     1.0000 0.23368  0.87730  0.99725  Biso   1.000  Zr
  Zr24     1.0000 0.24028  0.86115  0.49649  Biso   1.000  Zr
  Zr25     1.0000 0.63788  0.01552  0.23876  Biso   1.000  Zr
  Zr26     1.0000 0.63494  0.23151  0.74020  Biso   1.000  Zr
  Zr27     1.0000 0.85693  0.27611  0.22908  Biso   1.000  Zr
  Zr28     1.0000 0.86177  0.48589  0.74188  Biso   1.000  Zr
  Zr29     1.0000 0.53585  0.17875  0.38152  Biso   1.000  Zr
  Zr30     1.0000 0.54516  0.06193  0.87707  Biso   1.000  Zr
  Zr31     1.0000 0.94656  0.45129  0.37833  Biso   1.000  Zr
  Zr32     1.0000 0.95295  0.32239  0.85163  Biso   1.000  Zr
  Zr33     1.0000 0.76752  0.11817  0.48368  Biso   1.000  Zr
  Zr34     1.0000 0.77244  0.13686  0.98301  Biso   1.000  Zr
  Zr35     1.0000 0.72369  0.38447  0.99410  Biso   1.000  Zr
  Zr36     1.0000 0.72052  0.37245  0.49048  Biso   1.000  Zr
  Zr37     1.0000 0.63294  0.51821  0.25320  Biso   1.000  Zr
  Zr38     1.0000 0.63992  0.73735  0.74800  Biso   1.000  Zr
  Zr39     1.0000 0.86939  0.77022  0.24325  Biso   1.000  Zr
  Zr40     1.0000 0.87290  0.99139  0.73503  Biso   1.000  Zr
  Zr41     1.0000 0.53056  0.67819  0.40536  Biso   1.000  Zr
  Zr42     1.0000 0.53190  0.56874  0.90038  Biso   1.000  Zr
  Zr43     1.0000 0.97545  0.92981  0.40134  Biso   1.000  Zr
  Zr44     1.0000 0.96793  0.82054  0.88617  Biso   1.000  Zr
  Zr45     1.0000 0.76592  0.62303  0.49622  Biso   1.000  Zr
  Zr46     1.0000 0.76584  0.63577  0.99800  Biso   1.000  Zr
  Zr47     1.0000 0.73895  0.88697  0.98894  Biso   1.000  Zr
  Zr48     1.0000 0.73490  0.86970  0.48981  Biso   1.000  Zr
  Si1      1.0000 0.10764  0.26701  0.29320  Biso   1.000  Si
