data_image0
_cell_length_a       10.2867
_cell_length_b       5.32476
_cell_length_c       10.418
_cell_angle_alpha    90.8518
_cell_angle_beta     89.1896
_cell_angle_gamma    101.092

_symmetry_space_group_name_H-M    "P 1"
_symmetry_int_tables_number       1

loop_
  _symmetry_equiv_pos_as_xyz
  'x, y, z'

loop_
  _atom_site_label
  _atom_site_occupancy
  _atom_site_fract_x
  _atom_site_fract_y
  _atom_site_fract_z
  _atom_site_thermal_displace_type
  _atom_site_B_iso_or_equiv
  _atom_site_type_symbol
  Zr1      1.0000 0.12418  0.99692  0.16106  Biso   1.000  Zr
  Zr2      1.0000 0.12073  0.51531  0.35104  Biso   1.000  Zr
  Zr3      1.0000 0.39019  0.42020  0.12102  Biso   1.000  Zr
  Zr4      1.0000 0.38749  0.96255  0.40364  Biso   1.000  Zr
  Zr5      1.0000 0.02712  0.32282  0.98455  Biso   1.000  Zr
  Zr6      1.0000 0.98518  0.21978  0.24354  Biso   1.000  Zr
  Zr7      1.0000 0.96901  0.72346  0.25880  Biso   1.000  Zr
  Zr8      1.0000 0.01556  0.81097  0.99469  Biso   1.000  Zr
  Zr9      1.0000 0.25196  0.30410  0.28314  Biso   1.000  Zr
  Zr10     1.0000 0.29081  0.06249  0.04680  Biso   1.000  Zr
  Zr11     1.0000 0.26475  0.58834  0.95827  Biso   1.000  Zr
  Zr12     1.0000 0.23147  0.84664  0.28825  Biso   1.000  Zr
  Zr13     1.0000 0.10733  0.05325  0.64112  Biso   1.000  Zr
  Zr14     1.0000 0.10052  0.56969  0.82790  Biso   1.000  Zr
  Zr15     1.0000 0.38861  0.46824  0.60314  Biso   1.000  Zr
  Zr16     1.0000 0.39134  0.95845  0.89456  Biso   1.000  Zr
  Zr17     1.0000 0.02085  0.26969  0.49552  Biso   1.000  Zr
  Zr18     1.0000 0.96805  0.24494  0.74646  Biso   1.000  Zr
  Zr19     1.0000 0.96692  0.74965  0.73858  Biso   1.000  Zr
  Zr20     1.0000 0.02395  0.77416  0.50161  Biso   1.000  Zr
  Zr21     1.0000 0.21393  0.40881  0.70985  Biso   1.000  Zr
  Zr22     1.0000 0.28006  0.11223  0.53917  Biso   1.000  Zr
  Zr23     1.0000 0.27943  0.62042  0.48112  Biso   1.000  Zr
  Zr24     1.0000 0.21675  0.91652  0.78363  Biso   1.000  Zr
  Zr25     1.0000 0.61341  0.02813  0.14603  Biso   1.000  Zr
  Zr26     1.0000 0.61164  0.54190  0.35391  Biso   1.000  Zr
  Zr27     1.0000 0.88329  0.48661  0.10498  Biso   1.000  Zr
  Zr28     1.0000 0.89053  0.96051  0.39330  Biso   1.000  Zr
  Zr29     1.0000 0.52793  0.26071  0.99782  Biso   1.000  Zr
  Zr30     1.0000 0.48485  0.21222  0.25351  Biso   1.000  Zr
  Zr31     1.0000 0.47867  0.71558  0.25089  Biso   1.000  Zr
  Zr32     1.0000 0.51523  0.75781  0.00469  Biso   1.000  Zr
  Zr33     1.0000 0.71946  0.39671  0.21585  Biso   1.000  Zr
  Zr34     1.0000 0.78528  0.12201  0.03605  Biso   1.000  Zr
  Zr35     1.0000 0.77617  0.61960  0.96431  Biso   1.000  Zr
  Zr36     1.0000 0.72219  0.89667  0.28215  Biso   1.000  Zr
  Zr37     1.0000 0.61140  0.04785  0.64752  Biso   1.000  Zr
  Zr38     1.0000 0.60735  0.54295  0.85619  Biso   1.000  Zr
  Zr39     1.0000 0.88243  0.46687  0.59522  Biso   1.000  Zr
  Zr40     1.0000 0.88236  0.97896  0.89329  Biso   1.000  Zr
  Zr41     1.0000 0.52384  0.27994  0.49851  Biso   1.000  Zr
  Zr42     1.0000 0.47354  0.23119  0.75588  Biso   1.000  Zr
  Zr43     1.0000 0.47235  0.72937  0.75004  Biso   1.000  Zr
  Zr44     1.0000 0.52529  0.78001  0.50477  Biso   1.000  Zr
  Zr45     1.0000 0.71643  0.40769  0.71290  Biso   1.000  Zr
  Zr46     1.0000 0.77673  0.11080  0.53254  Biso   1.000  Zr
  Zr47     1.0000 0.77735  0.61398  0.46438  Biso   1.000  Zr
  Zr48     1.0000 0.71258  0.90514  0.78780  Biso   1.000  Zr
  Si1      1.0000 0.15323  0.48867  0.07835  Biso   1.000  Si
