data_image0
_cell_length_a       10.2015
_cell_length_b       5.26477
_cell_length_c       10.257
_cell_angle_alpha    84.6565
_cell_angle_beta     89.1185
_cell_angle_gamma    88.7769

_symmetry_space_group_name_H-M    "P 1"
_symmetry_int_tables_number       1

loop_
  _symmetry_equiv_pos_as_xyz
  'x, y, z'

loop_
  _atom_site_label
  _atom_site_occupancy
  _atom_site_fract_x
  _atom_site_fract_y
  _atom_site_fract_z
  _atom_site_thermal_displace_type
  _atom_site_B_iso_or_equiv
  _atom_site_type_symbol
  Zr1      1.0000 0.14744  0.08340  0.11581  Biso   1.000  Zr
  Zr2      1.0000 0.14341  0.45697  0.39255  Biso   1.000  Zr
  Zr3      1.0000 0.41669  0.49541  0.07848  Biso   1.000  Zr
  Zr4      1.0000 0.37592  0.99021  0.35051  Biso   1.000  Zr
  Zr5      1.0000 0.00119  0.30439  0.21856  Biso   1.000  Zr
  Zr6      1.0000 0.04013  0.11769  0.45367  Biso   1.000  Zr
  Zr7      1.0000 0.49473  0.74435  0.20799  Biso   1.000  Zr
  Zr8      1.0000 0.44386  0.64232  0.45139  Biso   1.000  Zr
  Zr9      1.0000 0.25836  0.30602  0.23295  Biso   1.000  Zr
  Zr10     1.0000 0.27622  0.19608  0.48641  Biso   1.000  Zr
  Zr11     1.0000 0.20269  0.67333  0.53806  Biso   1.000  Zr
  Zr12     1.0000 0.20397  0.81021  0.27942  Biso   1.000  Zr
  Zr13     1.0000 0.13999  0.00343  0.62324  Biso   1.000  Zr
  Zr14     1.0000 0.10116  0.45839  0.81603  Biso   1.000  Zr
  Zr15     1.0000 0.37546  0.55155  0.63848  Biso   1.000  Zr
  Zr16     1.0000 0.38379  0.01349  0.85997  Biso   1.000  Zr
  Zr17     1.0000 0.01140  0.30666  0.67351  Biso   1.000  Zr
  Zr18     1.0000 0.04438  0.10727  0.93295  Biso   1.000  Zr
  Zr19     1.0000 0.47050  0.86089  0.68442  Biso   1.000  Zr
  Zr20     1.0000 0.49409  0.67942  0.91781  Biso   1.000  Zr
  Zr21     1.0000 0.25510  0.23824  0.73127  Biso   1.000  Zr
  Zr22     1.0000 0.26230  0.33188  0.97086  Biso   1.000  Zr
  Zr23     1.0000 0.30200  0.85702  0.03410  Biso   1.000  Zr
  Zr24     1.0000 0.24481  0.74025  0.77378  Biso   1.000  Zr
  Zr25     1.0000 0.64203  0.01685  0.13406  Biso   1.000  Zr
  Zr26     1.0000 0.59366  0.46598  0.35185  Biso   1.000  Zr
  Zr27     1.0000 0.83925  0.50984  0.13409  Biso   1.000  Zr
  Zr28     1.0000 0.90283  0.97459  0.34264  Biso   1.000  Zr
  Zr29     1.0000 0.49586  0.23141  0.22692  Biso   1.000  Zr
  Zr30     1.0000 0.53113  0.12294  0.45604  Biso   1.000  Zr
  Zr31     1.0000 0.95711  0.84587  0.16411  Biso   1.000  Zr
  Zr32     1.0000 0.96257  0.61575  0.43276  Biso   1.000  Zr
  Zr33     1.0000 0.74832  0.22201  0.26433  Biso   1.000  Zr
  Zr34     1.0000 0.70055  0.42045  0.52028  Biso   1.000  Zr
  Zr35     1.0000 0.78793  0.91560  0.51263  Biso   1.000  Zr
  Zr36     1.0000 0.73703  0.72575  0.26533  Biso   1.000  Zr
  Zr37     1.0000 0.63977  0.06103  0.62145  Biso   1.000  Zr
  Zr38     1.0000 0.65151  0.45607  0.87727  Biso   1.000  Zr
  Zr39     1.0000 0.85393  0.56265  0.60699  Biso   1.000  Zr
  Zr40     1.0000 0.87332  0.94877  0.87699  Biso   1.000  Zr
  Zr41     1.0000 0.51473  0.31457  0.73660  Biso   1.000  Zr
  Zr42     1.0000 0.52087  0.17515  0.98047  Biso   1.000  Zr
  Zr43     1.0000 0.98966  0.78549  0.71701  Biso   1.000  Zr
  Zr44     1.0000 0.95797  0.58848  0.94602  Biso   1.000  Zr
  Zr45     1.0000 0.77129  0.23477  0.75234  Biso   1.000  Zr
  Zr46     1.0000 0.78034  0.22967  0.00564  Biso   1.000  Zr
  Zr47     1.0000 0.73024  0.75799  0.00012  Biso   1.000  Zr
  Zr48     1.0000 0.73393  0.74286  0.74795  Biso   1.000  Zr
  Sr1      1.0000 0.12884  0.60117  0.09011  Biso   1.000  Sr
