data_image0
_cell_length_a       10.0633
_cell_length_b       10.1819
_cell_length_c       5.03207
_cell_angle_alpha    90.0045
_cell_angle_beta     90.0027
_cell_angle_gamma    89.9975

_symmetry_space_group_name_H-M    "P 1"
_symmetry_int_tables_number       1

loop_
  _symmetry_equiv_pos_as_xyz
  'x, y, z'

loop_
  _atom_site_label
  _atom_site_occupancy
  _atom_site_fract_x
  _atom_site_fract_y
  _atom_site_fract_z
  _atom_site_thermal_displace_type
  _atom_site_B_iso_or_equiv
  _atom_site_type_symbol
  Ta1      1.0000 0.12531  0.99979  0.25028  Biso   1.000  Ta
  Zr1      1.0000 0.12528  0.49979  0.25026  Biso   1.000  Zr
  Zr2      1.0000 0.62529  0.99979  0.25028  Biso   1.000  Zr
  Zr3      1.0000 0.62529  0.49978  0.25027  Biso   1.000  Zr
  Zr4      1.0000 0.12527  0.25045  0.75027  Biso   1.000  Zr
  Zr5      1.0000 0.12528  0.74913  0.75033  Biso   1.000  Zr
  Zr6      1.0000 0.62528  0.24941  0.75029  Biso   1.000  Zr
  Zr7      1.0000 0.62528  0.75016  0.75031  Biso   1.000  Zr
  Zr8      1.0000 0.37573  0.25003  0.25385  Biso   1.000  Zr
  Zr9      1.0000 0.37574  0.74954  0.24673  Biso   1.000  Zr
  Zr10     1.0000 0.87482  0.25002  0.24671  Biso   1.000  Zr
  Zr11     1.0000 0.87482  0.74954  0.25389  Biso   1.000  Zr
  Zr12     1.0000 0.37592  0.99979  0.75027  Biso   1.000  Zr
  Zr13     1.0000 0.37624  0.49979  0.75026  Biso   1.000  Zr
  Zr14     1.0000 0.87468  0.99978  0.75028  Biso   1.000  Zr
  Zr15     1.0000 0.87433  0.49979  0.75026  Biso   1.000  Zr
  Zr16     1.0000 0.99500  0.14492  0.98824  Biso   1.000  Zr
  Zr17     1.0000 0.99792  0.64743  0.99738  Biso   1.000  Zr
  Zr18     1.0000 0.49245  0.14454  0.99007  Biso   1.000  Zr
  Zr19     1.0000 0.49823  0.64446  0.99718  Biso   1.000  Zr
  Zr20     1.0000 0.00789  0.09948  0.48762  Biso   1.000  Zr
  Zr21     1.0000 0.00180  0.60367  0.49898  Biso   1.000  Zr
  Zr22     1.0000 0.50484  0.10578  0.49602  Biso   1.000  Zr
  Zr23     1.0000 0.50221  0.60514  0.49901  Biso   1.000  Zr
  Zr24     1.0000 0.99791  0.35215  0.50318  Biso   1.000  Zr
  Zr25     1.0000 0.99500  0.85465  0.51234  Biso   1.000  Zr
  Zr26     1.0000 0.49823  0.35511  0.50340  Biso   1.000  Zr
  Zr27     1.0000 0.49246  0.85504  0.51048  Biso   1.000  Zr
  Zr28     1.0000 0.00181  0.39589  0.00158  Biso   1.000  Zr
  Zr29     1.0000 0.00789  0.90008  0.01296  Biso   1.000  Zr
  Zr30     1.0000 0.50220  0.39443  0.00158  Biso   1.000  Zr
  Zr31     1.0000 0.50485  0.89379  0.00454  Biso   1.000  Zr
  Zr32     1.0000 0.25555  0.14491  0.51225  Biso   1.000  Zr
  Zr33     1.0000 0.25265  0.64743  0.50321  Biso   1.000  Zr
  Zr34     1.0000 0.75811  0.14454  0.51048  Biso   1.000  Zr
  Zr35     1.0000 0.75233  0.64446  0.50339  Biso   1.000  Zr
  Zr36     1.0000 0.24267  0.09950  0.01288  Biso   1.000  Zr
  Zr37     1.0000 0.24875  0.60368  0.00160  Biso   1.000  Zr
  Zr38     1.0000 0.74572  0.10578  0.00455  Biso   1.000  Zr
  Zr39     1.0000 0.74835  0.60514  0.00156  Biso   1.000  Zr
  Zr40     1.0000 0.25265  0.35216  0.99736  Biso   1.000  Zr
  Zr41     1.0000 0.25556  0.85467  0.98831  Biso   1.000  Zr
  Zr42     1.0000 0.75233  0.35511  0.99717  Biso   1.000  Zr
  Zr43     1.0000 0.75811  0.85504  0.99009  Biso   1.000  Zr
  Zr44     1.0000 0.24875  0.39589  0.49897  Biso   1.000  Zr
  Zr45     1.0000 0.24266  0.90008  0.48769  Biso   1.000  Zr
  Zr46     1.0000 0.74835  0.39443  0.49899  Biso   1.000  Zr
  Zr47     1.0000 0.74572  0.89378  0.49603  Biso   1.000  Zr
