data_image0
_cell_length_a       5.03207
_cell_length_b       10.1819
_cell_length_c       10.0633
_cell_angle_alpha    89.9974
_cell_angle_beta     90.0027
_cell_angle_gamma    90.0045

_symmetry_space_group_name_H-M    "P 1"
_symmetry_int_tables_number       1

loop_
  _symmetry_equiv_pos_as_xyz
  'x, y, z'

loop_
  _atom_site_label
  _atom_site_occupancy
  _atom_site_fract_x
  _atom_site_fract_y
  _atom_site_fract_z
  _atom_site_thermal_displace_type
  _atom_site_B_iso_or_equiv
  _atom_site_type_symbol
  Ta1      1.0000 0.25028  0.99979  0.12531  Biso   1.000  Ta
  Zr1      1.0000 0.25028  0.99979  0.62529  Biso   1.000  Zr
  Zr2      1.0000 0.25026  0.49979  0.12528  Biso   1.000  Zr
  Zr3      1.0000 0.25027  0.49978  0.62529  Biso   1.000  Zr
  Zr4      1.0000 0.25385  0.25003  0.37573  Biso   1.000  Zr
  Zr5      1.0000 0.24671  0.25002  0.87482  Biso   1.000  Zr
  Zr6      1.0000 0.24673  0.74954  0.37574  Biso   1.000  Zr
  Zr7      1.0000 0.25389  0.74954  0.87482  Biso   1.000  Zr
  Zr8      1.0000 0.75027  0.25045  0.12527  Biso   1.000  Zr
  Zr9      1.0000 0.75029  0.24941  0.62528  Biso   1.000  Zr
  Zr10     1.0000 0.75033  0.74913  0.12528  Biso   1.000  Zr
  Zr11     1.0000 0.75031  0.75016  0.62528  Biso   1.000  Zr
  Zr12     1.0000 0.75027  0.99979  0.37592  Biso   1.000  Zr
  Zr13     1.0000 0.75028  0.99978  0.87468  Biso   1.000  Zr
  Zr14     1.0000 0.75026  0.49979  0.37624  Biso   1.000  Zr
  Zr15     1.0000 0.75026  0.49979  0.87433  Biso   1.000  Zr
  Zr16     1.0000 0.98824  0.14492  0.99500  Biso   1.000  Zr
  Zr17     1.0000 0.99007  0.14454  0.49245  Biso   1.000  Zr
  Zr18     1.0000 0.99738  0.64743  0.99792  Biso   1.000  Zr
  Zr19     1.0000 0.99718  0.64446  0.49823  Biso   1.000  Zr
  Zr20     1.0000 0.01288  0.09950  0.24267  Biso   1.000  Zr
  Zr21     1.0000 0.00455  0.10578  0.74572  Biso   1.000  Zr
  Zr22     1.0000 0.00160  0.60368  0.24875  Biso   1.000  Zr
  Zr23     1.0000 0.00156  0.60514  0.74835  Biso   1.000  Zr
  Zr24     1.0000 0.99736  0.35216  0.25265  Biso   1.000  Zr
  Zr25     1.0000 0.99717  0.35511  0.75233  Biso   1.000  Zr
  Zr26     1.0000 0.98831  0.85467  0.25556  Biso   1.000  Zr
  Zr27     1.0000 0.99009  0.85504  0.75811  Biso   1.000  Zr
  Zr28     1.0000 0.00158  0.39589  0.00181  Biso   1.000  Zr
  Zr29     1.0000 0.00157  0.39442  0.50220  Biso   1.000  Zr
  Zr30     1.0000 0.01296  0.90008  0.00789  Biso   1.000  Zr
  Zr31     1.0000 0.00454  0.89379  0.50485  Biso   1.000  Zr
  Zr32     1.0000 0.51225  0.14491  0.25555  Biso   1.000  Zr
  Zr33     1.0000 0.51048  0.14454  0.75811  Biso   1.000  Zr
  Zr34     1.0000 0.50321  0.64743  0.25265  Biso   1.000  Zr
  Zr35     1.0000 0.50339  0.64446  0.75233  Biso   1.000  Zr
  Zr36     1.0000 0.48763  0.09948  0.00789  Biso   1.000  Zr
  Zr37     1.0000 0.49602  0.10578  0.50484  Biso   1.000  Zr
  Zr38     1.0000 0.49898  0.60367  0.00180  Biso   1.000  Zr
  Zr39     1.0000 0.49901  0.60514  0.50221  Biso   1.000  Zr
  Zr40     1.0000 0.50318  0.35215  0.99791  Biso   1.000  Zr
  Zr41     1.0000 0.50340  0.35511  0.49823  Biso   1.000  Zr
  Zr42     1.0000 0.51234  0.85465  0.99500  Biso   1.000  Zr
  Zr43     1.0000 0.51048  0.85504  0.49246  Biso   1.000  Zr
  Zr44     1.0000 0.49897  0.39589  0.24875  Biso   1.000  Zr
  Zr45     1.0000 0.49899  0.39443  0.74835  Biso   1.000  Zr
  Zr46     1.0000 0.48769  0.90007  0.24266  Biso   1.000  Zr
  Zr47     1.0000 0.49603  0.89378  0.74572  Biso   1.000  Zr
