data_image0
_cell_length_a       10.1624
_cell_length_b       10.2841
_cell_length_c       10.6095
_cell_angle_alpha    90.1341
_cell_angle_beta     90.4556
_cell_angle_gamma    89.7692

_symmetry_space_group_name_H-M    "P 1"
_symmetry_int_tables_number       1

loop_
  _symmetry_equiv_pos_as_xyz
  'x, y, z'

loop_
  _atom_site_label
  _atom_site_occupancy
  _atom_site_fract_x
  _atom_site_fract_y
  _atom_site_fract_z
  _atom_site_thermal_displace_type
  _atom_site_B_iso_or_equiv
  _atom_site_type_symbol
  Zr1      1.0000 0.13827  0.01922  0.17330  Biso   1.000  Zr
  Zr2      1.0000 0.13661  0.22828  0.42466  Biso   1.000  Zr
  Zr3      1.0000 0.35208  0.26607  0.17897  Biso   1.000  Zr
  Zr4      1.0000 0.36096  0.47819  0.42477  Biso   1.000  Zr
  Zr5      1.0000 0.63510  0.99698  0.08065  Biso   1.000  Zr
  Zr6      1.0000 0.63273  0.22673  0.33415  Biso   1.000  Zr
  Zr7      1.0000 0.88057  0.27817  0.07408  Biso   1.000  Zr
  Zr8      1.0000 0.86138  0.47965  0.32736  Biso   1.000  Zr
  O1       1.0000 0.03575  0.15681  0.07582  Biso   1.000  O
  O2       1.0000 0.02551  0.09323  0.32660  Biso   1.000  O
  O3       1.0000 0.47941  0.39800  0.07930  Biso   1.000  O
  O4       1.0000 0.46766  0.34165  0.32642  Biso   1.000  O
  O5       1.0000 0.26887  0.12402  0.30003  Biso   1.000  O
  O6       1.0000 0.27467  0.12296  0.04861  Biso   1.000  O
  O7       1.0000 0.22229  0.37422  0.29887  Biso   1.000  O
  O8       1.0000 0.22933  0.37552  0.04773  Biso   1.000  O
  O9       1.0000 0.51040  0.13520  0.18889  Biso   1.000  O
  O10      1.0000 0.52574  0.09237  0.43081  Biso   1.000  O
  O11      1.0000 0.97436  0.41594  0.17462  Biso   1.000  O
  O12      1.0000 0.96932  0.34019  0.42061  Biso   1.000  O
  O13      1.0000 0.77462  0.12259  0.45152  Biso   1.000  O
  O14      1.0000 0.75497  0.13701  0.19248  Biso   1.000  O
  O15      1.0000 0.72511  0.37538  0.45176  Biso   1.000  O
  O16      1.0000 0.72221  0.37939  0.19697  Biso   1.000  O
  Zr9      1.0000 0.13807  0.02103  0.67343  Biso   1.000  Zr
  Zr10     1.0000 0.14457  0.22766  0.92068  Biso   1.000  Zr
  Zr11     1.0000 0.36060  0.27117  0.67219  Biso   1.000  Zr
  Zr12     1.0000 0.36186  0.47922  0.92119  Biso   1.000  Zr
  Zr13     1.0000 0.63889  0.01801  0.57757  Biso   1.000  Zr
  Zr14     1.0000 0.64117  0.23094  0.81280  Biso   1.000  Zr
  Zr15     1.0000 0.86250  0.27224  0.57501  Biso   1.000  Zr
  Zr16     1.0000 0.86447  0.48003  0.82553  Biso   1.000  Zr
  O17      1.0000 0.03029  0.16056  0.57957  Biso   1.000  O
  O18      1.0000 0.03035  0.09110  0.82969  Biso   1.000  O
  O19      1.0000 0.47252  0.40574  0.57669  Biso   1.000  O
  O20      1.0000 0.47272  0.34553  0.82465  Biso   1.000  O
  O21      1.0000 0.27561  0.12474  0.79668  Biso   1.000  O
  O22      1.0000 0.27349  0.12465  0.54807  Biso   1.000  O
  O23      1.0000 0.22708  0.37488  0.79700  Biso   1.000  O
  O24      1.0000 0.22538  0.37587  0.54766  Biso   1.000  O
  O25      1.0000 0.52447  0.15032  0.67499  Biso   1.000  O
  O26      1.0000 0.52172  0.11059  0.94236  Biso   1.000  O
  O27      1.0000 0.97060  0.41260  0.66864  Biso   1.000  O
  O28      1.0000 0.97912  0.34310  0.91750  Biso   1.000  O
  O29      1.0000 0.76202  0.13131  0.95646  Biso   1.000  O
  O30      1.0000 0.77798  0.12367  0.69876  Biso   1.000  O
  O31      1.0000 0.72933  0.37882  0.95184  Biso   1.000  O
  O32      1.0000 0.72816  0.37668  0.69935  Biso   1.000  O
  Zr17     1.0000 0.14160  0.52326  0.17481  Biso   1.000  Zr
  Zr18     1.0000 0.13797  0.72887  0.42438  Biso   1.000  Zr
  Zr19     1.0000 0.35854  0.76895  0.17510  Biso   1.000  Zr
  Zr20     1.0000 0.36126  0.97741  0.42504  Biso   1.000  Zr
  Zr21     1.0000 0.64405  0.53312  0.07657  Biso   1.000  Zr
  Zr22     1.0000 0.63833  0.72791  0.33013  Biso   1.000  Zr
  Zr23     1.0000 0.86701  0.77104  0.07766  Biso   1.000  Zr
  Zr24     1.0000 0.86211  0.97892  0.32901  Biso   1.000  Zr
  O33      1.0000 0.03434  0.66233  0.08024  Biso   1.000  O
  O34      1.0000 0.03040  0.59078  0.33181  Biso   1.000  O
  O35      1.0000 0.46770  0.89388  0.07053  Biso   1.000  O
  O36      1.0000 0.47177  0.84376  0.32566  Biso   1.000  O
  O37      1.0000 0.27518  0.62408  0.29912  Biso   1.000  O
  O38      1.0000 0.27786  0.62374  0.04815  Biso   1.000  O
  O39      1.0000 0.22441  0.87332  0.29890  Biso   1.000  O
  O40      1.0000 0.22418  0.87594  0.04752  Biso   1.000  O
  O41      1.0000 0.52889  0.65698  0.17597  Biso   1.000  O
  O42      1.0000 0.52851  0.59136  0.42359  Biso   1.000  O
  O43      1.0000 0.96888  0.91334  0.17063  Biso   1.000  O
  O44      1.0000 0.96871  0.84243  0.42174  Biso   1.000  O
  O45      1.0000 0.77550  0.62419  0.45317  Biso   1.000  O
  O46      1.0000 0.77803  0.62805  0.20350  Biso   1.000  O
  O47      1.0000 0.72498  0.87398  0.45489  Biso   1.000  O
  O48      1.0000 0.73119  0.87081  0.20857  Biso   1.000  O
  Zr25     1.0000 0.13924  0.52229  0.67264  Biso   1.000  Zr
  Zr26     1.0000 0.14052  0.72943  0.92248  Biso   1.000  Zr
  Zr27     1.0000 0.36207  0.77201  0.67394  Biso   1.000  Zr
  Zr28     1.0000 0.36241  0.97981  0.92436  Biso   1.000  Zr
  Zr29     1.0000 0.63892  0.52169  0.57626  Biso   1.000  Zr
  Zr30     1.0000 0.63939  0.72857  0.82558  Biso   1.000  Zr
  Zr31     1.0000 0.86155  0.77192  0.57926  Biso   1.000  Zr
  Zr32     1.0000 0.86232  0.98146  0.82874  Biso   1.000  Zr
  O49      1.0000 0.03103  0.66324  0.58070  Biso   1.000  O
  O50      1.0000 0.03192  0.59049  0.82919  Biso   1.000  O
  O51      1.0000 0.47197  0.90323  0.57535  Biso   1.000  O
  O52      1.0000 0.47505  0.84815  0.82442  Biso   1.000  O
  O53      1.0000 0.27698  0.62428  0.79874  Biso   1.000  O
  O54      1.0000 0.27489  0.62555  0.54801  Biso   1.000  O
  O55      1.0000 0.22690  0.87457  0.79846  Biso   1.000  O
  O56      1.0000 0.22526  0.87606  0.54853  Biso   1.000  O
  O57      1.0000 0.52891  0.65697  0.67419  Biso   1.000  O
  O58      1.0000 0.52921  0.59318  0.92414  Biso   1.000  O
  O59      1.0000 0.96905  0.91182  0.67266  Biso   1.000  O
  O60      1.0000 0.97148  0.84047  0.92032  Biso   1.000  O
  O61      1.0000 0.77806  0.62697  0.95151  Biso   1.000  O
  O62      1.0000 0.77555  0.62600  0.70267  Biso   1.000  O
  O63      1.0000 0.72876  0.87249  0.95282  Biso   1.000  O
  O64      1.0000 0.72644  0.87492  0.70554  Biso   1.000  O
  Ta1      1.0000 0.62110  0.25008  0.06768  Biso   1.000  Ta
