data_image0
_cell_length_a       10.1384
_cell_length_b       5.13182
_cell_length_c       10.1185
_cell_angle_alpha    90.0001
_cell_angle_beta     90.0015
_cell_angle_gamma    89.9998

_symmetry_space_group_name_H-M    "P 1"
_symmetry_int_tables_number       1

loop_
  _symmetry_equiv_pos_as_xyz
  'x, y, z'

loop_
  _atom_site_label
  _atom_site_occupancy
  _atom_site_fract_x
  _atom_site_fract_y
  _atom_site_fract_z
  _atom_site_thermal_displace_type
  _atom_site_B_iso_or_equiv
  _atom_site_type_symbol
  Zr1      1.0000 0.12541  0.00015  0.12538  Biso   1.000  Zr
  Zr2      1.0000 0.12540  0.50012  0.39828  Biso   1.000  Zr
  Zr3      1.0000 0.39286  0.50012  0.12537  Biso   1.000  Zr
  Zr4      1.0000 0.37456  0.00014  0.37282  Biso   1.000  Zr
  Zr5      1.0000 0.99839  0.27126  0.99963  Biso   1.000  Zr
  Zr6      1.0000 0.00454  0.24317  0.24627  Biso   1.000  Zr
  Zr7      1.0000 0.99839  0.72903  0.25112  Biso   1.000  Zr
  Zr8      1.0000 0.00454  0.75713  0.00448  Biso   1.000  Zr
  Zr9      1.0000 0.25242  0.27127  0.25112  Biso   1.000  Zr
  Zr10     1.0000 0.24627  0.24317  0.00448  Biso   1.000  Zr
  Zr11     1.0000 0.25242  0.72903  0.99963  Biso   1.000  Zr
  Zr12     1.0000 0.24627  0.75713  0.24627  Biso   1.000  Zr
  Zr13     1.0000 0.12540  0.00013  0.62538  Biso   1.000  Zr
  Zr14     1.0000 0.12541  0.50012  0.85247  Biso   1.000  Zr
  Zr15     1.0000 0.37374  0.50012  0.62537  Biso   1.000  Zr
  Zr16     1.0000 0.37457  0.00008  0.87793  Biso   1.000  Zr
  Zr17     1.0000 0.98634  0.26878  0.49634  Biso   1.000  Zr
  Zr18     1.0000 0.00553  0.21735  0.74952  Biso   1.000  Zr
  Zr19     1.0000 0.98635  0.73147  0.75441  Biso   1.000  Zr
  Zr20     1.0000 0.00553  0.78288  0.50125  Biso   1.000  Zr
  Zr21     1.0000 0.26447  0.26878  0.75441  Biso   1.000  Zr
  Zr22     1.0000 0.24528  0.21735  0.50124  Biso   1.000  Zr
  Zr23     1.0000 0.26446  0.73145  0.49633  Biso   1.000  Zr
  Zr24     1.0000 0.24528  0.78288  0.74950  Biso   1.000  Zr
  Zr25     1.0000 0.62540  0.00011  0.12538  Biso   1.000  Zr
  Zr26     1.0000 0.62540  0.50010  0.38063  Biso   1.000  Zr
  Zr27     1.0000 0.85795  0.50011  0.12538  Biso   1.000  Zr
  Zr28     1.0000 0.87624  0.00008  0.37282  Biso   1.000  Zr
  Zr29     1.0000 0.49879  0.27571  0.99120  Biso   1.000  Zr
  Zr30     1.0000 0.50420  0.22108  0.24471  Biso   1.000  Zr
  Zr31     1.0000 0.49879  0.72451  0.25956  Biso   1.000  Zr
  Zr32     1.0000 0.50421  0.77914  0.00604  Biso   1.000  Zr
  Zr33     1.0000 0.75202  0.27572  0.25956  Biso   1.000  Zr
  Zr34     1.0000 0.74661  0.22107  0.00604  Biso   1.000  Zr
  Zr35     1.0000 0.75202  0.72450  0.99120  Biso   1.000  Zr
  Zr36     1.0000 0.74660  0.77914  0.24472  Biso   1.000  Zr
  Zr37     1.0000 0.62540  0.00011  0.62538  Biso   1.000  Zr
  Zr38     1.0000 0.62541  0.50009  0.87013  Biso   1.000  Zr
  Zr39     1.0000 0.87707  0.50011  0.62538  Biso   1.000  Zr
  Zr40     1.0000 0.87625  0.00013  0.87794  Biso   1.000  Zr
  Zr41     1.0000 0.48959  0.28611  0.49159  Biso   1.000  Zr
  Zr42     1.0000 0.50848  0.21548  0.74654  Biso   1.000  Zr
  Zr43     1.0000 0.48959  0.71409  0.75917  Biso   1.000  Zr
  Zr44     1.0000 0.50848  0.78472  0.50422  Biso   1.000  Zr
  Zr45     1.0000 0.76122  0.28612  0.75916  Biso   1.000  Zr
  Zr46     1.0000 0.74233  0.21549  0.50422  Biso   1.000  Zr
  Zr47     1.0000 0.76122  0.71411  0.49158  Biso   1.000  Zr
  Zr48     1.0000 0.74234  0.78472  0.74654  Biso   1.000  Zr
  Ta1      1.0000 0.12541  0.50015  0.12538  Biso   1.000  Ta
