data_image0
_cell_length_a       10.2535
_cell_length_b       10.3523
_cell_length_c       5.31705
_cell_angle_alpha    89.7013
_cell_angle_beta     79.9258
_cell_angle_gamma    90.4926

_symmetry_space_group_name_H-M    "P 1"
_symmetry_int_tables_number       1

loop_
  _symmetry_equiv_pos_as_xyz
  'x, y, z'

loop_
  _atom_site_label
  _atom_site_occupancy
  _atom_site_fract_x
  _atom_site_fract_y
  _atom_site_fract_z
  _atom_site_thermal_displace_type
  _atom_site_B_iso_or_equiv
  _atom_site_type_symbol
  Zr1      1.0000 0.13596  0.02143  0.29318  Biso   1.000  Zr
  Zr2      1.0000 0.13647  0.23295  0.78683  Biso   1.000  Zr
  Zr3      1.0000 0.35793  0.27549  0.18407  Biso   1.000  Zr
  Zr4      1.0000 0.35194  0.48787  0.71242  Biso   1.000  Zr
  O1       1.0000 0.03767  0.16549  0.15016  Biso   1.000  O
  O2       1.0000 0.03311  0.08603  0.64786  Biso   1.000  O
  O3       1.0000 0.47496  0.38689  0.39472  Biso   1.000  O
  O4       1.0000 0.48577  0.36537  0.87963  Biso   1.000  O
  O5       1.0000 0.27939  0.12601  0.46600  Biso   1.000  O
  O6       1.0000 0.28385  0.12271  0.95205  Biso   1.000  O
  O7       1.0000 0.21567  0.38724  0.02181  Biso   1.000  O
  O8       1.0000 0.21906  0.37755  0.50535  Biso   1.000  O
  Zr5      1.0000 0.13512  0.52504  0.29302  Biso   1.000  Zr
  Zr6      1.0000 0.13187  0.73057  0.79620  Biso   1.000  Zr
  Zr7      1.0000 0.36000  0.77008  0.21000  Biso   1.000  Zr
  Zr8      1.0000 0.36117  0.96774  0.70669  Biso   1.000  Zr
  O9       1.0000 0.02577  0.66575  0.15357  Biso   1.000  O
  O10      1.0000 0.02877  0.59020  0.65371  Biso   1.000  O
  O11      1.0000 0.46880  0.90801  0.35179  Biso   1.000  O
  O12      1.0000 0.46671  0.83289  0.85622  Biso   1.000  O
  O13      1.0000 0.27205  0.62978  0.48441  Biso   1.000  O
  O14      1.0000 0.26788  0.62768  0.98616  Biso   1.000  O
  O15      1.0000 0.22386  0.87970  0.02337  Biso   1.000  O
  O16      1.0000 0.22176  0.86956  0.51948  Biso   1.000  O
  Zr9      1.0000 0.63980  0.02148  0.28762  Biso   1.000  Zr
  Zr10     1.0000 0.64381  0.23134  0.80350  Biso   1.000  Zr
  Zr11     1.0000 0.86392  0.27258  0.21675  Biso   1.000  Zr
  Zr12     1.0000 0.86015  0.47902  0.71596  Biso   1.000  Zr
  O17      1.0000 0.53119  0.15884  0.14472  Biso   1.000  O
  O18      1.0000 0.53904  0.07528  0.66067  Biso   1.000  O
  O19      1.0000 0.96575  0.41528  0.35530  Biso   1.000  O
  O20      1.0000 0.96676  0.33947  0.85336  Biso   1.000  O
  O21      1.0000 0.77649  0.12863  0.48042  Biso   1.000  O
  O22      1.0000 0.77929  0.11991  0.98470  Biso   1.000  O
  O23      1.0000 0.72864  0.37690  0.03311  Biso   1.000  O
  O24      1.0000 0.72737  0.37320  0.52828  Biso   1.000  O
  Zr13     1.0000 0.63639  0.51911  0.29890  Biso   1.000  Zr
  Zr14     1.0000 0.63619  0.72499  0.79229  Biso   1.000  Zr
  Zr15     1.0000 0.85738  0.77250  0.21192  Biso   1.000  Zr
  Zr16     1.0000 0.85876  0.97948  0.70988  Biso   1.000  Zr
  O25      1.0000 0.52437  0.64996  0.14224  Biso   1.000  O
  O26      1.0000 0.52607  0.59507  0.63447  Biso   1.000  O
  O27      1.0000 0.96613  0.91453  0.34978  Biso   1.000  O
  O28      1.0000 0.96384  0.83912  0.85258  Biso   1.000  O
  O29      1.0000 0.77127  0.62691  0.48126  Biso   1.000  O
  O30      1.0000 0.77075  0.62157  0.98331  Biso   1.000  O
  O31      1.0000 0.72135  0.87715  0.02254  Biso   1.000  O
  O32      1.0000 0.72416  0.87056  0.52220  Biso   1.000  O
  Tc1      1.0000 0.40693  0.23521  0.65553  Biso   1.000  Tc
