data_image0
_cell_length_a       5.07548
_cell_length_b       10.3256
_cell_length_c       10.4632
_cell_angle_alpha    89.893
_cell_angle_beta     80.1648
_cell_angle_gamma    89.9028

_symmetry_space_group_name_H-M    "P 1"
_symmetry_int_tables_number       1

loop_
  _symmetry_equiv_pos_as_xyz
  'x, y, z'

loop_
  _atom_site_label
  _atom_site_occupancy
  _atom_site_fract_x
  _atom_site_fract_y
  _atom_site_fract_z
  _atom_site_thermal_displace_type
  _atom_site_B_iso_or_equiv
  _atom_site_type_symbol
  Tc1      1.0000 0.28238  0.02253  0.15007  Biso   1.000  Tc
  Zr1      1.0000 0.28043  0.22976  0.39381  Biso   1.000  Zr
  Zr2      1.0000 0.72628  0.26918  0.10598  Biso   1.000  Zr
  Zr3      1.0000 0.72342  0.47971  0.35401  Biso   1.000  Zr
  O1       1.0000 0.07542  0.16628  0.08356  Biso   1.000  O
  O2       1.0000 0.08367  0.07919  0.32059  Biso   1.000  O
  O3       1.0000 0.92916  0.42076  0.16836  Biso   1.000  O
  O4       1.0000 0.92739  0.32884  0.41766  Biso   1.000  O
  O5       1.0000 0.55417  0.12705  0.24081  Biso   1.000  O
  O6       1.0000 0.55645  0.12073  0.48980  Biso   1.000  O
  O7       1.0000 0.44801  0.37861  0.01011  Biso   1.000  O
  O8       1.0000 0.45000  0.37128  0.25918  Biso   1.000  O
  Zr4      1.0000 0.27613  0.02071  0.64547  Biso   1.000  Zr
  Zr5      1.0000 0.27512  0.22614  0.89827  Biso   1.000  Zr
  Zr6      1.0000 0.72125  0.27112  0.60483  Biso   1.000  Zr
  Zr7      1.0000 0.71985  0.47821  0.85580  Biso   1.000  Zr
  O9       1.0000 0.07029  0.16725  0.57668  Biso   1.000  O
  O10      1.0000 0.06619  0.08066  0.82969  Biso   1.000  O
  O11      1.0000 0.92845  0.41872  0.66944  Biso   1.000  O
  O12      1.0000 0.92556  0.32659  0.92005  Biso   1.000  O
  O13      1.0000 0.55074  0.12852  0.74263  Biso   1.000  O
  O14      1.0000 0.54245  0.11672  0.99841  Biso   1.000  O
  O15      1.0000 0.44718  0.37835  0.50926  Biso   1.000  O
  O16      1.0000 0.44627  0.37028  0.76019  Biso   1.000  O
  Zr8      1.0000 0.27895  0.52266  0.14503  Biso   1.000  Zr
  Zr9      1.0000 0.27910  0.72966  0.39496  Biso   1.000  Zr
  Zr10     1.0000 0.72182  0.77746  0.10428  Biso   1.000  Zr
  Zr11     1.0000 0.72382  0.97947  0.35177  Biso   1.000  Zr
  O17      1.0000 0.06785  0.66983  0.08124  Biso   1.000  O
  O18      1.0000 0.07373  0.57965  0.33180  Biso   1.000  O
  O19      1.0000 0.94832  0.92188  0.16494  Biso   1.000  O
  O20      1.0000 0.93014  0.83132  0.41779  Biso   1.000  O
  O21      1.0000 0.55287  0.63234  0.24100  Biso   1.000  O
  O22      1.0000 0.55335  0.62106  0.49109  Biso   1.000  O
  O23      1.0000 0.43414  0.88222  0.01082  Biso   1.000  O
  O24      1.0000 0.44889  0.87603  0.25721  Biso   1.000  O
  Zr12     1.0000 0.27772  0.52105  0.64629  Biso   1.000  Zr
  Zr13     1.0000 0.27514  0.72915  0.89699  Biso   1.000  Zr
  Zr14     1.0000 0.72165  0.77124  0.60457  Biso   1.000  Zr
  Zr15     1.0000 0.71669  0.97863  0.85579  Biso   1.000  Zr
  O25      1.0000 0.07209  0.67001  0.58065  Biso   1.000  O
  O26      1.0000 0.07059  0.57903  0.83198  Biso   1.000  O
  O27      1.0000 0.92703  0.91953  0.66893  Biso   1.000  O
  O28      1.0000 0.92177  0.82942  0.91814  Biso   1.000  O
  O29      1.0000 0.55203  0.62865  0.74154  Biso   1.000  O
  O30      1.0000 0.55237  0.62273  0.99142  Biso   1.000  O
  O31      1.0000 0.44828  0.87896  0.50803  Biso   1.000  O
  O32      1.0000 0.44543  0.87081  0.75911  Biso   1.000  O
