data_image0
_cell_length_a       10.2326
_cell_length_b       10.3322
_cell_length_c       10.5984
_cell_angle_alpha    89.7867
_cell_angle_beta     80.0381
_cell_angle_gamma    90.2005

_symmetry_space_group_name_H-M    "P 1"
_symmetry_int_tables_number       1

loop_
  _symmetry_equiv_pos_as_xyz
  'x, y, z'

loop_
  _atom_site_label
  _atom_site_occupancy
  _atom_site_fract_x
  _atom_site_fract_y
  _atom_site_fract_z
  _atom_site_thermal_displace_type
  _atom_site_B_iso_or_equiv
  _atom_site_type_symbol
  Zr1      1.0000 0.13635  0.02165  0.14523  Biso   1.000  Zr
  Zr2      1.0000 0.13697  0.23207  0.39615  Biso   1.000  Zr
  Zr3      1.0000 0.35908  0.26824  0.09368  Biso   1.000  Zr
  Zr4      1.0000 0.35367  0.48716  0.35744  Biso   1.000  Zr
  O1       1.0000 0.03338  0.16525  0.07505  Biso   1.000  O
  O2       1.0000 0.03357  0.08630  0.32483  Biso   1.000  O
  O3       1.0000 0.47597  0.38533  0.19528  Biso   1.000  O
  O4       1.0000 0.48454  0.36331  0.44010  Biso   1.000  O
  O5       1.0000 0.27936  0.12409  0.23556  Biso   1.000  O
  O6       1.0000 0.28620  0.12307  0.47993  Biso   1.000  O
  O7       1.0000 0.22309  0.37965  0.00527  Biso   1.000  O
  O8       1.0000 0.22018  0.37514  0.25365  Biso   1.000  O
  Zr5      1.0000 0.13791  0.02115  0.64558  Biso   1.000  Zr
  Zr6      1.0000 0.13632  0.22867  0.89217  Biso   1.000  Zr
  Zr7      1.0000 0.36117  0.27700  0.60354  Biso   1.000  Zr
  Zr8      1.0000 0.36023  0.47970  0.85443  Biso   1.000  Zr
  O9       1.0000 0.03687  0.16537  0.57677  Biso   1.000  O
  O10      1.0000 0.03203  0.08423  0.82549  Biso   1.000  O
  O11      1.0000 0.46909  0.41078  0.68228  Biso   1.000  O
  O12      1.0000 0.47302  0.34513  0.92900  Biso   1.000  O
  O13      1.0000 0.27380  0.12885  0.73669  Biso   1.000  O
  O14      1.0000 0.27257  0.12172  0.98492  Biso   1.000  O
  O15      1.0000 0.21921  0.38456  0.51573  Biso   1.000  O
  O16      1.0000 0.22454  0.37289  0.75951  Biso   1.000  O
  Zr9      1.0000 0.13889  0.52128  0.14404  Biso   1.000  Zr
  Zr10     1.0000 0.13365  0.72937  0.39659  Biso   1.000  Zr
  Zr11     1.0000 0.36031  0.77082  0.10333  Biso   1.000  Zr
  Zr12     1.0000 0.36082  0.96756  0.35397  Biso   1.000  Zr
  O17      1.0000 0.03151  0.66608  0.07723  Biso   1.000  O
  O18      1.0000 0.03228  0.58754  0.32500  Biso   1.000  O
  O19      1.0000 0.46919  0.90760  0.17621  Biso   1.000  O
  O20      1.0000 0.46628  0.83199  0.42718  Biso   1.000  O
  O21      1.0000 0.27417  0.62867  0.24048  Biso   1.000  O
  O22      1.0000 0.26954  0.62678  0.49347  Biso   1.000  O
  O23      1.0000 0.22463  0.87889  0.01029  Biso   1.000  O
  O24      1.0000 0.22228  0.86875  0.25899  Biso   1.000  O
  Zr13     1.0000 0.13569  0.52477  0.64788  Biso   1.000  Zr
  Zr14     1.0000 0.13676  0.72930  0.89688  Biso   1.000  Zr
  Zr15     1.0000 0.36102  0.77090  0.60637  Biso   1.000  Zr
  Zr16     1.0000 0.36133  0.97869  0.85322  Biso   1.000  Zr
  O25      1.0000 0.02786  0.66499  0.57683  Biso   1.000  O
  O26      1.0000 0.03075  0.58666  0.82898  Biso   1.000  O
  O27      1.0000 0.46734  0.91299  0.67468  Biso   1.000  O
  O28      1.0000 0.46794  0.83848  0.92590  Biso   1.000  O
  O29      1.0000 0.27385  0.62900  0.74171  Biso   1.000  O
  O30      1.0000 0.27352  0.62282  0.99022  Biso   1.000  O
  O31      1.0000 0.22355  0.87930  0.51118  Biso   1.000  O
  O32      1.0000 0.22393  0.87214  0.76068  Biso   1.000  O
  Zr17     1.0000 0.63999  0.02026  0.14424  Biso   1.000  Zr
  Zr18     1.0000 0.64359  0.23281  0.40083  Biso   1.000  Zr
  Zr19     1.0000 0.86187  0.27219  0.10584  Biso   1.000  Zr
  Zr20     1.0000 0.86216  0.47943  0.35555  Biso   1.000  Zr
  O33      1.0000 0.52913  0.15236  0.06662  Biso   1.000  O
  O34      1.0000 0.53940  0.07488  0.33170  Biso   1.000  O
  O35      1.0000 0.96711  0.41535  0.17351  Biso   1.000  O
  O36      1.0000 0.96783  0.33964  0.42665  Biso   1.000  O
  O37      1.0000 0.77584  0.12861  0.23889  Biso   1.000  O
  O38      1.0000 0.77897  0.12116  0.49209  Biso   1.000  O
  O39      1.0000 0.72407  0.37689  0.01285  Biso   1.000  O
  O40      1.0000 0.72840  0.37321  0.26218  Biso   1.000  O
  Zr21     1.0000 0.63782  0.02338  0.64447  Biso   1.000  Zr
  Zr22     1.0000 0.63929  0.22704  0.89565  Biso   1.000  Zr
  Zr23     1.0000 0.86311  0.27267  0.60750  Biso   1.000  Zr
  Zr24     1.0000 0.85923  0.47861  0.85712  Biso   1.000  Zr
  O41      1.0000 0.53262  0.16592  0.57616  Biso   1.000  O
  O42      1.0000 0.53045  0.09004  0.82163  Biso   1.000  O
  O43      1.0000 0.96593  0.41517  0.67706  Biso   1.000  O
  O44      1.0000 0.96524  0.33500  0.92330  Biso   1.000  O
  O45      1.0000 0.77518  0.12833  0.74075  Biso   1.000  O
  O46      1.0000 0.77558  0.12125  0.98980  Biso   1.000  O
  O47      1.0000 0.72936  0.37869  0.51426  Biso   1.000  O
  O48      1.0000 0.72484  0.37209  0.76230  Biso   1.000  O
  Zr25     1.0000 0.63660  0.51910  0.14884  Biso   1.000  Zr
  Zr26     1.0000 0.63794  0.72692  0.39530  Biso   1.000  Zr
  Zr27     1.0000 0.86040  0.77094  0.10518  Biso   1.000  Zr
  Zr28     1.0000 0.85976  0.98010  0.35445  Biso   1.000  Zr
  O49      1.0000 0.52620  0.65282  0.07188  Biso   1.000  O
  O50      1.0000 0.52808  0.59287  0.31955  Biso   1.000  O
  O51      1.0000 0.96584  0.91542  0.17314  Biso   1.000  O
  O52      1.0000 0.96485  0.83773  0.42465  Biso   1.000  O
  O53      1.0000 0.77296  0.62667  0.23951  Biso   1.000  O
  O54      1.0000 0.77380  0.62234  0.48976  Biso   1.000  O
  O55      1.0000 0.72338  0.87739  0.01121  Biso   1.000  O
  O56      1.0000 0.72520  0.87037  0.26040  Biso   1.000  O
  Zr29     1.0000 0.63813  0.52146  0.64668  Biso   1.000  Zr
  Zr30     1.0000 0.63700  0.72694  0.89614  Biso   1.000  Zr
  Zr31     1.0000 0.85827  0.77316  0.60535  Biso   1.000  Zr
  Zr32     1.0000 0.85982  0.97775  0.85493  Biso   1.000  Zr
  O57      1.0000 0.53022  0.65976  0.57430  Biso   1.000  O
  O58      1.0000 0.53008  0.59117  0.82250  Biso   1.000  O
  O59      1.0000 0.96646  0.91448  0.67449  Biso   1.000  O
  O60      1.0000 0.96526  0.83566  0.92427  Biso   1.000  O
  O61      1.0000 0.77376  0.62862  0.74087  Biso   1.000  O
  O62      1.0000 0.77240  0.62130  0.99167  Biso   1.000  O
  O63      1.0000 0.72252  0.87864  0.51024  Biso   1.000  O
  O64      1.0000 0.72336  0.87212  0.76081  Biso   1.000  O
  Tc1      1.0000 0.40580  0.23472  0.32828  Biso   1.000  Tc
