data_image0
_cell_length_a       5.08346
_cell_length_b       10.6231
_cell_length_c       10.1266
_cell_angle_alpha    86.4121
_cell_angle_beta     88.6179
_cell_angle_gamma    90.1974

_symmetry_space_group_name_H-M    "P 1"
_symmetry_int_tables_number       1

loop_
  _symmetry_equiv_pos_as_xyz
  'x, y, z'

loop_
  _atom_site_label
  _atom_site_occupancy
  _atom_site_fract_x
  _atom_site_fract_y
  _atom_site_fract_z
  _atom_site_thermal_displace_type
  _atom_site_B_iso_or_equiv
  _atom_site_type_symbol
  Zr1      1.0000 0.26148  0.01427  0.11474  Biso   1.000  Zr
  Zr2      1.0000 0.27595  0.22659  0.37665  Biso   1.000  Zr
  Zr3      1.0000 0.74901  0.23183  0.10974  Biso   1.000  Zr
  Zr4      1.0000 0.76181  0.47695  0.36079  Biso   1.000  Zr
  Zr5      1.0000 0.06446  0.17349  0.21753  Biso   1.000  Zr
  Zr6      1.0000 0.07152  0.05666  0.45300  Biso   1.000  Zr
  Zr7      1.0000 0.03115  0.43156  0.22341  Biso   1.000  Zr
  Zr8      1.0000 0.95779  0.31025  0.46356  Biso   1.000  Zr
  Zr9      1.0000 0.53094  0.09447  0.23870  Biso   1.000  Zr
  Zr10     1.0000 0.56104  0.11892  0.49068  Biso   1.000  Zr
  Zr11     1.0000 0.47946  0.37858  0.49190  Biso   1.000  Zr
  Zr12     1.0000 0.54764  0.33766  0.24862  Biso   1.000  Zr
  Zr13     1.0000 0.27930  0.00420  0.61624  Biso   1.000  Zr
  Zr14     1.0000 0.20132  0.23456  0.83914  Biso   1.000  Zr
  Zr15     1.0000 0.70509  0.25112  0.61861  Biso   1.000  Zr
  Zr16     1.0000 0.76100  0.48827  0.85244  Biso   1.000  Zr
  Zr17     1.0000 0.98508  0.12668  0.71166  Biso   1.000  Zr
  Zr18     1.0000 0.97986  0.09986  0.97257  Biso   1.000  Zr
  Zr19     1.0000 0.98311  0.37891  0.71454  Biso   1.000  Zr
  Zr20     1.0000 0.96363  0.34471  0.96334  Biso   1.000  Zr
  Zr21     1.0000 0.48751  0.10534  0.75406  Biso   1.000  Zr
  Zr22     1.0000 0.44181  0.18758  0.99503  Biso   1.000  Zr
  Zr23     1.0000 0.48732  0.44611  0.99393  Biso   1.000  Zr
  Zr24     1.0000 0.48965  0.36161  0.75028  Biso   1.000  Zr
  Zr25     1.0000 0.25902  0.56108  0.10917  Biso   1.000  Zr
  Zr26     1.0000 0.26742  0.72877  0.37237  Biso   1.000  Zr
  Zr27     1.0000 0.73695  0.78018  0.11407  Biso   1.000  Zr
  Zr28     1.0000 0.74245  0.97586  0.37080  Biso   1.000  Zr
  Zr29     1.0000 0.03590  0.68987  0.21694  Biso   1.000  Zr
  Zr30     1.0000 0.05450  0.56245  0.46052  Biso   1.000  Zr
  Zr31     1.0000 0.94570  0.93027  0.20596  Biso   1.000  Zr
  Zr32     1.0000 0.94445  0.81107  0.45634  Biso   1.000  Zr
  Zr33     1.0000 0.53739  0.61077  0.24346  Biso   1.000  Zr
  Zr34     1.0000 0.53180  0.62424  0.49606  Biso   1.000  Zr
  Zr35     1.0000 0.46595  0.87051  0.49630  Biso   1.000  Zr
  Zr36     1.0000 0.46632  0.85727  0.24334  Biso   1.000  Zr
  Zr37     1.0000 0.27193  0.49818  0.61716  Biso   1.000  Zr
  Zr38     1.0000 0.21129  0.73956  0.84305  Biso   1.000  Zr
  Zr39     1.0000 0.72083  0.74758  0.61706  Biso   1.000  Zr
  Zr40     1.0000 0.78244  0.98522  0.84551  Biso   1.000  Zr
  Zr41     1.0000 0.99415  0.62760  0.71342  Biso   1.000  Zr
  Zr42     1.0000 0.98356  0.60515  0.96486  Biso   1.000  Zr
  Zr43     1.0000 0.00132  0.87590  0.71002  Biso   1.000  Zr
  Zr44     1.0000 0.00309  0.85283  0.96395  Biso   1.000  Zr
  Zr45     1.0000 0.48634  0.60867  0.74517  Biso   1.000  Zr
  Zr46     1.0000 0.46830  0.70298  0.99134  Biso   1.000  Zr
  Zr47     1.0000 0.53905  0.94102  0.00108  Biso   1.000  Zr
  Zr48     1.0000 0.50616  0.85932  0.74582  Biso   1.000  Zr
  Tc1      1.0000 0.25521  0.32156  0.10659  Biso   1.000  Tc
