data_image0
_cell_length_a       10.1037
_cell_length_b       5.10828
_cell_length_c       10.1037
_cell_angle_alpha    90.0001
_cell_angle_beta     90
_cell_angle_gamma    90.0001

_symmetry_space_group_name_H-M    "P 1"
_symmetry_int_tables_number       1

loop_
  _symmetry_equiv_pos_as_xyz
  'x, y, z'

loop_
  _atom_site_label
  _atom_site_occupancy
  _atom_site_fract_x
  _atom_site_fract_y
  _atom_site_fract_z
  _atom_site_thermal_displace_type
  _atom_site_B_iso_or_equiv
  _atom_site_type_symbol
  Zr1      1.0000 0.12540  0.00015  0.12540  Biso   1.000  Zr
  Zr2      1.0000 0.12540  0.50015  0.38798  Biso   1.000  Zr
  Zr3      1.0000 0.38798  0.50015  0.12540  Biso   1.000  Zr
  Zr4      1.0000 0.37215  0.99722  0.37215  Biso   1.000  Zr
  Zr5      1.0000 0.00026  0.27251  0.00026  Biso   1.000  Zr
  Zr6      1.0000 0.00305  0.24166  0.24774  Biso   1.000  Zr
  Zr7      1.0000 0.00026  0.72779  0.25054  Biso   1.000  Zr
  Zr8      1.0000 0.00305  0.75864  0.00305  Biso   1.000  Zr
  Zr9      1.0000 0.25054  0.27251  0.25054  Biso   1.000  Zr
  Zr10     1.0000 0.24774  0.24166  0.00305  Biso   1.000  Zr
  Zr11     1.0000 0.25054  0.72779  0.00025  Biso   1.000  Zr
  Zr12     1.0000 0.24774  0.75864  0.24774  Biso   1.000  Zr
  Zr13     1.0000 0.12540  0.00015  0.62540  Biso   1.000  Zr
  Zr14     1.0000 0.12540  0.50015  0.86281  Biso   1.000  Zr
  Zr15     1.0000 0.37822  0.50015  0.62540  Biso   1.000  Zr
  Zr16     1.0000 0.37215  0.00308  0.87864  Biso   1.000  Zr
  Zr17     1.0000 0.99335  0.27871  0.50091  Biso   1.000  Zr
  Zr18     1.0000 0.00447  0.21657  0.74974  Biso   1.000  Zr
  Zr19     1.0000 0.99335  0.72159  0.74988  Biso   1.000  Zr
  Zr20     1.0000 0.00447  0.78373  0.50105  Biso   1.000  Zr
  Zr21     1.0000 0.25744  0.27871  0.74988  Biso   1.000  Zr
  Zr22     1.0000 0.24633  0.21657  0.50105  Biso   1.000  Zr
  Zr23     1.0000 0.25744  0.72159  0.50091  Biso   1.000  Zr
  Zr24     1.0000 0.24633  0.78373  0.74974  Biso   1.000  Zr
  Zr25     1.0000 0.62540  0.00015  0.12540  Biso   1.000  Zr
  Zr26     1.0000 0.62540  0.50015  0.37822  Biso   1.000  Zr
  Zr27     1.0000 0.86281  0.50015  0.12540  Biso   1.000  Zr
  Zr28     1.0000 0.87864  0.00308  0.37215  Biso   1.000  Zr
  Zr29     1.0000 0.50092  0.27870  0.99335  Biso   1.000  Zr
  Zr30     1.0000 0.50105  0.21657  0.24632  Biso   1.000  Zr
  Zr31     1.0000 0.50092  0.72159  0.25744  Biso   1.000  Zr
  Zr32     1.0000 0.50105  0.78373  0.00447  Biso   1.000  Zr
  Zr33     1.0000 0.74988  0.27870  0.25744  Biso   1.000  Zr
  Zr34     1.0000 0.74974  0.21657  0.00447  Biso   1.000  Zr
  Zr35     1.0000 0.74988  0.72160  0.99335  Biso   1.000  Zr
  Zr36     1.0000 0.74974  0.78373  0.24632  Biso   1.000  Zr
  Zr37     1.0000 0.62540  0.00015  0.62540  Biso   1.000  Zr
  Zr38     1.0000 0.62540  0.50015  0.87257  Biso   1.000  Zr
  Zr39     1.0000 0.87257  0.50015  0.62540  Biso   1.000  Zr
  Zr40     1.0000 0.87865  0.99723  0.87864  Biso   1.000  Zr
  Zr41     1.0000 0.49464  0.28777  0.49464  Biso   1.000  Zr
  Zr42     1.0000 0.50362  0.21202  0.74717  Biso   1.000  Zr
  Zr43     1.0000 0.49464  0.71253  0.75615  Biso   1.000  Zr
  Zr44     1.0000 0.50362  0.78828  0.50363  Biso   1.000  Zr
  Zr45     1.0000 0.75615  0.28777  0.75615  Biso   1.000  Zr
  Zr46     1.0000 0.74717  0.21202  0.50363  Biso   1.000  Zr
  Zr47     1.0000 0.75615  0.71253  0.49464  Biso   1.000  Zr
  Zr48     1.0000 0.74717  0.78828  0.74717  Biso   1.000  Zr
  Ti1      1.0000 0.12540  0.50015  0.12540  Biso   1.000  Ti
