data_image0
_cell_length_a       4.9949
_cell_length_b       10.4045
_cell_length_c       10.0296
_cell_angle_alpha    90.1261
_cell_angle_beta     89.7421
_cell_angle_gamma    90.0461

_symmetry_space_group_name_H-M    "P 1"
_symmetry_int_tables_number       1

loop_
  _symmetry_equiv_pos_as_xyz
  'x, y, z'

loop_
  _atom_site_label
  _atom_site_occupancy
  _atom_site_fract_x
  _atom_site_fract_y
  _atom_site_fract_z
  _atom_site_thermal_displace_type
  _atom_site_B_iso_or_equiv
  _atom_site_type_symbol
  Ti1      1.0000 0.25978  0.01973  0.12275  Biso   1.000  Ti
  Zr1      1.0000 0.26733  0.23164  0.37316  Biso   1.000  Zr
  Zr2      1.0000 0.73255  0.26291  0.12414  Biso   1.000  Zr
  Zr3      1.0000 0.73405  0.48358  0.37570  Biso   1.000  Zr
  Zr4      1.0000 0.07374  0.17887  0.19130  Biso   1.000  Zr
  Zr5      1.0000 0.06990  0.06643  0.44631  Biso   1.000  Zr
  Zr6      1.0000 0.93132  0.43112  0.19411  Biso   1.000  Zr
  Zr7      1.0000 0.92969  0.31486  0.44322  Biso   1.000  Zr
  Zr8      1.0000 0.52876  0.10938  0.24252  Biso   1.000  Zr
  Zr9      1.0000 0.54161  0.13266  0.49616  Biso   1.000  Zr
  Zr10     1.0000 0.46023  0.38224  0.49863  Biso   1.000  Zr
  Zr11     1.0000 0.46346  0.36421  0.24838  Biso   1.000  Zr
  Zr12     1.0000 0.26552  0.01569  0.62576  Biso   1.000  Zr
  Zr13     1.0000 0.26696  0.23385  0.87711  Biso   1.000  Zr
  Zr14     1.0000 0.73126  0.26557  0.62535  Biso   1.000  Zr
  Zr15     1.0000 0.73085  0.48533  0.87500  Biso   1.000  Zr
  Zr16     1.0000 0.06817  0.18315  0.69764  Biso   1.000  Zr
  Zr17     1.0000 0.07103  0.06452  0.95442  Biso   1.000  Zr
  Zr18     1.0000 0.92602  0.43457  0.69256  Biso   1.000  Zr
  Zr19     1.0000 0.92485  0.31533  0.94292  Biso   1.000  Zr
  Zr20     1.0000 0.53780  0.11732  0.74881  Biso   1.000  Zr
  Zr21     1.0000 0.53386  0.13289  0.99923  Biso   1.000  Zr
  Zr22     1.0000 0.45991  0.38326  0.99905  Biso   1.000  Zr
  Zr23     1.0000 0.45808  0.36734  0.74923  Biso   1.000  Zr
  Zr24     1.0000 0.26854  0.51538  0.12633  Biso   1.000  Zr
  Zr25     1.0000 0.27199  0.73582  0.37449  Biso   1.000  Zr
  Zr26     1.0000 0.73473  0.76631  0.12457  Biso   1.000  Zr
  Zr27     1.0000 0.73273  0.98480  0.37347  Biso   1.000  Zr
  Zr28     1.0000 0.07284  0.68441  0.19398  Biso   1.000  Zr
  Zr29     1.0000 0.07413  0.56619  0.44305  Biso   1.000  Zr
  Zr30     1.0000 0.96390  0.93560  0.19051  Biso   1.000  Zr
  Zr31     1.0000 0.93114  0.81739  0.44373  Biso   1.000  Zr
  Zr32     1.0000 0.54170  0.61521  0.24871  Biso   1.000  Zr
  Zr33     1.0000 0.54147  0.63360  0.49921  Biso   1.000  Zr
  Zr34     1.0000 0.46287  0.88376  0.49969  Biso   1.000  Zr
  Zr35     1.0000 0.47833  0.86568  0.24948  Biso   1.000  Zr
  Zr36     1.0000 0.26846  0.51645  0.62512  Biso   1.000  Zr
  Zr37     1.0000 0.26441  0.73651  0.87734  Biso   1.000  Zr
  Zr38     1.0000 0.73278  0.76700  0.62668  Biso   1.000  Zr
  Zr39     1.0000 0.72715  0.98618  0.87929  Biso   1.000  Zr
  Zr40     1.0000 0.07163  0.68477  0.69465  Biso   1.000  Zr
  Zr41     1.0000 0.07040  0.56630  0.94469  Biso   1.000  Zr
  Zr42     1.0000 0.92779  0.93483  0.69664  Biso   1.000  Zr
  Zr43     1.0000 0.91539  0.81534  0.94076  Biso   1.000  Zr
  Zr44     1.0000 0.53809  0.61845  0.74990  Biso   1.000  Zr
  Zr45     1.0000 0.53737  0.63504  0.99966  Biso   1.000  Zr
  Zr46     1.0000 0.44724  0.88935  0.00540  Biso   1.000  Zr
  Zr47     1.0000 0.45875  0.86829  0.75153  Biso   1.000  Zr
