data_image0
_cell_length_a       10.0553
_cell_length_b       10.2034
_cell_length_c       10.0552
_cell_angle_alpha    90
_cell_angle_beta     90
_cell_angle_gamma    90

_symmetry_space_group_name_H-M    "P 1"
_symmetry_int_tables_number       1

loop_
  _symmetry_equiv_pos_as_xyz
  'x, y, z'

loop_
  _atom_site_label
  _atom_site_occupancy
  _atom_site_fract_x
  _atom_site_fract_y
  _atom_site_fract_z
  _atom_site_thermal_displace_type
  _atom_site_B_iso_or_equiv
  _atom_site_type_symbol
  Ti1      1.0000 0.12540  0.00008  0.12540  Biso   1.000  Ti
  Zr1      1.0000 0.12781  0.25086  0.37535  Biso   1.000  Zr
  Zr2      1.0000 0.37535  0.25085  0.12781  Biso   1.000  Zr
  Zr3      1.0000 0.37372  0.00177  0.37372  Biso   1.000  Zr
  Zr4      1.0000 0.98645  0.15074  0.98645  Biso   1.000  Zr
  Zr5      1.0000 0.01348  0.09653  0.23731  Biso   1.000  Zr
  Zr6      1.0000 0.99877  0.35062  0.25202  Biso   1.000  Zr
  Zr7      1.0000 0.00139  0.39850  0.00139  Biso   1.000  Zr
  Zr8      1.0000 0.26434  0.15074  0.26434  Biso   1.000  Zr
  Zr9      1.0000 0.23731  0.09653  0.01348  Biso   1.000  Zr
  Zr10     1.0000 0.25202  0.35062  0.99877  Biso   1.000  Zr
  Zr11     1.0000 0.24940  0.39850  0.24940  Biso   1.000  Zr
  Zr12     1.0000 0.12540  0.00008  0.62540  Biso   1.000  Zr
  Zr13     1.0000 0.12298  0.25086  0.87545  Biso   1.000  Zr
  Zr14     1.0000 0.37518  0.24889  0.62678  Biso   1.000  Zr
  Zr15     1.0000 0.37372  0.99838  0.87707  Biso   1.000  Zr
  Zr16     1.0000 0.99424  0.14485  0.48856  Biso   1.000  Zr
  Zr17     1.0000 0.00238  0.10583  0.74251  Biso   1.000  Zr
  Zr18     1.0000 0.99780  0.35521  0.75188  Biso   1.000  Zr
  Zr19     1.0000 0.00196  0.39490  0.50170  Biso   1.000  Zr
  Zr20     1.0000 0.25655  0.14485  0.76223  Biso   1.000  Zr
  Zr21     1.0000 0.24841  0.10583  0.50828  Biso   1.000  Zr
  Zr22     1.0000 0.25300  0.35521  0.49891  Biso   1.000  Zr
  Zr23     1.0000 0.24883  0.39490  0.74909  Biso   1.000  Zr
  Zr24     1.0000 0.12540  0.50008  0.12540  Biso   1.000  Zr
  Zr25     1.0000 0.12298  0.74930  0.37535  Biso   1.000  Zr
  Zr26     1.0000 0.37535  0.74930  0.12298  Biso   1.000  Zr
  Zr27     1.0000 0.37650  0.50099  0.37650  Biso   1.000  Zr
  Zr28     1.0000 0.99877  0.64953  0.99877  Biso   1.000  Zr
  Zr29     1.0000 0.00139  0.60165  0.24940  Biso   1.000  Zr
  Zr30     1.0000 0.98645  0.84941  0.26434  Biso   1.000  Zr
  Zr31     1.0000 0.01348  0.90362  0.01348  Biso   1.000  Zr
  Zr32     1.0000 0.25202  0.64953  0.25202  Biso   1.000  Zr
  Zr33     1.0000 0.24940  0.60165  0.00139  Biso   1.000  Zr
  Zr34     1.0000 0.26434  0.84941  0.98645  Biso   1.000  Zr
  Zr35     1.0000 0.23732  0.90362  0.23731  Biso   1.000  Zr
  Zr36     1.0000 0.12540  0.50008  0.62540  Biso   1.000  Zr
  Zr37     1.0000 0.12781  0.74930  0.87545  Biso   1.000  Zr
  Zr38     1.0000 0.37518  0.75126  0.62401  Biso   1.000  Zr
  Zr39     1.0000 0.37650  0.49916  0.87430  Biso   1.000  Zr
  Zr40     1.0000 0.99780  0.64494  0.49891  Biso   1.000  Zr
  Zr41     1.0000 0.00196  0.60525  0.74909  Biso   1.000  Zr
  Zr42     1.0000 0.99424  0.85530  0.76223  Biso   1.000  Zr
  Zr43     1.0000 0.00238  0.89433  0.50828  Biso   1.000  Zr
  Zr44     1.0000 0.25300  0.64494  0.75188  Biso   1.000  Zr
  Zr45     1.0000 0.24883  0.60525  0.50170  Biso   1.000  Zr
  Zr46     1.0000 0.25655  0.85530  0.48856  Biso   1.000  Zr
  Zr47     1.0000 0.24841  0.89433  0.74251  Biso   1.000  Zr
  Zr48     1.0000 0.62540  0.00008  0.12540  Biso   1.000  Zr
  Zr49     1.0000 0.62678  0.24889  0.37518  Biso   1.000  Zr
  Zr50     1.0000 0.87545  0.25085  0.12298  Biso   1.000  Zr
  Zr51     1.0000 0.87707  0.99838  0.37372  Biso   1.000  Zr
  Zr52     1.0000 0.48856  0.14485  0.99424  Biso   1.000  Zr
  Zr53     1.0000 0.50828  0.10583  0.24841  Biso   1.000  Zr
  Zr54     1.0000 0.49891  0.35521  0.25300  Biso   1.000  Zr
  Zr55     1.0000 0.50170  0.39490  0.00196  Biso   1.000  Zr
  Zr56     1.0000 0.76223  0.14485  0.25655  Biso   1.000  Zr
  Zr57     1.0000 0.74251  0.10583  0.00238  Biso   1.000  Zr
  Zr58     1.0000 0.75188  0.35521  0.99780  Biso   1.000  Zr
  Zr59     1.0000 0.74909  0.39490  0.24883  Biso   1.000  Zr
  Zr60     1.0000 0.62540  0.00008  0.62540  Biso   1.000  Zr
  Zr61     1.0000 0.62401  0.24889  0.87561  Biso   1.000  Zr
  Zr62     1.0000 0.87561  0.24889  0.62401  Biso   1.000  Zr
  Zr63     1.0000 0.87707  0.00177  0.87707  Biso   1.000  Zr
  Zr64     1.0000 0.49522  0.14546  0.49522  Biso   1.000  Zr
  Zr65     1.0000 0.50313  0.10476  0.74766  Biso   1.000  Zr
  Zr66     1.0000 0.49798  0.35491  0.75281  Biso   1.000  Zr
  Zr67     1.0000 0.50203  0.39484  0.50203  Biso   1.000  Zr
  Zr68     1.0000 0.75558  0.14546  0.75558  Biso   1.000  Zr
  Zr69     1.0000 0.74766  0.10477  0.50313  Biso   1.000  Zr
  Zr70     1.0000 0.75281  0.35491  0.49798  Biso   1.000  Zr
  Zr71     1.0000 0.74877  0.39484  0.74876  Biso   1.000  Zr
  Zr72     1.0000 0.62540  0.50008  0.12540  Biso   1.000  Zr
  Zr73     1.0000 0.62401  0.75126  0.37518  Biso   1.000  Zr
  Zr74     1.0000 0.87545  0.74930  0.12781  Biso   1.000  Zr
  Zr75     1.0000 0.87430  0.49916  0.37650  Biso   1.000  Zr
  Zr76     1.0000 0.49891  0.64494  0.99779  Biso   1.000  Zr
  Zr77     1.0000 0.50170  0.60525  0.24883  Biso   1.000  Zr
  Zr78     1.0000 0.48856  0.85530  0.25655  Biso   1.000  Zr
  Zr79     1.0000 0.50828  0.89432  0.00239  Biso   1.000  Zr
  Zr80     1.0000 0.75188  0.64494  0.25300  Biso   1.000  Zr
  Zr81     1.0000 0.74909  0.60525  0.00196  Biso   1.000  Zr
  Zr82     1.0000 0.76223  0.85530  0.99424  Biso   1.000  Zr
  Zr83     1.0000 0.74251  0.89433  0.24841  Biso   1.000  Zr
  Zr84     1.0000 0.62540  0.50008  0.62540  Biso   1.000  Zr
  Zr85     1.0000 0.62678  0.75126  0.87561  Biso   1.000  Zr
  Zr86     1.0000 0.87561  0.75126  0.62678  Biso   1.000  Zr
  Zr87     1.0000 0.87430  0.50099  0.87430  Biso   1.000  Zr
  Zr88     1.0000 0.49798  0.64524  0.49798  Biso   1.000  Zr
  Zr89     1.0000 0.50203  0.60531  0.74877  Biso   1.000  Zr
  Zr90     1.0000 0.49522  0.85469  0.75558  Biso   1.000  Zr
  Zr91     1.0000 0.50313  0.89539  0.50313  Biso   1.000  Zr
  Zr92     1.0000 0.75281  0.64524  0.75281  Biso   1.000  Zr
  Zr93     1.0000 0.74877  0.60531  0.50203  Biso   1.000  Zr
  Zr94     1.0000 0.75558  0.85469  0.49522  Biso   1.000  Zr
  Zr95     1.0000 0.74766  0.89539  0.74766  Biso   1.000  Zr
