data_image0
_cell_length_a       10.1038
_cell_length_b       10.1038
_cell_length_c       5.10829
_cell_angle_alpha    89.9999
_cell_angle_beta     89.9999
_cell_angle_gamma    90

_symmetry_space_group_name_H-M    "P 1"
_symmetry_int_tables_number       1

loop_
  _symmetry_equiv_pos_as_xyz
  'x, y, z'

loop_
  _atom_site_label
  _atom_site_occupancy
  _atom_site_fract_x
  _atom_site_fract_y
  _atom_site_fract_z
  _atom_site_thermal_displace_type
  _atom_site_B_iso_or_equiv
  _atom_site_type_symbol
  Zr1      1.0000 0.12540  0.98749  0.25079  Biso   1.000  Zr
  Zr2      1.0000 0.12540  0.25007  0.75079  Biso   1.000  Zr
  Zr3      1.0000 0.38798  0.25008  0.25079  Biso   1.000  Zr
  Zr4      1.0000 0.37215  0.00333  0.74786  Biso   1.000  Zr
  Zr5      1.0000 0.00304  0.12773  0.99232  Biso   1.000  Zr
  Zr6      1.0000 0.00026  0.12494  0.47845  Biso   1.000  Zr
  Zr7      1.0000 0.00304  0.37242  0.50927  Biso   1.000  Zr
  Zr8      1.0000 0.00027  0.37521  0.02314  Biso   1.000  Zr
  Zr9      1.0000 0.24775  0.12773  0.50927  Biso   1.000  Zr
  Zr10     1.0000 0.25053  0.12494  0.02314  Biso   1.000  Zr
  Zr11     1.0000 0.24775  0.37242  0.99232  Biso   1.000  Zr
  Zr12     1.0000 0.25053  0.37521  0.47845  Biso   1.000  Zr
  Zr13     1.0000 0.12540  0.51267  0.25079  Biso   1.000  Zr
  Zr14     1.0000 0.12540  0.75007  0.75079  Biso   1.000  Zr
  Zr15     1.0000 0.37823  0.75007  0.25079  Biso   1.000  Zr
  Zr16     1.0000 0.37215  0.49682  0.75372  Biso   1.000  Zr
  Zr17     1.0000 0.00447  0.62572  0.96720  Biso   1.000  Zr
  Zr18     1.0000 0.99335  0.62560  0.47222  Biso   1.000  Zr
  Zr19     1.0000 0.00447  0.87443  0.53438  Biso   1.000  Zr
  Zr20     1.0000 0.99335  0.87455  0.02936  Biso   1.000  Zr
  Zr21     1.0000 0.24632  0.62572  0.53439  Biso   1.000  Zr
  Zr22     1.0000 0.25744  0.62560  0.02936  Biso   1.000  Zr
  Zr23     1.0000 0.24632  0.87443  0.96720  Biso   1.000  Zr
  Zr24     1.0000 0.25745  0.87455  0.47222  Biso   1.000  Zr
  Zr25     1.0000 0.62540  0.99725  0.25079  Biso   1.000  Zr
  Zr26     1.0000 0.62540  0.25008  0.75079  Biso   1.000  Zr
  Zr27     1.0000 0.86281  0.25008  0.25079  Biso   1.000  Zr
  Zr28     1.0000 0.87865  0.00333  0.75372  Biso   1.000  Zr
  Zr29     1.0000 0.50104  0.12915  0.96722  Biso   1.000  Zr
  Zr30     1.0000 0.50092  0.11803  0.47224  Biso   1.000  Zr
  Zr31     1.0000 0.50104  0.37100  0.53436  Biso   1.000  Zr
  Zr32     1.0000 0.50092  0.38212  0.02934  Biso   1.000  Zr
  Zr33     1.0000 0.74975  0.12915  0.53436  Biso   1.000  Zr
  Zr34     1.0000 0.74987  0.11803  0.02934  Biso   1.000  Zr
  Zr35     1.0000 0.74975  0.37100  0.96722  Biso   1.000  Zr
  Zr36     1.0000 0.74987  0.38212  0.47225  Biso   1.000  Zr
  Zr37     1.0000 0.62540  0.50290  0.25079  Biso   1.000  Zr
  Zr38     1.0000 0.62539  0.75007  0.75079  Biso   1.000  Zr
  Zr39     1.0000 0.87256  0.75008  0.25079  Biso   1.000  Zr
  Zr40     1.0000 0.87865  0.49682  0.74786  Biso   1.000  Zr
  Zr41     1.0000 0.50363  0.62830  0.96267  Biso   1.000  Zr
  Zr42     1.0000 0.49464  0.61932  0.46318  Biso   1.000  Zr
  Zr43     1.0000 0.50363  0.87185  0.53891  Biso   1.000  Zr
  Zr44     1.0000 0.49464  0.88083  0.03840  Biso   1.000  Zr
  Zr45     1.0000 0.74716  0.62830  0.53891  Biso   1.000  Zr
  Zr46     1.0000 0.75615  0.61932  0.03840  Biso   1.000  Zr
  Zr47     1.0000 0.74716  0.87185  0.96267  Biso   1.000  Zr
  Zr48     1.0000 0.75615  0.88083  0.46319  Biso   1.000  Zr
  Ti1      1.0000 0.12540  0.25007  0.25079  Biso   1.000  Ti
