data_image0
_cell_length_a       10.3213
_cell_length_b       10.4659
_cell_length_c       5.14093
_cell_angle_alpha    83.7653
_cell_angle_beta     89.601
_cell_angle_gamma    88.9571

_symmetry_space_group_name_H-M    "P 1"
_symmetry_int_tables_number       1

loop_
  _symmetry_equiv_pos_as_xyz
  'x, y, z'

loop_
  _atom_site_label
  _atom_site_occupancy
  _atom_site_fract_x
  _atom_site_fract_y
  _atom_site_fract_z
  _atom_site_thermal_displace_type
  _atom_site_B_iso_or_equiv
  _atom_site_type_symbol
  Zr1      1.0000 0.14265  0.97340  0.24475  Biso   1.000  Zr
  Zr2      1.0000 0.13833  0.22543  0.61434  Biso   1.000  Zr
  Zr3      1.0000 0.41700  0.26093  0.26242  Biso   1.000  Zr
  Zr4      1.0000 0.36993  0.99057  0.73496  Biso   1.000  Zr
  Zr5      1.0000 0.96083  0.18278  0.85936  Biso   1.000  Zr
  Zr6      1.0000 0.01093  0.10870  0.41522  Biso   1.000  Zr
  Zr7      1.0000 0.01780  0.38711  0.57256  Biso   1.000  Zr
  Zr8      1.0000 0.94604  0.43946  0.08104  Biso   1.000  Zr
  Zr9      1.0000 0.27282  0.11613  0.39241  Biso   1.000  Zr
  Zr10     1.0000 0.20077  0.06170  0.88205  Biso   1.000  Zr
  Zr11     1.0000 0.33002  0.28494  0.89090  Biso   1.000  Zr
  Zr12     1.0000 0.26380  0.38665  0.44828  Biso   1.000  Zr
  Zr13     1.0000 0.09973  0.52738  0.30971  Biso   1.000  Zr
  Zr14     1.0000 0.14118  0.72797  0.77208  Biso   1.000  Zr
  Zr15     1.0000 0.39657  0.75992  0.30682  Biso   1.000  Zr
  Zr16     1.0000 0.36500  0.47557  0.73236  Biso   1.000  Zr
  Zr17     1.0000 0.01539  0.68397  0.08462  Biso   1.000  Zr
  Zr18     1.0000 0.99060  0.62721  0.57843  Biso   1.000  Zr
  Zr19     1.0000 0.01702  0.86542  0.54992  Biso   1.000  Zr
  Zr20     1.0000 0.97611  0.92554  0.06315  Biso   1.000  Zr
  Zr21     1.0000 0.24800  0.63375  0.48753  Biso   1.000  Zr
  Zr22     1.0000 0.21796  0.54878  0.96393  Biso   1.000  Zr
  Zr23     1.0000 0.24360  0.82281  0.04254  Biso   1.000  Zr
  Zr24     1.0000 0.26135  0.87175  0.53011  Biso   1.000  Zr
  Zr25     1.0000 0.63044  0.99842  0.26083  Biso   1.000  Zr
  Zr26     1.0000 0.64750  0.23128  0.71928  Biso   1.000  Zr
  Zr27     1.0000 0.86315  0.24797  0.18778  Biso   1.000  Zr
  Zr28     1.0000 0.89713  0.01429  0.72922  Biso   1.000  Zr
  Zr29     1.0000 0.54674  0.16922  0.06404  Biso   1.000  Zr
  Zr30     1.0000 0.50991  0.10814  0.55162  Biso   1.000  Zr
  Zr31     1.0000 0.51589  0.36193  0.53181  Biso   1.000  Zr
  Zr32     1.0000 0.48335  0.43518  0.05646  Biso   1.000  Zr
  Zr33     1.0000 0.75691  0.13430  0.46450  Biso   1.000  Zr
  Zr34     1.0000 0.75777  0.08846  0.98062  Biso   1.000  Zr
  Zr35     1.0000 0.73395  0.34621  0.95845  Biso   1.000  Zr
  Zr36     1.0000 0.75832  0.38290  0.46491  Biso   1.000  Zr
  Zr37     1.0000 0.61514  0.51670  0.27620  Biso   1.000  Zr
  Zr38     1.0000 0.64802  0.74434  0.77922  Biso   1.000  Zr
  Zr39     1.0000 0.88448  0.77435  0.31045  Biso   1.000  Zr
  Zr40     1.0000 0.85457  0.48765  0.73313  Biso   1.000  Zr
  Zr41     1.0000 0.51101  0.68107  0.05237  Biso   1.000  Zr
  Zr42     1.0000 0.49852  0.60753  0.54678  Biso   1.000  Zr
  Zr43     1.0000 0.51026  0.85918  0.55114  Biso   1.000  Zr
  Zr44     1.0000 0.46658  0.93525  0.07306  Biso   1.000  Zr
  Zr45     1.0000 0.74627  0.64160  0.49305  Biso   1.000  Zr
  Zr46     1.0000 0.74027  0.59136  0.98465  Biso   1.000  Zr
  Zr47     1.0000 0.72386  0.84239  0.07569  Biso   1.000  Zr
  Zr48     1.0000 0.76447  0.89180  0.55199  Biso   1.000  Zr
  Tl1      1.0000 0.13311  0.29762  0.08339  Biso   1.000  Tl
