data_image0
_cell_length_a       5.13493
_cell_length_b       10.5685
_cell_length_c       10.2037
_cell_angle_alpha    92.9669
_cell_angle_beta     88.3038
_cell_angle_gamma    90.051

_symmetry_space_group_name_H-M    "P 1"
_symmetry_int_tables_number       1

loop_
  _symmetry_equiv_pos_as_xyz
  'x, y, z'

loop_
  _atom_site_label
  _atom_site_occupancy
  _atom_site_fract_x
  _atom_site_fract_y
  _atom_site_fract_z
  _atom_site_thermal_displace_type
  _atom_site_B_iso_or_equiv
  _atom_site_type_symbol
  Zr1      1.0000 0.26434  0.98559  0.14176  Biso   1.000  Zr
  Zr2      1.0000 0.21255  0.19203  0.40151  Biso   1.000  Zr
  Zr3      1.0000 0.60147  0.25662  0.10948  Biso   1.000  Zr
  Zr4      1.0000 0.78182  0.96635  0.39679  Biso   1.000  Zr
  Zr5      1.0000 0.89536  0.18708  0.98689  Biso   1.000  Zr
  Zr6      1.0000 0.99536  0.07241  0.27304  Biso   1.000  Zr
  Zr7      1.0000 0.87778  0.30149  0.40489  Biso   1.000  Zr
  Zr8      1.0000 0.05152  0.43886  0.96037  Biso   1.000  Zr
  Zr9      1.0000 0.46106  0.13944  0.24458  Biso   1.000  Zr
  Zr10     1.0000 0.41065  0.11134  0.99358  Biso   1.000  Zr
  Zr11     1.0000 0.52116  0.37880  0.96733  Biso   1.000  Zr
  Zr12     1.0000 0.57015  0.42315  0.21992  Biso   1.000  Zr
  Zr13     1.0000 0.27585  0.99166  0.64632  Biso   1.000  Zr
  Zr14     1.0000 0.21926  0.25469  0.86204  Biso   1.000  Zr
  Zr15     1.0000 0.69977  0.26110  0.59705  Biso   1.000  Zr
  Zr16     1.0000 0.73427  0.02323  0.88992  Biso   1.000  Zr
  Zr17     1.0000 0.98495  0.11197  0.54038  Biso   1.000  Zr
  Zr18     1.0000 0.05609  0.07783  0.78569  Biso   1.000  Zr
  Zr19     1.0000 0.93149  0.31091  0.75247  Biso   1.000  Zr
  Zr20     1.0000 0.85605  0.45219  0.58552  Biso   1.000  Zr
  Zr21     1.0000 0.51614  0.14435  0.74278  Biso   1.000  Zr
  Zr22     1.0000 0.49449  0.08615  0.49486  Biso   1.000  Zr
  Zr23     1.0000 0.38629  0.34278  0.49325  Biso   1.000  Zr
  Zr24     1.0000 0.43930  0.38960  0.73209  Biso   1.000  Zr
  Zr25     1.0000 0.33707  0.53817  0.08625  Biso   1.000  Zr
  Zr26     1.0000 0.29021  0.73782  0.36602  Biso   1.000  Zr
  Zr27     1.0000 0.77677  0.77135  0.10059  Biso   1.000  Zr
  Zr28     1.0000 0.78521  0.49164  0.38012  Biso   1.000  Zr
  Zr29     1.0000 0.11194  0.68869  0.01764  Biso   1.000  Zr
  Zr30     1.0000 0.07487  0.55642  0.25187  Biso   1.000  Zr
  Zr31     1.0000 0.01966  0.82999  0.25218  Biso   1.000  Zr
  Zr32     1.0000 0.96266  0.93297  0.01988  Biso   1.000  Zr
  Zr33     1.0000 0.53534  0.66576  0.21518  Biso   1.000  Zr
  Zr34     1.0000 0.60132  0.62793  0.96150  Biso   1.000  Zr
  Zr35     1.0000 0.49391  0.87013  0.99915  Biso   1.000  Zr
  Zr36     1.0000 0.51798  0.89697  0.25838  Biso   1.000  Zr
  Zr37     1.0000 0.25866  0.50769  0.60500  Biso   1.000  Zr
  Zr38     1.0000 0.31519  0.74649  0.85538  Biso   1.000  Zr
  Zr39     1.0000 0.81361  0.75051  0.62888  Biso   1.000  Zr
  Zr40     1.0000 0.76306  0.48137  0.82556  Biso   1.000  Zr
  Zr41     1.0000 0.01218  0.64321  0.48700  Biso   1.000  Zr
  Zr42     1.0000 0.04240  0.61165  0.75682  Biso   1.000  Zr
  Zr43     1.0000 0.06893  0.84490  0.74489  Biso   1.000  Zr
  Zr44     1.0000 0.06226  0.87996  0.50161  Biso   1.000  Zr
  Zr45     1.0000 0.53008  0.63603  0.71551  Biso   1.000  Zr
  Zr46     1.0000 0.47683  0.58711  0.45932  Biso   1.000  Zr
  Zr47     1.0000 0.55948  0.82877  0.49816  Biso   1.000  Zr
  Zr48     1.0000 0.56084  0.89034  0.75105  Biso   1.000  Zr
  Tl1      1.0000 0.08160  0.32264  0.16938  Biso   1.000  Tl
