data_image0
_cell_length_a       10.1262
_cell_length_b       10.3155
_cell_length_c       5.22024
_cell_angle_alpha    90.0568
_cell_angle_beta     80.3977
_cell_angle_gamma    89.862

_symmetry_space_group_name_H-M    "P 1"
_symmetry_int_tables_number       1

loop_
  _symmetry_equiv_pos_as_xyz
  'x, y, z'

loop_
  _atom_site_label
  _atom_site_occupancy
  _atom_site_fract_x
  _atom_site_fract_y
  _atom_site_fract_z
  _atom_site_thermal_displace_type
  _atom_site_B_iso_or_equiv
  _atom_site_type_symbol
  V1       1.0000 0.13046  0.02574  0.29371  Biso   1.000  V
  Zr1      1.0000 0.14029  0.52166  0.29160  Biso   1.000  Zr
  Zr2      1.0000 0.63799  0.02122  0.29132  Biso   1.000  Zr
  Zr3      1.0000 0.63772  0.52267  0.29118  Biso   1.000  Zr
  Zr4      1.0000 0.14128  0.22569  0.78652  Biso   1.000  Zr
  Zr5      1.0000 0.13999  0.73148  0.79116  Biso   1.000  Zr
  Zr6      1.0000 0.63880  0.22853  0.79029  Biso   1.000  Zr
  Zr7      1.0000 0.63772  0.73005  0.79400  Biso   1.000  Zr
  Zr8      1.0000 0.35907  0.26898  0.20970  Biso   1.000  Zr
  Zr9      1.0000 0.35650  0.77642  0.21233  Biso   1.000  Zr
  Zr10     1.0000 0.86192  0.27006  0.21049  Biso   1.000  Zr
  Zr11     1.0000 0.86338  0.77224  0.20913  Biso   1.000  Zr
  Zr12     1.0000 0.36105  0.47918  0.71034  Biso   1.000  Zr
  Zr13     1.0000 0.35614  0.97970  0.71054  Biso   1.000  Zr
  Zr14     1.0000 0.86203  0.47852  0.71092  Biso   1.000  Zr
  Zr15     1.0000 0.86356  0.97949  0.70564  Biso   1.000  Zr
  O1       1.0000 0.03842  0.15763  0.16008  Biso   1.000  O
  O2       1.0000 0.03579  0.66926  0.16375  Biso   1.000  O
  O3       1.0000 0.53770  0.17241  0.16522  Biso   1.000  O
  O4       1.0000 0.53535  0.67314  0.16518  Biso   1.000  O
  O5       1.0000 0.04056  0.07865  0.63529  Biso   1.000  O
  O6       1.0000 0.03698  0.57928  0.66528  Biso   1.000  O
  O7       1.0000 0.53533  0.07903  0.66518  Biso   1.000  O
  O8       1.0000 0.53711  0.57823  0.66679  Biso   1.000  O
  O9       1.0000 0.46260  0.42169  0.33514  Biso   1.000  O
  O10      1.0000 0.46438  0.92067  0.33914  Biso   1.000  O
  O11      1.0000 0.96679  0.41633  0.34065  Biso   1.000  O
  O12      1.0000 0.97665  0.92237  0.32871  Biso   1.000  O
  O13      1.0000 0.46219  0.32728  0.83536  Biso   1.000  O
  O14      1.0000 0.45970  0.82923  0.83632  Biso   1.000  O
  O15      1.0000 0.96514  0.32612  0.84100  Biso   1.000  O
  O16      1.0000 0.96331  0.82958  0.83555  Biso   1.000  O
  O17      1.0000 0.27147  0.12409  0.47286  Biso   1.000  O
  O18      1.0000 0.27650  0.63045  0.48330  Biso   1.000  O
  O19      1.0000 0.77719  0.12847  0.48073  Biso   1.000  O
  O20      1.0000 0.77693  0.62947  0.48362  Biso   1.000  O
  O21      1.0000 0.27351  0.12049  0.98658  Biso   1.000  O
  O22      1.0000 0.27646  0.62260  0.98322  Biso   1.000  O
  O23      1.0000 0.77841  0.12040  0.97963  Biso   1.000  O
  O24      1.0000 0.77694  0.62198  0.98379  Biso   1.000  O
  O25      1.0000 0.22263  0.37864  0.01825  Biso   1.000  O
  O26      1.0000 0.21675  0.88637  0.02957  Biso   1.000  O
  O27      1.0000 0.72513  0.37900  0.01957  Biso   1.000  O
  O28      1.0000 0.72381  0.87955  0.01829  Biso   1.000  O
  O29      1.0000 0.22442  0.36922  0.51916  Biso   1.000  O
  O30      1.0000 0.22001  0.87378  0.51883  Biso   1.000  O
  O31      1.0000 0.72461  0.37063  0.51828  Biso   1.000  O
  O32      1.0000 0.72932  0.87227  0.51682  Biso   1.000  O
