data_image0
_cell_length_a       5.0008
_cell_length_b       10.3965
_cell_length_c       10.0545
_cell_angle_alpha    89.8227
_cell_angle_beta     89.7352
_cell_angle_gamma    89.9683

_symmetry_space_group_name_H-M    "P 1"
_symmetry_int_tables_number       1

loop_
  _symmetry_equiv_pos_as_xyz
  'x, y, z'

loop_
  _atom_site_label
  _atom_site_occupancy
  _atom_site_fract_x
  _atom_site_fract_y
  _atom_site_fract_z
  _atom_site_thermal_displace_type
  _atom_site_B_iso_or_equiv
  _atom_site_type_symbol
  W1       1.0000 0.27936  0.01912  0.12338  Biso   1.000  W 
  Zr1      1.0000 0.26723  0.23371  0.37537  Biso   1.000  Zr
  Zr2      1.0000 0.73538  0.26528  0.12490  Biso   1.000  Zr
  Zr3      1.0000 0.73316  0.48493  0.37551  Biso   1.000  Zr
  Zr4      1.0000 0.07581  0.17738  0.19466  Biso   1.000  Zr
  Zr5      1.0000 0.06589  0.06911  0.45036  Biso   1.000  Zr
  Zr6      1.0000 0.93315  0.43042  0.19487  Biso   1.000  Zr
  Zr7      1.0000 0.93040  0.31705  0.44556  Biso   1.000  Zr
  Zr8      1.0000 0.53500  0.11587  0.24614  Biso   1.000  Zr
  Zr9      1.0000 0.53976  0.13331  0.49745  Biso   1.000  Zr
  Zr10     1.0000 0.46097  0.38291  0.49922  Biso   1.000  Zr
  Zr11     1.0000 0.46394  0.36743  0.24947  Biso   1.000  Zr
  Zr12     1.0000 0.26915  0.01508  0.62569  Biso   1.000  Zr
  Zr13     1.0000 0.26664  0.23388  0.87682  Biso   1.000  Zr
  Zr14     1.0000 0.73215  0.26485  0.62601  Biso   1.000  Zr
  Zr15     1.0000 0.73016  0.48476  0.87525  Biso   1.000  Zr
  Zr16     1.0000 0.06661  0.18110  0.70118  Biso   1.000  Zr
  Zr17     1.0000 0.06814  0.06392  0.96103  Biso   1.000  Zr
  Zr18     1.0000 0.92740  0.43308  0.69394  Biso   1.000  Zr
  Zr19     1.0000 0.92491  0.31419  0.94377  Biso   1.000  Zr
  Zr20     1.0000 0.53767  0.11656  0.74964  Biso   1.000  Zr
  Zr21     1.0000 0.53588  0.13000  0.99958  Biso   1.000  Zr
  Zr22     1.0000 0.45926  0.38155  0.99987  Biso   1.000  Zr
  Zr23     1.0000 0.45867  0.36618  0.74961  Biso   1.000  Zr
  Zr24     1.0000 0.27061  0.51698  0.12649  Biso   1.000  Zr
  Zr25     1.0000 0.27111  0.73622  0.37345  Biso   1.000  Zr
  Zr26     1.0000 0.73481  0.76987  0.12342  Biso   1.000  Zr
  Zr27     1.0000 0.73999  0.98553  0.37209  Biso   1.000  Zr
  Zr28     1.0000 0.07062  0.68375  0.19328  Biso   1.000  Zr
  Zr29     1.0000 0.07302  0.56740  0.44282  Biso   1.000  Zr
  Zr30     1.0000 0.95105  0.93472  0.19087  Biso   1.000  Zr
  Zr31     1.0000 0.93290  0.81813  0.44434  Biso   1.000  Zr
  Zr32     1.0000 0.54204  0.61944  0.24886  Biso   1.000  Zr
  Zr33     1.0000 0.54033  0.63376  0.49841  Biso   1.000  Zr
  Zr34     1.0000 0.46361  0.88426  0.49587  Biso   1.000  Zr
  Zr35     1.0000 0.45845  0.87353  0.24370  Biso   1.000  Zr
  Zr36     1.0000 0.26698  0.51586  0.62465  Biso   1.000  Zr
  Zr37     1.0000 0.26454  0.73330  0.87493  Biso   1.000  Zr
  Zr38     1.0000 0.73266  0.76648  0.62475  Biso   1.000  Zr
  Zr39     1.0000 0.73222  0.98322  0.87685  Biso   1.000  Zr
  Zr40     1.0000 0.06964  0.68314  0.69364  Biso   1.000  Zr
  Zr41     1.0000 0.07049  0.56441  0.94467  Biso   1.000  Zr
  Zr42     1.0000 0.92975  0.93357  0.69652  Biso   1.000  Zr
  Zr43     1.0000 0.91598  0.81425  0.94064  Biso   1.000  Zr
  Zr44     1.0000 0.53768  0.61670  0.74854  Biso   1.000  Zr
  Zr45     1.0000 0.53858  0.63284  0.99913  Biso   1.000  Zr
  Zr46     1.0000 0.43623  0.88351  0.99729  Biso   1.000  Zr
  Zr47     1.0000 0.46055  0.86658  0.74785  Biso   1.000  Zr
