data_image0
_cell_length_a       5.02752
_cell_length_b       10.1665
_cell_length_c       10.0525
_cell_angle_alpha    90
_cell_angle_beta     89.9999
_cell_angle_gamma    90.0001

_symmetry_space_group_name_H-M    "P 1"
_symmetry_int_tables_number       1

loop_
  _symmetry_equiv_pos_as_xyz
  'x, y, z'

loop_
  _atom_site_label
  _atom_site_occupancy
  _atom_site_fract_x
  _atom_site_fract_y
  _atom_site_fract_z
  _atom_site_thermal_displace_type
  _atom_site_B_iso_or_equiv
  _atom_site_type_symbol
  W1       1.0000 0.25079  0.00008  0.12540  Biso   1.000  W 
  Zr1      1.0000 0.25307  0.24940  0.37480  Biso   1.000  Zr
  Zr2      1.0000 0.75079  0.24901  0.12540  Biso   1.000  Zr
  Zr3      1.0000 0.75079  0.00007  0.37518  Biso   1.000  Zr
  Zr4      1.0000 0.99071  0.14254  0.99540  Biso   1.000  Zr
  Zr5      1.0000 0.01154  0.10154  0.24224  Biso   1.000  Zr
  Zr6      1.0000 0.99449  0.35361  0.25433  Biso   1.000  Zr
  Zr7      1.0000 0.00377  0.39463  0.00293  Biso   1.000  Zr
  Zr8      1.0000 0.51088  0.14254  0.25540  Biso   1.000  Zr
  Zr9      1.0000 0.49005  0.10154  0.00855  Biso   1.000  Zr
  Zr10     1.0000 0.50709  0.35361  0.99647  Biso   1.000  Zr
  Zr11     1.0000 0.49782  0.39462  0.24786  Biso   1.000  Zr
  Zr12     1.0000 0.25080  0.00008  0.62540  Biso   1.000  Zr
  Zr13     1.0000 0.24851  0.24940  0.87600  Biso   1.000  Zr
  Zr14     1.0000 0.75079  0.25005  0.62540  Biso   1.000  Zr
  Zr15     1.0000 0.75079  0.00008  0.87561  Biso   1.000  Zr
  Zr16     1.0000 0.98933  0.14461  0.49220  Biso   1.000  Zr
  Zr17     1.0000 0.00605  0.10668  0.74554  Biso   1.000  Zr
  Zr18     1.0000 0.99621  0.35566  0.75407  Biso   1.000  Zr
  Zr19     1.0000 0.00235  0.39436  0.50336  Biso   1.000  Zr
  Zr20     1.0000 0.51225  0.14461  0.75860  Biso   1.000  Zr
  Zr21     1.0000 0.49554  0.10668  0.50525  Biso   1.000  Zr
  Zr22     1.0000 0.50538  0.35566  0.49672  Biso   1.000  Zr
  Zr23     1.0000 0.49923  0.39436  0.74743  Biso   1.000  Zr
  Zr24     1.0000 0.25080  0.50008  0.12540  Biso   1.000  Zr
  Zr25     1.0000 0.24852  0.75075  0.37480  Biso   1.000  Zr
  Zr26     1.0000 0.75079  0.75114  0.12540  Biso   1.000  Zr
  Zr27     1.0000 0.75079  0.50008  0.37605  Biso   1.000  Zr
  Zr28     1.0000 0.99449  0.64654  0.99647  Biso   1.000  Zr
  Zr29     1.0000 0.00376  0.60553  0.24786  Biso   1.000  Zr
  Zr30     1.0000 0.99071  0.85761  0.25539  Biso   1.000  Zr
  Zr31     1.0000 0.01154  0.89861  0.00855  Biso   1.000  Zr
  Zr32     1.0000 0.50710  0.64654  0.25432  Biso   1.000  Zr
  Zr33     1.0000 0.49782  0.60553  0.00293  Biso   1.000  Zr
  Zr34     1.0000 0.51087  0.85761  0.99540  Biso   1.000  Zr
  Zr35     1.0000 0.49004  0.89861  0.24224  Biso   1.000  Zr
  Zr36     1.0000 0.25079  0.50008  0.62540  Biso   1.000  Zr
  Zr37     1.0000 0.25307  0.75075  0.87600  Biso   1.000  Zr
  Zr38     1.0000 0.75079  0.75010  0.62540  Biso   1.000  Zr
  Zr39     1.0000 0.75079  0.50007  0.87474  Biso   1.000  Zr
  Zr40     1.0000 0.99620  0.64449  0.49673  Biso   1.000  Zr
  Zr41     1.0000 0.00235  0.60579  0.74743  Biso   1.000  Zr
  Zr42     1.0000 0.98933  0.85554  0.75860  Biso   1.000  Zr
  Zr43     1.0000 0.00605  0.89347  0.50525  Biso   1.000  Zr
  Zr44     1.0000 0.50538  0.64449  0.75407  Biso   1.000  Zr
  Zr45     1.0000 0.49924  0.60579  0.50336  Biso   1.000  Zr
  Zr46     1.0000 0.51225  0.85554  0.49219  Biso   1.000  Zr
  Zr47     1.0000 0.49553  0.89347  0.74554  Biso   1.000  Zr
