data_image0
_cell_length_a       10.2724
_cell_length_b       5.17889
_cell_length_c       10.5219
_cell_angle_alpha    90.0418
_cell_angle_beta     80.2145
_cell_angle_gamma    90.1398

_symmetry_space_group_name_H-M    "P 1"
_symmetry_int_tables_number       1

loop_
  _symmetry_equiv_pos_as_xyz
  'x, y, z'

loop_
  _atom_site_label
  _atom_site_occupancy
  _atom_site_fract_x
  _atom_site_fract_y
  _atom_site_fract_z
  _atom_site_thermal_displace_type
  _atom_site_B_iso_or_equiv
  _atom_site_type_symbol
  Y1       1.0000 0.13898  0.03441  0.14440  Biso   1.000  Y
  Zr1      1.0000 0.13982  0.04243  0.64589  Biso   1.000  Zr
  Zr2      1.0000 0.63896  0.03858  0.14572  Biso   1.000  Zr
  Zr3      1.0000 0.63938  0.04300  0.64531  Biso   1.000  Zr
  Zr4      1.0000 0.14084  0.45454  0.39564  Biso   1.000  Zr
  Zr5      1.0000 0.14061  0.46050  0.89575  Biso   1.000  Zr
  Zr6      1.0000 0.63701  0.45715  0.39565  Biso   1.000  Zr
  Zr7      1.0000 0.64046  0.45792  0.89509  Biso   1.000  Zr
  Zr8      1.0000 0.36159  0.53570  0.10422  Biso   1.000  Zr
  Zr9      1.0000 0.36015  0.54249  0.60461  Biso   1.000  Zr
  Zr10     1.0000 0.85896  0.54062  0.10406  Biso   1.000  Zr
  Zr11     1.0000 0.86127  0.54298  0.60377  Biso   1.000  Zr
  Zr12     1.0000 0.35980  0.95697  0.35384  Biso   1.000  Zr
  Zr13     1.0000 0.36202  0.95706  0.85470  Biso   1.000  Zr
  Zr14     1.0000 0.85829  0.95807  0.35503  Biso   1.000  Zr
  Zr15     1.0000 0.86081  0.95851  0.85411  Biso   1.000  Zr
  O1       1.0000 0.03397  0.35803  0.07718  Biso   1.000  O
  O2       1.0000 0.03521  0.34066  0.58331  Biso   1.000  O
  O3       1.0000 0.53571  0.33199  0.07840  Biso   1.000  O
  O4       1.0000 0.53247  0.33226  0.57989  Biso   1.000  O
  O5       1.0000 0.02830  0.17032  0.33867  Biso   1.000  O
  O6       1.0000 0.03516  0.16174  0.83086  Biso   1.000  O
  O7       1.0000 0.53379  0.16353  0.32957  Biso   1.000  O
  O8       1.0000 0.53583  0.16668  0.82799  Biso   1.000  O
  O9       1.0000 0.46621  0.83259  0.17040  Biso   1.000  O
  O10      1.0000 0.46710  0.83198  0.67115  Biso   1.000  O
  O11      1.0000 0.95047  0.83926  0.17242  Biso   1.000  O
  O12      1.0000 0.96519  0.83945  0.66845  Biso   1.000  O
  O13      1.0000 0.46471  0.66448  0.42213  Biso   1.000  O
  O14      1.0000 0.47219  0.67154  0.92094  Biso   1.000  O
  O15      1.0000 0.96636  0.66721  0.42031  Biso   1.000  O
  O16      1.0000 0.96495  0.66603  0.91636  Biso   1.000  O
  O17      1.0000 0.28082  0.25835  0.24532  Biso   1.000  O
  O18      1.0000 0.27520  0.25787  0.73999  Biso   1.000  O
  O19      1.0000 0.77318  0.25755  0.24120  Biso   1.000  O
  O20      1.0000 0.77620  0.25782  0.73964  Biso   1.000  O
  O21      1.0000 0.27454  0.24120  0.49255  Biso   1.000  O
  O22      1.0000 0.28142  0.24612  0.98500  Biso   1.000  O
  O23      1.0000 0.77287  0.24534  0.49152  Biso   1.000  O
  O24      1.0000 0.77488  0.24030  0.98971  Biso   1.000  O
  O25      1.0000 0.23305  0.74419  0.00223  Biso   1.000  O
  O26      1.0000 0.22446  0.75742  0.51013  Biso   1.000  O
  O27      1.0000 0.72478  0.75661  0.00839  Biso   1.000  O
  O28      1.0000 0.72464  0.75752  0.50963  Biso   1.000  O
  O29      1.0000 0.22917  0.73168  0.26148  Biso   1.000  O
  O30      1.0000 0.22524  0.74531  0.75763  Biso   1.000  O
  O31      1.0000 0.71689  0.74117  0.26161  Biso   1.000  O
  O32      1.0000 0.72607  0.74286  0.75817  Biso   1.000  O
