data_image0
_cell_length_a       10.1683
_cell_length_b       5.16193
_cell_length_c       10.5245
_cell_angle_alpha    90.0209
_cell_angle_beta     89.9379
_cell_angle_gamma    90.1019

_symmetry_space_group_name_H-M    "P 1"
_symmetry_int_tables_number       1

loop_
  _symmetry_equiv_pos_as_xyz
  'x, y, z'

loop_
  _atom_site_label
  _atom_site_occupancy
  _atom_site_fract_x
  _atom_site_fract_y
  _atom_site_fract_z
  _atom_site_thermal_displace_type
  _atom_site_B_iso_or_equiv
  _atom_site_type_symbol
  Y1       1.0000 0.13942  0.03457  0.17039  Biso   1.000  Y
  Zr1      1.0000 0.13973  0.04184  0.67201  Biso   1.000  Zr
  Zr2      1.0000 0.14126  0.45537  0.42216  Biso   1.000  Zr
  Zr3      1.0000 0.14033  0.46050  0.92182  Biso   1.000  Zr
  Zr4      1.0000 0.36132  0.53583  0.17124  Biso   1.000  Zr
  Zr5      1.0000 0.36081  0.54163  0.67180  Biso   1.000  Zr
  Zr6      1.0000 0.36089  0.95640  0.42101  Biso   1.000  Zr
  Zr7      1.0000 0.36126  0.95870  0.92181  Biso   1.000  Zr
  Zr8      1.0000 0.63868  0.03923  0.07875  Biso   1.000  Zr
  Zr9      1.0000 0.63876  0.04178  0.57810  Biso   1.000  Zr
  Zr10     1.0000 0.63881  0.45905  0.32822  Biso   1.000  Zr
  Zr11     1.0000 0.63848  0.45760  0.82796  Biso   1.000  Zr
  Zr12     1.0000 0.85889  0.54125  0.07719  Biso   1.000  Zr
  Zr13     1.0000 0.86119  0.54226  0.57812  Biso   1.000  Zr
  Zr14     1.0000 0.85911  0.95931  0.32860  Biso   1.000  Zr
  Zr15     1.0000 0.86009  0.95956  0.82803  Biso   1.000  Zr
  O1       1.0000 0.03074  0.34914  0.08045  Biso   1.000  O
  O2       1.0000 0.03320  0.33619  0.58828  Biso   1.000  O
  O3       1.0000 0.02634  0.17639  0.34259  Biso   1.000  O
  O4       1.0000 0.03235  0.16748  0.83476  Biso   1.000  O
  O5       1.0000 0.46923  0.82651  0.08282  Biso   1.000  O
  O6       1.0000 0.46904  0.82586  0.58260  Biso   1.000  O
  O7       1.0000 0.47116  0.67459  0.33246  Biso   1.000  O
  O8       1.0000 0.46879  0.67126  0.83175  Biso   1.000  O
  O9       1.0000 0.28057  0.24934  0.30107  Biso   1.000  O
  O10      1.0000 0.27444  0.24964  0.79452  Biso   1.000  O
  O11      1.0000 0.28084  0.25471  0.04072  Biso   1.000  O
  O12      1.0000 0.27491  0.24946  0.54714  Biso   1.000  O
  O13      1.0000 0.22953  0.73564  0.29894  Biso   1.000  O
  O14      1.0000 0.22565  0.75067  0.79386  Biso   1.000  O
  O15      1.0000 0.23239  0.73963  0.04032  Biso   1.000  O
  O16      1.0000 0.22550  0.75147  0.54653  Biso   1.000  O
  O17      1.0000 0.53229  0.32490  0.16759  Biso   1.000  O
  O18      1.0000 0.53140  0.32661  0.66698  Biso   1.000  O
  O19      1.0000 0.53218  0.17102  0.41770  Biso   1.000  O
  O20      1.0000 0.53294  0.17020  0.91630  Biso   1.000  O
  O21      1.0000 0.95451  0.82982  0.16694  Biso   1.000  O
  O22      1.0000 0.96693  0.83470  0.66420  Biso   1.000  O
  O23      1.0000 0.96909  0.67294  0.41684  Biso   1.000  O
  O24      1.0000 0.96730  0.67339  0.91261  Biso   1.000  O
  O25      1.0000 0.77415  0.24663  0.95339  Biso   1.000  O
  O26      1.0000 0.77337  0.25209  0.45571  Biso   1.000  O
  O27      1.0000 0.77429  0.25245  0.20484  Biso   1.000  O
  O28      1.0000 0.77453  0.25204  0.70416  Biso   1.000  O
  O29      1.0000 0.72413  0.74804  0.95317  Biso   1.000  O
  O30      1.0000 0.72583  0.75036  0.45478  Biso   1.000  O
  O31      1.0000 0.71797  0.75129  0.20496  Biso   1.000  O
  O32      1.0000 0.72538  0.75069  0.70380  Biso   1.000  O
