data_image0
_cell_length_a       10.15
_cell_length_b       5.20884
_cell_length_c       10.6748
_cell_angle_alpha    89.7588
_cell_angle_beta     91.6931
_cell_angle_gamma    90.2287

_symmetry_space_group_name_H-M    "P 1"
_symmetry_int_tables_number       1

loop_
  _symmetry_equiv_pos_as_xyz
  'x, y, z'

loop_
  _atom_site_label
  _atom_site_occupancy
  _atom_site_fract_x
  _atom_site_fract_y
  _atom_site_fract_z
  _atom_site_thermal_displace_type
  _atom_site_B_iso_or_equiv
  _atom_site_type_symbol
  Zr1      1.0000 0.13815  0.04255  0.17673  Biso   1.000  Zr
  Zr2      1.0000 0.13901  0.44988  0.42809  Biso   1.000  Zr
  Zr3      1.0000 0.34741  0.54669  0.18975  Biso   1.000  Zr
  Zr4      1.0000 0.36121  0.95138  0.43035  Biso   1.000  Zr
  Zr5      1.0000 0.64543  0.05425  0.08196  Biso   1.000  Zr
  Zr6      1.0000 0.63802  0.45285  0.33250  Biso   1.000  Zr
  Zr7      1.0000 0.87002  0.54352  0.07712  Biso   1.000  Zr
  Zr8      1.0000 0.86131  0.95559  0.32574  Biso   1.000  Zr
  O1       1.0000 0.03209  0.31877  0.08204  Biso   1.000  O
  O2       1.0000 0.02980  0.17296  0.33501  Biso   1.000  O
  O3       1.0000 0.45765  0.85698  0.10013  Biso   1.000  O
  O4       1.0000 0.46650  0.66697  0.34052  Biso   1.000  O
  O5       1.0000 0.27079  0.24832  0.30408  Biso   1.000  O
  O6       1.0000 0.27224  0.25228  0.05194  Biso   1.000  O
  O7       1.0000 0.21899  0.75165  0.30765  Biso   1.000  O
  O8       1.0000 0.21651  0.75398  0.05552  Biso   1.000  O
  O9       1.0000 0.52232  0.31916  0.18067  Biso   1.000  O
  O10      1.0000 0.53072  0.16558  0.41948  Biso   1.000  O
  O11      1.0000 0.96621  0.83033  0.17268  Biso   1.000  O
  O12      1.0000 0.97198  0.67377  0.42173  Biso   1.000  O
  O13      1.0000 0.77614  0.24689  0.45059  Biso   1.000  O
  O14      1.0000 0.77992  0.24896  0.20647  Biso   1.000  O
  O15      1.0000 0.72796  0.74720  0.44992  Biso   1.000  O
  O16      1.0000 0.71804  0.73125  0.19795  Biso   1.000  O
  Zr9      1.0000 0.14290  0.03883  0.67733  Biso   1.000  Zr
  Zr10     1.0000 0.14285  0.46164  0.92561  Biso   1.000  Zr
  Zr11     1.0000 0.36330  0.53919  0.67811  Biso   1.000  Zr
  Zr12     1.0000 0.35855  0.96478  0.93090  Biso   1.000  Zr
  Zr13     1.0000 0.64399  0.03092  0.57004  Biso   1.000  Zr
  Zr14     1.0000 0.65289  0.44814  0.79007  Biso   1.000  Zr
  Zr15     1.0000 0.87094  0.54238  0.57454  Biso   1.000  Zr
  Zr16     1.0000 0.86813  0.96425  0.82920  Biso   1.000  Zr
  O17      1.0000 0.03601  0.32078  0.58372  Biso   1.000  O
  O18      1.0000 0.03555  0.17734  0.83356  Biso   1.000  O
  O19      1.0000 0.47581  0.80935  0.58260  Biso   1.000  O
  O20      1.0000 0.47980  0.66587  0.83328  Biso   1.000  O
  O21      1.0000 0.27666  0.25250  0.80041  Biso   1.000  O
  O22      1.0000 0.27741  0.24370  0.55115  Biso   1.000  O
  O23      1.0000 0.22925  0.74746  0.80327  Biso   1.000  O
  O24      1.0000 0.22828  0.74559  0.55444  Biso   1.000  O
  O25      1.0000 0.52783  0.30006  0.66223  Biso   1.000  O
  O26      1.0000 0.52834  0.17165  0.92315  Biso   1.000  O
  O27      1.0000 0.97600  0.81915  0.67435  Biso   1.000  O
  O28      1.0000 0.97273  0.67499  0.92099  Biso   1.000  O
  O29      1.0000 0.76409  0.28749  0.94776  Biso   1.000  O
  O30      1.0000 0.78936  0.23187  0.69068  Biso   1.000  O
  O31      1.0000 0.73421  0.78393  0.95397  Biso   1.000  O
  O32      1.0000 0.73656  0.74830  0.69665  Biso   1.000  O
  Y1       1.0000 0.56884  0.54845  0.01865  Biso   1.000  Y
