data_image0
_cell_length_a       10.1285
_cell_length_b       10.2644
_cell_length_c       10.127
_cell_angle_alpha    89.6621
_cell_angle_beta     90
_cell_angle_gamma    90.0023

_symmetry_space_group_name_H-M    "P 1"
_symmetry_int_tables_number       1

loop_
  _symmetry_equiv_pos_as_xyz
  'x, y, z'

loop_
  _atom_site_label
  _atom_site_occupancy
  _atom_site_fract_x
  _atom_site_fract_y
  _atom_site_fract_z
  _atom_site_thermal_displace_type
  _atom_site_B_iso_or_equiv
  _atom_site_type_symbol
  Zr1      1.0000 0.13418  0.97226  0.09858  Biso   1.000  Zr
  Zr2      1.0000 0.12653  0.24891  0.37756  Biso   1.000  Zr
  Zr3      1.0000 0.38636  0.25015  0.10635  Biso   1.000  Zr
  Zr4      1.0000 0.37615  0.49666  0.35738  Biso   1.000  Zr
  Zr5      1.0000 0.97422  0.16364  0.25613  Biso   1.000  Zr
  Zr6      1.0000 0.00371  0.10550  0.49142  Biso   1.000  Zr
  Zr7      1.0000 0.49900  0.39653  0.22637  Biso   1.000  Zr
  Zr8      1.0000 0.49790  0.35428  0.47722  Biso   1.000  Zr
  Zr9      1.0000 0.23667  0.10536  0.23038  Biso   1.000  Zr
  Zr10     1.0000 0.25987  0.14230  0.48152  Biso   1.000  Zr
  Zr11     1.0000 0.24970  0.39542  0.48636  Biso   1.000  Zr
  Zr12     1.0000 0.25201  0.36178  0.23942  Biso   1.000  Zr
  Zr13     1.0000 0.12521  0.99420  0.60917  Biso   1.000  Zr
  Zr14     1.0000 0.12652  0.25138  0.83516  Biso   1.000  Zr
  Zr15     1.0000 0.38005  0.25015  0.60636  Biso   1.000  Zr
  Zr16     1.0000 0.37238  0.49619  0.86024  Biso   1.000  Zr
  Zr17     1.0000 0.99368  0.14016  0.73584  Biso   1.000  Zr
  Zr18     1.0000 0.99415  0.09269  0.99906  Biso   1.000  Zr
  Zr19     1.0000 0.50380  0.39682  0.72773  Biso   1.000  Zr
  Zr20     1.0000 0.49168  0.35500  0.97102  Biso   1.000  Zr
  Zr21     1.0000 0.24969  0.10487  0.72636  Biso   1.000  Zr
  Zr22     1.0000 0.25201  0.13851  0.97330  Biso   1.000  Zr
  Zr23     1.0000 0.23668  0.39493  0.98233  Biso   1.000  Zr
  Zr24     1.0000 0.25988  0.35799  0.73120  Biso   1.000  Zr
  Zr25     1.0000 0.13416  0.52803  0.11410  Biso   1.000  Zr
  Zr26     1.0000 0.12667  0.75628  0.36245  Biso   1.000  Zr
  Zr27     1.0000 0.38595  0.75014  0.10635  Biso   1.000  Zr
  Zr28     1.0000 0.37238  0.00411  0.35245  Biso   1.000  Zr
  Zr29     1.0000 0.00719  0.65510  0.22994  Biso   1.000  Zr
  Zr30     1.0000 0.00308  0.60797  0.47662  Biso   1.000  Zr
  Zr31     1.0000 0.50167  0.89620  0.22890  Biso   1.000  Zr
  Zr32     1.0000 0.49711  0.85423  0.47817  Biso   1.000  Zr
  Zr33     1.0000 0.26125  0.61603  0.23727  Biso   1.000  Zr
  Zr34     1.0000 0.25119  0.64662  0.48444  Biso   1.000  Zr
  Zr35     1.0000 0.24644  0.89632  0.47868  Biso   1.000  Zr
  Zr36     1.0000 0.25650  0.85533  0.23074  Biso   1.000  Zr
  Zr37     1.0000 0.12520  0.50609  0.60352  Biso   1.000  Zr
  Zr38     1.0000 0.12667  0.74400  0.85025  Biso   1.000  Zr
  Zr39     1.0000 0.37797  0.75014  0.60635  Biso   1.000  Zr
  Zr40     1.0000 0.37615  0.00363  0.85531  Biso   1.000  Zr
  Zr41     1.0000 0.99794  0.64338  0.72820  Biso   1.000  Zr
  Zr42     1.0000 0.00410  0.59932  0.97687  Biso   1.000  Zr
  Zr43     1.0000 0.50117  0.89596  0.72959  Biso   1.000  Zr
  Zr44     1.0000 0.50873  0.85407  0.97979  Biso   1.000  Zr
  Zr45     1.0000 0.24643  0.60396  0.73402  Biso   1.000  Zr
  Zr46     1.0000 0.25650  0.64496  0.98195  Biso   1.000  Zr
  Zr47     1.0000 0.26126  0.88426  0.97542  Biso   1.000  Zr
  Zr48     1.0000 0.25119  0.85367  0.72825  Biso   1.000  Zr
  Zr49     1.0000 0.62698  0.99473  0.10180  Biso   1.000  Zr
  Zr50     1.0000 0.62337  0.24808  0.35927  Biso   1.000  Zr
  Zr51     1.0000 0.84833  0.25015  0.10635  Biso   1.000  Zr
  Zr52     1.0000 0.87824  0.49807  0.35331  Biso   1.000  Zr
  Zr53     1.0000 0.49168  0.14529  0.24167  Biso   1.000  Zr
  Zr54     1.0000 0.50380  0.10347  0.48497  Biso   1.000  Zr
  Zr55     1.0000 0.99415  0.40760  0.21364  Biso   1.000  Zr
  Zr56     1.0000 0.99368  0.36013  0.47686  Biso   1.000  Zr
  Zr57     1.0000 0.73794  0.10485  0.22995  Biso   1.000  Zr
  Zr58     1.0000 0.75420  0.14806  0.47806  Biso   1.000  Zr
  Zr59     1.0000 0.74964  0.39730  0.48417  Biso   1.000  Zr
  Zr60     1.0000 0.74375  0.36097  0.23869  Biso   1.000  Zr
  Zr61     1.0000 0.62678  0.99884  0.60704  Biso   1.000  Zr
  Zr62     1.0000 0.62337  0.25221  0.85343  Biso   1.000  Zr
  Zr63     1.0000 0.87381  0.25015  0.60635  Biso   1.000  Zr
  Zr64     1.0000 0.87732  0.49288  0.85811  Biso   1.000  Zr
  Zr65     1.0000 0.49790  0.14601  0.73548  Biso   1.000  Zr
  Zr66     1.0000 0.49900  0.10377  0.98633  Biso   1.000  Zr
  Zr67     1.0000 0.00371  0.39479  0.72128  Biso   1.000  Zr
  Zr68     1.0000 0.97423  0.33667  0.95659  Biso   1.000  Zr
  Zr69     1.0000 0.74964  0.10299  0.72854  Biso   1.000  Zr
  Zr70     1.0000 0.74375  0.13933  0.97401  Biso   1.000  Zr
  Zr71     1.0000 0.73794  0.39544  0.98275  Biso   1.000  Zr
  Zr72     1.0000 0.75420  0.35223  0.73464  Biso   1.000  Zr
  Zr73     1.0000 0.62698  0.50556  0.11090  Biso   1.000  Zr
  Zr74     1.0000 0.62724  0.75423  0.35887  Biso   1.000  Zr
  Zr75     1.0000 0.87250  0.75015  0.10635  Biso   1.000  Zr
  Zr76     1.0000 0.87732  0.00741  0.35458  Biso   1.000  Zr
  Zr77     1.0000 0.50872  0.64622  0.23292  Biso   1.000  Zr
  Zr78     1.0000 0.50117  0.60433  0.48312  Biso   1.000  Zr
  Zr79     1.0000 0.00410  0.90098  0.23583  Biso   1.000  Zr
  Zr80     1.0000 0.99795  0.85691  0.48450  Biso   1.000  Zr
  Zr81     1.0000 0.75702  0.60790  0.22730  Biso   1.000  Zr
  Zr82     1.0000 0.75235  0.64754  0.47910  Biso   1.000  Zr
  Zr83     1.0000 0.74854  0.89797  0.48262  Biso   1.000  Zr
  Zr84     1.0000 0.75426  0.85642  0.23401  Biso   1.000  Zr
  Zr85     1.0000 0.62678  0.50145  0.60565  Biso   1.000  Zr
  Zr86     1.0000 0.62724  0.74606  0.85384  Biso   1.000  Zr
  Zr87     1.0000 0.87274  0.75015  0.60635  Biso   1.000  Zr
  Zr88     1.0000 0.87824  0.00222  0.85938  Biso   1.000  Zr
  Zr89     1.0000 0.49711  0.64606  0.73454  Biso   1.000  Zr
  Zr90     1.0000 0.50167  0.60409  0.98380  Biso   1.000  Zr
  Zr91     1.0000 0.00309  0.89232  0.73608  Biso   1.000  Zr
  Zr92     1.0000 0.00720  0.84519  0.98276  Biso   1.000  Zr
  Zr93     1.0000 0.74854  0.60231  0.73008  Biso   1.000  Zr
  Zr94     1.0000 0.75426  0.64388  0.97869  Biso   1.000  Zr
  Zr95     1.0000 0.75703  0.89239  0.98541  Biso   1.000  Zr
  Zr96     1.0000 0.75235  0.85275  0.73360  Biso   1.000  Zr
  Y1       1.0000 0.11541  0.25014  0.10636  Biso   1.000  Y 
