data_image0
_cell_length_a       10.1278
_cell_length_b       10.3273
_cell_length_c       10.5979
_cell_angle_alpha    90.01
_cell_angle_beta     90.7106
_cell_angle_gamma    90.144

_symmetry_space_group_name_H-M    "P 1"
_symmetry_int_tables_number       1

loop_
  _symmetry_equiv_pos_as_xyz
  'x, y, z'

loop_
  _atom_site_label
  _atom_site_occupancy
  _atom_site_fract_x
  _atom_site_fract_y
  _atom_site_fract_z
  _atom_site_thermal_displace_type
  _atom_site_B_iso_or_equiv
  _atom_site_type_symbol
  Zr1      1.0000 0.13963  0.02065  0.17309  Biso   1.000  Zr
  Zr2      1.0000 0.13890  0.22680  0.42630  Biso   1.000  Zr
  Zr3      1.0000 0.34972  0.27306  0.18914  Biso   1.000  Zr
  Zr4      1.0000 0.36150  0.47892  0.42611  Biso   1.000  Zr
  Zr5      1.0000 0.64106  0.00981  0.08063  Biso   1.000  Zr
  Zr6      1.0000 0.63823  0.22422  0.32927  Biso   1.000  Zr
  Zr7      1.0000 0.86662  0.27034  0.07713  Biso   1.000  Zr
  Zr8      1.0000 0.85990  0.47822  0.32622  Biso   1.000  Zr
  O1       1.0000 0.03418  0.16131  0.08211  Biso   1.000  O
  O2       1.0000 0.03133  0.08758  0.33159  Biso   1.000  O
  O3       1.0000 0.45600  0.42979  0.09564  Biso   1.000  O
  O4       1.0000 0.46635  0.33322  0.33946  Biso   1.000  O
  O5       1.0000 0.27175  0.12322  0.30205  Biso   1.000  O
  O6       1.0000 0.27912  0.12800  0.04800  Biso   1.000  O
  O7       1.0000 0.21768  0.37736  0.30536  Biso   1.000  O
  O8       1.0000 0.22048  0.37697  0.04991  Biso   1.000  O
  O9       1.0000 0.52231  0.14654  0.18234  Biso   1.000  O
  O10      1.0000 0.53099  0.08433  0.42161  Biso   1.000  O
  O11      1.0000 0.96657  0.41380  0.17117  Biso   1.000  O
  O12      1.0000 0.96969  0.33759  0.41868  Biso   1.000  O
  O13      1.0000 0.77561  0.12362  0.45142  Biso   1.000  O
  O14      1.0000 0.77734  0.12471  0.20336  Biso   1.000  O
  O15      1.0000 0.72518  0.37478  0.45040  Biso   1.000  O
  O16      1.0000 0.71452  0.37070  0.19571  Biso   1.000  O
  Zr9      1.0000 0.13966  0.02075  0.67461  Biso   1.000  Zr
  Zr10     1.0000 0.14178  0.22943  0.92398  Biso   1.000  Zr
  Zr11     1.0000 0.36214  0.27127  0.67541  Biso   1.000  Zr
  Zr12     1.0000 0.35932  0.48311  0.92486  Biso   1.000  Zr
  Zr13     1.0000 0.64117  0.01597  0.57405  Biso   1.000  Zr
  Zr14     1.0000 0.65288  0.22627  0.79885  Biso   1.000  Zr
  Zr15     1.0000 0.86562  0.27293  0.57287  Biso   1.000  Zr
  Zr16     1.0000 0.86426  0.47934  0.82925  Biso   1.000  Zr
  O17      1.0000 0.03229  0.16128  0.58142  Biso   1.000  O
  O18      1.0000 0.03288  0.08783  0.83255  Biso   1.000  O
  O19      1.0000 0.47109  0.41341  0.58541  Biso   1.000  O
  O20      1.0000 0.47268  0.33286  0.83813  Biso   1.000  O
  O21      1.0000 0.27621  0.12482  0.79769  Biso   1.000  O
  O22      1.0000 0.27634  0.12468  0.54968  Biso   1.000  O
  O23      1.0000 0.22640  0.37408  0.79964  Biso   1.000  O
  O24      1.0000 0.22655  0.37450  0.55118  Biso   1.000  O
  O25      1.0000 0.53036  0.15861  0.66169  Biso   1.000  O
  O26      1.0000 0.53204  0.08509  0.91812  Biso   1.000  O
  O27      1.0000 0.97185  0.41127  0.67088  Biso   1.000  O
  O28      1.0000 0.97122  0.33612  0.92026  Biso   1.000  O
  O29      1.0000 0.76752  0.13062  0.95198  Biso   1.000  O
  O30      1.0000 0.78622  0.11845  0.69397  Biso   1.000  O
  O31      1.0000 0.72859  0.38002  0.95034  Biso   1.000  O
  O32      1.0000 0.73070  0.37825  0.69723  Biso   1.000  O
  Zr17     1.0000 0.13868  0.52192  0.17393  Biso   1.000  Zr
  Zr18     1.0000 0.13814  0.72789  0.42340  Biso   1.000  Zr
  Zr19     1.0000 0.35995  0.77163  0.17484  Biso   1.000  Zr
  Zr20     1.0000 0.36125  0.97692  0.42548  Biso   1.000  Zr
  Zr21     1.0000 0.64065  0.53402  0.07718  Biso   1.000  Zr
  Zr22     1.0000 0.63920  0.72939  0.32978  Biso   1.000  Zr
  Zr23     1.0000 0.86516  0.77100  0.07875  Biso   1.000  Zr
  Zr24     1.0000 0.86331  0.97918  0.32845  Biso   1.000  Zr
  O33      1.0000 0.03267  0.66270  0.08226  Biso   1.000  O
  O34      1.0000 0.02928  0.58724  0.33299  Biso   1.000  O
  O35      1.0000 0.46875  0.90765  0.08005  Biso   1.000  O
  O36      1.0000 0.46952  0.83786  0.33314  Biso   1.000  O
  O37      1.0000 0.27365  0.62510  0.29777  Biso   1.000  O
  O38      1.0000 0.27446  0.62793  0.04646  Biso   1.000  O
  O39      1.0000 0.22497  0.87404  0.29826  Biso   1.000  O
  O40      1.0000 0.22421  0.87723  0.04815  Biso   1.000  O
  O41      1.0000 0.53255  0.66842  0.17080  Biso   1.000  O
  O42      1.0000 0.53099  0.58726  0.41884  Biso   1.000  O
  O43      1.0000 0.97012  0.91351  0.16948  Biso   1.000  O
  O44      1.0000 0.97002  0.83763  0.42120  Biso   1.000  O
  O45      1.0000 0.77607  0.62451  0.45380  Biso   1.000  O
  O46      1.0000 0.77728  0.62515  0.20509  Biso   1.000  O
  O47      1.0000 0.72703  0.87360  0.45514  Biso   1.000  O
  O48      1.0000 0.72978  0.87106  0.20682  Biso   1.000  O
  Zr25     1.0000 0.14017  0.52045  0.67375  Biso   1.000  Zr
  Zr26     1.0000 0.13951  0.73022  0.92255  Biso   1.000  Zr
  Zr27     1.0000 0.36215  0.77093  0.67375  Biso   1.000  Zr
  Zr28     1.0000 0.36318  0.97834  0.92358  Biso   1.000  Zr
  Zr29     1.0000 0.64001  0.52325  0.57633  Biso   1.000  Zr
  Zr30     1.0000 0.64056  0.72970  0.82607  Biso   1.000  Zr
  Zr31     1.0000 0.86453  0.77051  0.58008  Biso   1.000  Zr
  Zr32     1.0000 0.86319  0.97998  0.82997  Biso   1.000  Zr
  O49      1.0000 0.03300  0.66173  0.58270  Biso   1.000  O
  O50      1.0000 0.03418  0.58686  0.83303  Biso   1.000  O
  O51      1.0000 0.47098  0.90884  0.58113  Biso   1.000  O
  O52      1.0000 0.47042  0.83740  0.83078  Biso   1.000  O
  O53      1.0000 0.27602  0.62576  0.79655  Biso   1.000  O
  O54      1.0000 0.27553  0.62470  0.54714  Biso   1.000  O
  O55      1.0000 0.22620  0.87446  0.79783  Biso   1.000  O
  O56      1.0000 0.22532  0.87495  0.54855  Biso   1.000  O
  O57      1.0000 0.53262  0.66288  0.66827  Biso   1.000  O
  O58      1.0000 0.53132  0.58883  0.91860  Biso   1.000  O
  O59      1.0000 0.97126  0.91044  0.67264  Biso   1.000  O
  O60      1.0000 0.97035  0.83812  0.92048  Biso   1.000  O
  O61      1.0000 0.77802  0.62895  0.95127  Biso   1.000  O
  O62      1.0000 0.77738  0.62575  0.70335  Biso   1.000  O
  O63      1.0000 0.72751  0.87464  0.95506  Biso   1.000  O
  O64      1.0000 0.72716  0.87434  0.70534  Biso   1.000  O
  Yb1      1.0000 0.56184  0.26832  0.02234  Biso   1.000  Yb
