data_image0
_cell_length_a       10.0666
_cell_length_b       10.4328
_cell_length_c       5.04651
_cell_angle_alpha    90.0594
_cell_angle_beta     90.1415
_cell_angle_gamma    89.9946

_symmetry_space_group_name_H-M    "P 1"
_symmetry_int_tables_number       1

loop_
  _symmetry_equiv_pos_as_xyz
  'x, y, z'

loop_
  _atom_site_label
  _atom_site_occupancy
  _atom_site_fract_x
  _atom_site_fract_y
  _atom_site_fract_z
  _atom_site_thermal_displace_type
  _atom_site_B_iso_or_equiv
  _atom_site_type_symbol
  Yb1      1.0000 0.13023  0.01521  0.24221  Biso   1.000  Yb
  Zr1      1.0000 0.13469  0.51587  0.25162  Biso   1.000  Zr
  Zr2      1.0000 0.63293  0.01540  0.24980  Biso   1.000  Zr
  Zr3      1.0000 0.63334  0.51517  0.25269  Biso   1.000  Zr
  Zr4      1.0000 0.13467  0.23549  0.74927  Biso   1.000  Zr
  Zr5      1.0000 0.13486  0.73461  0.75308  Biso   1.000  Zr
  Zr6      1.0000 0.63298  0.23368  0.74998  Biso   1.000  Zr
  Zr7      1.0000 0.63328  0.73331  0.75290  Biso   1.000  Zr
  Zr8      1.0000 0.36580  0.26566  0.25401  Biso   1.000  Zr
  Zr9      1.0000 0.36648  0.76534  0.25187  Biso   1.000  Zr
  Zr10     1.0000 0.86333  0.26591  0.25027  Biso   1.000  Zr
  Zr11     1.0000 0.86488  0.76474  0.25355  Biso   1.000  Zr
  Zr12     1.0000 0.36591  0.48395  0.75226  Biso   1.000  Zr
  Zr13     1.0000 0.36584  0.98388  0.74808  Biso   1.000  Zr
  Zr14     1.0000 0.86602  0.48408  0.75389  Biso   1.000  Zr
  Zr15     1.0000 0.86391  0.98291  0.75234  Biso   1.000  Zr
  Zr16     1.0000 0.03416  0.19137  0.38957  Biso   1.000  Zr
  Zr17     1.0000 0.03481  0.68297  0.39309  Biso   1.000  Zr
  Zr18     1.0000 0.53749  0.18446  0.38512  Biso   1.000  Zr
  Zr19     1.0000 0.53569  0.68240  0.39198  Biso   1.000  Zr
  Zr20     1.0000 0.03367  0.07025  0.86626  Biso   1.000  Zr
  Zr21     1.0000 0.03468  0.56692  0.89224  Biso   1.000  Zr
  Zr22     1.0000 0.53650  0.06559  0.88616  Biso   1.000  Zr
  Zr23     1.0000 0.53480  0.56584  0.89219  Biso   1.000  Zr
  Zr24     1.0000 0.46506  0.43312  0.39171  Biso   1.000  Zr
  Zr25     1.0000 0.46504  0.93369  0.38891  Biso   1.000  Zr
  Zr26     1.0000 0.96483  0.43424  0.39149  Biso   1.000  Zr
  Zr27     1.0000 0.95706  0.92996  0.40034  Biso   1.000  Zr
  Zr28     1.0000 0.46454  0.31596  0.88882  Biso   1.000  Zr
  Zr29     1.0000 0.46768  0.81675  0.89320  Biso   1.000  Zr
  Zr30     1.0000 0.96482  0.31798  0.89223  Biso   1.000  Zr
  Zr31     1.0000 0.96756  0.81823  0.90003  Biso   1.000  Zr
  Zr32     1.0000 0.27608  0.12345  0.50445  Biso   1.000  Zr
  Zr33     1.0000 0.26967  0.61590  0.49849  Biso   1.000  Zr
  Zr34     1.0000 0.76902  0.11644  0.49721  Biso   1.000  Zr
  Zr35     1.0000 0.76975  0.61606  0.49862  Biso   1.000  Zr
  Zr36     1.0000 0.27222  0.13348  0.99548  Biso   1.000  Zr
  Zr37     1.0000 0.26970  0.63176  0.99893  Biso   1.000  Zr
  Zr38     1.0000 0.76908  0.13309  0.99743  Biso   1.000  Zr
  Zr39     1.0000 0.76905  0.63198  0.99836  Biso   1.000  Zr
  Zr40     1.0000 0.23103  0.38291  0.99888  Biso   1.000  Zr
  Zr41     1.0000 0.23560  0.87873  0.99427  Biso   1.000  Zr
  Zr42     1.0000 0.72975  0.38295  0.99838  Biso   1.000  Zr
  Zr43     1.0000 0.73079  0.88146  0.00072  Biso   1.000  Zr
  Zr44     1.0000 0.22985  0.36927  0.49770  Biso   1.000  Zr
  Zr45     1.0000 0.23489  0.86253  0.50300  Biso   1.000  Zr
  Zr46     1.0000 0.73056  0.36717  0.49931  Biso   1.000  Zr
  Zr47     1.0000 0.72736  0.86612  0.49975  Biso   1.000  Zr
