data_image0
_cell_length_a       5.01189
_cell_length_b       10.3943
_cell_length_c       10.0869
_cell_angle_alpha    90.321
_cell_angle_beta     89.2831
_cell_angle_gamma    90.1759

_symmetry_space_group_name_H-M    "P 1"
_symmetry_int_tables_number       1

loop_
  _symmetry_equiv_pos_as_xyz
  'x, y, z'

loop_
  _atom_site_label
  _atom_site_occupancy
  _atom_site_fract_x
  _atom_site_fract_y
  _atom_site_fract_z
  _atom_site_thermal_displace_type
  _atom_site_B_iso_or_equiv
  _atom_site_type_symbol
  Zn1      1.0000 0.24116  0.02410  0.10397  Biso   1.000  Zn
  Zr1      1.0000 0.26444  0.01575  0.62669  Biso   1.000  Zr
  Zr2      1.0000 0.27135  0.51513  0.12725  Biso   1.000  Zr
  Zr3      1.0000 0.26862  0.51729  0.62623  Biso   1.000  Zr
  Zr4      1.0000 0.27342  0.22911  0.37335  Biso   1.000  Zr
  Zr5      1.0000 0.26232  0.23527  0.87437  Biso   1.000  Zr
  Zr6      1.0000 0.27605  0.73617  0.37659  Biso   1.000  Zr
  Zr7      1.0000 0.26488  0.73640  0.87955  Biso   1.000  Zr
  Zr8      1.0000 0.72365  0.26225  0.12541  Biso   1.000  Zr
  Zr9      1.0000 0.73032  0.26630  0.62411  Biso   1.000  Zr
  Zr10     1.0000 0.73711  0.76629  0.12492  Biso   1.000  Zr
  Zr11     1.0000 0.73357  0.76756  0.62681  Biso   1.000  Zr
  Zr12     1.0000 0.73333  0.48353  0.37648  Biso   1.000  Zr
  Zr13     1.0000 0.72968  0.48600  0.87528  Biso   1.000  Zr
  Zr14     1.0000 0.73409  0.98511  0.37052  Biso   1.000  Zr
  Zr15     1.0000 0.71787  0.98492  0.87769  Biso   1.000  Zr
  Zr16     1.0000 0.07212  0.18087  0.19159  Biso   1.000  Zr
  Zr17     1.0000 0.07264  0.18771  0.69056  Biso   1.000  Zr
  Zr18     1.0000 0.07127  0.68205  0.19826  Biso   1.000  Zr
  Zr19     1.0000 0.06848  0.68403  0.69776  Biso   1.000  Zr
  Zr20     1.0000 0.07069  0.06643  0.44716  Biso   1.000  Zr
  Zr21     1.0000 0.06207  0.06831  0.92745  Biso   1.000  Zr
  Zr22     1.0000 0.07198  0.56585  0.44603  Biso   1.000  Zr
  Zr23     1.0000 0.06624  0.56733  0.94845  Biso   1.000  Zr
  Zr24     1.0000 0.93407  0.42778  0.19629  Biso   1.000  Zr
  Zr25     1.0000 0.92739  0.43481  0.69438  Biso   1.000  Zr
  Zr26     1.0000 0.95795  0.93301  0.19488  Biso   1.000  Zr
  Zr27     1.0000 0.92319  0.93517  0.69448  Biso   1.000  Zr
  Zr28     1.0000 0.93145  0.31568  0.44263  Biso   1.000  Zr
  Zr29     1.0000 0.92154  0.31697  0.94309  Biso   1.000  Zr
  Zr30     1.0000 0.93956  0.81789  0.44927  Biso   1.000  Zr
  Zr31     1.0000 0.91604  0.81692  0.94128  Biso   1.000  Zr
  Zr32     1.0000 0.55141  0.12030  0.25050  Biso   1.000  Zr
  Zr33     1.0000 0.53910  0.11923  0.74817  Biso   1.000  Zr
  Zr34     1.0000 0.54343  0.61164  0.24818  Biso   1.000  Zr
  Zr35     1.0000 0.53627  0.61892  0.75059  Biso   1.000  Zr
  Zr36     1.0000 0.54032  0.13234  0.49902  Biso   1.000  Zr
  Zr37     1.0000 0.52938  0.13275  0.99822  Biso   1.000  Zr
  Zr38     1.0000 0.54144  0.63367  0.49965  Biso   1.000  Zr
  Zr39     1.0000 0.53662  0.63343  0.99995  Biso   1.000  Zr
  Zr40     1.0000 0.46135  0.38238  0.49879  Biso   1.000  Zr
  Zr41     1.0000 0.45778  0.38288  0.99897  Biso   1.000  Zr
  Zr42     1.0000 0.46482  0.88439  0.50184  Biso   1.000  Zr
  Zr43     1.0000 0.44838  0.88388  0.00693  Biso   1.000  Zr
  Zr44     1.0000 0.45845  0.36670  0.24870  Biso   1.000  Zr
  Zr45     1.0000 0.45796  0.36925  0.74852  Biso   1.000  Zr
  Zr46     1.0000 0.49917  0.85610  0.25805  Biso   1.000  Zr
  Zr47     1.0000 0.45436  0.86811  0.75156  Biso   1.000  Zr
