data_image0
_cell_length_a       10.2979
_cell_length_b       5.18789
_cell_length_c       10.5931
_cell_angle_alpha    90.1322
_cell_angle_beta     79.0337
_cell_angle_gamma    90.0107

_symmetry_space_group_name_H-M    "P 1"
_symmetry_int_tables_number       1

loop_
  _symmetry_equiv_pos_as_xyz
  'x, y, z'

loop_
  _atom_site_label
  _atom_site_occupancy
  _atom_site_fract_x
  _atom_site_fract_y
  _atom_site_fract_z
  _atom_site_thermal_displace_type
  _atom_site_B_iso_or_equiv
  _atom_site_type_symbol
  Zr1      1.0000 0.13125  0.04369  0.13912  Biso   1.000  Zr
  Zr2      1.0000 0.13983  0.45477  0.39113  Biso   1.000  Zr
  Zr3      1.0000 0.35271  0.54465  0.10338  Biso   1.000  Zr
  Zr4      1.0000 0.35210  0.92386  0.34507  Biso   1.000  Zr
  O1       1.0000 0.02749  0.33794  0.07426  Biso   1.000  O
  O2       1.0000 0.02806  0.17390  0.32516  Biso   1.000  O
  O3       1.0000 0.46310  0.85227  0.16523  Biso   1.000  O
  O4       1.0000 0.48307  0.68935  0.43754  Biso   1.000  O
  O5       1.0000 0.26441  0.22668  0.23323  Biso   1.000  O
  O6       1.0000 0.28063  0.23793  0.48558  Biso   1.000  O
  O7       1.0000 0.22040  0.76215  0.00396  Biso   1.000  O
  O8       1.0000 0.20165  0.74599  0.24994  Biso   1.000  O
  Zr5      1.0000 0.14097  0.04467  0.64341  Biso   1.000  Zr
  Zr6      1.0000 0.13522  0.46082  0.89407  Biso   1.000  Zr
  Zr7      1.0000 0.36356  0.54708  0.61071  Biso   1.000  Zr
  Zr8      1.0000 0.35990  0.95922  0.85624  Biso   1.000  Zr
  O9       1.0000 0.03645  0.32917  0.57583  Biso   1.000  O
  O10      1.0000 0.03291  0.17191  0.82520  Biso   1.000  O
  O11      1.0000 0.46929  0.82789  0.67958  Biso   1.000  O
  O12      1.0000 0.46466  0.67228  0.92454  Biso   1.000  O
  O13      1.0000 0.27519  0.25750  0.73877  Biso   1.000  O
  O14      1.0000 0.27088  0.25057  0.98697  Biso   1.000  O
  O15      1.0000 0.22616  0.74783  0.51033  Biso   1.000  O
  O16      1.0000 0.22538  0.74669  0.75846  Biso   1.000  O
  Zr9      1.0000 0.63803  0.04615  0.14744  Biso   1.000  Zr
  Zr10     1.0000 0.65308  0.45938  0.40687  Biso   1.000  Zr
  Zr11     1.0000 0.85662  0.54561  0.10602  Biso   1.000  Zr
  Zr12     1.0000 0.86361  0.95507  0.35571  Biso   1.000  Zr
  O17      1.0000 0.53168  0.34275  0.08427  Biso   1.000  O
  O18      1.0000 0.53243  0.16890  0.33315  Biso   1.000  O
  O19      1.0000 0.95783  0.83656  0.17123  Biso   1.000  O
  O20      1.0000 0.96651  0.66905  0.42432  Biso   1.000  O
  O21      1.0000 0.77349  0.26034  0.24501  Biso   1.000  O
  O22      1.0000 0.77932  0.23868  0.49617  Biso   1.000  O
  O23      1.0000 0.72266  0.76069  0.01315  Biso   1.000  O
  O24      1.0000 0.72075  0.74552  0.26503  Biso   1.000  O
  Zr13     1.0000 0.63987  0.04396  0.65184  Biso   1.000  Zr
  Zr14     1.0000 0.63560  0.46180  0.90018  Biso   1.000  Zr
  Zr15     1.0000 0.86653  0.54472  0.60869  Biso   1.000  Zr
  Zr16     1.0000 0.86084  0.96075  0.85636  Biso   1.000  Zr
  O25      1.0000 0.53539  0.32781  0.58215  Biso   1.000  O
  O26      1.0000 0.53247  0.17190  0.83222  Biso   1.000  O
  O27      1.0000 0.96899  0.83274  0.67377  Biso   1.000  O
  O28      1.0000 0.96352  0.67253  0.92211  Biso   1.000  O
  O29      1.0000 0.77483  0.26022  0.74397  Biso   1.000  O
  O30      1.0000 0.77184  0.24563  0.99322  Biso   1.000  O
  O31      1.0000 0.72894  0.75369  0.51642  Biso   1.000  O
  O32      1.0000 0.72643  0.74631  0.76438  Biso   1.000  O
  Zn1      1.0000 0.41476  0.44062  0.32360  Biso   1.000  Zn
