data_image0
_cell_length_a       10.299
_cell_length_b       10.329
_cell_length_c       10.6052
_cell_angle_alpha    89.8307
_cell_angle_beta     79.5261
_cell_angle_gamma    89.7302

_symmetry_space_group_name_H-M    "P 1"
_symmetry_int_tables_number       1

loop_
  _symmetry_equiv_pos_as_xyz
  'x, y, z'

loop_
  _atom_site_label
  _atom_site_occupancy
  _atom_site_fract_x
  _atom_site_fract_y
  _atom_site_fract_z
  _atom_site_thermal_displace_type
  _atom_site_B_iso_or_equiv
  _atom_site_type_symbol
  Zr1      1.0000 0.13431  0.01960  0.14333  Biso   1.000  Zr
  Zr2      1.0000 0.12214  0.22237  0.39525  Biso   1.000  Zr
  Zr3      1.0000 0.35303  0.27048  0.08860  Biso   1.000  Zr
  Zr4      1.0000 0.36599  0.49870  0.35402  Biso   1.000  Zr
  O1       1.0000 0.02998  0.16089  0.07061  Biso   1.000  O
  O2       1.0000 0.02280  0.08451  0.31941  Biso   1.000  O
  O3       1.0000 0.47636  0.39907  0.18771  Biso   1.000  O
  O4       1.0000 0.49289  0.36885  0.44089  Biso   1.000  O
  O5       1.0000 0.26868  0.12096  0.23350  Biso   1.000  O
  O6       1.0000 0.27350  0.11719  0.48297  Biso   1.000  O
  O7       1.0000 0.21910  0.38168  0.00179  Biso   1.000  O
  O8       1.0000 0.23603  0.36758  0.25632  Biso   1.000  O
  Zr5      1.0000 0.13854  0.02124  0.64359  Biso   1.000  Zr
  Zr6      1.0000 0.13518  0.22803  0.89020  Biso   1.000  Zr
  Zr7      1.0000 0.36822  0.27450  0.60740  Biso   1.000  Zr
  Zr8      1.0000 0.36025  0.48141  0.85305  Biso   1.000  Zr
  O9       1.0000 0.02838  0.16038  0.57595  Biso   1.000  O
  O10      1.0000 0.02984  0.08687  0.82258  Biso   1.000  O
  O11      1.0000 0.47145  0.41167  0.68446  Biso   1.000  O
  O12      1.0000 0.47181  0.34524  0.92686  Biso   1.000  O
  O13      1.0000 0.27303  0.12721  0.73753  Biso   1.000  O
  O14      1.0000 0.27028  0.12213  0.98363  Biso   1.000  O
  O15      1.0000 0.24290  0.36836  0.49639  Biso   1.000  O
  O16      1.0000 0.22430  0.37377  0.75601  Biso   1.000  O
  Zr9      1.0000 0.13994  0.51997  0.14607  Biso   1.000  Zr
  Zr10     1.0000 0.13344  0.72833  0.39690  Biso   1.000  Zr
  Zr11     1.0000 0.36051  0.77195  0.10228  Biso   1.000  Zr
  Zr12     1.0000 0.35732  0.96660  0.35334  Biso   1.000  Zr
  O17      1.0000 0.03145  0.65948  0.07315  Biso   1.000  O
  O18      1.0000 0.03247  0.58783  0.32324  Biso   1.000  O
  O19      1.0000 0.46809  0.90993  0.17628  Biso   1.000  O
  O20      1.0000 0.46732  0.83542  0.42921  Biso   1.000  O
  O21      1.0000 0.27405  0.62987  0.24007  Biso   1.000  O
  O22      1.0000 0.26853  0.62484  0.49518  Biso   1.000  O
  O23      1.0000 0.22441  0.87789  0.00833  Biso   1.000  O
  O24      1.0000 0.22031  0.86773  0.25792  Biso   1.000  O
  Zr13     1.0000 0.13875  0.51874  0.64458  Biso   1.000  Zr
  Zr14     1.0000 0.13719  0.72717  0.89537  Biso   1.000  Zr
  Zr15     1.0000 0.36103  0.77183  0.60638  Biso   1.000  Zr
  Zr16     1.0000 0.36052  0.97839  0.85284  Biso   1.000  Zr
  O25      1.0000 0.02741  0.65921  0.57478  Biso   1.000  O
  O26      1.0000 0.03235  0.58711  0.82170  Biso   1.000  O
  O27      1.0000 0.46851  0.91240  0.67616  Biso   1.000  O
  O28      1.0000 0.46857  0.84018  0.92643  Biso   1.000  O
  O29      1.0000 0.27361  0.62727  0.74007  Biso   1.000  O
  O30      1.0000 0.27495  0.62381  0.99068  Biso   1.000  O
  O31      1.0000 0.22253  0.87442  0.51107  Biso   1.000  O
  O32      1.0000 0.22474  0.87163  0.75989  Biso   1.000  O
  Zr17     1.0000 0.63775  0.02192  0.14709  Biso   1.000  Zr
  Zr18     1.0000 0.64792  0.23463  0.40126  Biso   1.000  Zr
  Zr19     1.0000 0.86220  0.27222  0.10563  Biso   1.000  Zr
  Zr20     1.0000 0.86225  0.48120  0.35507  Biso   1.000  Zr
  O33      1.0000 0.52688  0.16089  0.07974  Biso   1.000  O
  O34      1.0000 0.53183  0.08433  0.33625  Biso   1.000  O
  O35      1.0000 0.97267  0.40929  0.17644  Biso   1.000  O
  O36      1.0000 0.96599  0.34324  0.42959  Biso   1.000  O
  O37      1.0000 0.77329  0.12873  0.23972  Biso   1.000  O
  O38      1.0000 0.77948  0.12067  0.49371  Biso   1.000  O
  O39      1.0000 0.72575  0.37714  0.01209  Biso   1.000  O
  O40      1.0000 0.73178  0.37492  0.26150  Biso   1.000  O
  Zr21     1.0000 0.63848  0.02247  0.64765  Biso   1.000  Zr
  Zr22     1.0000 0.63794  0.22862  0.89887  Biso   1.000  Zr
  Zr23     1.0000 0.85982  0.27224  0.60958  Biso   1.000  Zr
  Zr24     1.0000 0.86123  0.47888  0.85505  Biso   1.000  Zr
  O41      1.0000 0.53543  0.16386  0.57617  Biso   1.000  O
  O42      1.0000 0.52934  0.09033  0.82662  Biso   1.000  O
  O43      1.0000 0.97021  0.41047  0.67597  Biso   1.000  O
  O44      1.0000 0.96604  0.33736  0.92447  Biso   1.000  O
  O45      1.0000 0.77254  0.12825  0.74340  Biso   1.000  O
  O46      1.0000 0.77225  0.12132  0.99170  Biso   1.000  O
  O47      1.0000 0.72970  0.37922  0.51546  Biso   1.000  O
  O48      1.0000 0.72615  0.37236  0.76400  Biso   1.000  O
  Zr25     1.0000 0.63823  0.52031  0.14626  Biso   1.000  Zr
  Zr26     1.0000 0.64022  0.73032  0.39709  Biso   1.000  Zr
  Zr27     1.0000 0.86082  0.77020  0.10433  Biso   1.000  Zr
  Zr28     1.0000 0.85626  0.97703  0.35468  Biso   1.000  Zr
  O49      1.0000 0.52843  0.65694  0.07160  Biso   1.000  O
  O50      1.0000 0.53480  0.60107  0.31657  Biso   1.000  O
  O51      1.0000 0.96489  0.90935  0.17449  Biso   1.000  O
  O52      1.0000 0.96510  0.83748  0.42592  Biso   1.000  O
  O53      1.0000 0.77669  0.62809  0.23904  Biso   1.000  O
  O54      1.0000 0.77383  0.62312  0.49026  Biso   1.000  O
  O55      1.0000 0.72415  0.87827  0.01228  Biso   1.000  O
  O56      1.0000 0.72240  0.87255  0.26117  Biso   1.000  O
  Zr29     1.0000 0.63749  0.52303  0.64682  Biso   1.000  Zr
  Zr30     1.0000 0.63720  0.72785  0.89636  Biso   1.000  Zr
  Zr31     1.0000 0.86080  0.77217  0.60629  Biso   1.000  Zr
  Zr32     1.0000 0.86050  0.97766  0.85528  Biso   1.000  Zr
  O57      1.0000 0.52952  0.65941  0.57340  Biso   1.000  O
  O58      1.0000 0.52935  0.59329  0.82302  Biso   1.000  O
  O59      1.0000 0.96790  0.91178  0.67549  Biso   1.000  O
  O60      1.0000 0.96708  0.83597  0.92440  Biso   1.000  O
  O61      1.0000 0.77332  0.62788  0.74027  Biso   1.000  O
  O62      1.0000 0.77369  0.62152  0.98954  Biso   1.000  O
  O63      1.0000 0.72327  0.87805  0.51264  Biso   1.000  O
  O64      1.0000 0.72520  0.87252  0.76212  Biso   1.000  O
  Zr33     1.0000 0.38886  0.24244  0.33308  Biso   1.000  Zr
