data_image0
_cell_length_a       10.1418
_cell_length_b       10.1418
_cell_length_c       5.13819
_cell_angle_alpha    90
_cell_angle_beta     90
_cell_angle_gamma    90

_symmetry_space_group_name_H-M    "P 1"
_symmetry_int_tables_number       1

loop_
  _symmetry_equiv_pos_as_xyz
  'x, y, z'

loop_
  _atom_site_label
  _atom_site_occupancy
  _atom_site_fract_x
  _atom_site_fract_y
  _atom_site_fract_z
  _atom_site_thermal_displace_type
  _atom_site_B_iso_or_equiv
  _atom_site_type_symbol
  Zr1      1.0000 0.12539  0.98216  0.25079  Biso   1.000  Zr
  Zr2      1.0000 0.12540  0.25008  0.75079  Biso   1.000  Zr
  Zr3      1.0000 0.39330  0.25007  0.25079  Biso   1.000  Zr
  Zr4      1.0000 0.37214  0.00333  0.74960  Biso   1.000  Zr
  Zr5      1.0000 0.00235  0.12703  0.98523  Biso   1.000  Zr
  Zr6      1.0000 0.99557  0.12026  0.47990  Biso   1.000  Zr
  Zr7      1.0000 0.00235  0.37312  0.51635  Biso   1.000  Zr
  Zr8      1.0000 0.99557  0.37989  0.02168  Biso   1.000  Zr
  Zr9      1.0000 0.24844  0.12703  0.51635  Biso   1.000  Zr
  Zr10     1.0000 0.25522  0.12026  0.02168  Biso   1.000  Zr
  Zr11     1.0000 0.24844  0.37312  0.98524  Biso   1.000  Zr
  Zr12     1.0000 0.25522  0.37989  0.47990  Biso   1.000  Zr
  Zr13     1.0000 0.12540  0.51799  0.25079  Biso   1.000  Zr
  Zr14     1.0000 0.12540  0.75007  0.75079  Biso   1.000  Zr
  Zr15     1.0000 0.37949  0.75007  0.25079  Biso   1.000  Zr
  Zr16     1.0000 0.37214  0.49682  0.75198  Biso   1.000  Zr
  Zr17     1.0000 0.00607  0.62832  0.96778  Biso   1.000  Zr
  Zr18     1.0000 0.99048  0.62419  0.47238  Biso   1.000  Zr
  Zr19     1.0000 0.00607  0.87183  0.53381  Biso   1.000  Zr
  Zr20     1.0000 0.99048  0.87596  0.02920  Biso   1.000  Zr
  Zr21     1.0000 0.24472  0.62832  0.53380  Biso   1.000  Zr
  Zr22     1.0000 0.26031  0.62419  0.02921  Biso   1.000  Zr
  Zr23     1.0000 0.24472  0.87183  0.96778  Biso   1.000  Zr
  Zr24     1.0000 0.26031  0.87596  0.47238  Biso   1.000  Zr
  Zr25     1.0000 0.62540  0.99598  0.25079  Biso   1.000  Zr
  Zr26     1.0000 0.62539  0.25008  0.75079  Biso   1.000  Zr
  Zr27     1.0000 0.85749  0.25008  0.25079  Biso   1.000  Zr
  Zr28     1.0000 0.87865  0.00333  0.75198  Biso   1.000  Zr
  Zr29     1.0000 0.50364  0.13074  0.96778  Biso   1.000  Zr
  Zr30     1.0000 0.49951  0.11516  0.47238  Biso   1.000  Zr
  Zr31     1.0000 0.50364  0.36941  0.53380  Biso   1.000  Zr
  Zr32     1.0000 0.49951  0.38499  0.02921  Biso   1.000  Zr
  Zr33     1.0000 0.74715  0.13074  0.53381  Biso   1.000  Zr
  Zr34     1.0000 0.75128  0.11516  0.02921  Biso   1.000  Zr
  Zr35     1.0000 0.74715  0.36941  0.96778  Biso   1.000  Zr
  Zr36     1.0000 0.75128  0.38499  0.47238  Biso   1.000  Zr
  Zr37     1.0000 0.62540  0.50417  0.25079  Biso   1.000  Zr
  Zr38     1.0000 0.62540  0.75008  0.75079  Biso   1.000  Zr
  Zr39     1.0000 0.87130  0.75007  0.25079  Biso   1.000  Zr
  Zr40     1.0000 0.87865  0.49682  0.74960  Biso   1.000  Zr
  Zr41     1.0000 0.50584  0.63052  0.96458  Biso   1.000  Zr
  Zr42     1.0000 0.49210  0.61678  0.46279  Biso   1.000  Zr
  Zr43     1.0000 0.50584  0.86963  0.53700  Biso   1.000  Zr
  Zr44     1.0000 0.49210  0.88337  0.03880  Biso   1.000  Zr
  Zr45     1.0000 0.74495  0.63052  0.53700  Biso   1.000  Zr
  Zr46     1.0000 0.75869  0.61678  0.03880  Biso   1.000  Zr
  Zr47     1.0000 0.74495  0.86963  0.96458  Biso   1.000  Zr
  Zr48     1.0000 0.75869  0.88337  0.46279  Biso   1.000  Zr
  Zr49     1.0000 0.12540  0.25008  0.25079  Biso   1.000  Zr
