data_image0
_cell_length_a       10.2262
_cell_length_b       5.15377
_cell_length_c       10.4844
_cell_angle_alpha    90.0114
_cell_angle_beta     91.3837
_cell_angle_gamma    90.0031

_symmetry_space_group_name_H-M    "P 1"
_symmetry_int_tables_number       1

loop_
  _symmetry_equiv_pos_as_xyz
  'x, y, z'

loop_
  _atom_site_label
  _atom_site_occupancy
  _atom_site_fract_x
  _atom_site_fract_y
  _atom_site_fract_z
  _atom_site_thermal_displace_type
  _atom_site_B_iso_or_equiv
  _atom_site_type_symbol
  La1      1.0000 0.12738  0.00697  0.15489  Biso   1.000  La
  Hf1      1.0000 0.13785  0.04121  0.67001  Biso   1.000  Hf
  Hf2      1.0000 0.13743  0.45318  0.41887  Biso   1.000  Hf
  Hf3      1.0000 0.15128  0.46934  0.91267  Biso   1.000  Hf
  Hf4      1.0000 0.35887  0.52371  0.16905  Biso   1.000  Hf
  Hf5      1.0000 0.36263  0.53731  0.66775  Biso   1.000  Hf
  Hf6      1.0000 0.35659  0.95569  0.42092  Biso   1.000  Hf
  Hf7      1.0000 0.37151  0.95823  0.91406  Biso   1.000  Hf
  Hf8      1.0000 0.64119  0.02361  0.08097  Biso   1.000  Hf
  Hf9      1.0000 0.63736  0.03717  0.58229  Biso   1.000  Hf
  Hf10     1.0000 0.62847  0.45808  0.33594  Biso   1.000  Hf
  Hf11     1.0000 0.64340  0.45561  0.82906  Biso   1.000  Hf
  La2      1.0000 0.87259  0.50716  0.09510  Biso   1.000  La
  Hf12     1.0000 0.86217  0.54122  0.57996  Biso   1.000  Hf
  Hf13     1.0000 0.84869  0.96934  0.33735  Biso   1.000  Hf
  Hf14     1.0000 0.86259  0.95329  0.83112  Biso   1.000  Hf
  O1       1.0000 0.08735  0.44589  0.10414  Biso   1.000  O 
  O2       1.0000 0.03568  0.34653  0.58989  Biso   1.000  O 
  O3       1.0000 0.02094  0.16970  0.34540  Biso   1.000  O 
  O4       1.0000 0.03898  0.15970  0.84568  Biso   1.000  O 
  O5       1.0000 0.47667  0.81016  0.07953  Biso   1.000  O 
  O6       1.0000 0.46876  0.81671  0.57973  Biso   1.000  O 
  O7       1.0000 0.46624  0.68039  0.32835  Biso   1.000  O 
  O8       1.0000 0.47335  0.67183  0.82575  Biso   1.000  O 
  O9       1.0000 0.27716  0.24426  0.30001  Biso   1.000  O 
  O10      1.0000 0.27705  0.24832  0.78853  Biso   1.000  O 
  O11      1.0000 0.28911  0.24628  0.03195  Biso   1.000  O 
  O12      1.0000 0.27150  0.24789  0.54434  Biso   1.000  O 
  O13      1.0000 0.22994  0.72668  0.30005  Biso   1.000  O 
  O14      1.0000 0.23023  0.74884  0.78636  Biso   1.000  O 
  O15      1.0000 0.25379  0.73733  0.02560  Biso   1.000  O 
  O16      1.0000 0.22214  0.75392  0.54352  Biso   1.000  O 
  O17      1.0000 0.52335  0.31014  0.17051  Biso   1.000  O 
  O18      1.0000 0.53122  0.31673  0.67028  Biso   1.000  O 
  O19      1.0000 0.52665  0.17171  0.42424  Biso   1.000  O 
  O20      1.0000 0.53377  0.18049  0.92166  Biso   1.000  O 
  O21      1.0000 0.91262  0.94610  0.14580  Biso   1.000  O 
  O22      1.0000 0.96433  0.84655  0.66008  Biso   1.000  O 
  O23      1.0000 0.96100  0.65955  0.40424  Biso   1.000  O 
  O24      1.0000 0.97908  0.66999  0.90469  Biso   1.000  O 
  O25      1.0000 0.77006  0.22671  0.94995  Biso   1.000  O 
  O26      1.0000 0.76972  0.24873  0.46367  Biso   1.000  O 
  O27      1.0000 0.74627  0.23732  0.22439  Biso   1.000  O 
  O28      1.0000 0.77784  0.25380  0.70647  Biso   1.000  O 
  O29      1.0000 0.72286  0.74430  0.95001  Biso   1.000  O 
  O30      1.0000 0.72301  0.74821  0.46148  Biso   1.000  O 
  O31      1.0000 0.71086  0.74629  0.21803  Biso   1.000  O 
  O32      1.0000 0.72846  0.74780  0.70565  Biso   1.000  O 
