data_image0
_cell_length_a       10.2158
_cell_length_b       10.408
_cell_length_c       5.27292
_cell_angle_alpha    90.0079
_cell_angle_beta     89.9915
_cell_angle_gamma    90.5443

_symmetry_space_group_name_H-M    "P 1"
_symmetry_int_tables_number       1

loop_
  _symmetry_equiv_pos_as_xyz
  'x, y, z'

loop_
  _atom_site_label
  _atom_site_occupancy
  _atom_site_fract_x
  _atom_site_fract_y
  _atom_site_fract_z
  _atom_site_thermal_displace_type
  _atom_site_B_iso_or_equiv
  _atom_site_type_symbol
  La1      1.0000 0.12932  0.00860  0.32869  Biso   1.000  La
  Hf1      1.0000 0.13997  0.52097  0.33001  Biso   1.000  Hf
  Hf2      1.0000 0.13908  0.23065  0.84001  Biso   1.000  Hf
  Hf3      1.0000 0.14297  0.72711  0.83852  Biso   1.000  Hf
  Hf4      1.0000 0.35944  0.26113  0.34587  Biso   1.000  Hf
  Hf5      1.0000 0.36430  0.77068  0.34160  Biso   1.000  Hf
  Hf6      1.0000 0.35383  0.47841  0.81973  Biso   1.000  Hf
  Hf7      1.0000 0.36581  0.98094  0.84313  Biso   1.000  Hf
  Hf8      1.0000 0.63993  0.02087  0.16992  Biso   1.000  Hf
  La2      1.0000 0.62920  0.50854  0.17121  Biso   1.000  La
  Hf9      1.0000 0.64306  0.22708  0.66161  Biso   1.000  Hf
  Hf10     1.0000 0.63904  0.73062  0.65995  Biso   1.000  Hf
  Hf11     1.0000 0.86434  0.27064  0.15831  Biso   1.000  Hf
  Hf12     1.0000 0.85920  0.76126  0.15437  Biso   1.000  Hf
  Hf13     1.0000 0.86574  0.48095  0.65673  Biso   1.000  Hf
  Hf14     1.0000 0.85392  0.97835  0.68018  Biso   1.000  Hf
  O1       1.0000 0.03670  0.18874  0.17476  Biso   1.000  O 
  O2       1.0000 0.03677  0.67012  0.16872  Biso   1.000  O 
  O3       1.0000 0.02204  0.08526  0.70734  Biso   1.000  O 
  O4       1.0000 0.03822  0.58223  0.66673  Biso   1.000  O 
  O5       1.0000 0.43435  0.40906  0.14925  Biso   1.000  O 
  O6       1.0000 0.46472  0.92681  0.18082  Biso   1.000  O 
  O7       1.0000 0.47375  0.33833  0.65571  Biso   1.000  O 
  O8       1.0000 0.47231  0.83938  0.67460  Biso   1.000  O 
  O9       1.0000 0.27910  0.12568  0.60355  Biso   1.000  O 
  O10      1.0000 0.27488  0.62238  0.57367  Biso   1.000  O 
  O11      1.0000 0.28345  0.13394  0.07558  Biso   1.000  O 
  O12      1.0000 0.27504  0.62166  0.07726  Biso   1.000  O 
  O13      1.0000 0.22560  0.37186  0.57395  Biso   1.000  O 
  O14      1.0000 0.23579  0.86396  0.59822  Biso   1.000  O 
  O15      1.0000 0.20956  0.38062  0.07147  Biso   1.000  O 
  O16      1.0000 0.24297  0.86212  0.07132  Biso   1.000  O 
  O17      1.0000 0.53690  0.17022  0.33138  Biso   1.000  O 
  O18      1.0000 0.53655  0.68861  0.32531  Biso   1.000  O 
  O19      1.0000 0.53833  0.08215  0.83316  Biso   1.000  O 
  O20      1.0000 0.52203  0.58529  0.79295  Biso   1.000  O 
  O21      1.0000 0.96475  0.42680  0.31910  Biso   1.000  O 
  O22      1.0000 0.93474  0.90882  0.35117  Biso   1.000  O 
  O23      1.0000 0.97225  0.33937  0.82542  Biso   1.000  O 
  O24      1.0000 0.97367  0.83832  0.84479  Biso   1.000  O 
  O25      1.0000 0.77495  0.12235  0.92637  Biso   1.000  O 
  O26      1.0000 0.77903  0.62570  0.89654  Biso   1.000  O 
  O27      1.0000 0.77502  0.12144  0.42289  Biso   1.000  O 
  O28      1.0000 0.78327  0.63373  0.42429  Biso   1.000  O 
  O29      1.0000 0.73584  0.36396  0.90172  Biso   1.000  O 
  O30      1.0000 0.72550  0.87192  0.92581  Biso   1.000  O 
  O31      1.0000 0.74302  0.36205  0.42854  Biso   1.000  O 
  O32      1.0000 0.70974  0.88029  0.42776  Biso   1.000  O 
