data_image0
_cell_length_a       10.2583
_cell_length_b       10.4292
_cell_length_c       5.31378
_cell_angle_alpha    90.2605
_cell_angle_beta     81.6172
_cell_angle_gamma    91.2481

_symmetry_space_group_name_H-M    "P 1"
_symmetry_int_tables_number       1

loop_
  _symmetry_equiv_pos_as_xyz
  'x, y, z'

loop_
  _atom_site_label
  _atom_site_occupancy
  _atom_site_fract_x
  _atom_site_fract_y
  _atom_site_fract_z
  _atom_site_thermal_displace_type
  _atom_site_B_iso_or_equiv
  _atom_site_type_symbol
  La1      1.0000 0.12160  0.00513  0.27216  Biso   1.000  La
  Hf1      1.0000 0.14390  0.52027  0.29363  Biso   1.000  Hf
  Hf2      1.0000 0.64407  0.02008  0.29345  Biso   1.000  Hf
  La2      1.0000 0.62121  0.50486  0.27171  Biso   1.000  La
  Hf3      1.0000 0.13531  0.22877  0.78819  Biso   1.000  Hf
  Hf4      1.0000 0.14620  0.72653  0.78609  Biso   1.000  Hf
  Hf5      1.0000 0.64643  0.22638  0.78585  Biso   1.000  Hf
  Hf6      1.0000 0.63525  0.72881  0.78778  Biso   1.000  Hf
  Hf7      1.0000 0.36620  0.25171  0.18868  Biso   1.000  Hf
  Hf8      1.0000 0.36532  0.77244  0.20950  Biso   1.000  Hf
  Hf9      1.0000 0.86534  0.27241  0.20946  Biso   1.000  Hf
  Hf10     1.0000 0.86577  0.75189  0.18920  Biso   1.000  Hf
  Hf11     1.0000 0.35610  0.47479  0.73613  Biso   1.000  Hf
  Hf12     1.0000 0.36502  0.98234  0.69276  Biso   1.000  Hf
  Hf13     1.0000 0.86485  0.48251  0.69243  Biso   1.000  Hf
  Hf14     1.0000 0.85623  0.97464  0.73562  Biso   1.000  Hf
  O1       1.0000 0.03705  0.18854  0.15089  Biso   1.000  O 
  O2       1.0000 0.04209  0.66698  0.14804  Biso   1.000  O 
  O3       1.0000 0.54255  0.16720  0.14832  Biso   1.000  O 
  O4       1.0000 0.53701  0.68848  0.15082  Biso   1.000  O 
  O5       1.0000 0.02437  0.08411  0.68179  Biso   1.000  O 
  O6       1.0000 0.03517  0.59120  0.64164  Biso   1.000  O 
  O7       1.0000 0.53540  0.09096  0.64188  Biso   1.000  O 
  O8       1.0000 0.52425  0.58408  0.68152  Biso   1.000  O 
  O9       1.0000 0.42410  0.40093  0.38490  Biso   1.000  O 
  O10      1.0000 0.46365  0.92737  0.33129  Biso   1.000  O 
  O11      1.0000 0.96365  0.42720  0.33140  Biso   1.000  O 
  O12      1.0000 0.92484  0.90086  0.38447  Biso   1.000  O 
  O13      1.0000 0.47975  0.34224  0.86232  Biso   1.000  O 
  O14      1.0000 0.47297  0.84266  0.82829  Biso   1.000  O 
  O15      1.0000 0.97298  0.34274  0.82819  Biso   1.000  O 
  O16      1.0000 0.97949  0.84206  0.86213  Biso   1.000  O 
  O17      1.0000 0.27480  0.13798  0.48063  Biso   1.000  O 
  O18      1.0000 0.28007  0.62792  0.48210  Biso   1.000  O 
  O19      1.0000 0.78024  0.12772  0.48195  Biso   1.000  O 
  O20      1.0000 0.77463  0.63748  0.48026  Biso   1.000  O 
  O21      1.0000 0.28035  0.12198  0.95278  Biso   1.000  O 
  O22      1.0000 0.27446  0.61833  0.98665  Biso   1.000  O 
  O23      1.0000 0.77467  0.11827  0.98632  Biso   1.000  O 
  O24      1.0000 0.78010  0.62203  0.95259  Biso   1.000  O 
  O25      1.0000 0.23174  0.37445  0.03644  Biso   1.000  O 
  O26      1.0000 0.24608  0.86734  0.99075  Biso   1.000  O 
  O27      1.0000 0.74629  0.36738  0.99039  Biso   1.000  O 
  O28      1.0000 0.73162  0.87448  0.03565  Biso   1.000  O 
  O29      1.0000 0.19863  0.38484  0.55997  Biso   1.000  O 
  O30      1.0000 0.23450  0.86226  0.51750  Biso   1.000  O 
  O31      1.0000 0.73438  0.36213  0.51726  Biso   1.000  O 
  O32      1.0000 0.69929  0.88421  0.55822  Biso   1.000  O 
