data_image0
_cell_length_a       10.1592
_cell_length_b       5.18654
_cell_length_c       10.4618
_cell_angle_alpha    90.3086
_cell_angle_beta     91.186
_cell_angle_gamma    90.3564

_symmetry_space_group_name_H-M    "P 1"
_symmetry_int_tables_number       1

loop_
  _symmetry_equiv_pos_as_xyz
  'x, y, z'

loop_
  _atom_site_label
  _atom_site_occupancy
  _atom_site_fract_x
  _atom_site_fract_y
  _atom_site_fract_z
  _atom_site_thermal_displace_type
  _atom_site_B_iso_or_equiv
  _atom_site_type_symbol
  La1      1.0000 0.12981  0.01810  0.14976  Biso   1.000  La
  Hf1      1.0000 0.13778  0.04014  0.66892  Biso   1.000  Hf
  Hf2      1.0000 0.14403  0.45856  0.42411  Biso   1.000  Hf
  Hf3      1.0000 0.13826  0.46602  0.91242  Biso   1.000  Hf
  Hf4      1.0000 0.36518  0.53473  0.16558  Biso   1.000  Hf
  Hf5      1.0000 0.36009  0.53974  0.67095  Biso   1.000  Hf
  Hf6      1.0000 0.35382  0.95878  0.41846  Biso   1.000  Hf
  Hf7      1.0000 0.36722  0.96315  0.91639  Biso   1.000  Hf
  Hf8      1.0000 0.64616  0.04128  0.08153  Biso   1.000  Hf
  Hf9      1.0000 0.63279  0.03676  0.58362  Biso   1.000  Hf
  Hf10     1.0000 0.63479  0.46527  0.33442  Biso   1.000  Hf
  Hf11     1.0000 0.63994  0.46020  0.82906  Biso   1.000  Hf
  Hf12     1.0000 0.85594  0.54146  0.07587  Biso   1.000  Hf
  Hf13     1.0000 0.86178  0.53396  0.58763  Biso   1.000  Hf
  La2      1.0000 0.87015  0.98193  0.35022  Biso   1.000  La
  Hf14     1.0000 0.86228  0.95984  0.83109  Biso   1.000  Hf
  O1       1.0000 0.04204  0.42142  0.09293  Biso   1.000  O 
  O2       1.0000 0.04067  0.35915  0.60534  Biso   1.000  O 
  O3       1.0000 0.08195  0.10189  0.37228  Biso   1.000  O 
  O4       1.0000 0.04209  0.13558  0.84880  Biso   1.000  O 
  O5       1.0000 0.47382  0.83021  0.08180  Biso   1.000  O 
  O6       1.0000 0.46379  0.82407  0.58080  Biso   1.000  O 
  O7       1.0000 0.47034  0.68247  0.33005  Biso   1.000  O 
  O8       1.0000 0.47064  0.67502  0.82969  Biso   1.000  O 
  O9       1.0000 0.28750  0.24801  0.29396  Biso   1.000  O 
  O10      1.0000 0.27481  0.25106  0.79103  Biso   1.000  O 
  O11      1.0000 0.28294  0.25372  0.03302  Biso   1.000  O 
  O12      1.0000 0.27741  0.24902  0.54674  Biso   1.000  O 
  O13      1.0000 0.23222  0.71731  0.29346  Biso   1.000  O 
  O14      1.0000 0.22488  0.74903  0.78818  Biso   1.000  O 
  O15      1.0000 0.24613  0.72872  0.02673  Biso   1.000  O 
  O16      1.0000 0.22328  0.75179  0.54442  Biso   1.000  O 
  O17      1.0000 0.52963  0.31757  0.16993  Biso   1.000  O 
  O18      1.0000 0.52940  0.32497  0.67032  Biso   1.000  O 
  O19      1.0000 0.52614  0.16984  0.41816  Biso   1.000  O 
  O20      1.0000 0.53622  0.17592  0.91924  Biso   1.000  O 
  O21      1.0000 0.91802  0.89813  0.12772  Biso   1.000  O 
  O22      1.0000 0.95796  0.86441  0.65120  Biso   1.000  O 
  O23      1.0000 0.95794  0.57857  0.40706  Biso   1.000  O 
  O24      1.0000 0.95933  0.64084  0.89468  Biso   1.000  O 
  O25      1.0000 0.77673  0.24812  0.95561  Biso   1.000  O 
  O26      1.0000 0.75386  0.27138  0.47329  Biso   1.000  O 
  O27      1.0000 0.76776  0.28274  0.20652  Biso   1.000  O 
  O28      1.0000 0.77515  0.25089  0.71183  Biso   1.000  O 
  O29      1.0000 0.72260  0.75101  0.95324  Biso   1.000  O 
  O30      1.0000 0.71704  0.74630  0.46693  Biso   1.000  O 
  O31      1.0000 0.71247  0.75203  0.20603  Biso   1.000  O 
  O32      1.0000 0.72520  0.74892  0.70900  Biso   1.000  O 
