data_image0
_cell_length_a       10.2194
_cell_length_b       5.19501
_cell_length_c       10.4545
_cell_angle_alpha    90.0039
_cell_angle_beta     89.9901
_cell_angle_gamma    90.7107

_symmetry_space_group_name_H-M    "P 1"
_symmetry_int_tables_number       1

loop_
  _symmetry_equiv_pos_as_xyz
  'x, y, z'

loop_
  _atom_site_label
  _atom_site_occupancy
  _atom_site_fract_x
  _atom_site_fract_y
  _atom_site_fract_z
  _atom_site_thermal_displace_type
  _atom_site_B_iso_or_equiv
  _atom_site_type_symbol
  La1      1.0000 0.12653  0.01266  0.15576  Biso   1.000  La
  Hf1      1.0000 0.14208  0.03745  0.66957  Biso   1.000  Hf
  Hf2      1.0000 0.13757  0.45113  0.41796  Biso   1.000  Hf
  Hf3      1.0000 0.14290  0.46489  0.91763  Biso   1.000  Hf
  Hf4      1.0000 0.36652  0.52876  0.16708  Biso   1.000  Hf
  Hf5      1.0000 0.35867  0.53240  0.67106  Biso   1.000  Hf
  Hf6      1.0000 0.35192  0.96169  0.41208  Biso   1.000  Hf
  Hf7      1.0000 0.36821  0.95908  0.91704  Biso   1.000  Hf
  Hf8      1.0000 0.64205  0.03749  0.08044  Biso   1.000  Hf
  La2      1.0000 0.62651  0.01267  0.59426  Biso   1.000  La
  Hf9      1.0000 0.63758  0.45111  0.33202  Biso   1.000  Hf
  Hf10     1.0000 0.64285  0.46492  0.83238  Biso   1.000  Hf
  Hf11     1.0000 0.85869  0.53242  0.07889  Biso   1.000  Hf
  Hf12     1.0000 0.86649  0.52870  0.58293  Biso   1.000  Hf
  Hf13     1.0000 0.85188  0.96169  0.33792  Biso   1.000  Hf
  Hf14     1.0000 0.86820  0.95911  0.83297  Biso   1.000  Hf
  O1       1.0000 0.04111  0.40426  0.09277  Biso   1.000  O 
  O2       1.0000 0.03790  0.33841  0.59179  Biso   1.000  O 
  O3       1.0000 0.02333  0.16121  0.34903  Biso   1.000  O 
  O4       1.0000 0.04322  0.15240  0.84457  Biso   1.000  O 
  O5       1.0000 0.47001  0.84054  0.08659  Biso   1.000  O 
  O6       1.0000 0.42060  0.86691  0.59264  Biso   1.000  O 
  O7       1.0000 0.47025  0.66821  0.33890  Biso   1.000  O 
  O8       1.0000 0.47014  0.66453  0.83639  Biso   1.000  O 
  O9       1.0000 0.27551  0.24801  0.29431  Biso   1.000  O 
  O10      1.0000 0.27858  0.24596  0.79067  Biso   1.000  O 
  O11      1.0000 0.28546  0.25193  0.03374  Biso   1.000  O 
  O12      1.0000 0.27282  0.25939  0.54008  Biso   1.000  O 
  O13      1.0000 0.23367  0.72286  0.29362  Biso   1.000  O 
  O14      1.0000 0.22658  0.74688  0.79065  Biso   1.000  O 
  O15      1.0000 0.24823  0.72401  0.03119  Biso   1.000  O 
  O16      1.0000 0.20822  0.75631  0.53778  Biso   1.000  O 
  O17      1.0000 0.53793  0.33848  0.15822  Biso   1.000  O 
  O18      1.0000 0.54113  0.40432  0.65719  Biso   1.000  O 
  O19      1.0000 0.52335  0.16120  0.40098  Biso   1.000  O 
  O20      1.0000 0.54324  0.15232  0.90538  Biso   1.000  O 
  O21      1.0000 0.92060  0.86684  0.15739  Biso   1.000  O 
  O22      1.0000 0.97004  0.84045  0.66342  Biso   1.000  O 
  O23      1.0000 0.97025  0.66822  0.41107  Biso   1.000  O 
  O24      1.0000 0.97017  0.66457  0.91359  Biso   1.000  O 
  O25      1.0000 0.77857  0.24595  0.95933  Biso   1.000  O 
  O26      1.0000 0.77549  0.24802  0.45571  Biso   1.000  O 
  O27      1.0000 0.77288  0.25950  0.20990  Biso   1.000  O 
  O28      1.0000 0.78544  0.25188  0.71625  Biso   1.000  O 
  O29      1.0000 0.72657  0.74689  0.95935  Biso   1.000  O 
  O30      1.0000 0.73368  0.72279  0.45639  Biso   1.000  O 
  O31      1.0000 0.70814  0.75656  0.21229  Biso   1.000  O 
  O32      1.0000 0.74824  0.72402  0.71883  Biso   1.000  O 
