data_image0
_cell_length_a       10.2321
_cell_length_b       5.18706
_cell_length_c       10.5333
_cell_angle_alpha    90.0357
_cell_angle_beta     89.9959
_cell_angle_gamma    90.0078

_symmetry_space_group_name_H-M    "P 1"
_symmetry_int_tables_number       1

loop_
  _symmetry_equiv_pos_as_xyz
  'x, y, z'

loop_
  _atom_site_label
  _atom_site_occupancy
  _atom_site_fract_x
  _atom_site_fract_y
  _atom_site_fract_z
  _atom_site_thermal_displace_type
  _atom_site_B_iso_or_equiv
  _atom_site_type_symbol
  La1      1.0000 0.13145  0.02006  0.16294  Biso   1.000  La
  Hf1      1.0000 0.13869  0.04240  0.66991  Biso   1.000  Hf
  Hf2      1.0000 0.13775  0.45330  0.42167  Biso   1.000  Hf
  Hf3      1.0000 0.14267  0.46858  0.91631  Biso   1.000  Hf
  Hf4      1.0000 0.36536  0.52798  0.16963  Biso   1.000  Hf
  Hf5      1.0000 0.35372  0.53553  0.66265  Biso   1.000  Hf
  Hf6      1.0000 0.36138  0.95342  0.41952  Biso   1.000  Hf
  Hf7      1.0000 0.36239  0.96431  0.92016  Biso   1.000  Hf
  Hf8      1.0000 0.64268  0.03135  0.08371  Biso   1.000  Hf
  Hf9      1.0000 0.63777  0.04660  0.57833  Biso   1.000  Hf
  Hf10     1.0000 0.63859  0.45747  0.33006  Biso   1.000  Hf
  La2      1.0000 0.63146  0.47974  0.83706  Biso   1.000  La
  Hf11     1.0000 0.86241  0.53571  0.07982  Biso   1.000  Hf
  Hf12     1.0000 0.86140  0.54668  0.58049  Biso   1.000  Hf
  Hf13     1.0000 0.85363  0.96455  0.33737  Biso   1.000  Hf
  Hf14     1.0000 0.86534  0.97209  0.83039  Biso   1.000  Hf
  O1       1.0000 0.04310  0.39826  0.08749  Biso   1.000  O 
  O2       1.0000 0.03444  0.34443  0.59030  Biso   1.000  O 
  O3       1.0000 0.02157  0.17473  0.35020  Biso   1.000  O 
  O4       1.0000 0.03732  0.16863  0.83795  Biso   1.000  O 
  O5       1.0000 0.47145  0.82360  0.08794  Biso   1.000  O 
  O6       1.0000 0.46722  0.82609  0.58302  Biso   1.000  O 
  O7       1.0000 0.47061  0.66505  0.33415  Biso   1.000  O 
  O8       1.0000 0.43270  0.65010  0.83053  Biso   1.000  O 
  O9       1.0000 0.28137  0.24479  0.30079  Biso   1.000  O 
  O10      1.0000 0.27491  0.24161  0.78873  Biso   1.000  O 
  O11      1.0000 0.28581  0.25598  0.03550  Biso   1.000  O 
  O12      1.0000 0.27009  0.24431  0.54189  Biso   1.000  O 
  O13      1.0000 0.23468  0.72288  0.29954  Biso   1.000  O 
  O14      1.0000 0.21203  0.74615  0.78691  Biso   1.000  O 
  O15      1.0000 0.24525  0.72790  0.03304  Biso   1.000  O 
  O16      1.0000 0.22421  0.75180  0.54222  Biso   1.000  O 
  O17      1.0000 0.53731  0.33137  0.16206  Biso   1.000  O 
  O18      1.0000 0.52160  0.32525  0.64981  Biso   1.000  O 
  O19      1.0000 0.53440  0.15555  0.40967  Biso   1.000  O 
  O20      1.0000 0.54310  0.10174  0.91248  Biso   1.000  O 
  O21      1.0000 0.93263  0.85002  0.16941  Biso   1.000  O 
  O22      1.0000 0.97063  0.83495  0.66579  Biso   1.000  O 
  O23      1.0000 0.96718  0.67391  0.41696  Biso   1.000  O 
  O24      1.0000 0.97142  0.67640  0.91208  Biso   1.000  O 
  O25      1.0000 0.78583  0.24393  0.96445  Biso   1.000  O 
  O26      1.0000 0.77007  0.25569  0.45805  Biso   1.000  O 
  O27      1.0000 0.77492  0.25846  0.21128  Biso   1.000  O 
  O28      1.0000 0.78137  0.25513  0.69925  Biso   1.000  O 
  O29      1.0000 0.74522  0.77212  0.96699  Biso   1.000  O 
  O30      1.0000 0.72423  0.74820  0.45785  Biso   1.000  O 
  O31      1.0000 0.71194  0.75404  0.21319  Biso   1.000  O 
  O32      1.0000 0.73468  0.77718  0.70049  Biso   1.000  O 
