data_image0
_cell_length_a       10.1289
_cell_length_b       5.15466
_cell_length_c       10.4252
_cell_angle_alpha    89.9166
_cell_angle_beta     90.6275
_cell_angle_gamma    89.8618

_symmetry_space_group_name_H-M    "P 1"
_symmetry_int_tables_number       1

loop_
  _symmetry_equiv_pos_as_xyz
  'x, y, z'

loop_
  _atom_site_label
  _atom_site_occupancy
  _atom_site_fract_x
  _atom_site_fract_y
  _atom_site_fract_z
  _atom_site_thermal_displace_type
  _atom_site_B_iso_or_equiv
  _atom_site_type_symbol
  La1      1.0000 0.13084  0.01648  0.16190  Biso   1.000  La
  Hf1      1.0000 0.13941  0.03573  0.67142  Biso   1.000  Hf
  Hf2      1.0000 0.13080  0.43950  0.42736  Biso   1.000  Hf
  Hf3      1.0000 0.14256  0.46090  0.91631  Biso   1.000  Hf
  Hf4      1.0000 0.37064  0.52274  0.16185  Biso   1.000  Hf
  Hf5      1.0000 0.36277  0.53878  0.66771  Biso   1.000  Hf
  Hf6      1.0000 0.36710  0.97094  0.42368  Biso   1.000  Hf
  Hf7      1.0000 0.36847  0.95711  0.91701  Biso   1.000  Hf
  Hf8      1.0000 0.64376  0.03420  0.07961  Biso   1.000  Hf
  Hf9      1.0000 0.64024  0.04350  0.58275  Biso   1.000  Hf
  Hf10     1.0000 0.63559  0.46628  0.33160  Biso   1.000  Hf
  Hf11     1.0000 0.64065  0.45744  0.82918  Biso   1.000  Hf
  Hf12     1.0000 0.85996  0.53756  0.07942  Biso   1.000  Hf
  Hf13     1.0000 0.86115  0.54430  0.58088  Biso   1.000  Hf
  Hf14     1.0000 0.85242  0.96241  0.33319  Biso   1.000  Hf
  Hf15     1.0000 0.86429  0.95740  0.83070  Biso   1.000  Hf
  O1       1.0000 0.04362  0.40082  0.09286  Biso   1.000  O 
  O2       1.0000 0.03582  0.34809  0.59637  Biso   1.000  O 
  O3       1.0000 0.02558  0.14609  0.35497  Biso   1.000  O 
  O4       1.0000 0.04096  0.14601  0.84402  Biso   1.000  O 
  O5       1.0000 0.47312  0.82814  0.08153  Biso   1.000  O 
  O6       1.0000 0.46775  0.83519  0.58547  Biso   1.000  O 
  O7       1.0000 0.45604  0.66922  0.33261  Biso   1.000  O 
  O8       1.0000 0.46925  0.66245  0.83038  Biso   1.000  O 
  O9       1.0000 0.27450  0.27164  0.30085  Biso   1.000  O 
  O10      1.0000 0.27743  0.24715  0.79035  Biso   1.000  O 
  O11      1.0000 0.28623  0.24797  0.03436  Biso   1.000  O 
  O12      1.0000 0.27352  0.24485  0.54779  Biso   1.000  O 
  O13      1.0000 0.22620  0.74458  0.78680  Biso   1.000  O 
  O14      1.0000 0.24451  0.72611  0.03105  Biso   1.000  O 
  O15      1.0000 0.22504  0.75059  0.53321  Biso   1.000  O 
  O16      1.0000 0.53623  0.32207  0.16676  Biso   1.000  O 
  O17      1.0000 0.53496  0.33388  0.66442  Biso   1.000  O 
  O18      1.0000 0.53378  0.17108  0.41832  Biso   1.000  O 
  O19      1.0000 0.53978  0.16358  0.91374  Biso   1.000  O 
  O20      1.0000 0.92503  0.87138  0.15453  Biso   1.000  O 
  O21      1.0000 0.96362  0.84764  0.65999  Biso   1.000  O 
  O22      1.0000 0.96176  0.65452  0.40943  Biso   1.000  O 
  O23      1.0000 0.96523  0.65437  0.90700  Biso   1.000  O 
  O24      1.0000 0.77969  0.24357  0.95682  Biso   1.000  O 
  O25      1.0000 0.77151  0.25350  0.45953  Biso   1.000  O 
  O26      1.0000 0.77345  0.26525  0.21107  Biso   1.000  O 
  O27      1.0000 0.77765  0.25434  0.70739  Biso   1.000  O 
  O28      1.0000 0.72561  0.74479  0.95494  Biso   1.000  O 
  O29      1.0000 0.72195  0.75167  0.45903  Biso   1.000  O 
  O30      1.0000 0.70677  0.75345  0.21207  Biso   1.000  O 
  O31      1.0000 0.72622  0.75231  0.70656  Biso   1.000  O 
