data_image0
_cell_length_a       10.1278
_cell_length_b       10.35
_cell_length_c       5.22296
_cell_angle_alpha    89.5762
_cell_angle_beta     90.1437
_cell_angle_gamma    90.2377

_symmetry_space_group_name_H-M    "P 1"
_symmetry_int_tables_number       1

loop_
  _symmetry_equiv_pos_as_xyz
  'x, y, z'

loop_
  _atom_site_label
  _atom_site_occupancy
  _atom_site_fract_x
  _atom_site_fract_y
  _atom_site_fract_z
  _atom_site_thermal_displace_type
  _atom_site_B_iso_or_equiv
  _atom_site_type_symbol
  La1      1.0000 0.13508  0.01308  0.32109  Biso   1.000  La
  Hf1      1.0000 0.13663  0.51959  0.34086  Biso   1.000  Hf
  Hf2      1.0000 0.12882  0.23593  0.82952  Biso   1.000  Hf
  Hf3      1.0000 0.13989  0.72585  0.83638  Biso   1.000  Hf
  Hf4      1.0000 0.36733  0.27789  0.36345  Biso   1.000  Hf
  Hf5      1.0000 0.36428  0.76392  0.33501  Biso   1.000  Hf
  Hf6      1.0000 0.36165  0.47868  0.84695  Biso   1.000  Hf
  Hf7      1.0000 0.37166  0.97034  0.82391  Biso   1.000  Hf
  Hf8      1.0000 0.63805  0.02151  0.16679  Biso   1.000  Hf
  Hf9      1.0000 0.63927  0.52084  0.15269  Biso   1.000  Hf
  Hf10     1.0000 0.64113  0.22944  0.66170  Biso   1.000  Hf
  Hf11     1.0000 0.64100  0.72812  0.65344  Biso   1.000  Hf
  Hf12     1.0000 0.86014  0.27421  0.15594  Biso   1.000  Hf
  Hf13     1.0000 0.86019  0.76925  0.15516  Biso   1.000  Hf
  Hf14     1.0000 0.85881  0.48224  0.65032  Biso   1.000  Hf
  Hf15     1.0000 0.85683  0.97967  0.66892  Biso   1.000  Hf
  O1       1.0000 0.03844  0.19462  0.17345  Biso   1.000  O 
  O2       1.0000 0.03749  0.67352  0.17588  Biso   1.000  O 
  O3       1.0000 0.02596  0.08142  0.70546  Biso   1.000  O 
  O4       1.0000 0.03452  0.57923  0.66910  Biso   1.000  O 
  O5       1.0000 0.46913  0.41726  0.17240  Biso   1.000  O 
  O6       1.0000 0.46456  0.92115  0.17200  Biso   1.000  O 
  O7       1.0000 0.47074  0.33724  0.67435  Biso   1.000  O 
  O8       1.0000 0.47193  0.83038  0.66116  Biso   1.000  O 
  O9       1.0000 0.28286  0.12963  0.61991  Biso   1.000  O 
  O10      1.0000 0.27766  0.61951  0.58665  Biso   1.000  O 
  O11      1.0000 0.27300  0.61678  0.08912  Biso   1.000  O 
  O12      1.0000 0.22388  0.37727  0.59075  Biso   1.000  O 
  O13      1.0000 0.23418  0.86040  0.58441  Biso   1.000  O 
  O14      1.0000 0.23092  0.36576  0.09109  Biso   1.000  O 
  O15      1.0000 0.24305  0.86089  0.06032  Biso   1.000  O 
  O16      1.0000 0.53172  0.16637  0.33758  Biso   1.000  O 
  O17      1.0000 0.53539  0.66388  0.32899  Biso   1.000  O 
  O18      1.0000 0.53620  0.08325  0.83312  Biso   1.000  O 
  O19      1.0000 0.53207  0.58467  0.83272  Biso   1.000  O 
  O20      1.0000 0.96051  0.42782  0.31404  Biso   1.000  O 
  O21      1.0000 0.94064  0.91794  0.33562  Biso   1.000  O 
  O22      1.0000 0.95844  0.33353  0.80994  Biso   1.000  O 
  O23      1.0000 0.96811  0.83176  0.83055  Biso   1.000  O 
  O24      1.0000 0.77361  0.12658  0.92034  Biso   1.000  O 
  O25      1.0000 0.77588  0.62365  0.90382  Biso   1.000  O 
  O26      1.0000 0.77517  0.12872  0.41824  Biso   1.000  O 
  O27      1.0000 0.77545  0.62751  0.40467  Biso   1.000  O 
  O28      1.0000 0.72282  0.37618  0.90803  Biso   1.000  O 
  O29      1.0000 0.72386  0.87378  0.91615  Biso   1.000  O 
  O30      1.0000 0.72332  0.37684  0.40896  Biso   1.000  O 
  O31      1.0000 0.71187  0.87652  0.41650  Biso   1.000  O 
