data_image0
_cell_length_a       5.02114
_cell_length_b       10.4514
_cell_length_c       10.0493
_cell_angle_alpha    91.0544
_cell_angle_beta     90.6534
_cell_angle_gamma    89.8068

_symmetry_space_group_name_H-M    "P 1"
_symmetry_int_tables_number       1

loop_
  _symmetry_equiv_pos_as_xyz
  'x, y, z'

loop_
  _atom_site_label
  _atom_site_occupancy
  _atom_site_fract_x
  _atom_site_fract_y
  _atom_site_fract_z
  _atom_site_thermal_displace_type
  _atom_site_B_iso_or_equiv
  _atom_site_type_symbol
  La1      1.0000 0.25028  0.00360  0.12574  Biso   1.000  La
  Hf1      1.0000 0.26433  0.01606  0.62511  Biso   1.000  Hf
  Hf2      1.0000 0.26303  0.51689  0.12181  Biso   1.000  Hf
  Hf3      1.0000 0.26492  0.51553  0.62692  Biso   1.000  Hf
  Hf4      1.0000 0.25557  0.23562  0.38027  Biso   1.000  Hf
  Hf5      1.0000 0.27897  0.23591  0.87038  Biso   1.000  Hf
  Hf6      1.0000 0.26435  0.72621  0.38154  Biso   1.000  Hf
  Hf7      1.0000 0.27512  0.73574  0.87623  Biso   1.000  Hf
  Hf8      1.0000 0.74701  0.27622  0.11644  Biso   1.000  Hf
  Hf9      1.0000 0.73355  0.26691  0.62322  Biso   1.000  Hf
  Hf10     1.0000 0.72792  0.76406  0.12840  Biso   1.000  Hf
  Hf11     1.0000 0.72973  0.76449  0.62717  Biso   1.000  Hf
  Hf12     1.0000 0.72642  0.48050  0.37638  Biso   1.000  Hf
  Hf13     1.0000 0.73539  0.48716  0.87431  Biso   1.000  Hf
  Hf14     1.0000 0.73000  0.97425  0.38500  Biso   1.000  Hf
  Hf15     1.0000 0.73669  0.98419  0.87272  Biso   1.000  Hf
  O1       1.0000 0.04659  0.19236  0.20934  Biso   1.000  O 
  O2       1.0000 0.08361  0.18959  0.68190  Biso   1.000  O 
  O3       1.0000 0.06817  0.68737  0.19766  Biso   1.000  O 
  O4       1.0000 0.07141  0.68416  0.69578  Biso   1.000  O 
  O5       1.0000 0.07734  0.06052  0.44116  Biso   1.000  O 
  O6       1.0000 0.07298  0.07728  0.91742  Biso   1.000  O 
  O7       1.0000 0.06596  0.56175  0.44789  Biso   1.000  O 
  O8       1.0000 0.06947  0.57394  0.94589  Biso   1.000  O 
  O9       1.0000 0.93224  0.44083  0.19658  Biso   1.000  O 
  O10      1.0000 0.93107  0.43422  0.69607  Biso   1.000  O 
  O11      1.0000 0.84369  0.94756  0.19461  Biso   1.000  O 
  O12      1.0000 0.92929  0.93294  0.69185  Biso   1.000  O 
  O13      1.0000 0.92287  0.31693  0.44791  Biso   1.000  O 
  O14      1.0000 0.94675  0.32592  0.94461  Biso   1.000  O 
  O15      1.0000 0.92560  0.81267  0.44744  Biso   1.000  O 
  O16      1.0000 0.96570  0.83019  0.95936  Biso   1.000  O 
  O17      1.0000 0.54841  0.11888  0.74411  Biso   1.000  O 
  O18      1.0000 0.52913  0.60696  0.25043  Biso   1.000  O 
  O19      1.0000 0.54285  0.61848  0.74960  Biso   1.000  O 
  O20      1.0000 0.54600  0.13049  0.48904  Biso   1.000  O 
  O21      1.0000 0.55614  0.13864  0.99742  Biso   1.000  O 
  O22      1.0000 0.54069  0.62869  0.50136  Biso   1.000  O 
  O23      1.0000 0.54201  0.63167  0.00007  Biso   1.000  O 
  O24      1.0000 0.45666  0.38216  0.50004  Biso   1.000  O 
  O25      1.0000 0.46662  0.38830  0.99659  Biso   1.000  O 
  O26      1.0000 0.45422  0.87800  0.50499  Biso   1.000  O 
  O27      1.0000 0.49334  0.87060  0.98987  Biso   1.000  O 
  O28      1.0000 0.46968  0.35365  0.24928  Biso   1.000  O 
  O29      1.0000 0.46604  0.36962  0.74791  Biso   1.000  O 
  O30      1.0000 0.45962  0.84773  0.26284  Biso   1.000  O 
  O31      1.0000 0.46210  0.86866  0.74848  Biso   1.000  O 
