data_image0
_cell_length_a       10.1045
_cell_length_b       5.12379
_cell_length_c       10.5161
_cell_angle_alpha    90.0457
_cell_angle_beta     90.9811
_cell_angle_gamma    89.7949

_symmetry_space_group_name_H-M    "P 1"
_symmetry_int_tables_number       1

loop_
  _symmetry_equiv_pos_as_xyz
  'x, y, z'

loop_
  _atom_site_label
  _atom_site_occupancy
  _atom_site_fract_x
  _atom_site_fract_y
  _atom_site_fract_z
  _atom_site_thermal_displace_type
  _atom_site_B_iso_or_equiv
  _atom_site_type_symbol
  La1      1.0000 0.12249  0.03642  0.15437  Biso   1.000  La
  Hf1      1.0000 0.13975  0.04097  0.66836  Biso   1.000  Hf
  Hf2      1.0000 0.13681  0.45994  0.41950  Biso   1.000  Hf
  Hf3      1.0000 0.14748  0.47362  0.90712  Biso   1.000  Hf
  Hf4      1.0000 0.36110  0.53970  0.17007  Biso   1.000  Hf
  Hf5      1.0000 0.36437  0.54374  0.66536  Biso   1.000  Hf
  Hf6      1.0000 0.35942  0.96055  0.41692  Biso   1.000  Hf
  Hf7      1.0000 0.36579  0.96034  0.91722  Biso   1.000  Hf
  Hf8      1.0000 0.63535  0.04379  0.07933  Biso   1.000  Hf
  Hf9      1.0000 0.63875  0.04109  0.57837  Biso   1.000  Hf
  Hf10     1.0000 0.63556  0.45821  0.32998  Biso   1.000  Hf
  Hf11     1.0000 0.63990  0.45582  0.82585  Biso   1.000  Hf
  Hf12     1.0000 0.84587  0.54463  0.08130  Biso   1.000  Hf
  Hf13     1.0000 0.86299  0.54245  0.58214  Biso   1.000  Hf
  Hf14     1.0000 0.85677  0.95510  0.33580  Biso   1.000  Hf
  Hf15     1.0000 0.86520  0.95551  0.83312  Biso   1.000  Hf
  O1       1.0000 0.03209  0.32444  0.58527  Biso   1.000  O 
  O2       1.0000 0.01552  0.20060  0.33353  Biso   1.000  O 
  O3       1.0000 0.03743  0.16781  0.84326  Biso   1.000  O 
  O4       1.0000 0.46806  0.83308  0.08099  Biso   1.000  O 
  O5       1.0000 0.46897  0.82948  0.57914  Biso   1.000  O 
  O6       1.0000 0.46931  0.67613  0.33012  Biso   1.000  O 
  O7       1.0000 0.47101  0.67200  0.82748  Biso   1.000  O 
  O8       1.0000 0.27808  0.25258  0.29518  Biso   1.000  O 
  O9       1.0000 0.27759  0.24864  0.78461  Biso   1.000  O 
  O10      1.0000 0.27805  0.26553  0.02879  Biso   1.000  O 
  O11      1.0000 0.27431  0.25504  0.54044  Biso   1.000  O 
  O12      1.0000 0.22704  0.73702  0.29595  Biso   1.000  O 
  O13      1.0000 0.22964  0.75120  0.78871  Biso   1.000  O 
  O14      1.0000 0.23850  0.73674  0.03175  Biso   1.000  O 
  O15      1.0000 0.22478  0.75768  0.54364  Biso   1.000  O 
  O16      1.0000 0.53198  0.33013  0.16622  Biso   1.000  O 
  O17      1.0000 0.53514  0.32981  0.66453  Biso   1.000  O 
  O18      1.0000 0.53239  0.17051  0.41615  Biso   1.000  O 
  O19      1.0000 0.53578  0.17179  0.91445  Biso   1.000  O 
  O20      1.0000 0.95495  0.76752  0.19281  Biso   1.000  O 
  O21      1.0000 0.97286  0.81504  0.68234  Biso   1.000  O 
  O22      1.0000 0.97133  0.69779  0.43569  Biso   1.000  O 
  O23      1.0000 0.97280  0.67582  0.93761  Biso   1.000  O 
  O24      1.0000 0.77832  0.24392  0.95727  Biso   1.000  O 
  O25      1.0000 0.77295  0.25113  0.45983  Biso   1.000  O 
  O26      1.0000 0.77439  0.25097  0.20615  Biso   1.000  O 
  O27      1.0000 0.77873  0.24743  0.70875  Biso   1.000  O 
  O28      1.0000 0.72356  0.74799  0.95435  Biso   1.000  O 
  O29      1.0000 0.72387  0.74616  0.45704  Biso   1.000  O 
  O30      1.0000 0.71303  0.75686  0.20593  Biso   1.000  O 
  O31      1.0000 0.72797  0.75067  0.70620  Biso   1.000  O 
