data_image0
_cell_length_a       10.1946
_cell_length_b       10.3577
_cell_length_c       5.22435
_cell_angle_alpha    89.9837
_cell_angle_beta     80.9462
_cell_angle_gamma    89.9357

_symmetry_space_group_name_H-M    "P 1"
_symmetry_int_tables_number       1

loop_
  _symmetry_equiv_pos_as_xyz
  'x, y, z'

loop_
  _atom_site_label
  _atom_site_occupancy
  _atom_site_fract_x
  _atom_site_fract_y
  _atom_site_fract_z
  _atom_site_thermal_displace_type
  _atom_site_B_iso_or_equiv
  _atom_site_type_symbol
  La1      1.0000 0.13219  0.01252  0.28503  Biso   1.000  La
  Hf1      1.0000 0.13527  0.51756  0.28971  Biso   1.000  Hf
  Hf2      1.0000 0.65153  0.02469  0.29293  Biso   1.000  Hf
  Hf3      1.0000 0.63702  0.51942  0.29329  Biso   1.000  Hf
  Hf4      1.0000 0.13604  0.23184  0.79241  Biso   1.000  Hf
  Hf5      1.0000 0.14179  0.72574  0.78363  Biso   1.000  Hf
  Hf6      1.0000 0.63792  0.22899  0.79350  Biso   1.000  Hf
  Hf7      1.0000 0.63700  0.72929  0.79058  Biso   1.000  Hf
  Hf8      1.0000 0.36031  0.26757  0.20919  Biso   1.000  Hf
  Hf9      1.0000 0.35897  0.75760  0.19409  Biso   1.000  Hf
  Hf10     1.0000 0.86189  0.27636  0.20594  Biso   1.000  Hf
  Hf11     1.0000 0.85913  0.76592  0.20675  Biso   1.000  Hf
  Hf12     1.0000 0.36184  0.47392  0.70405  Biso   1.000  Hf
  Hf13     1.0000 0.36466  0.98543  0.72054  Biso   1.000  Hf
  Hf14     1.0000 0.85883  0.48068  0.70681  Biso   1.000  Hf
  Hf15     1.0000 0.85810  0.97754  0.72115  Biso   1.000  Hf
  O1       1.0000 0.03959  0.19917  0.17151  Biso   1.000  O 
  O2       1.0000 0.04183  0.67754  0.16460  Biso   1.000  O 
  O3       1.0000 0.53237  0.15702  0.15174  Biso   1.000  O 
  O4       1.0000 0.53626  0.67022  0.16512  Biso   1.000  O 
  O5       1.0000 0.03054  0.07512  0.71299  Biso   1.000  O 
  O6       1.0000 0.03557  0.57675  0.66407  Biso   1.000  O 
  O7       1.0000 0.53924  0.08033  0.64345  Biso   1.000  O 
  O8       1.0000 0.53169  0.58357  0.65986  Biso   1.000  O 
  O9       1.0000 0.46556  0.41487  0.34189  Biso   1.000  O 
  O10      1.0000 0.95447  0.43377  0.32759  Biso   1.000  O 
  O11      1.0000 0.93048  0.92435  0.34629  Biso   1.000  O 
  O12      1.0000 0.46688  0.33144  0.84295  Biso   1.000  O 
  O13      1.0000 0.47454  0.84422  0.86416  Biso   1.000  O 
  O14      1.0000 0.95852  0.33015  0.82485  Biso   1.000  O 
  O15      1.0000 0.96624  0.82622  0.83073  Biso   1.000  O 
  O16      1.0000 0.28472  0.13436  0.49399  Biso   1.000  O 
  O17      1.0000 0.27313  0.62119  0.47630  Biso   1.000  O 
  O18      1.0000 0.77717  0.13305  0.48670  Biso   1.000  O 
  O19      1.0000 0.77309  0.62984  0.48013  Biso   1.000  O 
  O20      1.0000 0.28330  0.12819  0.96948  Biso   1.000  O 
  O21      1.0000 0.27707  0.61650  0.97748  Biso   1.000  O 
  O22      1.0000 0.77567  0.12353  0.98700  Biso   1.000  O 
  O23      1.0000 0.77329  0.62042  0.97942  Biso   1.000  O 
  O24      1.0000 0.22576  0.38052  0.01384  Biso   1.000  O 
  O25      1.0000 0.23516  0.86453  0.99167  Biso   1.000  O 
  O26      1.0000 0.72045  0.38022  0.01759  Biso   1.000  O 
  O27      1.0000 0.72556  0.87878  0.02080  Biso   1.000  O 
  O28      1.0000 0.22111  0.37093  0.51351  Biso   1.000  O 
  O29      1.0000 0.25946  0.86000  0.50897  Biso   1.000  O 
  O30      1.0000 0.72166  0.37200  0.51949  Biso   1.000  O 
  O31      1.0000 0.70831  0.86910  0.52510  Biso   1.000  O 
