data_image0
_cell_length_a       10.0412
_cell_length_b       10.3931
_cell_length_c       5.04089
_cell_angle_alpha    89.9285
_cell_angle_beta     89.993
_cell_angle_gamma    89.7368

_symmetry_space_group_name_H-M    "P 1"
_symmetry_int_tables_number       1

loop_
  _symmetry_equiv_pos_as_xyz
  'x, y, z'

loop_
  _atom_site_label
  _atom_site_occupancy
  _atom_site_fract_x
  _atom_site_fract_y
  _atom_site_fract_z
  _atom_site_thermal_displace_type
  _atom_site_B_iso_or_equiv
  _atom_site_type_symbol
  La1      1.0000 0.12162  0.00989  0.24587  Biso   1.000  La
  Hf1      1.0000 0.13417  0.51795  0.25972  Biso   1.000  Hf
  Hf2      1.0000 0.63334  0.01545  0.24895  Biso   1.000  Hf
  Hf3      1.0000 0.63039  0.51738  0.25497  Biso   1.000  Hf
  Hf4      1.0000 0.14147  0.24064  0.76865  Biso   1.000  Hf
  Hf5      1.0000 0.13688  0.73275  0.75757  Biso   1.000  Hf
  Hf6      1.0000 0.63124  0.23248  0.74697  Biso   1.000  Hf
  Hf7      1.0000 0.63340  0.73230  0.75619  Biso   1.000  Hf
  Hf8      1.0000 0.36542  0.26620  0.25789  Biso   1.000  Hf
  Hf9      1.0000 0.36905  0.76559  0.24839  Biso   1.000  Hf
  Hf10     1.0000 0.85372  0.27289  0.24350  Biso   1.000  Hf
  Hf11     1.0000 0.86069  0.76234  0.25539  Biso   1.000  Hf
  Hf12     1.0000 0.36715  0.48400  0.75548  Biso   1.000  Hf
  Hf13     1.0000 0.36791  0.98444  0.74480  Biso   1.000  Hf
  Hf14     1.0000 0.86856  0.48325  0.75298  Biso   1.000  Hf
  Hf15     1.0000 0.85991  0.98120  0.74925  Biso   1.000  Hf
  O1       1.0000 0.03293  0.68149  0.40108  Biso   1.000  O 
  O2       1.0000 0.53900  0.18465  0.38495  Biso   1.000  O 
  O3       1.0000 0.53594  0.68212  0.39570  Biso   1.000  O 
  O4       1.0000 0.03321  0.07738  0.79277  Biso   1.000  O 
  O5       1.0000 0.03393  0.56791  0.89982  Biso   1.000  O 
  O6       1.0000 0.53986  0.06447  0.88148  Biso   1.000  O 
  O7       1.0000 0.53400  0.56655  0.89778  Biso   1.000  O 
  O8       1.0000 0.46449  0.43299  0.39546  Biso   1.000  O 
  O9       1.0000 0.46184  0.93756  0.38038  Biso   1.000  O 
  O10      1.0000 0.96882  0.42248  0.40062  Biso   1.000  O 
  O11      1.0000 0.93914  0.92452  0.40313  Biso   1.000  O 
  O12      1.0000 0.46703  0.31749  0.89160  Biso   1.000  O 
  O13      1.0000 0.47121  0.81832  0.89444  Biso   1.000  O 
  O14      1.0000 0.96532  0.31902  0.90060  Biso   1.000  O 
  O15      1.0000 0.97349  0.82564  0.91486  Biso   1.000  O 
  O16      1.0000 0.27414  0.13025  0.50828  Biso   1.000  O 
  O17      1.0000 0.27025  0.61518  0.50254  Biso   1.000  O 
  O18      1.0000 0.77363  0.12147  0.49182  Biso   1.000  O 
  O19      1.0000 0.77079  0.61561  0.49814  Biso   1.000  O 
  O20      1.0000 0.27898  0.13667  0.99236  Biso   1.000  O 
  O21      1.0000 0.26996  0.63068  0.00443  Biso   1.000  O 
  O22      1.0000 0.77013  0.13267  0.99533  Biso   1.000  O 
  O23      1.0000 0.76973  0.62967  0.99664  Biso   1.000  O 
  O24      1.0000 0.23367  0.38583  0.00947  Biso   1.000  O 
  O25      1.0000 0.24098  0.87511  0.98523  Biso   1.000  O 
  O26      1.0000 0.73001  0.38269  0.00017  Biso   1.000  O 
  O27      1.0000 0.73042  0.87850  0.00597  Biso   1.000  O 
  O28      1.0000 0.22842  0.37134  0.50591  Biso   1.000  O 
  O29      1.0000 0.24017  0.85760  0.50709  Biso   1.000  O 
  O30      1.0000 0.72715  0.37103  0.50199  Biso   1.000  O 
  O31      1.0000 0.71682  0.86765  0.50626  Biso   1.000  O 
