data_image0
_cell_length_a       10.0537
_cell_length_b       10.4015
_cell_length_c       5.04507
_cell_angle_alpha    90.3198
_cell_angle_beta     90.8795
_cell_angle_gamma    89.5876

_symmetry_space_group_name_H-M    "P 1"
_symmetry_int_tables_number       1

loop_
  _symmetry_equiv_pos_as_xyz
  'x, y, z'

loop_
  _atom_site_label
  _atom_site_occupancy
  _atom_site_fract_x
  _atom_site_fract_y
  _atom_site_fract_z
  _atom_site_thermal_displace_type
  _atom_site_B_iso_or_equiv
  _atom_site_type_symbol
  La1      1.0000 0.11937  0.00719  0.24158  Biso   1.000  La
  Hf1      1.0000 0.13201  0.51914  0.24665  Biso   1.000  Hf
  Hf2      1.0000 0.62850  0.01680  0.24808  Biso   1.000  Hf
  Hf3      1.0000 0.63431  0.51385  0.25277  Biso   1.000  Hf
  Hf4      1.0000 0.14269  0.24689  0.73367  Biso   1.000  Hf
  Hf5      1.0000 0.13621  0.73619  0.75064  Biso   1.000  Hf
  Hf6      1.0000 0.63351  0.23416  0.74640  Biso   1.000  Hf
  Hf7      1.0000 0.63196  0.72873  0.75638  Biso   1.000  Hf
  Hf8      1.0000 0.36636  0.26607  0.24081  Biso   1.000  Hf
  Hf9      1.0000 0.37023  0.76442  0.24167  Biso   1.000  Hf
  Hf10     1.0000 0.86444  0.26755  0.25356  Biso   1.000  Hf
  Hf11     1.0000 0.86226  0.76302  0.26192  Biso   1.000  Hf
  Hf12     1.0000 0.36853  0.48547  0.74478  Biso   1.000  Hf
  Hf13     1.0000 0.36701  0.98512  0.73899  Biso   1.000  Hf
  Hf14     1.0000 0.86850  0.48134  0.75554  Biso   1.000  Hf
  Hf15     1.0000 0.84668  0.97637  0.75415  Biso   1.000  Hf
  O1       1.0000 0.02081  0.18771  0.43005  Biso   1.000  O 
  O2       1.0000 0.03531  0.68380  0.39499  Biso   1.000  O 
  O3       1.0000 0.53848  0.18661  0.37859  Biso   1.000  O 
  O4       1.0000 0.53621  0.67992  0.39459  Biso   1.000  O 
  O5       1.0000 0.03239  0.57345  0.89281  Biso   1.000  O 
  O6       1.0000 0.53818  0.06729  0.88261  Biso   1.000  O 
  O7       1.0000 0.53447  0.56583  0.89710  Biso   1.000  O 
  O8       1.0000 0.46744  0.43255  0.38938  Biso   1.000  O 
  O9       1.0000 0.46320  0.93609  0.38172  Biso   1.000  O 
  O10      1.0000 0.96664  0.43554  0.39971  Biso   1.000  O 
  O11      1.0000 0.94718  0.91813  0.44044  Biso   1.000  O 
  O12      1.0000 0.46605  0.31663  0.88180  Biso   1.000  O 
  O13      1.0000 0.47308  0.81921  0.89310  Biso   1.000  O 
  O14      1.0000 0.97267  0.31567  0.91014  Biso   1.000  O 
  O15      1.0000 0.97691  0.83562  0.93426  Biso   1.000  O 
  O16      1.0000 0.28182  0.12927  0.49695  Biso   1.000  O 
  O17      1.0000 0.26932  0.61456  0.49378  Biso   1.000  O 
  O18      1.0000 0.76399  0.11422  0.49868  Biso   1.000  O 
  O19      1.0000 0.77133  0.61503  0.50280  Biso   1.000  O 
  O20      1.0000 0.26608  0.13920  0.97980  Biso   1.000  O 
  O21      1.0000 0.27003  0.63304  0.99403  Biso   1.000  O 
  O22      1.0000 0.77501  0.13085  0.99924  Biso   1.000  O 
  O23      1.0000 0.77091  0.62957  0.00044  Biso   1.000  O 
  O24      1.0000 0.23410  0.38982  0.98951  Biso   1.000  O 
  O25      1.0000 0.24344  0.87627  0.97527  Biso   1.000  O 
  O26      1.0000 0.73102  0.38196  0.99696  Biso   1.000  O 
  O27      1.0000 0.72857  0.87686  0.01103  Biso   1.000  O 
  O28      1.0000 0.23161  0.37109  0.48361  Biso   1.000  O 
  O29      1.0000 0.24263  0.85622  0.49883  Biso   1.000  O 
  O30      1.0000 0.73219  0.36682  0.50102  Biso   1.000  O 
  O31      1.0000 0.71780  0.86532  0.50929  Biso   1.000  O 
