data_image0
_cell_length_a       10.0262
_cell_length_b       5.1937
_cell_length_c       10.119
_cell_angle_alpha    90.1286
_cell_angle_beta     90.1093
_cell_angle_gamma    89.8367

_symmetry_space_group_name_H-M    "P 1"
_symmetry_int_tables_number       1

loop_
  _symmetry_equiv_pos_as_xyz
  'x, y, z'

loop_
  _atom_site_label
  _atom_site_occupancy
  _atom_site_fract_x
  _atom_site_fract_y
  _atom_site_fract_z
  _atom_site_thermal_displace_type
  _atom_site_B_iso_or_equiv
  _atom_site_type_symbol
  La1      1.0000 0.11853  0.01094  0.11890  Biso   1.000  La
  Hf1      1.0000 0.13318  0.03670  0.62615  Biso   1.000  Hf
  Hf2      1.0000 0.62989  0.03418  0.12557  Biso   1.000  Hf
  Hf3      1.0000 0.63317  0.03193  0.62356  Biso   1.000  Hf
  Hf4      1.0000 0.14085  0.47666  0.38649  Biso   1.000  Hf
  Hf5      1.0000 0.13740  0.47350  0.87120  Biso   1.000  Hf
  Hf6      1.0000 0.63166  0.46594  0.37742  Biso   1.000  Hf
  Hf7      1.0000 0.63296  0.46351  0.87228  Biso   1.000  Hf
  Hf8      1.0000 0.36673  0.52459  0.12357  Biso   1.000  Hf
  Hf9      1.0000 0.36789  0.53669  0.62558  Biso   1.000  Hf
  Hf10     1.0000 0.84762  0.54025  0.12405  Biso   1.000  Hf
  Hf11     1.0000 0.86657  0.53079  0.62508  Biso   1.000  Hf
  Hf12     1.0000 0.36466  0.97061  0.37109  Biso   1.000  Hf
  Hf13     1.0000 0.36912  0.96812  0.87386  Biso   1.000  Hf
  Hf14     1.0000 0.86492  0.95991  0.38182  Biso   1.000  Hf
  Hf15     1.0000 0.86337  0.96606  0.87071  Biso   1.000  Hf
  O1       1.0000 0.03998  0.37670  0.68555  Biso   1.000  O 
  O2       1.0000 0.53796  0.36686  0.19563  Biso   1.000  O 
  O3       1.0000 0.53554  0.36538  0.69412  Biso   1.000  O 
  O4       1.0000 0.03688  0.13517  0.43729  Biso   1.000  O 
  O5       1.0000 0.02623  0.16266  0.92005  Biso   1.000  O 
  O6       1.0000 0.53513  0.13088  0.44354  Biso   1.000  O 
  O7       1.0000 0.53726  0.13261  0.94454  Biso   1.000  O 
  O8       1.0000 0.45979  0.87234  0.19015  Biso   1.000  O 
  O9       1.0000 0.46704  0.86664  0.69531  Biso   1.000  O 
  O10      1.0000 0.95534  0.80335  0.22135  Biso   1.000  O 
  O11      1.0000 0.96393  0.86816  0.69516  Biso   1.000  O 
  O12      1.0000 0.46573  0.63464  0.44674  Biso   1.000  O 
  O13      1.0000 0.47284  0.63632  0.94482  Biso   1.000  O 
  O14      1.0000 0.96727  0.63402  0.45491  Biso   1.000  O 
  O15      1.0000 0.97403  0.66091  0.96105  Biso   1.000  O 
  O16      1.0000 0.26847  0.24607  0.25397  Biso   1.000  O 
  O17      1.0000 0.27143  0.23787  0.74687  Biso   1.000  O 
  O18      1.0000 0.77636  0.23686  0.24779  Biso   1.000  O 
  O19      1.0000 0.77007  0.23273  0.74584  Biso   1.000  O 
  O20      1.0000 0.27123  0.26758  0.50225  Biso   1.000  O 
  O21      1.0000 0.27556  0.26854  0.99075  Biso   1.000  O 
  O22      1.0000 0.76828  0.26547  0.49917  Biso   1.000  O 
  O23      1.0000 0.76933  0.26035  0.99626  Biso   1.000  O 
  O24      1.0000 0.23220  0.77331  0.50008  Biso   1.000  O 
  O25      1.0000 0.24290  0.74876  0.99017  Biso   1.000  O 
  O26      1.0000 0.72951  0.76139  0.50125  Biso   1.000  O 
  O27      1.0000 0.72993  0.76256  0.00040  Biso   1.000  O 
  O28      1.0000 0.23958  0.71375  0.25596  Biso   1.000  O 
  O29      1.0000 0.23066  0.74217  0.74516  Biso   1.000  O 
  O30      1.0000 0.71546  0.74326  0.25114  Biso   1.000  O 
  O31      1.0000 0.73050  0.73288  0.74989  Biso   1.000  O 
