data_image0
_cell_length_a       10.093
_cell_length_b       10.336
_cell_length_c       10.4899
_cell_angle_alpha    89.9563
_cell_angle_beta     89.9954
_cell_angle_gamma    90.0001

_symmetry_space_group_name_H-M    "P 1"
_symmetry_int_tables_number       1

loop_
  _symmetry_equiv_pos_as_xyz
  'x, y, z'

loop_
  _atom_site_label
  _atom_site_occupancy
  _atom_site_fract_x
  _atom_site_fract_y
  _atom_site_fract_z
  _atom_site_thermal_displace_type
  _atom_site_B_iso_or_equiv
  _atom_site_type_symbol
  La1      1.0000 0.13393  0.01317  0.16092  Biso   1.000  La
  Hf1      1.0000 0.13872  0.02098  0.67346  Biso   1.000  Hf
  Hf2      1.0000 0.13741  0.51913  0.17044  Biso   1.000  Hf
  Hf3      1.0000 0.13975  0.52054  0.67100  Biso   1.000  Hf
  Hf4      1.0000 0.13819  0.23052  0.42355  Biso   1.000  Hf
  Hf5      1.0000 0.13778  0.23380  0.91916  Biso   1.000  Hf
  Hf6      1.0000 0.13919  0.72575  0.42121  Biso   1.000  Hf
  Hf7      1.0000 0.13993  0.72700  0.91674  Biso   1.000  Hf
  Hf8      1.0000 0.36035  0.27039  0.17070  Biso   1.000  Hf
  Hf9      1.0000 0.36089  0.26986  0.67339  Biso   1.000  Hf
  Hf10     1.0000 0.36050  0.76269  0.16094  Biso   1.000  Hf
  Hf11     1.0000 0.36152  0.77089  0.66821  Biso   1.000  Hf
  Hf12     1.0000 0.35826  0.47533  0.42206  Biso   1.000  Hf
  Hf13     1.0000 0.36226  0.47727  0.92059  Biso   1.000  Hf
  Hf14     1.0000 0.35825  0.98584  0.42456  Biso   1.000  Hf
  Hf15     1.0000 0.36632  0.97870  0.91673  Biso   1.000  Hf
  Hf16     1.0000 0.63911  0.02421  0.07884  Biso   1.000  Hf
  Hf17     1.0000 0.64003  0.02299  0.58326  Biso   1.000  Hf
  Hf18     1.0000 0.63821  0.51952  0.07644  Biso   1.000  Hf
  Hf19     1.0000 0.63773  0.51621  0.58083  Biso   1.000  Hf
  Hf20     1.0000 0.63742  0.23088  0.32954  Biso   1.000  Hf
  Hf21     1.0000 0.63969  0.22941  0.82901  Biso   1.000  Hf
  La2      1.0000 0.63379  0.73691  0.33915  Biso   1.000  La
  Hf22     1.0000 0.63872  0.72899  0.82655  Biso   1.000  Hf
  Hf23     1.0000 0.85821  0.27464  0.07792  Biso   1.000  Hf
  Hf24     1.0000 0.86224  0.27270  0.57939  Biso   1.000  Hf
  Hf25     1.0000 0.85817  0.76435  0.07553  Biso   1.000  Hf
  Hf26     1.0000 0.86635  0.77129  0.58326  Biso   1.000  Hf
  Hf27     1.0000 0.86030  0.47965  0.32931  Biso   1.000  Hf
  Hf28     1.0000 0.86084  0.48012  0.82661  Biso   1.000  Hf
  Hf29     1.0000 0.86049  0.98722  0.33885  Biso   1.000  Hf
  Hf30     1.0000 0.86148  0.97912  0.83179  Biso   1.000  Hf
  O1       1.0000 0.03332  0.18888  0.08226  Biso   1.000  O 
  O2       1.0000 0.03397  0.17030  0.59089  Biso   1.000  O 
  O3       1.0000 0.03684  0.67230  0.08578  Biso   1.000  O 
  O4       1.0000 0.03831  0.66911  0.58787  Biso   1.000  O 
  O5       1.0000 0.02772  0.08631  0.35002  Biso   1.000  O 
  O6       1.0000 0.03588  0.08111  0.84038  Biso   1.000  O 
  O7       1.0000 0.03398  0.58215  0.33527  Biso   1.000  O 
  O8       1.0000 0.03377  0.58178  0.83412  Biso   1.000  O 
  O9       1.0000 0.46618  0.41483  0.08373  Biso   1.000  O 
  O10      1.0000 0.46346  0.41521  0.59051  Biso   1.000  O 
  O11      1.0000 0.46941  0.91769  0.08559  Biso   1.000  O 
  O12      1.0000 0.46967  0.91551  0.58229  Biso   1.000  O 
  O13      1.0000 0.46258  0.32822  0.33676  Biso   1.000  O 
  O14      1.0000 0.46595  0.32938  0.83675  Biso   1.000  O 
  O15      1.0000 0.43827  0.83117  0.33288  Biso   1.000  O 
  O16      1.0000 0.46778  0.83267  0.83043  Biso   1.000  O 
  O17      1.0000 0.28024  0.12931  0.30275  Biso   1.000  O 
  O18      1.0000 0.27587  0.12305  0.79354  Biso   1.000  O 
  O19      1.0000 0.27641  0.61909  0.29127  Biso   1.000  O 
  O20      1.0000 0.27731  0.62382  0.79209  Biso   1.000  O 
  O21      1.0000 0.28546  0.13287  0.03487  Biso   1.000  O 
  O22      1.0000 0.27462  0.12681  0.54822  Biso   1.000  O 
  O23      1.0000 0.27209  0.61840  0.04110  Biso   1.000  O 
  O24      1.0000 0.27721  0.62473  0.54309  Biso   1.000  O 
  O25      1.0000 0.22091  0.37285  0.29372  Biso   1.000  O 
  O26      1.0000 0.22483  0.37519  0.79458  Biso   1.000  O 
  O27      1.0000 0.22623  0.86362  0.29680  Biso   1.000  O 
  O28      1.0000 0.22542  0.87351  0.79011  Biso   1.000  O 
  O29      1.0000 0.22343  0.37626  0.04431  Biso   1.000  O 
  O30      1.0000 0.22260  0.37522  0.54632  Biso   1.000  O 
  O31      1.0000 0.24204  0.86133  0.02904  Biso   1.000  O 
  O32      1.0000 0.22475  0.87731  0.54453  Biso   1.000  O 
  O33      1.0000 0.53405  0.16799  0.16468  Biso   1.000  O 
  O34      1.0000 0.53384  0.16828  0.66575  Biso   1.000  O 
  O35      1.0000 0.52785  0.66392  0.14985  Biso   1.000  O 
  O36      1.0000 0.53595  0.66898  0.65958  Biso   1.000  O 
  O37      1.0000 0.53698  0.07747  0.41404  Biso   1.000  O 
  O38      1.0000 0.53831  0.08075  0.91201  Biso   1.000  O 
  O39      1.0000 0.53331  0.56108  0.41772  Biso   1.000  O 
  O40      1.0000 0.53399  0.57962  0.90906  Biso   1.000  O 
  O41      1.0000 0.96258  0.42169  0.16331  Biso   1.000  O 
  O42      1.0000 0.96599  0.42049  0.66331  Biso   1.000  O 
  O43      1.0000 0.93876  0.91829  0.16750  Biso   1.000  O 
  O44      1.0000 0.96782  0.91721  0.66965  Biso   1.000  O 
  O45      1.0000 0.96622  0.33530  0.41633  Biso   1.000  O 
  O46      1.0000 0.96350  0.33485  0.90957  Biso   1.000  O 
  O47      1.0000 0.96968  0.83249  0.41452  Biso   1.000  O 
  O48      1.0000 0.96963  0.83458  0.91778  Biso   1.000  O 
  O49      1.0000 0.77717  0.12525  0.95692  Biso   1.000  O 
  O50      1.0000 0.77205  0.13163  0.45887  Biso   1.000  O 
  O51      1.0000 0.77461  0.62317  0.95179  Biso   1.000  O 
  O52      1.0000 0.78543  0.61723  0.46508  Biso   1.000  O 
  O53      1.0000 0.77651  0.13093  0.20867  Biso   1.000  O 
  O54      1.0000 0.77732  0.12617  0.70790  Biso   1.000  O 
  O55      1.0000 0.78018  0.62077  0.19733  Biso   1.000  O 
  O56      1.0000 0.77590  0.62694  0.70645  Biso   1.000  O 
  O57      1.0000 0.72258  0.37473  0.95370  Biso   1.000  O 
  O58      1.0000 0.72345  0.37379  0.45567  Biso   1.000  O 
  O59      1.0000 0.72471  0.87269  0.95547  Biso   1.000  O 
  O60      1.0000 0.74217  0.88864  0.47094  Biso   1.000  O 
  O61      1.0000 0.72089  0.37717  0.20626  Biso   1.000  O 
  O62      1.0000 0.72481  0.37479  0.70542  Biso   1.000  O 
  O63      1.0000 0.72579  0.88654  0.20318  Biso   1.000  O 
  O64      1.0000 0.72543  0.87649  0.70988  Biso   1.000  O 
