data_image0
_cell_length_a       10.1832
_cell_length_b       10.3353
_cell_length_c       10.4879
_cell_angle_alpha    89.9271
_cell_angle_beta     80.6808
_cell_angle_gamma    89.6859

_symmetry_space_group_name_H-M    "P 1"
_symmetry_int_tables_number       1

loop_
  _symmetry_equiv_pos_as_xyz
  'x, y, z'

loop_
  _atom_site_label
  _atom_site_occupancy
  _atom_site_fract_x
  _atom_site_fract_y
  _atom_site_fract_z
  _atom_site_thermal_displace_type
  _atom_site_B_iso_or_equiv
  _atom_site_type_symbol
  Hf1      1.0000 0.14025  0.99672  0.15689  Biso   1.000  Hf
  Hf2      1.0000 0.13867  0.02137  0.64665  Biso   1.000  Hf
  Hf3      1.0000 0.14205  0.52278  0.14680  Biso   1.000  Hf
  Hf4      1.0000 0.13819  0.52305  0.64431  Biso   1.000  Hf
  Hf5      1.0000 0.63632  0.01300  0.14486  Biso   1.000  Hf
  Hf6      1.0000 0.63738  0.02258  0.64928  Biso   1.000  Hf
  Hf7      1.0000 0.64335  0.51632  0.14702  Biso   1.000  Hf
  Hf8      1.0000 0.64059  0.52236  0.64613  Biso   1.000  Hf
  Hf9      1.0000 0.13362  0.23126  0.39725  Biso   1.000  Hf
  Hf10     1.0000 0.14724  0.23963  0.87464  Biso   1.000  Hf
  Hf11     1.0000 0.13771  0.72734  0.39922  Biso   1.000  Hf
  Hf12     1.0000 0.14110  0.72606  0.89630  Biso   1.000  Hf
  Hf13     1.0000 0.63507  0.22830  0.39674  Biso   1.000  Hf
  Hf14     1.0000 0.64632  0.22915  0.89457  Biso   1.000  Hf
  Hf15     1.0000 0.63840  0.72819  0.39756  Biso   1.000  Hf
  Hf16     1.0000 0.64340  0.72699  0.89553  Biso   1.000  Hf
  La1      1.0000 0.36185  0.25900  0.10839  Biso   1.000  La
  Hf17     1.0000 0.36421  0.27357  0.59942  Biso   1.000  Hf
  Hf18     1.0000 0.36845  0.76418  0.10276  Biso   1.000  Hf
  Hf19     1.0000 0.36255  0.77029  0.60560  Biso   1.000  Hf
  La2      1.0000 0.87980  0.25233  0.11601  Biso   1.000  La
  Hf20     1.0000 0.85913  0.27319  0.60362  Biso   1.000  Hf
  Hf21     1.0000 0.86148  0.76643  0.10380  Biso   1.000  Hf
  Hf22     1.0000 0.86075  0.77388  0.60421  Biso   1.000  Hf
  Hf23     1.0000 0.36290  0.48265  0.35409  Biso   1.000  Hf
  Hf24     1.0000 0.36707  0.47885  0.85112  Biso   1.000  Hf
  Hf25     1.0000 0.35987  0.97889  0.35999  Biso   1.000  Hf
  Hf26     1.0000 0.36144  0.97446  0.85356  Biso   1.000  Hf
  Hf27     1.0000 0.86170  0.48340  0.35570  Biso   1.000  Hf
  Hf28     1.0000 0.86405  0.47656  0.85452  Biso   1.000  Hf
  Hf29     1.0000 0.85518  0.98194  0.35503  Biso   1.000  Hf
  Hf30     1.0000 0.86548  0.97447  0.85274  Biso   1.000  Hf
  O1       1.0000 0.03015  0.16084  0.57129  Biso   1.000  O 
  O2       1.0000 0.04185  0.67504  0.08176  Biso   1.000  O 
  O3       1.0000 0.03409  0.67026  0.58000  Biso   1.000  O 
  O4       1.0000 0.56232  0.17021  0.07669  Biso   1.000  O 
  O5       1.0000 0.53551  0.16852  0.57994  Biso   1.000  O 
  O6       1.0000 0.54395  0.67074  0.08037  Biso   1.000  O 
  O7       1.0000 0.53849  0.67319  0.58347  Biso   1.000  O 
  O8       1.0000 0.01247  0.11268  0.29406  Biso   1.000  O 
  O9       1.0000 0.03554  0.08543  0.82723  Biso   1.000  O 
  O10      1.0000 0.03504  0.58771  0.33278  Biso   1.000  O 
  O11      1.0000 0.03894  0.57980  0.82956  Biso   1.000  O 
  O12      1.0000 0.52280  0.08530  0.32941  Biso   1.000  O 
  O13      1.0000 0.53041  0.08135  0.83471  Biso   1.000  O 
  O14      1.0000 0.53827  0.58175  0.33595  Biso   1.000  O 
  O15      1.0000 0.53931  0.58083  0.83000  Biso   1.000  O 
  O16      1.0000 0.46530  0.43520  0.17367  Biso   1.000  O 
  O17      1.0000 0.46655  0.42434  0.66305  Biso   1.000  O 
  O18      1.0000 0.45684  0.92231  0.16961  Biso   1.000  O 
  O19      1.0000 0.46292  0.91911  0.67433  Biso   1.000  O 
  O20      1.0000 0.96733  0.43497  0.17454  Biso   1.000  O 
  O21      1.0000 0.96801  0.41712  0.66860  Biso   1.000  O 
  O22      1.0000 0.95737  0.92719  0.16378  Biso   1.000  O 
  O23      1.0000 0.96731  0.91735  0.66967  Biso   1.000  O 
  O24      1.0000 0.46122  0.32927  0.41716  Biso   1.000  O 
  O25      1.0000 0.47161  0.33008  0.90384  Biso   1.000  O 
  O26      1.0000 0.46452  0.83026  0.42243  Biso   1.000  O 
  O27      1.0000 0.46818  0.82938  0.91887  Biso   1.000  O 
  O28      1.0000 0.96163  0.33558  0.42287  Biso   1.000  O 
  O29      1.0000 0.97362  0.32787  0.90885  Biso   1.000  O 
  O30      1.0000 0.96902  0.84211  0.42004  Biso   1.000  O 
  O31      1.0000 0.96769  0.82946  0.92049  Biso   1.000  O 
  O32      1.0000 0.25402  0.11071  0.25953  Biso   1.000  O 
  O33      1.0000 0.28035  0.12983  0.73926  Biso   1.000  O 
  O34      1.0000 0.27778  0.63017  0.24264  Biso   1.000  O 
  O35      1.0000 0.27722  0.62971  0.74015  Biso   1.000  O 
  O36      1.0000 0.75392  0.11455  0.25355  Biso   1.000  O 
  O37      1.0000 0.77370  0.12925  0.73956  Biso   1.000  O 
  O38      1.0000 0.77666  0.62909  0.24140  Biso   1.000  O 
  O39      1.0000 0.77964  0.63027  0.74073  Biso   1.000  O 
  O40      1.0000 0.27357  0.12277  0.49537  Biso   1.000  O 
  O41      1.0000 0.21602  0.11506  0.00265  Biso   1.000  O 
  O42      1.0000 0.27614  0.62277  0.49254  Biso   1.000  O 
  O43      1.0000 0.28220  0.61966  0.99048  Biso   1.000  O 
  O44      1.0000 0.77494  0.12253  0.49238  Biso   1.000  O 
  O45      1.0000 0.78171  0.10633  0.98484  Biso   1.000  O 
  O46      1.0000 0.77756  0.62435  0.49184  Biso   1.000  O 
  O47      1.0000 0.78263  0.62005  0.99031  Biso   1.000  O 
  O48      1.0000 0.21246  0.38429  0.99750  Biso   1.000  O 
  O49      1.0000 0.22234  0.38000  0.50885  Biso   1.000  O 
  O50      1.0000 0.23165  0.87256  0.00972  Biso   1.000  O 
  O51      1.0000 0.22451  0.88001  0.51238  Biso   1.000  O 
  O52      1.0000 0.72605  0.38108  0.00444  Biso   1.000  O 
  O53      1.0000 0.72254  0.38044  0.51156  Biso   1.000  O 
  O54      1.0000 0.72520  0.87199  0.01060  Biso   1.000  O 
  O55      1.0000 0.72323  0.88229  0.51160  Biso   1.000  O 
  O56      1.0000 0.21471  0.37733  0.26853  Biso   1.000  O 
  O57      1.0000 0.23235  0.37400  0.74870  Biso   1.000  O 
  O58      1.0000 0.22289  0.86360  0.26087  Biso   1.000  O 
  O59      1.0000 0.22420  0.87089  0.76125  Biso   1.000  O 
  O60      1.0000 0.72170  0.37256  0.26767  Biso   1.000  O 
  O61      1.0000 0.72902  0.37256  0.75735  Biso   1.000  O 
  O62      1.0000 0.72607  0.86671  0.26191  Biso   1.000  O 
  O63      1.0000 0.72573  0.87123  0.75986  Biso   1.000  O 
