data_image0
_cell_length_a       10.0623
_cell_length_b       10.3958
_cell_length_c       10.0868
_cell_angle_alpha    90.1877
_cell_angle_beta     90.4297
_cell_angle_gamma    90.1684

_symmetry_space_group_name_H-M    "P 1"
_symmetry_int_tables_number       1

loop_
  _symmetry_equiv_pos_as_xyz
  'x, y, z'

loop_
  _atom_site_label
  _atom_site_occupancy
  _atom_site_fract_x
  _atom_site_fract_y
  _atom_site_fract_z
  _atom_site_thermal_displace_type
  _atom_site_B_iso_or_equiv
  _atom_site_type_symbol
  La1      1.0000 0.12179  0.00480  0.12167  Biso   1.000  La
  Hf1      1.0000 0.13417  0.01656  0.62502  Biso   1.000  Hf
  La2      1.0000 0.12180  0.50482  0.12167  Biso   1.000  La
  Hf2      1.0000 0.13418  0.51656  0.62502  Biso   1.000  Hf
  Hf3      1.0000 0.63467  0.01421  0.12614  Biso   1.000  Hf
  Hf4      1.0000 0.63333  0.01570  0.62709  Biso   1.000  Hf
  Hf5      1.0000 0.63468  0.51421  0.12614  Biso   1.000  Hf
  Hf6      1.0000 0.63333  0.51571  0.62709  Biso   1.000  Hf
  Hf7      1.0000 0.13552  0.23353  0.37862  Biso   1.000  Hf
  Hf8      1.0000 0.13801  0.23554  0.87058  Biso   1.000  Hf
  Hf9      1.0000 0.13552  0.73353  0.37863  Biso   1.000  Hf
  Hf10     1.0000 0.13800  0.73555  0.87058  Biso   1.000  Hf
  Hf11     1.0000 0.63082  0.23182  0.37917  Biso   1.000  Hf
  Hf12     1.0000 0.63698  0.23184  0.87543  Biso   1.000  Hf
  Hf13     1.0000 0.63082  0.73182  0.37919  Biso   1.000  Hf
  Hf14     1.0000 0.63698  0.73184  0.87544  Biso   1.000  Hf
  Hf15     1.0000 0.36819  0.26077  0.12557  Biso   1.000  Hf
  Hf16     1.0000 0.36626  0.26567  0.62493  Biso   1.000  Hf
  Hf17     1.0000 0.36820  0.76077  0.12557  Biso   1.000  Hf
  Hf18     1.0000 0.36627  0.76567  0.62494  Biso   1.000  Hf
  Hf19     1.0000 0.85774  0.26588  0.13038  Biso   1.000  Hf
  Hf20     1.0000 0.86764  0.26661  0.62455  Biso   1.000  Hf
  Hf21     1.0000 0.85774  0.76588  0.13040  Biso   1.000  Hf
  Hf22     1.0000 0.86764  0.76660  0.62456  Biso   1.000  Hf
  Hf23     1.0000 0.36499  0.48298  0.37458  Biso   1.000  Hf
  Hf24     1.0000 0.36997  0.48281  0.87420  Biso   1.000  Hf
  Hf25     1.0000 0.36498  0.98299  0.37458  Biso   1.000  Hf
  Hf26     1.0000 0.36996  0.98282  0.87420  Biso   1.000  Hf
  Hf27     1.0000 0.85988  0.48389  0.38252  Biso   1.000  Hf
  Hf28     1.0000 0.86436  0.48181  0.87359  Biso   1.000  Hf
  Hf29     1.0000 0.85988  0.98389  0.38252  Biso   1.000  Hf
  Hf30     1.0000 0.86435  0.98182  0.87359  Biso   1.000  Hf
  O1       1.0000 0.03097  0.20471  0.20210  Biso   1.000  O 
  O2       1.0000 0.04087  0.18891  0.68321  Biso   1.000  O 
  O3       1.0000 0.03097  0.70472  0.20211  Biso   1.000  O 
  O4       1.0000 0.04088  0.68891  0.68321  Biso   1.000  O 
  O5       1.0000 0.53750  0.18099  0.19550  Biso   1.000  O 
  O6       1.0000 0.53532  0.18223  0.69599  Biso   1.000  O 
  O7       1.0000 0.53750  0.68098  0.19552  Biso   1.000  O 
  O8       1.0000 0.53532  0.68222  0.69600  Biso   1.000  O 
  O9       1.0000 0.03509  0.06408  0.44003  Biso   1.000  O 
  O10      1.0000 0.02966  0.07820  0.91796  Biso   1.000  O 
  O11      1.0000 0.03509  0.56409  0.44004  Biso   1.000  O 
  O12      1.0000 0.02966  0.57820  0.91797  Biso   1.000  O 
  O13      1.0000 0.53507  0.06429  0.44754  Biso   1.000  O 
  O14      1.0000 0.53909  0.06538  0.94488  Biso   1.000  O 
  O15      1.0000 0.53507  0.56428  0.44756  Biso   1.000  O 
  O16      1.0000 0.53909  0.56539  0.94490  Biso   1.000  O 
  O17      1.0000 0.46533  0.43325  0.19393  Biso   1.000  O 
  O18      1.0000 0.46702  0.43176  0.69598  Biso   1.000  O 
  O19      1.0000 0.46533  0.93325  0.19392  Biso   1.000  O 
  O20      1.0000 0.46702  0.93176  0.69598  Biso   1.000  O 
  O21      1.0000 0.92734  0.44024  0.19859  Biso   1.000  O 
  O22      1.0000 0.96350  0.43464  0.69317  Biso   1.000  O 
  O23      1.0000 0.92734  0.94025  0.19858  Biso   1.000  O 
  O24      1.0000 0.96349  0.93464  0.69315  Biso   1.000  O 
  O25      1.0000 0.46479  0.31544  0.44835  Biso   1.000  O 
  O26      1.0000 0.47442  0.31733  0.94597  Biso   1.000  O 
  O27      1.0000 0.46479  0.81544  0.44836  Biso   1.000  O 
  O28      1.0000 0.47443  0.81733  0.94598  Biso   1.000  O 
  O29      1.0000 0.96306  0.31779  0.44574  Biso   1.000  O 
  O30      1.0000 0.97477  0.32706  0.95562  Biso   1.000  O 
  O31      1.0000 0.96306  0.81779  0.44575  Biso   1.000  O 
  O32      1.0000 0.97478  0.82707  0.95562  Biso   1.000  O 
  O33      1.0000 0.27866  0.12060  0.25487  Biso   1.000  O 
  O34      1.0000 0.27204  0.11742  0.74722  Biso   1.000  O 
  O35      1.0000 0.27866  0.62059  0.25488  Biso   1.000  O 
  O36      1.0000 0.27204  0.61742  0.74723  Biso   1.000  O 
  O37      1.0000 0.76570  0.11930  0.25400  Biso   1.000  O 
  O38      1.0000 0.77139  0.11707  0.74873  Biso   1.000  O 
  O39      1.0000 0.76571  0.61930  0.25401  Biso   1.000  O 
  O40      1.0000 0.77139  0.61707  0.74874  Biso   1.000  O 
  O41      1.0000 0.26961  0.13093  0.50134  Biso   1.000  O 
  O42      1.0000 0.27696  0.13213  0.99147  Biso   1.000  O 
  O43      1.0000 0.26960  0.63094  0.50135  Biso   1.000  O 
  O44      1.0000 0.27695  0.63214  0.99147  Biso   1.000  O 
  O45      1.0000 0.76821  0.13250  0.50187  Biso   1.000  O 
  O46      1.0000 0.77235  0.13056  0.99996  Biso   1.000  O 
  O47      1.0000 0.76821  0.63250  0.50187  Biso   1.000  O 
  O48      1.0000 0.77234  0.63057  0.99997  Biso   1.000  O 
  O49      1.0000 0.22974  0.38335  0.49984  Biso   1.000  O 
  O50      1.0000 0.24528  0.37178  0.98992  Biso   1.000  O 
  O51      1.0000 0.22974  0.88335  0.49985  Biso   1.000  O 
  O52      1.0000 0.24528  0.87178  0.98993  Biso   1.000  O 
  O53      1.0000 0.72793  0.38088  0.50301  Biso   1.000  O 
  O54      1.0000 0.73068  0.37983  0.00010  Biso   1.000  O 
  O55      1.0000 0.72793  0.88088  0.50302  Biso   1.000  O 
  O56      1.0000 0.73068  0.87983  0.00011  Biso   1.000  O 
  O57      1.0000 0.24336  0.35658  0.25694  Biso   1.000  O 
  O58      1.0000 0.23149  0.36962  0.74505  Biso   1.000  O 
  O59      1.0000 0.24338  0.85658  0.25694  Biso   1.000  O 
  O60      1.0000 0.23149  0.86961  0.74504  Biso   1.000  O 
  O61      1.0000 0.71584  0.36669  0.25357  Biso   1.000  O 
  O62      1.0000 0.73179  0.36591  0.75029  Biso   1.000  O 
  O63      1.0000 0.71584  0.86669  0.25357  Biso   1.000  O 
  O64      1.0000 0.73179  0.86592  0.75029  Biso   1.000  O 
