data_image0
_cell_length_a       10.1304
_cell_length_b       10.3104
_cell_length_c       10.5016
_cell_angle_alpha    90
_cell_angle_beta     90.0003
_cell_angle_gamma    90.2297

_symmetry_space_group_name_H-M    "P 1"
_symmetry_int_tables_number       1

loop_
  _symmetry_equiv_pos_as_xyz
  'x, y, z'

loop_
  _atom_site_label
  _atom_site_occupancy
  _atom_site_fract_x
  _atom_site_fract_y
  _atom_site_fract_z
  _atom_site_thermal_displace_type
  _atom_site_B_iso_or_equiv
  _atom_site_type_symbol
  La1      1.0000 0.13185  0.01040  0.15904  Biso   1.000  La
  Hf1      1.0000 0.14100  0.02141  0.67046  Biso   1.000  Hf
  Hf2      1.0000 0.13870  0.51997  0.17288  Biso   1.000  Hf
  Hf3      1.0000 0.13809  0.51858  0.67169  Biso   1.000  Hf
  Hf4      1.0000 0.13727  0.22861  0.42227  Biso   1.000  Hf
  Hf5      1.0000 0.13912  0.23386  0.91941  Biso   1.000  Hf
  Hf6      1.0000 0.14125  0.72684  0.42125  Biso   1.000  Hf
  Hf7      1.0000 0.14007  0.72680  0.92202  Biso   1.000  Hf
  Hf8      1.0000 0.35941  0.26968  0.17078  Biso   1.000  Hf
  Hf9      1.0000 0.35958  0.27350  0.67317  Biso   1.000  Hf
  Hf10     1.0000 0.36793  0.76676  0.16943  Biso   1.000  Hf
  Hf11     1.0000 0.35639  0.76567  0.67264  Biso   1.000  Hf
  Hf12     1.0000 0.36062  0.47791  0.42078  Biso   1.000  Hf
  Hf13     1.0000 0.36038  0.47917  0.92428  Biso   1.000  Hf
  Hf14     1.0000 0.35507  0.98083  0.41466  Biso   1.000  Hf
  Hf15     1.0000 0.36647  0.98029  0.91649  Biso   1.000  Hf
  Hf16     1.0000 0.64101  0.02142  0.07955  Biso   1.000  Hf
  La2      1.0000 0.63186  0.01040  0.59098  Biso   1.000  La
  Hf17     1.0000 0.63809  0.51859  0.07831  Biso   1.000  Hf
  Hf18     1.0000 0.63870  0.51997  0.57711  Biso   1.000  Hf
  Hf19     1.0000 0.63727  0.22862  0.32774  Biso   1.000  Hf
  Hf20     1.0000 0.63911  0.23386  0.83059  Biso   1.000  Hf
  Hf21     1.0000 0.64126  0.72685  0.32874  Biso   1.000  Hf
  Hf22     1.0000 0.64005  0.72680  0.82797  Biso   1.000  Hf
  Hf23     1.0000 0.85958  0.27350  0.07682  Biso   1.000  Hf
  Hf24     1.0000 0.85940  0.26968  0.57921  Biso   1.000  Hf
  Hf25     1.0000 0.85640  0.76566  0.07734  Biso   1.000  Hf
  Hf26     1.0000 0.86793  0.76675  0.58057  Biso   1.000  Hf
  Hf27     1.0000 0.86061  0.47791  0.32921  Biso   1.000  Hf
  Hf28     1.0000 0.86038  0.47918  0.82571  Biso   1.000  Hf
  Hf29     1.0000 0.85506  0.98083  0.33534  Biso   1.000  Hf
  Hf30     1.0000 0.86648  0.98029  0.83353  Biso   1.000  Hf
  O1       1.0000 0.03246  0.18663  0.08034  Biso   1.000  O 
  O2       1.0000 0.03360  0.16904  0.58888  Biso   1.000  O 
  O3       1.0000 0.03360  0.66713  0.08437  Biso   1.000  O 
  O4       1.0000 0.03504  0.66220  0.58372  Biso   1.000  O 
  O5       1.0000 0.02331  0.08625  0.34749  Biso   1.000  O 
  O6       1.0000 0.03999  0.08155  0.83950  Biso   1.000  O 
  O7       1.0000 0.03200  0.58545  0.33385  Biso   1.000  O 
  O8       1.0000 0.03042  0.58635  0.83103  Biso   1.000  O 
  O9       1.0000 0.46685  0.41563  0.08528  Biso   1.000  O 
  O10      1.0000 0.46385  0.42066  0.58465  Biso   1.000  O 
  O11      1.0000 0.47019  0.91717  0.08225  Biso   1.000  O 
  O12      1.0000 0.43838  0.91014  0.57686  Biso   1.000  O 
  O13      1.0000 0.46727  0.33746  0.33237  Biso   1.000  O 
  O14      1.0000 0.46506  0.33726  0.83876  Biso   1.000  O 
  O15      1.0000 0.47354  0.83666  0.33153  Biso   1.000  O 
  O16      1.0000 0.47413  0.83953  0.82511  Biso   1.000  O 
  O17      1.0000 0.27579  0.13044  0.29828  Biso   1.000  O 
  O18      1.0000 0.27790  0.12454  0.79077  Biso   1.000  O 
  O19      1.0000 0.27775  0.62000  0.29488  Biso   1.000  O 
  O20      1.0000 0.27428  0.62204  0.79732  Biso   1.000  O 
  O21      1.0000 0.28672  0.13454  0.03224  Biso   1.000  O 
  O22      1.0000 0.27455  0.12680  0.54363  Biso   1.000  O 
  O23      1.0000 0.27398  0.62083  0.04781  Biso   1.000  O 
  O24      1.0000 0.27532  0.62542  0.54538  Biso   1.000  O 
  O25      1.0000 0.22234  0.37419  0.29524  Biso   1.000  O 
  O26      1.0000 0.22341  0.37611  0.79577  Biso   1.000  O 
  O27      1.0000 0.23510  0.86133  0.29695  Biso   1.000  O 
  O28      1.0000 0.22624  0.87302  0.79176  Biso   1.000  O 
  O29      1.0000 0.22365  0.37732  0.04613  Biso   1.000  O 
  O30      1.0000 0.22317  0.37703  0.54496  Biso   1.000  O 
  O31      1.0000 0.24615  0.86034  0.03158  Biso   1.000  O 
  O32      1.0000 0.21077  0.87666  0.54252  Biso   1.000  O 
  O33      1.0000 0.53360  0.16906  0.16111  Biso   1.000  O 
  O34      1.0000 0.53246  0.18664  0.66965  Biso   1.000  O 
  O35      1.0000 0.53503  0.66221  0.16626  Biso   1.000  O 
  O36      1.0000 0.53360  0.66715  0.66560  Biso   1.000  O 
  O37      1.0000 0.52333  0.08623  0.40250  Biso   1.000  O 
  O38      1.0000 0.53999  0.08154  0.91050  Biso   1.000  O 
  O39      1.0000 0.53200  0.58544  0.41614  Biso   1.000  O 
  O40      1.0000 0.53043  0.58633  0.91896  Biso   1.000  O 
  O41      1.0000 0.96387  0.42064  0.16535  Biso   1.000  O 
  O42      1.0000 0.96684  0.41562  0.66472  Biso   1.000  O 
  O43      1.0000 0.93839  0.91010  0.17317  Biso   1.000  O 
  O44      1.0000 0.97019  0.91713  0.66775  Biso   1.000  O 
  O45      1.0000 0.96726  0.33746  0.41765  Biso   1.000  O 
  O46      1.0000 0.96506  0.33727  0.91123  Biso   1.000  O 
  O47      1.0000 0.97354  0.83668  0.41849  Biso   1.000  O 
  O48      1.0000 0.97414  0.83955  0.92491  Biso   1.000  O 
  O49      1.0000 0.77791  0.12454  0.95924  Biso   1.000  O 
  O50      1.0000 0.77579  0.13045  0.45173  Biso   1.000  O 
  O51      1.0000 0.77428  0.62203  0.95266  Biso   1.000  O 
  O52      1.0000 0.77776  0.61999  0.45511  Biso   1.000  O 
  O53      1.0000 0.77455  0.12681  0.20638  Biso   1.000  O 
  O54      1.0000 0.78672  0.13454  0.71778  Biso   1.000  O 
  O55      1.0000 0.77531  0.62544  0.20462  Biso   1.000  O 
  O56      1.0000 0.77396  0.62083  0.70219  Biso   1.000  O 
  O57      1.0000 0.72340  0.37611  0.95422  Biso   1.000  O 
  O58      1.0000 0.72233  0.37419  0.45476  Biso   1.000  O 
  O59      1.0000 0.72624  0.87301  0.95824  Biso   1.000  O 
  O60      1.0000 0.73509  0.86133  0.45306  Biso   1.000  O 
  O61      1.0000 0.72318  0.37703  0.20502  Biso   1.000  O 
  O62      1.0000 0.72364  0.37732  0.70386  Biso   1.000  O 
  O63      1.0000 0.71075  0.87670  0.20750  Biso   1.000  O 
  O64      1.0000 0.74617  0.86035  0.71844  Biso   1.000  O 
