data_image0
_cell_length_a       10.0871
_cell_length_b       10.2379
_cell_length_c       10.1275
_cell_angle_alpha    89.9284
_cell_angle_beta     90.0149
_cell_angle_gamma    90.0272

_symmetry_space_group_name_H-M    "P 1"
_symmetry_int_tables_number       1

loop_
  _symmetry_equiv_pos_as_xyz
  'x, y, z'

loop_
  _atom_site_label
  _atom_site_occupancy
  _atom_site_fract_x
  _atom_site_fract_y
  _atom_site_fract_z
  _atom_site_thermal_displace_type
  _atom_site_B_iso_or_equiv
  _atom_site_type_symbol
  La1      1.0000 0.12495  0.00348  0.12676  Biso   1.000  La
  Hf1      1.0000 0.12407  0.00396  0.62532  Biso   1.000  Hf
  Hf2      1.0000 0.12244  0.50166  0.12496  Biso   1.000  Hf
  Hf3      1.0000 0.12607  0.50107  0.62700  Biso   1.000  Hf
  Hf4      1.0000 0.62656  0.99335  0.12112  Biso   1.000  Hf
  Hf5      1.0000 0.62458  0.99731  0.62760  Biso   1.000  Hf
  Hf6      1.0000 0.62573  0.49988  0.12240  Biso   1.000  Hf
  Hf7      1.0000 0.62814  0.50110  0.62800  Biso   1.000  Hf
  Hf8      1.0000 0.12371  0.25721  0.38034  Biso   1.000  Hf
  Hf9      1.0000 0.12565  0.25323  0.87382  Biso   1.000  Hf
  Hf10     1.0000 0.12454  0.75070  0.37902  Biso   1.000  Hf
  Hf11     1.0000 0.12216  0.74952  0.87336  Biso   1.000  Hf
  La2      1.0000 0.62532  0.24710  0.37468  Biso   1.000  La
  Hf12     1.0000 0.62617  0.24662  0.87613  Biso   1.000  Hf
  Hf13     1.0000 0.62784  0.74889  0.37639  Biso   1.000  Hf
  Hf14     1.0000 0.62425  0.74947  0.87444  Biso   1.000  Hf
  Hf15     1.0000 0.37709  0.25107  0.11618  Biso   1.000  Hf
  Hf16     1.0000 0.37553  0.25240  0.62941  Biso   1.000  Hf
  Hf17     1.0000 0.37431  0.74685  0.12224  Biso   1.000  Hf
  Hf18     1.0000 0.37364  0.74914  0.62538  Biso   1.000  Hf
  Hf19     1.0000 0.87757  0.25492  0.12813  Biso   1.000  Hf
  Hf20     1.0000 0.87471  0.24966  0.62923  Biso   1.000  Hf
  Hf21     1.0000 0.87515  0.74616  0.12445  Biso   1.000  Hf
  Hf22     1.0000 0.87434  0.75215  0.62734  Biso   1.000  Hf
  Hf23     1.0000 0.37318  0.99948  0.38522  Biso   1.000  Hf
  Hf24     1.0000 0.37478  0.99813  0.87207  Biso   1.000  Hf
  Hf25     1.0000 0.37595  0.50370  0.37919  Biso   1.000  Hf
  Hf26     1.0000 0.37665  0.50144  0.87605  Biso   1.000  Hf
  Hf27     1.0000 0.87266  0.99564  0.37328  Biso   1.000  Hf
  Hf28     1.0000 0.87550  0.00088  0.87224  Biso   1.000  Hf
  Hf29     1.0000 0.87516  0.50435  0.37692  Biso   1.000  Hf
  Hf30     1.0000 0.87595  0.49842  0.87402  Biso   1.000  Hf
  O1       1.0000 0.99223  0.15200  0.99917  Biso   1.000  O 
  O2       1.0000 0.00867  0.15589  0.51952  Biso   1.000  O 
  O3       1.0000 0.00540  0.64333  0.00759  Biso   1.000  O 
  O4       1.0000 0.99814  0.65046  0.50657  Biso   1.000  O 
  O5       1.0000 0.50874  0.14695  0.01251  Biso   1.000  O 
  O6       1.0000 0.48979  0.13101  0.52063  Biso   1.000  O 
  O7       1.0000 0.50452  0.64464  0.00418  Biso   1.000  O 
  O8       1.0000 0.49770  0.64735  0.50319  Biso   1.000  O 
  O9       1.0000 0.99510  0.11996  0.27607  Biso   1.000  O 
  O10      1.0000 0.00291  0.10360  0.75974  Biso   1.000  O 
  O11      1.0000 0.00207  0.60551  0.25661  Biso   1.000  O 
  O12      1.0000 0.00130  0.60440  0.75675  Biso   1.000  O 
  O13      1.0000 0.49380  0.08537  0.25055  Biso   1.000  O 
  O14      1.0000 0.50567  0.10108  0.76382  Biso   1.000  O 
  O15      1.0000 0.50150  0.60182  0.25403  Biso   1.000  O 
  O16      1.0000 0.50115  0.60308  0.75503  Biso   1.000  O 
  O17      1.0000 0.00273  0.35863  0.24184  Biso   1.000  O 
  O18      1.0000 0.99962  0.35637  0.74385  Biso   1.000  O 
  O19      1.0000 0.99373  0.84935  0.25313  Biso   1.000  O 
  O20      1.0000 0.00660  0.85364  0.73870  Biso   1.000  O 
  O21      1.0000 0.48717  0.36611  0.23794  Biso   1.000  O 
  O22      1.0000 0.49865  0.35185  0.74925  Biso   1.000  O 
  O23      1.0000 0.51159  0.84078  0.23458  Biso   1.000  O 
  O24      1.0000 0.50523  0.85148  0.73923  Biso   1.000  O 
  O25      1.0000 0.00106  0.39769  0.99337  Biso   1.000  O 
  O26      1.0000 0.01093  0.40485  0.48890  Biso   1.000  O 
  O27      1.0000 0.98703  0.88214  0.98562  Biso   1.000  O 
  O28      1.0000 0.00340  0.90213  0.49398  Biso   1.000  O 
  O29      1.0000 0.50156  0.39588  0.99255  Biso   1.000  O 
  O30      1.0000 0.49729  0.40129  0.50514  Biso   1.000  O 
  O31      1.0000 0.49889  0.89489  0.98866  Biso   1.000  O 
  O32      1.0000 0.50569  0.89235  0.48947  Biso   1.000  O 
  O33      1.0000 0.25647  0.16525  0.25088  Biso   1.000  O 
  O34      1.0000 0.24452  0.14953  0.73758  Biso   1.000  O 
  O35      1.0000 0.24876  0.64878  0.24744  Biso   1.000  O 
  O36      1.0000 0.24920  0.64748  0.74645  Biso   1.000  O 
  O37      1.0000 0.75520  0.13056  0.22542  Biso   1.000  O 
  O38      1.0000 0.74730  0.14696  0.74172  Biso   1.000  O 
  O39      1.0000 0.74819  0.64505  0.24474  Biso   1.000  O 
  O40      1.0000 0.74901  0.64617  0.74462  Biso   1.000  O 
  O41      1.0000 0.26047  0.11955  0.98078  Biso   1.000  O 
  O42      1.0000 0.24151  0.10357  0.48887  Biso   1.000  O 
  O43      1.0000 0.25264  0.60321  0.99830  Biso   1.000  O 
  O44      1.0000 0.24580  0.60592  0.49728  Biso   1.000  O 
  O45      1.0000 0.74161  0.09472  0.98197  Biso   1.000  O 
  O46      1.0000 0.75804  0.09854  0.50228  Biso   1.000  O 
  O47      1.0000 0.75216  0.60012  0.99479  Biso   1.000  O 
  O48      1.0000 0.74493  0.60722  0.49378  Biso   1.000  O 
  O49      1.0000 0.24452  0.35820  0.01202  Biso   1.000  O 
  O50      1.0000 0.25140  0.35565  0.51282  Biso   1.000  O 
  O51      1.0000 0.25300  0.84927  0.99628  Biso   1.000  O 
  O52      1.0000 0.24867  0.85466  0.50889  Biso   1.000  O 
  O53      1.0000 0.74681  0.34846  0.00751  Biso   1.000  O 
  O54      1.0000 0.76325  0.36842  0.51582  Biso   1.000  O 
  O55      1.0000 0.73938  0.84575  0.01253  Biso   1.000  O 
  O56      1.0000 0.74915  0.85285  0.50807  Biso   1.000  O 
  O57      1.0000 0.23863  0.40982  0.26690  Biso   1.000  O 
  O58      1.0000 0.24503  0.39911  0.76225  Biso   1.000  O 
  O59      1.0000 0.26308  0.88448  0.26347  Biso   1.000  O 
  O60      1.0000 0.25159  0.89877  0.75222  Biso   1.000  O 
  O61      1.0000 0.75649  0.40121  0.24831  Biso   1.000  O 
  O62      1.0000 0.74368  0.39692  0.76273  Biso   1.000  O 
  O63      1.0000 0.74746  0.89193  0.25961  Biso   1.000  O 
  O64      1.0000 0.75063  0.89418  0.75756  Biso   1.000  O 
