data_image0
_cell_length_a       10.1157
_cell_length_b       10.2416
_cell_length_c       10.1157
_cell_angle_alpha    90.0297
_cell_angle_beta     90.0031
_cell_angle_gamma    90.0407

_symmetry_space_group_name_H-M    "P 1"
_symmetry_int_tables_number       1

loop_
  _symmetry_equiv_pos_as_xyz
  'x, y, z'

loop_
  _atom_site_label
  _atom_site_occupancy
  _atom_site_fract_x
  _atom_site_fract_y
  _atom_site_fract_z
  _atom_site_thermal_displace_type
  _atom_site_B_iso_or_equiv
  _atom_site_type_symbol
  La1      1.0000 0.12334  0.99994  0.12513  Biso   1.000  La
  Hf1      1.0000 0.12688  0.00002  0.62589  Biso   1.000  Hf
  Hf2      1.0000 0.12813  0.50004  0.12584  Biso   1.000  Hf
  Hf3      1.0000 0.12583  0.50009  0.62706  Biso   1.000  Hf
  Hf4      1.0000 0.62349  0.99988  0.12599  Biso   1.000  Hf
  Hf5      1.0000 0.62584  0.00003  0.62820  Biso   1.000  Hf
  Hf6      1.0000 0.62596  0.49984  0.12346  Biso   1.000  Hf
  La2      1.0000 0.62512  0.49995  0.62328  Biso   1.000  La
  Hf7      1.0000 0.12699  0.25130  0.37865  Biso   1.000  Hf
  Hf8      1.0000 0.12655  0.25275  0.87428  Biso   1.000  Hf
  Hf9      1.0000 0.12493  0.74843  0.37716  Biso   1.000  Hf
  Hf10     1.0000 0.12553  0.74764  0.87281  Biso   1.000  Hf
  Hf11     1.0000 0.62035  0.24068  0.38062  Biso   1.000  Hf
  Hf12     1.0000 0.62622  0.24271  0.87441  Biso   1.000  Hf
  Hf13     1.0000 0.62970  0.76007  0.38017  Biso   1.000  Hf
  Hf14     1.0000 0.62346  0.75588  0.87364  Biso   1.000  Hf
  Hf15     1.0000 0.37358  0.25589  0.12343  Biso   1.000  Hf
  Hf16     1.0000 0.37276  0.24765  0.62559  Biso   1.000  Hf
  Hf17     1.0000 0.37436  0.74269  0.12622  Biso   1.000  Hf
  Hf18     1.0000 0.37427  0.75273  0.62653  Biso   1.000  Hf
  Hf19     1.0000 0.88014  0.26009  0.12969  Biso   1.000  Hf
  Hf20     1.0000 0.87719  0.24845  0.62498  Biso   1.000  Hf
  Hf21     1.0000 0.88055  0.74075  0.12038  Biso   1.000  Hf
  Hf22     1.0000 0.87862  0.75128  0.62693  Biso   1.000  Hf
  Hf23     1.0000 0.37216  0.99619  0.37887  Biso   1.000  Hf
  Hf24     1.0000 0.37379  0.00002  0.87452  Biso   1.000  Hf
  Hf25     1.0000 0.37111  0.50229  0.37862  Biso   1.000  Hf
  Hf26     1.0000 0.37450  0.50006  0.87385  Biso   1.000  Hf
  Hf27     1.0000 0.87988  0.00122  0.38152  Biso   1.000  Hf
  Hf28     1.0000 0.87855  0.00229  0.87126  Biso   1.000  Hf
  Hf29     1.0000 0.88158  0.50111  0.37990  Biso   1.000  Hf
  Hf30     1.0000 0.87868  0.49618  0.87228  Biso   1.000  Hf
  O1       1.0000 0.99289  0.15213  0.99369  Biso   1.000  O 
  O2       1.0000 0.00969  0.14597  0.50771  Biso   1.000  O 
  O3       1.0000 0.01691  0.64165  0.00782  Biso   1.000  O 
  O4       1.0000 0.00767  0.64598  0.50971  Biso   1.000  O 
  O5       1.0000 0.51042  0.15145  0.01680  Biso   1.000  O 
  O6       1.0000 0.50779  0.14162  0.51709  Biso   1.000  O 
  O7       1.0000 0.51658  0.65140  0.01030  Biso   1.000  O 
  O8       1.0000 0.49363  0.65211  0.49282  Biso   1.000  O 
  O9       1.0000 0.98370  0.12117  0.26276  Biso   1.000  O 
  O10      1.0000 0.99591  0.10338  0.74860  Biso   1.000  O 
  O11      1.0000 0.99351  0.60437  0.25205  Biso   1.000  O 
  O12      1.0000 0.99984  0.60259  0.75563  Biso   1.000  O 
  O13      1.0000 0.50159  0.09392  0.26513  Biso   1.000  O 
  O14      1.0000 0.49915  0.10302  0.76108  Biso   1.000  O 
  O15      1.0000 0.48781  0.59096  0.24569  Biso   1.000  O 
  O16      1.0000 0.48743  0.62004  0.76373  Biso   1.000  O 
  O17      1.0000 0.01770  0.35828  0.24466  Biso   1.000  O 
  O18      1.0000 0.00864  0.35289  0.74220  Biso   1.000  O 
  O19      1.0000 0.99039  0.84901  0.25703  Biso   1.000  O 
  O20      1.0000 0.01068  0.85365  0.74242  Biso   1.000  O 
  O21      1.0000 0.52208  0.34302  0.23535  Biso   1.000  O 
  O22      1.0000 0.49514  0.34813  0.75414  Biso   1.000  O 
  O23      1.0000 0.50823  0.84411  0.23856  Biso   1.000  O 
  O24      1.0000 0.50823  0.85747  0.73938  Biso   1.000  O 
  O25      1.0000 0.99484  0.39690  0.99939  Biso   1.000  O 
  O26      1.0000 0.00119  0.39620  0.49740  Biso   1.000  O 
  O27      1.0000 0.98190  0.87895  0.98749  Biso   1.000  O 
  O28      1.0000 0.99732  0.89621  0.50113  Biso   1.000  O 
  O29      1.0000 0.49201  0.40137  0.99874  Biso   1.000  O 
  O30      1.0000 0.48757  0.37892  0.48178  Biso   1.000  O 
  O31      1.0000 0.49877  0.90142  0.99201  Biso   1.000  O 
  O32      1.0000 0.49937  0.89686  0.49485  Biso   1.000  O 
  O33      1.0000 0.25602  0.15084  0.25566  Biso   1.000  O 
  O34      1.0000 0.24090  0.14757  0.74176  Biso   1.000  O 
  O35      1.0000 0.23838  0.64253  0.24412  Biso   1.000  O 
  O36      1.0000 0.24172  0.64758  0.74093  Biso   1.000  O 
  O37      1.0000 0.73727  0.16090  0.23317  Biso   1.000  O 
  O38      1.0000 0.74401  0.14259  0.73835  Biso   1.000  O 
  O39      1.0000 0.73310  0.66089  0.23721  Biso   1.000  O 
  O40      1.0000 0.75563  0.65084  0.75595  Biso   1.000  O 
  O41      1.0000 0.26384  0.12012  0.98744  Biso   1.000  O 
  O42      1.0000 0.25558  0.10269  0.49984  Biso   1.000  O 
  O43      1.0000 0.26090  0.60304  0.99913  Biso   1.000  O 
  O44      1.0000 0.24854  0.60345  0.49598  Biso   1.000  O 
  O45      1.0000 0.74577  0.09115  0.98788  Biso   1.000  O 
  O46      1.0000 0.75199  0.10433  0.49345  Biso   1.000  O 
  O47      1.0000 0.76489  0.59411  0.00144  Biso   1.000  O 
  O48      1.0000 0.76277  0.62115  0.48359  Biso   1.000  O 
  O49      1.0000 0.23938  0.35754  0.00824  Biso   1.000  O 
  O50      1.0000 0.24251  0.35373  0.51068  Biso   1.000  O 
  O51      1.0000 0.25413  0.84812  0.99520  Biso   1.000  O 
  O52      1.0000 0.24215  0.85296  0.50869  Biso   1.000  O 
  O53      1.0000 0.73863  0.34429  0.00815  Biso   1.000  O 
  O54      1.0000 0.75711  0.34902  0.49038  Biso   1.000  O 
  O55      1.0000 0.73539  0.84318  0.02206  Biso   1.000  O 
  O56      1.0000 0.74455  0.85825  0.51784  Biso   1.000  O 
  O57      1.0000 0.26245  0.39578  0.25197  Biso   1.000  O 
  O58      1.0000 0.25034  0.39794  0.75675  Biso   1.000  O 
  O59      1.0000 0.26153  0.87977  0.26332  Biso   1.000  O 
  O60      1.0000 0.25668  0.89795  0.75040  Biso   1.000  O 
  O61      1.0000 0.76966  0.41343  0.24221  Biso   1.000  O 
  O62      1.0000 0.76332  0.37977  0.76150  Biso   1.000  O 
  O63      1.0000 0.74227  0.91334  0.26967  Biso   1.000  O 
  O64      1.0000 0.75195  0.89581  0.76256  Biso   1.000  O 
