data_image0
_cell_length_a       10.0401
_cell_length_b       10.4114
_cell_length_c       10.0698
_cell_angle_alpha    89.8525
_cell_angle_beta     89.8329
_cell_angle_gamma    90.1021

_symmetry_space_group_name_H-M    "P 1"
_symmetry_int_tables_number       1

loop_
  _symmetry_equiv_pos_as_xyz
  'x, y, z'

loop_
  _atom_site_label
  _atom_site_occupancy
  _atom_site_fract_x
  _atom_site_fract_y
  _atom_site_fract_z
  _atom_site_thermal_displace_type
  _atom_site_B_iso_or_equiv
  _atom_site_type_symbol
  La1      1.0000 0.12384  0.00837  0.12552  Biso   1.000  La
  Hf1      1.0000 0.13946  0.01619  0.63022  Biso   1.000  Hf
  Hf2      1.0000 0.13229  0.51774  0.12594  Biso   1.000  Hf
  Hf3      1.0000 0.13531  0.51592  0.62696  Biso   1.000  Hf
  Hf4      1.0000 0.63373  0.01395  0.12198  Biso   1.000  Hf
  Hf5      1.0000 0.63534  0.01569  0.62650  Biso   1.000  Hf
  Hf6      1.0000 0.63281  0.51614  0.12731  Biso   1.000  Hf
  Hf7      1.0000 0.63612  0.51601  0.62639  Biso   1.000  Hf
  Hf8      1.0000 0.13951  0.23774  0.38185  Biso   1.000  Hf
  Hf9      1.0000 0.13403  0.23617  0.87055  Biso   1.000  Hf
  Hf10     1.0000 0.13945  0.73013  0.37976  Biso   1.000  Hf
  Hf11     1.0000 0.13756  0.73094  0.87424  Biso   1.000  Hf
  Hf12     1.0000 0.62923  0.23778  0.37610  Biso   1.000  Hf
  Hf13     1.0000 0.63422  0.23320  0.87535  Biso   1.000  Hf
  Hf14     1.0000 0.63523  0.73243  0.38052  Biso   1.000  Hf
  Hf15     1.0000 0.63388  0.73229  0.87244  Biso   1.000  Hf
  Hf16     1.0000 0.36186  0.26761  0.12551  Biso   1.000  Hf
  Hf17     1.0000 0.36913  0.26697  0.62953  Biso   1.000  Hf
  Hf18     1.0000 0.36833  0.76305  0.12515  Biso   1.000  Hf
  Hf19     1.0000 0.36815  0.76687  0.62563  Biso   1.000  Hf
  Hf20     1.0000 0.86093  0.26955  0.12655  Biso   1.000  Hf
  Hf21     1.0000 0.86634  0.26879  0.62765  Biso   1.000  Hf
  Hf22     1.0000 0.85979  0.75995  0.11943  Biso   1.000  Hf
  Hf23     1.0000 0.86827  0.76572  0.62576  Biso   1.000  Hf
  Hf24     1.0000 0.36646  0.48427  0.37628  Biso   1.000  Hf
  Hf25     1.0000 0.36702  0.48344  0.87749  Biso   1.000  Hf
  Hf26     1.0000 0.36750  0.98393  0.37634  Biso   1.000  Hf
  Hf27     1.0000 0.36804  0.98299  0.87517  Biso   1.000  Hf
  Hf28     1.0000 0.86675  0.48427  0.37620  Biso   1.000  Hf
  Hf29     1.0000 0.86660  0.48253  0.87666  Biso   1.000  Hf
  La2      1.0000 0.87222  0.99587  0.37546  Biso   1.000  La
  Hf30     1.0000 0.86405  0.98152  0.87668  Biso   1.000  Hf
  O1       1.0000 0.01644  0.18991  0.21867  Biso   1.000  O 
  O2       1.0000 0.04175  0.18929  0.68296  Biso   1.000  O 
  O3       1.0000 0.03651  0.69592  0.19337  Biso   1.000  O 
  O4       1.0000 0.03854  0.68213  0.69422  Biso   1.000  O 
  O5       1.0000 0.52714  0.18156  0.19586  Biso   1.000  O 
  O6       1.0000 0.53594  0.18271  0.69796  Biso   1.000  O 
  O7       1.0000 0.53448  0.68092  0.19843  Biso   1.000  O 
  O8       1.0000 0.53773  0.68339  0.69315  Biso   1.000  O 
  O9       1.0000 0.07087  0.06098  0.44188  Biso   1.000  O 
  O10      1.0000 0.03685  0.06973  0.91421  Biso   1.000  O 
  O11      1.0000 0.04034  0.55983  0.44363  Biso   1.000  O 
  O12      1.0000 0.03417  0.56744  0.94681  Biso   1.000  O 
  O13      1.0000 0.53766  0.06461  0.44419  Biso   1.000  O 
  O14      1.0000 0.53585  0.06647  0.94426  Biso   1.000  O 
  O15      1.0000 0.53574  0.56539  0.44695  Biso   1.000  O 
  O16      1.0000 0.53376  0.56718  0.94793  Biso   1.000  O 
  O17      1.0000 0.46475  0.43227  0.19752  Biso   1.000  O 
  O18      1.0000 0.46806  0.43384  0.69844  Biso   1.000  O 
  O19      1.0000 0.46305  0.93445  0.19137  Biso   1.000  O 
  O20      1.0000 0.46634  0.93304  0.69671  Biso   1.000  O 
  O21      1.0000 0.96069  0.43948  0.19272  Biso   1.000  O 
  O22      1.0000 0.96671  0.43427  0.69899  Biso   1.000  O 
  O23      1.0000 0.91234  0.94765  0.14186  Biso   1.000  O 
  O24      1.0000 0.96283  0.93639  0.68550  Biso   1.000  O 
  O25      1.0000 0.46342  0.31862  0.44816  Biso   1.000  O 
  O26      1.0000 0.46564  0.31763  0.94599  Biso   1.000  O 
  O27      1.0000 0.46548  0.81597  0.44601  Biso   1.000  O 
  O28      1.0000 0.46868  0.81581  0.94440  Biso   1.000  O 
  O29      1.0000 0.96374  0.31502  0.44794  Biso   1.000  O 
  O30      1.0000 0.96508  0.31628  0.94726  Biso   1.000  O 
  O31      1.0000 0.97147  0.80403  0.44924  Biso   1.000  O 
  O32      1.0000 0.96545  0.81296  0.93680  Biso   1.000  O 
  O33      1.0000 0.27705  0.12823  0.25681  Biso   1.000  O 
  O34      1.0000 0.27358  0.11880  0.75090  Biso   1.000  O 
  O35      1.0000 0.26868  0.61342  0.24915  Biso   1.000  O 
  O36      1.0000 0.27214  0.61700  0.75018  Biso   1.000  O 
  O37      1.0000 0.75129  0.13084  0.24143  Biso   1.000  O 
  O38      1.0000 0.77220  0.11674  0.75022  Biso   1.000  O 
  O39      1.0000 0.76909  0.61673  0.25000  Biso   1.000  O 
  O40      1.0000 0.77180  0.61591  0.74932  Biso   1.000  O 
  O41      1.0000 0.28301  0.13250  0.50529  Biso   1.000  O 
  O42      1.0000 0.27241  0.13771  0.99422  Biso   1.000  O 
  O43      1.0000 0.27365  0.63049  0.50144  Biso   1.000  O 
  O44      1.0000 0.27079  0.62907  0.00037  Biso   1.000  O 
  O45      1.0000 0.75684  0.14571  0.50763  Biso   1.000  O 
  O46      1.0000 0.77000  0.13308  0.99660  Biso   1.000  O 
  O47      1.0000 0.77361  0.63032  0.49979  Biso   1.000  O 
  O48      1.0000 0.76769  0.62972  0.99717  Biso   1.000  O 
  O49      1.0000 0.23255  0.38308  0.50181  Biso   1.000  O 
  O50      1.0000 0.22816  0.38461  0.00008  Biso   1.000  O 
  O51      1.0000 0.23475  0.88075  0.50375  Biso   1.000  O 
  O52      1.0000 0.24000  0.87091  0.99213  Biso   1.000  O 
  O53      1.0000 0.73106  0.38635  0.50010  Biso   1.000  O 
  O54      1.0000 0.72805  0.38339  0.99978  Biso   1.000  O 
  O55      1.0000 0.72133  0.87311  0.50693  Biso   1.000  O 
  O56      1.0000 0.72137  0.87662  0.99393  Biso   1.000  O 
  O57      1.0000 0.22695  0.36992  0.24955  Biso   1.000  O 
  O58      1.0000 0.23262  0.36956  0.74954  Biso   1.000  O 
  O59      1.0000 0.24308  0.85664  0.25864  Biso   1.000  O 
  O60      1.0000 0.23176  0.86713  0.74895  Biso   1.000  O 
  O61      1.0000 0.72765  0.37174  0.25135  Biso   1.000  O 
  O62      1.0000 0.73115  0.36760  0.75093  Biso   1.000  O 
  O63      1.0000 0.71879  0.86019  0.24367  Biso   1.000  O 
  O64      1.0000 0.73301  0.86751  0.75065  Biso   1.000  O 
