data_image0
_cell_length_a       10.2195
_cell_length_b       10.3451
_cell_length_c       10.4958
_cell_angle_alpha    90.0495
_cell_angle_beta     80.5342
_cell_angle_gamma    90.2869

_symmetry_space_group_name_H-M    "P 1"
_symmetry_int_tables_number       1

loop_
  _symmetry_equiv_pos_as_xyz
  'x, y, z'

loop_
  _atom_site_label
  _atom_site_occupancy
  _atom_site_fract_x
  _atom_site_fract_y
  _atom_site_fract_z
  _atom_site_thermal_displace_type
  _atom_site_B_iso_or_equiv
  _atom_site_type_symbol
  La1      1.0000 0.13491  0.01281  0.14299  Biso   1.000  La
  Hf1      1.0000 0.14065  0.02045  0.64662  Biso   1.000  Hf
  Hf2      1.0000 0.13888  0.52022  0.14381  Biso   1.000  Hf
  Hf3      1.0000 0.13840  0.51878  0.64636  Biso   1.000  Hf
  Hf4      1.0000 0.64066  0.02046  0.14662  Biso   1.000  Hf
  La2      1.0000 0.63491  0.01284  0.64298  Biso   1.000  La
  Hf5      1.0000 0.63842  0.51877  0.14634  Biso   1.000  Hf
  Hf6      1.0000 0.63888  0.52022  0.64380  Biso   1.000  Hf
  Hf7      1.0000 0.14021  0.22871  0.39827  Biso   1.000  Hf
  Hf8      1.0000 0.13673  0.23350  0.89460  Biso   1.000  Hf
  Hf9      1.0000 0.14259  0.72644  0.39429  Biso   1.000  Hf
  Hf10     1.0000 0.13801  0.72623  0.89553  Biso   1.000  Hf
  Hf11     1.0000 0.63673  0.23351  0.39460  Biso   1.000  Hf
  Hf12     1.0000 0.64020  0.22871  0.89826  Biso   1.000  Hf
  Hf13     1.0000 0.63802  0.72622  0.39552  Biso   1.000  Hf
  Hf14     1.0000 0.64259  0.72645  0.89430  Biso   1.000  Hf
  Hf15     1.0000 0.36069  0.27024  0.10468  Biso   1.000  Hf
  Hf16     1.0000 0.35905  0.27301  0.60268  Biso   1.000  Hf
  Hf17     1.0000 0.36821  0.76739  0.10267  Biso   1.000  Hf
  Hf18     1.0000 0.35579  0.76651  0.60340  Biso   1.000  Hf
  Hf19     1.0000 0.85906  0.27301  0.10267  Biso   1.000  Hf
  Hf20     1.0000 0.86070  0.27025  0.60467  Biso   1.000  Hf
  Hf21     1.0000 0.85579  0.76653  0.10341  Biso   1.000  Hf
  Hf22     1.0000 0.86820  0.76738  0.60265  Biso   1.000  Hf
  Hf23     1.0000 0.35880  0.47821  0.35123  Biso   1.000  Hf
  Hf24     1.0000 0.36216  0.47833  0.85434  Biso   1.000  Hf
  Hf25     1.0000 0.36390  0.97912  0.35605  Biso   1.000  Hf
  Hf26     1.0000 0.35686  0.97882  0.85717  Biso   1.000  Hf
  Hf27     1.0000 0.86216  0.47834  0.35433  Biso   1.000  Hf
  Hf28     1.0000 0.85879  0.47821  0.85123  Biso   1.000  Hf
  Hf29     1.0000 0.85686  0.97884  0.35717  Biso   1.000  Hf
  Hf30     1.0000 0.86390  0.97913  0.85604  Biso   1.000  Hf
  O1       1.0000 0.03356  0.18841  0.07621  Biso   1.000  O 
  O2       1.0000 0.03701  0.17209  0.58487  Biso   1.000  O 
  O3       1.0000 0.03583  0.67133  0.08156  Biso   1.000  O 
  O4       1.0000 0.03925  0.66716  0.57897  Biso   1.000  O 
  O5       1.0000 0.53701  0.17207  0.08485  Biso   1.000  O 
  O6       1.0000 0.53354  0.18839  0.57620  Biso   1.000  O 
  O7       1.0000 0.53923  0.66714  0.07897  Biso   1.000  O 
  O8       1.0000 0.53582  0.67127  0.58150  Biso   1.000  O 
  O9       1.0000 0.02674  0.08524  0.34582  Biso   1.000  O 
  O10      1.0000 0.03916  0.07856  0.83404  Biso   1.000  O 
  O11      1.0000 0.03570  0.58215  0.32870  Biso   1.000  O 
  O12      1.0000 0.03313  0.58047  0.82842  Biso   1.000  O 
  O13      1.0000 0.53917  0.07857  0.33403  Biso   1.000  O 
  O14      1.0000 0.52673  0.08528  0.84578  Biso   1.000  O 
  O15      1.0000 0.53313  0.58048  0.32841  Biso   1.000  O 
  O16      1.0000 0.53568  0.58219  0.82868  Biso   1.000  O 
  O17      1.0000 0.46398  0.41916  0.16844  Biso   1.000  O 
  O18      1.0000 0.46128  0.42335  0.66883  Biso   1.000  O 
  O19      1.0000 0.46547  0.92109  0.16836  Biso   1.000  O 
  O20      1.0000 0.43609  0.91867  0.67603  Biso   1.000  O 
  O21      1.0000 0.96127  0.42337  0.16881  Biso   1.000  O 
  O22      1.0000 0.96396  0.41919  0.66843  Biso   1.000  O 
  O23      1.0000 0.93600  0.91882  0.17594  Biso   1.000  O 
  O24      1.0000 0.96545  0.92110  0.66833  Biso   1.000  O 
  O25      1.0000 0.46044  0.33218  0.41424  Biso   1.000  O 
  O26      1.0000 0.46735  0.33533  0.92173  Biso   1.000  O 
  O27      1.0000 0.46707  0.83247  0.42437  Biso   1.000  O 
  O28      1.0000 0.47581  0.83503  0.91795  Biso   1.000  O 
  O29      1.0000 0.96733  0.33529  0.42171  Biso   1.000  O 
  O30      1.0000 0.96045  0.33217  0.91421  Biso   1.000  O 
  O31      1.0000 0.97580  0.83499  0.41787  Biso   1.000  O 
  O32      1.0000 0.96707  0.83245  0.92435  Biso   1.000  O 
  O33      1.0000 0.28467  0.13569  0.25037  Biso   1.000  O 
  O34      1.0000 0.27471  0.13138  0.74022  Biso   1.000  O 
  O35      1.0000 0.27685  0.62404  0.23665  Biso   1.000  O 
  O36      1.0000 0.27421  0.62812  0.74062  Biso   1.000  O 
  O37      1.0000 0.77470  0.13140  0.24023  Biso   1.000  O 
  O38      1.0000 0.78469  0.13568  0.75037  Biso   1.000  O 
  O39      1.0000 0.77421  0.62811  0.24061  Biso   1.000  O 
  O40      1.0000 0.77684  0.62404  0.73665  Biso   1.000  O 
  O41      1.0000 0.27533  0.11970  0.49352  Biso   1.000  O 
  O42      1.0000 0.28103  0.12956  0.98265  Biso   1.000  O 
  O43      1.0000 0.27612  0.61860  0.48891  Biso   1.000  O 
  O44      1.0000 0.27627  0.61769  0.98948  Biso   1.000  O 
  O45      1.0000 0.78104  0.12957  0.48263  Biso   1.000  O 
  O46      1.0000 0.77534  0.11971  0.99352  Biso   1.000  O 
  O47      1.0000 0.77629  0.61770  0.48946  Biso   1.000  O 
  O48      1.0000 0.77611  0.61862  0.98890  Biso   1.000  O 
  O49      1.0000 0.22503  0.37993  0.00819  Biso   1.000  O 
  O50      1.0000 0.22261  0.37978  0.50865  Biso   1.000  O 
  O51      1.0000 0.24035  0.86378  0.99782  Biso   1.000  O 
  O52      1.0000 0.22539  0.87812  0.50994  Biso   1.000  O 
  O53      1.0000 0.72263  0.37978  0.00864  Biso   1.000  O 
  O54      1.0000 0.72502  0.37994  0.50817  Biso   1.000  O 
  O55      1.0000 0.72538  0.87812  0.00993  Biso   1.000  O 
  O56      1.0000 0.74035  0.86378  0.49781  Biso   1.000  O 
  O57      1.0000 0.22123  0.37142  0.25756  Biso   1.000  O 
  O58      1.0000 0.22326  0.37364  0.75933  Biso   1.000  O 
  O59      1.0000 0.24048  0.85861  0.26387  Biso   1.000  O 
  O60      1.0000 0.21055  0.86921  0.76114  Biso   1.000  O 
  O61      1.0000 0.72325  0.37364  0.25932  Biso   1.000  O 
  O62      1.0000 0.72122  0.37140  0.75756  Biso   1.000  O 
  O63      1.0000 0.71056  0.86919  0.26112  Biso   1.000  O 
  O64      1.0000 0.74047  0.85861  0.76387  Biso   1.000  O 
