data_image0
_cell_length_a       10.1376
_cell_length_b       10.2928
_cell_length_c       10.5285
_cell_angle_alpha    90.0353
_cell_angle_beta     89.9942
_cell_angle_gamma    89.9954

_symmetry_space_group_name_H-M    "P 1"
_symmetry_int_tables_number       1

loop_
  _symmetry_equiv_pos_as_xyz
  'x, y, z'

loop_
  _atom_site_label
  _atom_site_occupancy
  _atom_site_fract_x
  _atom_site_fract_y
  _atom_site_fract_z
  _atom_site_thermal_displace_type
  _atom_site_B_iso_or_equiv
  _atom_site_type_symbol
  La1      1.0000 0.13302  0.01186  0.16498  Biso   1.000  La
  Hf1      1.0000 0.14076  0.02159  0.67187  Biso   1.000  Hf
  Hf2      1.0000 0.13966  0.52019  0.17181  Biso   1.000  Hf
  Hf3      1.0000 0.13798  0.52028  0.67126  Biso   1.000  Hf
  Hf4      1.0000 0.13791  0.22765  0.42463  Biso   1.000  Hf
  Hf5      1.0000 0.13756  0.23537  0.92009  Biso   1.000  Hf
  Hf6      1.0000 0.13873  0.72753  0.42060  Biso   1.000  Hf
  Hf7      1.0000 0.14227  0.72727  0.91887  Biso   1.000  Hf
  Hf8      1.0000 0.35874  0.26833  0.17404  Biso   1.000  Hf
  Hf9      1.0000 0.36146  0.27020  0.67159  Biso   1.000  Hf
  Hf10     1.0000 0.36700  0.76603  0.16897  Biso   1.000  Hf
  Hf11     1.0000 0.35402  0.77022  0.66450  Biso   1.000  Hf
  Hf12     1.0000 0.35993  0.47690  0.42093  Biso   1.000  Hf
  Hf13     1.0000 0.35926  0.47471  0.92446  Biso   1.000  Hf
  Hf14     1.0000 0.36290  0.97859  0.42100  Biso   1.000  Hf
  Hf15     1.0000 0.36225  0.98521  0.92064  Biso   1.000  Hf
  Hf16     1.0000 0.64226  0.02270  0.08117  Biso   1.000  Hf
  Hf17     1.0000 0.63870  0.02247  0.57938  Biso   1.000  Hf
  Hf18     1.0000 0.63757  0.51465  0.07991  Biso   1.000  Hf
  Hf19     1.0000 0.63789  0.52236  0.57537  Biso   1.000  Hf
  Hf20     1.0000 0.63800  0.22972  0.32876  Biso   1.000  Hf
  Hf21     1.0000 0.63968  0.22981  0.82820  Biso   1.000  Hf
  Hf22     1.0000 0.64074  0.72843  0.32813  Biso   1.000  Hf
  La2      1.0000 0.63299  0.73818  0.83502  Biso   1.000  La
  Hf23     1.0000 0.85921  0.27526  0.07554  Biso   1.000  Hf
  Hf24     1.0000 0.85990  0.27309  0.57907  Biso   1.000  Hf
  Hf25     1.0000 0.86219  0.76486  0.07939  Biso   1.000  Hf
  Hf26     1.0000 0.86287  0.77142  0.57899  Biso   1.000  Hf
  Hf27     1.0000 0.86146  0.47979  0.32840  Biso   1.000  Hf
  Hf28     1.0000 0.85873  0.48166  0.82595  Biso   1.000  Hf
  Hf29     1.0000 0.85408  0.97978  0.33547  Biso   1.000  Hf
  Hf30     1.0000 0.86703  0.98399  0.83103  Biso   1.000  Hf
  O1       1.0000 0.02901  0.18239  0.07679  Biso   1.000  O 
  O2       1.0000 0.03181  0.16753  0.58844  Biso   1.000  O 
  O3       1.0000 0.03815  0.66752  0.08415  Biso   1.000  O 
  O4       1.0000 0.03324  0.66479  0.58311  Biso   1.000  O 
  O5       1.0000 0.02033  0.09009  0.34805  Biso   1.000  O 
  O6       1.0000 0.03573  0.08771  0.83503  Biso   1.000  O 
  O7       1.0000 0.03200  0.58700  0.33284  Biso   1.000  O 
  O8       1.0000 0.03148  0.58641  0.83041  Biso   1.000  O 
  O9       1.0000 0.46527  0.40859  0.08735  Biso   1.000  O 
  O10      1.0000 0.46832  0.41106  0.58049  Biso   1.000  O 
  O11      1.0000 0.47500  0.91141  0.07789  Biso   1.000  O 
  O12      1.0000 0.46932  0.91193  0.57868  Biso   1.000  O 
  O13      1.0000 0.46796  0.33529  0.33411  Biso   1.000  O 
  O14      1.0000 0.46481  0.33016  0.83317  Biso   1.000  O 
  O15      1.0000 0.47306  0.83739  0.32932  Biso   1.000  O 
  O16      1.0000 0.44491  0.84595  0.81914  Biso   1.000  O 
  O17      1.0000 0.28009  0.12747  0.30497  Biso   1.000  O 
  O18      1.0000 0.27538  0.12385  0.79286  Biso   1.000  O 
  O19      1.0000 0.27750  0.61898  0.29283  Biso   1.000  O 
  O20      1.0000 0.27581  0.62256  0.79273  Biso   1.000  O 
  O21      1.0000 0.28386  0.13700  0.03609  Biso   1.000  O 
  O22      1.0000 0.27535  0.12477  0.54724  Biso   1.000  O 
  O23      1.0000 0.27671  0.62000  0.04520  Biso   1.000  O 
  O24      1.0000 0.27107  0.62326  0.54105  Biso   1.000  O 
  O25      1.0000 0.22257  0.37261  0.29656  Biso   1.000  O 
  O26      1.0000 0.22391  0.37431  0.79418  Biso   1.000  O 
  O27      1.0000 0.23648  0.86137  0.30045  Biso   1.000  O 
  O28      1.0000 0.21214  0.87212  0.78993  Biso   1.000  O 
  O29      1.0000 0.22104  0.37695  0.04716  Biso   1.000  O 
  O30      1.0000 0.22477  0.37494  0.54643  Biso   1.000  O 
  O31      1.0000 0.24498  0.86212  0.03322  Biso   1.000  O 
  O32      1.0000 0.22437  0.87710  0.54296  Biso   1.000  O 
  O33      1.0000 0.53153  0.16362  0.16956  Biso   1.000  O 
  O34      1.0000 0.53205  0.16305  0.66713  Biso   1.000  O 
  O35      1.0000 0.53573  0.66232  0.16495  Biso   1.000  O 
  O36      1.0000 0.52034  0.65996  0.65193  Biso   1.000  O 
  O37      1.0000 0.53326  0.08518  0.41686  Biso   1.000  O 
  O38      1.0000 0.53822  0.08236  0.91577  Biso   1.000  O 
  O39      1.0000 0.53181  0.58246  0.41156  Biso   1.000  O 
  O40      1.0000 0.52902  0.56760  0.92317  Biso   1.000  O 
  O41      1.0000 0.96480  0.41978  0.16686  Biso   1.000  O 
  O42      1.0000 0.96795  0.41468  0.66590  Biso   1.000  O 
  O43      1.0000 0.94509  0.90387  0.18100  Biso   1.000  O 
  O44      1.0000 0.97311  0.91257  0.67074  Biso   1.000  O 
  O45      1.0000 0.96835  0.33897  0.41955  Biso   1.000  O 
  O46      1.0000 0.96529  0.34143  0.91266  Biso   1.000  O 
  O47      1.0000 0.96934  0.83813  0.42140  Biso   1.000  O 
  O48      1.0000 0.97504  0.83868  0.92217  Biso   1.000  O 
  O49      1.0000 0.77670  0.13001  0.95483  Biso   1.000  O 
  O50      1.0000 0.77105  0.12678  0.45896  Biso   1.000  O 
  O51      1.0000 0.78380  0.61304  0.96392  Biso   1.000  O 
  O52      1.0000 0.77534  0.62528  0.45279  Biso   1.000  O 
  O53      1.0000 0.77586  0.12744  0.20726  Biso   1.000  O 
  O54      1.0000 0.77751  0.13101  0.70719  Biso   1.000  O 
  O55      1.0000 0.77537  0.62613  0.20715  Biso   1.000  O 
  O56      1.0000 0.78004  0.62252  0.69505  Biso   1.000  O 
  O57      1.0000 0.72103  0.37305  0.95282  Biso   1.000  O 
  O58      1.0000 0.72476  0.37503  0.45355  Biso   1.000  O 
  O59      1.0000 0.74498  0.88790  0.96672  Biso   1.000  O 
  O60      1.0000 0.72436  0.87290  0.45699  Biso   1.000  O 
  O61      1.0000 0.72390  0.37568  0.20579  Biso   1.000  O 
  O62      1.0000 0.72255  0.37737  0.70342  Biso   1.000  O 
  O63      1.0000 0.71218  0.87783  0.20999  Biso   1.000  O 
  O64      1.0000 0.73649  0.88865  0.69953  Biso   1.000  O 
