data_image0
_cell_length_a       10.1365
_cell_length_b       10.306
_cell_length_c       10.4693
_cell_angle_alpha    90.0035
_cell_angle_beta     90.4091
_cell_angle_gamma    90.2674

_symmetry_space_group_name_H-M    "P 1"
_symmetry_int_tables_number       1

loop_
  _symmetry_equiv_pos_as_xyz
  'x, y, z'

loop_
  _atom_site_label
  _atom_site_occupancy
  _atom_site_fract_x
  _atom_site_fract_y
  _atom_site_fract_z
  _atom_site_thermal_displace_type
  _atom_site_B_iso_or_equiv
  _atom_site_type_symbol
  La1      1.0000 0.13164  0.00923  0.16163  Biso   1.000  La
  Hf1      1.0000 0.13959  0.01990  0.67161  Biso   1.000  Hf
  Hf2      1.0000 0.13961  0.51992  0.17162  Biso   1.000  Hf
  La2      1.0000 0.13163  0.50924  0.66162  Biso   1.000  La
  Hf3      1.0000 0.14114  0.22588  0.42087  Biso   1.000  Hf
  Hf4      1.0000 0.13938  0.23164  0.91949  Biso   1.000  Hf
  Hf5      1.0000 0.13940  0.73165  0.41950  Biso   1.000  Hf
  Hf6      1.0000 0.14112  0.72587  0.92087  Biso   1.000  Hf
  Hf7      1.0000 0.35874  0.26860  0.17016  Biso   1.000  Hf
  Hf8      1.0000 0.36687  0.26550  0.67050  Biso   1.000  Hf
  Hf9      1.0000 0.36690  0.76551  0.17050  Biso   1.000  Hf
  Hf10     1.0000 0.35871  0.76861  0.67017  Biso   1.000  Hf
  Hf11     1.0000 0.36454  0.47850  0.41803  Biso   1.000  Hf
  Hf12     1.0000 0.36199  0.47793  0.92199  Biso   1.000  Hf
  Hf13     1.0000 0.36202  0.97795  0.42197  Biso   1.000  Hf
  Hf14     1.0000 0.36452  0.97851  0.91804  Biso   1.000  Hf
  Hf15     1.0000 0.64077  0.02033  0.07972  Biso   1.000  Hf
  Hf16     1.0000 0.63803  0.01851  0.58046  Biso   1.000  Hf
  Hf17     1.0000 0.63805  0.51852  0.08044  Biso   1.000  Hf
  Hf18     1.0000 0.64074  0.52035  0.57972  Biso   1.000  Hf
  Hf19     1.0000 0.63676  0.23031  0.32794  Biso   1.000  Hf
  Hf20     1.0000 0.64127  0.22773  0.83021  Biso   1.000  Hf
  Hf21     1.0000 0.64129  0.72773  0.33020  Biso   1.000  Hf
  Hf22     1.0000 0.63673  0.73031  0.82795  Biso   1.000  Hf
  Hf23     1.0000 0.86106  0.27373  0.07773  Biso   1.000  Hf
  Hf24     1.0000 0.85881  0.26676  0.57826  Biso   1.000  Hf
  Hf25     1.0000 0.85883  0.76679  0.07824  Biso   1.000  Hf
  Hf26     1.0000 0.86103  0.77372  0.57773  Biso   1.000  Hf
  Hf27     1.0000 0.86261  0.47929  0.33091  Biso   1.000  Hf
  Hf28     1.0000 0.85285  0.48198  0.83239  Biso   1.000  Hf
  Hf29     1.0000 0.85286  0.98198  0.33239  Biso   1.000  Hf
  Hf30     1.0000 0.86259  0.97930  0.83090  Biso   1.000  Hf
  O1       1.0000 0.03474  0.19019  0.08362  Biso   1.000  O 
  O2       1.0000 0.03887  0.17949  0.59577  Biso   1.000  O 
  O3       1.0000 0.03889  0.67951  0.09575  Biso   1.000  O 
  O4       1.0000 0.03471  0.69018  0.58359  Biso   1.000  O 
  O5       1.0000 0.02277  0.08340  0.35041  Biso   1.000  O 
  O6       1.0000 0.03737  0.07870  0.84164  Biso   1.000  O 
  O7       1.0000 0.03739  0.57873  0.34160  Biso   1.000  O 
  O8       1.0000 0.02275  0.58340  0.85039  Biso   1.000  O 
  O9       1.0000 0.46817  0.41181  0.08255  Biso   1.000  O 
  O10      1.0000 0.47149  0.41482  0.58373  Biso   1.000  O 
  O11      1.0000 0.47151  0.91483  0.08375  Biso   1.000  O 
  O12      1.0000 0.46815  0.91183  0.58255  Biso   1.000  O 
  O13      1.0000 0.46938  0.33718  0.32961  Biso   1.000  O 
  O14      1.0000 0.47390  0.33509  0.83291  Biso   1.000  O 
  O15      1.0000 0.47391  0.83508  0.33291  Biso   1.000  O 
  O16      1.0000 0.46936  0.83717  0.82962  Biso   1.000  O 
  O17      1.0000 0.28115  0.12769  0.30198  Biso   1.000  O 
  O18      1.0000 0.27779  0.11956  0.79146  Biso   1.000  O 
  O19      1.0000 0.27781  0.61958  0.29148  Biso   1.000  O 
  O20      1.0000 0.28112  0.62770  0.80198  Biso   1.000  O 
  O21      1.0000 0.28507  0.13286  0.03417  Biso   1.000  O 
  O22      1.0000 0.27460  0.11879  0.54674  Biso   1.000  O 
  O23      1.0000 0.27462  0.61878  0.04674  Biso   1.000  O 
  O24      1.0000 0.28505  0.63287  0.53419  Biso   1.000  O 
  O25      1.0000 0.22263  0.37229  0.29121  Biso   1.000  O 
  O26      1.0000 0.23717  0.36307  0.79949  Biso   1.000  O 
  O27      1.0000 0.23719  0.86309  0.29950  Biso   1.000  O 
  O28      1.0000 0.22259  0.87229  0.79121  Biso   1.000  O 
  O29      1.0000 0.22341  0.37775  0.04471  Biso   1.000  O 
  O30      1.0000 0.24498  0.36050  0.53317  Biso   1.000  O 
  O31      1.0000 0.24499  0.86050  0.03316  Biso   1.000  O 
  O32      1.0000 0.22340  0.87776  0.54473  Biso   1.000  O 
  O33      1.0000 0.53179  0.16363  0.16645  Biso   1.000  O 
  O34      1.0000 0.53455  0.16056  0.66824  Biso   1.000  O 
  O35      1.0000 0.53455  0.66055  0.16826  Biso   1.000  O 
  O36      1.0000 0.53176  0.66362  0.66646  Biso   1.000  O 
  O37      1.0000 0.53222  0.08525  0.41815  Biso   1.000  O 
  O38      1.0000 0.53670  0.08269  0.91590  Biso   1.000  O 
  O39      1.0000 0.53671  0.58269  0.41592  Biso   1.000  O 
  O40      1.0000 0.53220  0.58526  0.91816  Biso   1.000  O 
  O41      1.0000 0.96146  0.42579  0.16248  Biso   1.000  O 
  O42      1.0000 0.92837  0.42907  0.65742  Biso   1.000  O 
  O43      1.0000 0.92837  0.92909  0.15740  Biso   1.000  O 
  O44      1.0000 0.96143  0.92578  0.66248  Biso   1.000  O 
  O45      1.0000 0.96930  0.33407  0.41723  Biso   1.000  O 
  O46      1.0000 0.96336  0.33364  0.90475  Biso   1.000  O 
  O47      1.0000 0.96338  0.83366  0.40472  Biso   1.000  O 
  O48      1.0000 0.96926  0.83405  0.91725  Biso   1.000  O 
  O49      1.0000 0.77834  0.12443  0.95648  Biso   1.000  O 
  O50      1.0000 0.77031  0.12446  0.45726  Biso   1.000  O 
  O51      1.0000 0.77030  0.62446  0.95725  Biso   1.000  O 
  O52      1.0000 0.77834  0.62444  0.45647  Biso   1.000  O 
  O53      1.0000 0.77309  0.13057  0.20724  Biso   1.000  O 
  O54      1.0000 0.77698  0.12646  0.70701  Biso   1.000  O 
  O55      1.0000 0.77699  0.62645  0.20699  Biso   1.000  O 
  O56      1.0000 0.77308  0.63058  0.70722  Biso   1.000  O 
  O57      1.0000 0.72324  0.37448  0.95705  Biso   1.000  O 
  O58      1.0000 0.72537  0.37391  0.45473  Biso   1.000  O 
  O59      1.0000 0.72534  0.87392  0.95474  Biso   1.000  O 
  O60      1.0000 0.72325  0.87448  0.45705  Biso   1.000  O 
  O61      1.0000 0.72411  0.37724  0.20670  Biso   1.000  O 
  O62      1.0000 0.71138  0.37459  0.70789  Biso   1.000  O 
  O63      1.0000 0.71138  0.87459  0.20790  Biso   1.000  O 
  O64      1.0000 0.72408  0.87725  0.70670  Biso   1.000  O 
