data_image0
_cell_length_a       10.0463
_cell_length_b       10.4118
_cell_length_c       10.073
_cell_angle_alpha    89.8239
_cell_angle_beta     89.45
_cell_angle_gamma    89.9948

_symmetry_space_group_name_H-M    "P 1"
_symmetry_int_tables_number       1

loop_
  _symmetry_equiv_pos_as_xyz
  'x, y, z'

loop_
  _atom_site_label
  _atom_site_occupancy
  _atom_site_fract_x
  _atom_site_fract_y
  _atom_site_fract_z
  _atom_site_thermal_displace_type
  _atom_site_B_iso_or_equiv
  _atom_site_type_symbol
  La1      1.0000 0.12871  0.00508  0.12448  Biso   1.000  La
  Hf1      1.0000 0.13920  0.01520  0.62597  Biso   1.000  Hf
  Hf2      1.0000 0.13177  0.51622  0.12780  Biso   1.000  Hf
  Hf3      1.0000 0.13612  0.51834  0.62970  Biso   1.000  Hf
  Hf4      1.0000 0.63386  0.01622  0.12487  Biso   1.000  Hf
  Hf5      1.0000 0.63518  0.01420  0.62571  Biso   1.000  Hf
  Hf6      1.0000 0.62746  0.52368  0.12847  Biso   1.000  Hf
  Hf7      1.0000 0.63707  0.51585  0.62580  Biso   1.000  Hf
  Hf8      1.0000 0.15537  0.24059  0.39976  Biso   1.000  Hf
  Hf9      1.0000 0.13384  0.23553  0.87065  Biso   1.000  Hf
  Hf10     1.0000 0.13831  0.72797  0.37916  Biso   1.000  Hf
  Hf11     1.0000 0.13565  0.73136  0.87545  Biso   1.000  Hf
  Hf12     1.0000 0.62989  0.23675  0.37440  Biso   1.000  Hf
  Hf13     1.0000 0.62962  0.23152  0.87111  Biso   1.000  Hf
  Hf14     1.0000 0.63590  0.73269  0.38142  Biso   1.000  Hf
  Hf15     1.0000 0.63343  0.73429  0.87310  Biso   1.000  Hf
  Hf16     1.0000 0.36304  0.26626  0.12696  Biso   1.000  Hf
  Hf17     1.0000 0.37180  0.26863  0.63428  Biso   1.000  Hf
  Hf18     1.0000 0.36886  0.76265  0.12352  Biso   1.000  Hf
  Hf19     1.0000 0.36858  0.76740  0.62530  Biso   1.000  Hf
  Hf20     1.0000 0.83868  0.28104  0.11465  Biso   1.000  Hf
  Hf21     1.0000 0.86741  0.26701  0.62456  Biso   1.000  Hf
  Hf22     1.0000 0.85807  0.76619  0.12199  Biso   1.000  Hf
  Hf23     1.0000 0.86787  0.76414  0.62683  Biso   1.000  Hf
  Hf24     1.0000 0.36967  0.48618  0.37592  Biso   1.000  Hf
  Hf25     1.0000 0.36638  0.48381  0.87971  Biso   1.000  Hf
  Hf26     1.0000 0.36932  0.98308  0.37423  Biso   1.000  Hf
  Hf27     1.0000 0.36828  0.98333  0.87450  Biso   1.000  Hf
  Hf28     1.0000 0.86935  0.48274  0.37487  Biso   1.000  Hf
  Hf29     1.0000 0.86824  0.48540  0.87268  Biso   1.000  Hf
  La2      1.0000 0.86859  0.98988  0.38012  Biso   1.000  La
  Hf30     1.0000 0.86434  0.98216  0.87458  Biso   1.000  Hf
  O1       1.0000 0.04485  0.19042  0.67781  Biso   1.000  O 
  O2       1.0000 0.03211  0.68630  0.19562  Biso   1.000  O 
  O3       1.0000 0.03700  0.68076  0.69790  Biso   1.000  O 
  O4       1.0000 0.53212  0.18401  0.19373  Biso   1.000  O 
  O5       1.0000 0.53604  0.18048  0.69723  Biso   1.000  O 
  O6       1.0000 0.53053  0.68088  0.20192  Biso   1.000  O 
  O7       1.0000 0.53855  0.68380  0.69260  Biso   1.000  O 
  O8       1.0000 0.07016  0.06680  0.43266  Biso   1.000  O 
  O9       1.0000 0.03266  0.07344  0.91908  Biso   1.000  O 
  O10      1.0000 0.04186  0.55552  0.44456  Biso   1.000  O 
  O11      1.0000 0.03356  0.56564  0.94765  Biso   1.000  O 
  O12      1.0000 0.54174  0.06192  0.43795  Biso   1.000  O 
  O13      1.0000 0.53530  0.06527  0.94395  Biso   1.000  O 
  O14      1.0000 0.53668  0.56457  0.44742  Biso   1.000  O 
  O15      1.0000 0.53177  0.56950  0.94935  Biso   1.000  O 
  O16      1.0000 0.45989  0.43308  0.19518  Biso   1.000  O 
  O17      1.0000 0.46999  0.43370  0.70085  Biso   1.000  O 
  O18      1.0000 0.45802  0.93800  0.18657  Biso   1.000  O 
  O19      1.0000 0.46543  0.93358  0.69560  Biso   1.000  O 
  O20      1.0000 0.96505  0.41726  0.19371  Biso   1.000  O 
  O21      1.0000 0.96675  0.43343  0.69668  Biso   1.000  O 
  O22      1.0000 0.92361  0.94531  0.15914  Biso   1.000  O 
  O23      1.0000 0.96310  0.93674  0.68457  Biso   1.000  O 
  O24      1.0000 0.46549  0.31862  0.44899  Biso   1.000  O 
  O25      1.0000 0.46413  0.31727  0.94423  Biso   1.000  O 
  O26      1.0000 0.46460  0.81620  0.44459  Biso   1.000  O 
  O27      1.0000 0.46726  0.81543  0.94326  Biso   1.000  O 
  O28      1.0000 0.96679  0.30820  0.43869  Biso   1.000  O 
  O29      1.0000 0.96210  0.31669  0.94771  Biso   1.000  O 
  O30      1.0000 0.97325  0.80188  0.45329  Biso   1.000  O 
  O31      1.0000 0.96568  0.81544  0.93895  Biso   1.000  O 
  O32      1.0000 0.26928  0.13245  0.25974  Biso   1.000  O 
  O33      1.0000 0.27085  0.11825  0.75169  Biso   1.000  O 
  O34      1.0000 0.26764  0.61104  0.24948  Biso   1.000  O 
  O35      1.0000 0.27302  0.61789  0.75126  Biso   1.000  O 
  O36      1.0000 0.76662  0.13887  0.24008  Biso   1.000  O 
  O37      1.0000 0.77263  0.11620  0.74780  Biso   1.000  O 
  O38      1.0000 0.77075  0.61785  0.24955  Biso   1.000  O 
  O39      1.0000 0.77076  0.61587  0.74903  Biso   1.000  O 
  O40      1.0000 0.28979  0.13221  0.50974  Biso   1.000  O 
  O41      1.0000 0.27199  0.13915  0.99471  Biso   1.000  O 
  O42      1.0000 0.27281  0.63145  0.50196  Biso   1.000  O 
  O43      1.0000 0.26777  0.62896  0.00197  Biso   1.000  O 
  O44      1.0000 0.75476  0.14578  0.50813  Biso   1.000  O 
  O45      1.0000 0.76594  0.13393  0.99415  Biso   1.000  O 
  O46      1.0000 0.77541  0.62891  0.49963  Biso   1.000  O 
  O47      1.0000 0.76656  0.63202  0.99759  Biso   1.000  O 
  O48      1.0000 0.23905  0.38526  0.50843  Biso   1.000  O 
  O49      1.0000 0.22741  0.38325  0.00265  Biso   1.000  O 
  O50      1.0000 0.23510  0.88182  0.50157  Biso   1.000  O 
  O51      1.0000 0.23879  0.87172  0.99156  Biso   1.000  O 
  O52      1.0000 0.73594  0.38608  0.49822  Biso   1.000  O 
  O53      1.0000 0.72247  0.38629  0.99704  Biso   1.000  O 
  O54      1.0000 0.71957  0.86908  0.51045  Biso   1.000  O 
  O55      1.0000 0.72387  0.88029  0.99616  Biso   1.000  O 
  O56      1.0000 0.22295  0.36688  0.25378  Biso   1.000  O 
  O57      1.0000 0.23247  0.37112  0.75234  Biso   1.000  O 
  O58      1.0000 0.24174  0.85406  0.25724  Biso   1.000  O 
  O59      1.0000 0.23018  0.86720  0.74803  Biso   1.000  O 
  O60      1.0000 0.71925  0.37926  0.24911  Biso   1.000  O 
  O61      1.0000 0.73205  0.36653  0.74940  Biso   1.000  O 
  O62      1.0000 0.71117  0.86192  0.24615  Biso   1.000  O 
  O63      1.0000 0.73312  0.86768  0.75158  Biso   1.000  O 
