data_image0
_cell_length_a       10.0131
_cell_length_b       10.3761
_cell_length_c       10.0132
_cell_angle_alpha    89.9949
_cell_angle_beta     90.1359
_cell_angle_gamma    90.0891

_symmetry_space_group_name_H-M    "P 1"
_symmetry_int_tables_number       1

loop_
  _symmetry_equiv_pos_as_xyz
  'x, y, z'

loop_
  _atom_site_label
  _atom_site_occupancy
  _atom_site_fract_x
  _atom_site_fract_y
  _atom_site_fract_z
  _atom_site_thermal_displace_type
  _atom_site_B_iso_or_equiv
  _atom_site_type_symbol
  La1      1.0000 0.12743  0.00306  0.12645  Biso   1.000  La
  Hf1      1.0000 0.13268  0.01613  0.62234  Biso   1.000  Hf
  Hf2      1.0000 0.13378  0.51824  0.12514  Biso   1.000  Hf
  Hf3      1.0000 0.13590  0.51512  0.62747  Biso   1.000  Hf
  Hf4      1.0000 0.63066  0.01573  0.12687  Biso   1.000  Hf
  Hf5      1.0000 0.63582  0.01741  0.62932  Biso   1.000  Hf
  Hf6      1.0000 0.63494  0.51441  0.12631  Biso   1.000  Hf
  Hf7      1.0000 0.63437  0.51480  0.62685  Biso   1.000  Hf
  Hf8      1.0000 0.13383  0.23488  0.37725  Biso   1.000  Hf
  Hf9      1.0000 0.13521  0.23373  0.87288  Biso   1.000  Hf
  Hf10     1.0000 0.13053  0.72853  0.37896  Biso   1.000  Hf
  Hf11     1.0000 0.13555  0.73264  0.87393  Biso   1.000  Hf
  Hf12     1.0000 0.63405  0.23531  0.37554  Biso   1.000  Hf
  Hf13     1.0000 0.63450  0.23354  0.87735  Biso   1.000  Hf
  Hf14     1.0000 0.63356  0.73183  0.38009  Biso   1.000  Hf
  Hf15     1.0000 0.63803  0.73131  0.87538  Biso   1.000  Hf
  Hf16     1.0000 0.36314  0.26576  0.12681  Biso   1.000  Hf
  Hf17     1.0000 0.36679  0.26537  0.62578  Biso   1.000  Hf
  Hf18     1.0000 0.37712  0.75693  0.11692  Biso   1.000  Hf
  Hf19     1.0000 0.36871  0.76534  0.62287  Biso   1.000  Hf
  Hf20     1.0000 0.86565  0.26764  0.12653  Biso   1.000  Hf
  Hf21     1.0000 0.86752  0.26758  0.62605  Biso   1.000  Hf
  Hf22     1.0000 0.85962  0.76623  0.12952  Biso   1.000  Hf
  Hf23     1.0000 0.86680  0.76564  0.62630  Biso   1.000  Hf
  Hf24     1.0000 0.36557  0.48342  0.37530  Biso   1.000  Hf
  Hf25     1.0000 0.36731  0.48131  0.87651  Biso   1.000  Hf
  Hf26     1.0000 0.37287  0.98915  0.37758  Biso   1.000  Hf
  Hf27     1.0000 0.36831  0.98366  0.87223  Biso   1.000  Hf
  Hf28     1.0000 0.86544  0.48332  0.37640  Biso   1.000  Hf
  Hf29     1.0000 0.86742  0.48228  0.87716  Biso   1.000  Hf
  Hf30     1.0000 0.85965  0.98391  0.38047  Biso   1.000  Hf
  Hf31     1.0000 0.86462  0.98240  0.87558  Biso   1.000  Hf
  O1       1.0000 0.03043  0.19672  0.20247  Biso   1.000  O 
  O2       1.0000 0.04033  0.18672  0.68456  Biso   1.000  O 
  O3       1.0000 0.04218  0.69544  0.19248  Biso   1.000  O 
  O4       1.0000 0.03701  0.68355  0.69284  Biso   1.000  O 
  O5       1.0000 0.53512  0.18269  0.19378  Biso   1.000  O 
  O6       1.0000 0.53625  0.18359  0.69601  Biso   1.000  O 
  O7       1.0000 0.54032  0.68121  0.19610  Biso   1.000  O 
  O8       1.0000 0.53695  0.68368  0.69346  Biso   1.000  O 
  O9       1.0000 0.03442  0.06540  0.44016  Biso   1.000  O 
  O10      1.0000 0.03300  0.07177  0.92349  Biso   1.000  O 
  O11      1.0000 0.03733  0.56532  0.44385  Biso   1.000  O 
  O12      1.0000 0.03641  0.56817  0.94372  Biso   1.000  O 
  O13      1.0000 0.53887  0.06634  0.44668  Biso   1.000  O 
  O14      1.0000 0.53831  0.06389  0.94224  Biso   1.000  O 
  O15      1.0000 0.53500  0.56492  0.44612  Biso   1.000  O 
  O16      1.0000 0.53515  0.56705  0.94749  Biso   1.000  O 
  O17      1.0000 0.46440  0.43353  0.19552  Biso   1.000  O 
  O18      1.0000 0.46550  0.43305  0.69547  Biso   1.000  O 
  O19      1.0000 0.44783  0.93398  0.18986  Biso   1.000  O 
  O20      1.0000 0.46410  0.93419  0.69054  Biso   1.000  O 
  O21      1.0000 0.96029  0.44313  0.19190  Biso   1.000  O 
  O22      1.0000 0.96562  0.43447  0.69644  Biso   1.000  O 
  O23      1.0000 0.93582  0.93191  0.20333  Biso   1.000  O 
  O24      1.0000 0.96214  0.93384  0.69217  Biso   1.000  O 
  O25      1.0000 0.46300  0.31518  0.44422  Biso   1.000  O 
  O26      1.0000 0.46651  0.31685  0.94571  Biso   1.000  O 
  O27      1.0000 0.46414  0.81666  0.44348  Biso   1.000  O 
  O28      1.0000 0.47260  0.81596  0.94117  Biso   1.000  O 
  O29      1.0000 0.96342  0.31920  0.44593  Biso   1.000  O 
  O30      1.0000 0.96477  0.31686  0.94552  Biso   1.000  O 
  O31      1.0000 0.96167  0.81457  0.44511  Biso   1.000  O 
  O32      1.0000 0.97073  0.82138  0.95267  Biso   1.000  O 
  O33      1.0000 0.27825  0.12687  0.25785  Biso   1.000  O 
  O34      1.0000 0.27026  0.11616  0.74701  Biso   1.000  O 
  O35      1.0000 0.27206  0.62284  0.24910  Biso   1.000  O 
  O36      1.0000 0.27206  0.61694  0.74914  Biso   1.000  O 
  O37      1.0000 0.76524  0.11860  0.25262  Biso   1.000  O 
  O38      1.0000 0.77205  0.11872  0.75137  Biso   1.000  O 
  O39      1.0000 0.77120  0.61944  0.25164  Biso   1.000  O 
  O40      1.0000 0.77146  0.61654  0.74982  Biso   1.000  O 
  O41      1.0000 0.27020  0.13125  0.50180  Biso   1.000  O 
  O42      1.0000 0.27687  0.13582  0.99244  Biso   1.000  O 
  O43      1.0000 0.27031  0.63126  0.50000  Biso   1.000  O 
  O44      1.0000 0.27112  0.62712  0.99750  Biso   1.000  O 
  O45      1.0000 0.76826  0.13421  0.50236  Biso   1.000  O 
  O46      1.0000 0.76974  0.13037  0.00291  Biso   1.000  O 
  O47      1.0000 0.77150  0.63042  0.50091  Biso   1.000  O 
  O48      1.0000 0.77138  0.62997  0.99989  Biso   1.000  O 
  O49      1.0000 0.23072  0.38281  0.50024  Biso   1.000  O 
  O50      1.0000 0.22919  0.38232  0.00013  Biso   1.000  O 
  O51      1.0000 0.22705  0.88332  0.48244  Biso   1.000  O 
  O52      1.0000 0.24323  0.86871  0.99001  Biso   1.000  O 
  O53      1.0000 0.72878  0.38232  0.49988  Biso   1.000  O 
  O54      1.0000 0.72936  0.38208  0.99948  Biso   1.000  O 
  O55      1.0000 0.72754  0.88068  0.50388  Biso   1.000  O 
  O56      1.0000 0.73055  0.87952  0.00206  Biso   1.000  O 
  O57      1.0000 0.22726  0.37261  0.24998  Biso   1.000  O 
  O58      1.0000 0.23186  0.36770  0.74889  Biso   1.000  O 
  O59      1.0000 0.22932  0.86676  0.74045  Biso   1.000  O 
  O60      1.0000 0.72989  0.36884  0.25055  Biso   1.000  O 
  O61      1.0000 0.73078  0.36734  0.75026  Biso   1.000  O 
  O62      1.0000 0.71165  0.86852  0.25308  Biso   1.000  O 
  O63      1.0000 0.73048  0.86730  0.75138  Biso   1.000  O 
