data_image0
_cell_length_a       10.0733
_cell_length_b       10.2676
_cell_length_c       10.466
_cell_angle_alpha    89.8893
_cell_angle_beta     90.1162
_cell_angle_gamma    89.9266

_symmetry_space_group_name_H-M    "P 1"
_symmetry_int_tables_number       1

loop_
  _symmetry_equiv_pos_as_xyz
  'x, y, z'

loop_
  _atom_site_label
  _atom_site_occupancy
  _atom_site_fract_x
  _atom_site_fract_y
  _atom_site_fract_z
  _atom_site_thermal_displace_type
  _atom_site_B_iso_or_equiv
  _atom_site_type_symbol
  La1      1.0000 0.13711  0.00963  0.16621  Biso   1.000  La
  Hf1      1.0000 0.13864  0.02100  0.67085  Biso   1.000  Hf
  Hf2      1.0000 0.13711  0.52104  0.17097  Biso   1.000  Hf
  Hf3      1.0000 0.13963  0.51852  0.67277  Biso   1.000  Hf
  Hf4      1.0000 0.13741  0.22761  0.42300  Biso   1.000  Hf
  Hf5      1.0000 0.13973  0.23114  0.91968  Biso   1.000  Hf
  Hf6      1.0000 0.13374  0.72268  0.42758  Biso   1.000  Hf
  Hf7      1.0000 0.13979  0.72685  0.91904  Biso   1.000  Hf
  Hf8      1.0000 0.36095  0.27014  0.17103  Biso   1.000  Hf
  Hf9      1.0000 0.36204  0.27042  0.67141  Biso   1.000  Hf
  Hf10     1.0000 0.37057  0.76286  0.16276  Biso   1.000  Hf
  Hf11     1.0000 0.36182  0.77042  0.66905  Biso   1.000  Hf
  Hf12     1.0000 0.36072  0.47858  0.42121  Biso   1.000  Hf
  Hf13     1.0000 0.36201  0.47728  0.92158  Biso   1.000  Hf
  Hf14     1.0000 0.36909  0.98511  0.42540  Biso   1.000  Hf
  Hf15     1.0000 0.36596  0.97983  0.91712  Biso   1.000  Hf
  Hf16     1.0000 0.63984  0.02123  0.08062  Biso   1.000  Hf
  Hf17     1.0000 0.64144  0.02272  0.58296  Biso   1.000  Hf
  Hf18     1.0000 0.64005  0.51725  0.07681  Biso   1.000  Hf
  Hf19     1.0000 0.63796  0.52104  0.57737  Biso   1.000  Hf
  Hf20     1.0000 0.63912  0.23155  0.32845  Biso   1.000  Hf
  Hf21     1.0000 0.64000  0.22888  0.82884  Biso   1.000  Hf
  Hf22     1.0000 0.63629  0.73063  0.33020  Biso   1.000  Hf
  Hf23     1.0000 0.63839  0.72829  0.82803  Biso   1.000  Hf
  Hf24     1.0000 0.86181  0.27201  0.07680  Biso   1.000  Hf
  Hf25     1.0000 0.86220  0.27232  0.57873  Biso   1.000  Hf
  Hf26     1.0000 0.85712  0.76753  0.07874  Biso   1.000  Hf
  Hf27     1.0000 0.86024  0.77167  0.57983  Biso   1.000  Hf
  Hf28     1.0000 0.86028  0.47930  0.32815  Biso   1.000  Hf
  Hf29     1.0000 0.86119  0.47888  0.82655  Biso   1.000  Hf
  Hf30     1.0000 0.85556  0.98040  0.33351  Biso   1.000  Hf
  Hf31     1.0000 0.86317  0.97885  0.83096  Biso   1.000  Hf
  O1       1.0000 0.03474  0.18166  0.08165  Biso   1.000  O 
  O2       1.0000 0.03543  0.17203  0.59110  Biso   1.000  O 
  O3       1.0000 0.03539  0.67093  0.08556  Biso   1.000  O 
  O4       1.0000 0.03239  0.66577  0.58682  Biso   1.000  O 
  O5       1.0000 0.02545  0.08331  0.35038  Biso   1.000  O 
  O6       1.0000 0.03706  0.07988  0.83755  Biso   1.000  O 
  O7       1.0000 0.03223  0.58097  0.33587  Biso   1.000  O 
  O8       1.0000 0.03379  0.58140  0.83430  Biso   1.000  O 
  O9       1.0000 0.46792  0.41384  0.08284  Biso   1.000  O 
  O10      1.0000 0.46682  0.41524  0.58194  Biso   1.000  O 
  O11      1.0000 0.46886  0.91744  0.08327  Biso   1.000  O 
  O12      1.0000 0.46906  0.91701  0.58668  Biso   1.000  O 
  O13      1.0000 0.46798  0.33676  0.33303  Biso   1.000  O 
  O14      1.0000 0.46794  0.33365  0.83286  Biso   1.000  O 
  O15      1.0000 0.45501  0.83308  0.33223  Biso   1.000  O 
  O16      1.0000 0.46806  0.83331  0.83107  Biso   1.000  O 
  O17      1.0000 0.28282  0.12700  0.30391  Biso   1.000  O 
  O18      1.0000 0.27640  0.12335  0.79195  Biso   1.000  O 
  O19      1.0000 0.27122  0.63315  0.29472  Biso   1.000  O 
  O20      1.0000 0.27729  0.62346  0.79456  Biso   1.000  O 
  O21      1.0000 0.28755  0.13381  0.03477  Biso   1.000  O 
  O22      1.0000 0.27591  0.12571  0.54782  Biso   1.000  O 
  O23      1.0000 0.27560  0.61884  0.04514  Biso   1.000  O 
  O24      1.0000 0.27469  0.62359  0.54669  Biso   1.000  O 
  O25      1.0000 0.22387  0.37609  0.29466  Biso   1.000  O 
  O26      1.0000 0.22526  0.37409  0.79427  Biso   1.000  O 
  O27      1.0000 0.22428  0.87250  0.78788  Biso   1.000  O 
  O28      1.0000 0.22287  0.37711  0.04469  Biso   1.000  O 
  O29      1.0000 0.22436  0.37559  0.54509  Biso   1.000  O 
  O30      1.0000 0.24220  0.86038  0.03197  Biso   1.000  O 
  O31      1.0000 0.22545  0.87620  0.53457  Biso   1.000  O 
  O32      1.0000 0.53391  0.16601  0.16724  Biso   1.000  O 
  O33      1.0000 0.53443  0.16661  0.66613  Biso   1.000  O 
  O34      1.0000 0.53597  0.66158  0.16623  Biso   1.000  O 
  O35      1.0000 0.53292  0.66482  0.66608  Biso   1.000  O 
  O36      1.0000 0.53771  0.08522  0.41869  Biso   1.000  O 
  O37      1.0000 0.53838  0.08186  0.91358  Biso   1.000  O 
  O38      1.0000 0.52974  0.58652  0.41673  Biso   1.000  O 
  O39      1.0000 0.53211  0.58506  0.91733  Biso   1.000  O 
  O40      1.0000 0.96247  0.42253  0.16231  Biso   1.000  O 
  O41      1.0000 0.96557  0.41981  0.66288  Biso   1.000  O 
  O42      1.0000 0.94009  0.91474  0.16931  Biso   1.000  O 
  O43      1.0000 0.96591  0.91715  0.66513  Biso   1.000  O 
  O44      1.0000 0.96568  0.33413  0.41512  Biso   1.000  O 
  O45      1.0000 0.96445  0.33330  0.90970  Biso   1.000  O 
  O46      1.0000 0.96634  0.83238  0.41565  Biso   1.000  O 
  O47      1.0000 0.96902  0.83416  0.91788  Biso   1.000  O 
  O48      1.0000 0.77854  0.12331  0.95652  Biso   1.000  O 
  O49      1.0000 0.77409  0.12653  0.45914  Biso   1.000  O 
  O50      1.0000 0.77534  0.62130  0.95360  Biso   1.000  O 
  O51      1.0000 0.77404  0.62564  0.45444  Biso   1.000  O 
  O52      1.0000 0.77632  0.12806  0.20767  Biso   1.000  O 
  O53      1.0000 0.77803  0.12672  0.70741  Biso   1.000  O 
  O54      1.0000 0.77413  0.62721  0.20606  Biso   1.000  O 
  O55      1.0000 0.77541  0.62697  0.70381  Biso   1.000  O 
  O56      1.0000 0.72314  0.37355  0.95346  Biso   1.000  O 
  O57      1.0000 0.72365  0.37620  0.45414  Biso   1.000  O 
  O58      1.0000 0.72458  0.87239  0.95584  Biso   1.000  O 
  O59      1.0000 0.72202  0.87409  0.45833  Biso   1.000  O 
  O60      1.0000 0.72343  0.37652  0.20467  Biso   1.000  O 
  O61      1.0000 0.72383  0.37631  0.70366  Biso   1.000  O 
  O62      1.0000 0.70795  0.87661  0.20938  Biso   1.000  O 
  O63      1.0000 0.72528  0.87632  0.70707  Biso   1.000  O 
