data_image0
_cell_length_a       10.0782
_cell_length_b       10.266
_cell_length_c       10.4723
_cell_angle_alpha    90.1088
_cell_angle_beta     89.9242
_cell_angle_gamma    89.8893

_symmetry_space_group_name_H-M    "P 1"
_symmetry_int_tables_number       1

loop_
  _symmetry_equiv_pos_as_xyz
  'x, y, z'

loop_
  _atom_site_label
  _atom_site_occupancy
  _atom_site_fract_x
  _atom_site_fract_y
  _atom_site_fract_z
  _atom_site_thermal_displace_type
  _atom_site_B_iso_or_equiv
  _atom_site_type_symbol
  La1      1.0000 0.13238  0.01157  0.16253  Biso   1.000  La
  Hf1      1.0000 0.13989  0.02046  0.67215  Biso   1.000  Hf
  Hf2      1.0000 0.13832  0.52198  0.17106  Biso   1.000  Hf
  Hf3      1.0000 0.13792  0.52303  0.67195  Biso   1.000  Hf
  Hf4      1.0000 0.14595  0.23621  0.42723  Biso   1.000  Hf
  Hf5      1.0000 0.13946  0.23401  0.91951  Biso   1.000  Hf
  Hf6      1.0000 0.13865  0.72910  0.42240  Biso   1.000  Hf
  Hf7      1.0000 0.14063  0.72825  0.92097  Biso   1.000  Hf
  Hf8      1.0000 0.35980  0.27079  0.17076  Biso   1.000  Hf
  Hf9      1.0000 0.36386  0.27109  0.67309  Biso   1.000  Hf
  Hf10     1.0000 0.36600  0.76810  0.17178  Biso   1.000  Hf
  Hf11     1.0000 0.36158  0.77105  0.67155  Biso   1.000  Hf
  Hf12     1.0000 0.36228  0.47986  0.42048  Biso   1.000  Hf
  Hf13     1.0000 0.36183  0.47897  0.92224  Biso   1.000  Hf
  Hf14     1.0000 0.36178  0.97818  0.42280  Biso   1.000  Hf
  Hf15     1.0000 0.36547  0.98020  0.91883  Biso   1.000  Hf
  Hf16     1.0000 0.63829  0.02151  0.07904  Biso   1.000  Hf
  Hf17     1.0000 0.63719  0.02115  0.58143  Biso   1.000  Hf
  Hf18     1.0000 0.63818  0.51878  0.07752  Biso   1.000  Hf
  Hf19     1.0000 0.63931  0.52005  0.57830  Biso   1.000  Hf
  Hf20     1.0000 0.63691  0.22938  0.32865  Biso   1.000  Hf
  Hf21     1.0000 0.64070  0.22918  0.82889  Biso   1.000  Hf
  Hf22     1.0000 0.63671  0.72497  0.32983  Biso   1.000  Hf
  Hf23     1.0000 0.63846  0.72854  0.82748  Biso   1.000  Hf
  Hf24     1.0000 0.86018  0.27443  0.07662  Biso   1.000  Hf
  Hf25     1.0000 0.86178  0.26905  0.57628  Biso   1.000  Hf
  Hf26     1.0000 0.85745  0.76719  0.07785  Biso   1.000  Hf
  Hf27     1.0000 0.86222  0.77205  0.57985  Biso   1.000  Hf
  Hf28     1.0000 0.86233  0.47855  0.32763  Biso   1.000  Hf
  Hf29     1.0000 0.86086  0.47922  0.82545  Biso   1.000  Hf
  Hf30     1.0000 0.84061  0.97168  0.33159  Biso   1.000  Hf
  Hf31     1.0000 0.86309  0.97951  0.83033  Biso   1.000  Hf
  O1       1.0000 0.03302  0.18597  0.08143  Biso   1.000  O 
  O2       1.0000 0.03203  0.15983  0.57584  Biso   1.000  O 
  O3       1.0000 0.03449  0.66915  0.08402  Biso   1.000  O 
  O4       1.0000 0.03245  0.66649  0.58384  Biso   1.000  O 
  O5       1.0000 0.03422  0.08657  0.83416  Biso   1.000  O 
  O6       1.0000 0.03238  0.58528  0.33539  Biso   1.000  O 
  O7       1.0000 0.03159  0.58589  0.83111  Biso   1.000  O 
  O8       1.0000 0.46687  0.41404  0.08346  Biso   1.000  O 
  O9       1.0000 0.46718  0.41567  0.58379  Biso   1.000  O 
  O10      1.0000 0.46833  0.91815  0.08518  Biso   1.000  O 
  O11      1.0000 0.46632  0.91664  0.58546  Biso   1.000  O 
  O12      1.0000 0.46633  0.33449  0.33409  Biso   1.000  O 
  O13      1.0000 0.46817  0.33365  0.83446  Biso   1.000  O 
  O14      1.0000 0.46937  0.83294  0.33579  Biso   1.000  O 
  O15      1.0000 0.46913  0.83464  0.83152  Biso   1.000  O 
  O16      1.0000 0.27259  0.12947  0.30555  Biso   1.000  O 
  O17      1.0000 0.27603  0.12414  0.79277  Biso   1.000  O 
  O18      1.0000 0.27669  0.62163  0.29508  Biso   1.000  O 
  O19      1.0000 0.27649  0.62436  0.79508  Biso   1.000  O 
  O20      1.0000 0.28731  0.13588  0.03462  Biso   1.000  O 
  O21      1.0000 0.27811  0.12676  0.54884  Biso   1.000  O 
  O22      1.0000 0.27561  0.62177  0.04608  Biso   1.000  O 
  O23      1.0000 0.27506  0.62582  0.54512  Biso   1.000  O 
  O24      1.0000 0.22347  0.37621  0.29467  Biso   1.000  O 
  O25      1.0000 0.22530  0.37598  0.79381  Biso   1.000  O 
  O26      1.0000 0.23264  0.86432  0.30195  Biso   1.000  O 
  O27      1.0000 0.22491  0.87432  0.79289  Biso   1.000  O 
  O28      1.0000 0.22284  0.37889  0.04475  Biso   1.000  O 
  O29      1.0000 0.22506  0.37631  0.54487  Biso   1.000  O 
  O30      1.0000 0.24235  0.86249  0.03403  Biso   1.000  O 
  O31      1.0000 0.22459  0.87602  0.54650  Biso   1.000  O 
  O32      1.0000 0.53269  0.16615  0.16691  Biso   1.000  O 
  O33      1.0000 0.53476  0.16648  0.66688  Biso   1.000  O 
  O34      1.0000 0.53331  0.66150  0.16739  Biso   1.000  O 
  O35      1.0000 0.53354  0.66495  0.66561  Biso   1.000  O 
  O36      1.0000 0.53416  0.08306  0.41678  Biso   1.000  O 
  O37      1.0000 0.53851  0.08222  0.91368  Biso   1.000  O 
  O38      1.0000 0.53342  0.58145  0.41675  Biso   1.000  O 
  O39      1.0000 0.53226  0.58528  0.91700  Biso   1.000  O 
  O40      1.0000 0.96296  0.42345  0.16277  Biso   1.000  O 
  O41      1.0000 0.96840  0.41457  0.66120  Biso   1.000  O 
  O42      1.0000 0.94113  0.90939  0.17708  Biso   1.000  O 
  O43      1.0000 0.96820  0.91339  0.67108  Biso   1.000  O 
  O44      1.0000 0.96690  0.32601  0.40855  Biso   1.000  O 
  O45      1.0000 0.96480  0.33736  0.91079  Biso   1.000  O 
  O46      1.0000 0.96806  0.84425  0.42030  Biso   1.000  O 
  O47      1.0000 0.97196  0.84074  0.92381  Biso   1.000  O 
  O48      1.0000 0.77801  0.12504  0.95615  Biso   1.000  O 
  O49      1.0000 0.77431  0.12188  0.45671  Biso   1.000  O 
  O50      1.0000 0.77505  0.62206  0.95298  Biso   1.000  O 
  O51      1.0000 0.77695  0.62298  0.45509  Biso   1.000  O 
  O52      1.0000 0.77592  0.12575  0.20759  Biso   1.000  O 
  O53      1.0000 0.77786  0.12644  0.70547  Biso   1.000  O 
  O54      1.0000 0.77529  0.62520  0.20486  Biso   1.000  O 
  O55      1.0000 0.77587  0.62672  0.70358  Biso   1.000  O 
  O56      1.0000 0.72259  0.37486  0.95289  Biso   1.000  O 
  O57      1.0000 0.72596  0.37280  0.45467  Biso   1.000  O 
  O58      1.0000 0.72532  0.87293  0.95546  Biso   1.000  O 
  O59      1.0000 0.71878  0.86902  0.45885  Biso   1.000  O 
  O60      1.0000 0.72243  0.37622  0.20523  Biso   1.000  O 
  O61      1.0000 0.72506  0.37570  0.70337  Biso   1.000  O 
  O62      1.0000 0.70816  0.87475  0.20806  Biso   1.000  O 
  O63      1.0000 0.72511  0.87692  0.70645  Biso   1.000  O 
