data_image0
_cell_length_a       5.18863
_cell_length_b       10.348
_cell_length_c       10.0888
_cell_angle_alpha    91.2239
_cell_angle_beta     90.3576
_cell_angle_gamma    93.5616

_symmetry_space_group_name_H-M    "P 1"
_symmetry_int_tables_number       1

loop_
  _symmetry_equiv_pos_as_xyz
  'x, y, z'

loop_
  _atom_site_label
  _atom_site_occupancy
  _atom_site_fract_x
  _atom_site_fract_y
  _atom_site_fract_z
  _atom_site_thermal_displace_type
  _atom_site_B_iso_or_equiv
  _atom_site_type_symbol
  Hf1      1.0000 0.20070  0.97670  0.10966  Biso   1.000  Hf
  Hf2      1.0000 0.20244  0.23951  0.41388  Biso   1.000  Hf
  Hf3      1.0000 0.80237  0.25676  0.12888  Biso   1.000  Hf
  Hf4      1.0000 0.71899  0.01800  0.37186  Biso   1.000  Hf
  O1       1.0000 0.01405  0.13143  0.99848  Biso   1.000  O
  O2       1.0000 0.02450  0.11579  0.25879  Biso   1.000  O
  O3       1.0000 0.04705  0.38667  0.26918  Biso   1.000  O
  O4       1.0000 0.04869  0.39590  0.00322  Biso   1.000  O
  O5       1.0000 0.58661  0.19053  0.29856  Biso   1.000  O
  O6       1.0000 0.53669  0.08464  0.04161  Biso   1.000  O
  O7       1.0000 0.58484  0.32141  0.96183  Biso   1.000  O
  O8       1.0000 0.57055  0.44423  0.21472  Biso   1.000  O
  Hf5      1.0000 0.27366  0.97303  0.64467  Biso   1.000  Hf
  Hf6      1.0000 0.23488  0.24232  0.84559  Biso   1.000  Hf
  Hf7      1.0000 0.69045  0.25706  0.61791  Biso   1.000  Hf
  Hf8      1.0000 0.73500  0.00967  0.88894  Biso   1.000  Hf
  O9       1.0000 0.91426  0.14248  0.51130  Biso   1.000  O
  O10      1.0000 0.03372  0.06919  0.76373  Biso   1.000  O
  O11      1.0000 0.92991  0.31992  0.76435  Biso   1.000  O
  O12      1.0000 0.98984  0.38899  0.51840  Biso   1.000  O
  O13      1.0000 0.51511  0.12840  0.75965  Biso   1.000  O
  O14      1.0000 0.42168  0.11182  0.51358  Biso   1.000  O
  O15      1.0000 0.49037  0.37143  0.48634  Biso   1.000  O
  O16      1.0000 0.45691  0.38589  0.73603  Biso   1.000  O
  Hf9      1.0000 0.22983  0.53984  0.13895  Biso   1.000  Hf
  Hf10     1.0000 0.19533  0.78341  0.36157  Biso   1.000  Hf
  Hf11     1.0000 0.73385  0.74096  0.10306  Biso   1.000  Hf
  Hf12     1.0000 0.77957  0.49578  0.37974  Biso   1.000  Hf
  O17      1.0000 0.00155  0.63768  0.99714  Biso   1.000  O
  O18      1.0000 0.95327  0.63356  0.25084  Biso   1.000  O
  O19      1.0000 0.91241  0.87223  0.24368  Biso   1.000  O
  O20      1.0000 0.93319  0.87773  0.98612  Biso   1.000  O
  O21      1.0000 0.43525  0.69220  0.23157  Biso   1.000  O
  O22      1.0000 0.50312  0.59185  0.98884  Biso   1.000  O
  O23      1.0000 0.43548  0.84177  0.00778  Biso   1.000  O
  O24      1.0000 0.39952  0.93894  0.27330  Biso   1.000  O
  Hf13     1.0000 0.28872  0.51413  0.60577  Biso   1.000  Hf
  Hf14     1.0000 0.27936  0.71844  0.85697  Biso   1.000  Hf
  Hf15     1.0000 0.75248  0.75757  0.60414  Biso   1.000  Hf
  Hf16     1.0000 0.77197  0.47766  0.87684  Biso   1.000  Hf
  O25      1.0000 0.04219  0.64472  0.50133  Biso   1.000  O
  O26      1.0000 0.06411  0.56290  0.76125  Biso   1.000  O
  O27      1.0000 0.06637  0.81247  0.72584  Biso   1.000  O
  O28      1.0000 0.98994  0.90202  0.49579  Biso   1.000  O
  O29      1.0000 0.54943  0.63436  0.73712  Biso   1.000  O
  O30      1.0000 0.55012  0.61431  0.48733  Biso   1.000  O
  O31      1.0000 0.49319  0.86131  0.49955  Biso   1.000  O
  O32      1.0000 0.55090  0.87893  0.75194  Biso   1.000  O
  La1      1.0000 0.30877  0.26026  0.13385  Biso   1.000  La
