data_image0
_cell_length_a       10.1995
_cell_length_b       5.16861
_cell_length_c       10.4544
_cell_angle_alpha    90.0692
_cell_angle_beta     80.9205
_cell_angle_gamma    90.3722

_symmetry_space_group_name_H-M    "P 1"
_symmetry_int_tables_number       1

loop_
  _symmetry_equiv_pos_as_xyz
  'x, y, z'

loop_
  _atom_site_label
  _atom_site_occupancy
  _atom_site_fract_x
  _atom_site_fract_y
  _atom_site_fract_z
  _atom_site_thermal_displace_type
  _atom_site_B_iso_or_equiv
  _atom_site_type_symbol
  La1      1.0000 0.12798  0.01742  0.13662  Biso   1.000  La
  Hf1      1.0000 0.13866  0.45107  0.39601  Biso   1.000  Hf
  Hf2      1.0000 0.36646  0.52765  0.10235  Biso   1.000  Hf
  Hf3      1.0000 0.35938  0.95548  0.35233  Biso   1.000  Hf
  O1       1.0000 0.04312  0.41351  0.08591  Biso   1.000  O
  O2       1.0000 0.02487  0.16046  0.34657  Biso   1.000  O
  O3       1.0000 0.46620  0.83373  0.16846  Biso   1.000  O
  O4       1.0000 0.46213  0.65955  0.42138  Biso   1.000  O
  O5       1.0000 0.28134  0.25356  0.24502  Biso   1.000  O
  O6       1.0000 0.27432  0.23978  0.49123  Biso   1.000  O
  O7       1.0000 0.24541  0.73461  0.99206  Biso   1.000  O
  O8       1.0000 0.23343  0.71715  0.26096  Biso   1.000  O
  Hf4      1.0000 0.13995  0.04251  0.64538  Biso   1.000  Hf
  Hf5      1.0000 0.14147  0.46541  0.89195  Biso   1.000  Hf
  Hf6      1.0000 0.35956  0.54179  0.60282  Biso   1.000  Hf
  Hf7      1.0000 0.36656  0.95583  0.85095  Biso   1.000  Hf
  O9       1.0000 0.03874  0.35116  0.58729  Biso   1.000  O
  O10      1.0000 0.04122  0.14873  0.83828  Biso   1.000  O
  O11      1.0000 0.46696  0.83383  0.66903  Biso   1.000  O
  O12      1.0000 0.47778  0.66864  0.91829  Biso   1.000  O
  O13      1.0000 0.27696  0.25883  0.73764  Biso   1.000  O
  O14      1.0000 0.28519  0.24566  0.97938  Biso   1.000  O
  O15      1.0000 0.22291  0.75983  0.50878  Biso   1.000  O
  O16      1.0000 0.22479  0.74404  0.75446  Biso   1.000  O
  Hf8      1.0000 0.64077  0.03471  0.14721  Biso   1.000  Hf
  Hf9      1.0000 0.63361  0.45566  0.39879  Biso   1.000  Hf
  Hf10     1.0000 0.85726  0.53508  0.10391  Biso   1.000  Hf
  Hf11     1.0000 0.85228  0.96074  0.36166  Biso   1.000  Hf
  O17      1.0000 0.54025  0.33149  0.07873  Biso   1.000  O
  O18      1.0000 0.53430  0.15827  0.33074  Biso   1.000  O
  O19      1.0000 0.91888  0.87547  0.16739  Biso   1.000  O
  O20      1.0000 0.96267  0.66041  0.41620  Biso   1.000  O
  O21      1.0000 0.77089  0.26708  0.24571  Biso   1.000  O
  O22      1.0000 0.77156  0.24448  0.49490  Biso   1.000  O
  O23      1.0000 0.72468  0.75566  0.00855  Biso   1.000  O
  O24      1.0000 0.70884  0.74173  0.26725  Biso   1.000  O
  Hf12     1.0000 0.64018  0.04255  0.64732  Biso   1.000  Hf
  Hf13     1.0000 0.64407  0.45790  0.89505  Biso   1.000  Hf
  Hf14     1.0000 0.86372  0.54436  0.60450  Biso   1.000  Hf
  Hf15     1.0000 0.86328  0.95814  0.85452  Biso   1.000  Hf
  O25      1.0000 0.53241  0.33322  0.58209  Biso   1.000  O
  O26      1.0000 0.54040  0.16176  0.82900  Biso   1.000  O
  O27      1.0000 0.96331  0.85003  0.66699  Biso   1.000  O
  O28      1.0000 0.96208  0.65456  0.91267  Biso   1.000  O
  O29      1.0000 0.77968  0.25996  0.74089  Biso   1.000  O
  O30      1.0000 0.77858  0.23742  0.99172  Biso   1.000  O
  O31      1.0000 0.72321  0.75726  0.51267  Biso   1.000  O
  O32      1.0000 0.72766  0.74184  0.75842  Biso   1.000  O
