data_image0
_cell_length_a       10.1508
_cell_length_b       10.3046
_cell_length_c       5.32537
_cell_angle_alpha    89.8842
_cell_angle_beta     91.965
_cell_angle_gamma    89.5982

_symmetry_space_group_name_H-M    "P 1"
_symmetry_int_tables_number       1

loop_
  _symmetry_equiv_pos_as_xyz
  'x, y, z'

loop_
  _atom_site_label
  _atom_site_occupancy
  _atom_site_fract_x
  _atom_site_fract_y
  _atom_site_fract_z
  _atom_site_thermal_displace_type
  _atom_site_B_iso_or_equiv
  _atom_site_type_symbol
  Hf1      1.0000 0.13856  0.01902  0.34963  Biso   1.000  Hf
  Hf2      1.0000 0.14296  0.22741  0.85242  Biso   1.000  Hf
  Hf3      1.0000 0.35068  0.26851  0.37980  Biso   1.000  Hf
  Hf4      1.0000 0.36079  0.48226  0.86115  Biso   1.000  Hf
  Hf5      1.0000 0.63348  0.99544  0.16130  Biso   1.000  Hf
  Hf6      1.0000 0.64399  0.22185  0.60624  Biso   1.000  Hf
  Hf7      1.0000 0.87871  0.27652  0.13689  Biso   1.000  Hf
  Hf8      1.0000 0.86596  0.48241  0.64660  Biso   1.000  Hf
  O1       1.0000 0.03457  0.15657  0.15175  Biso   1.000  O
  O2       1.0000 0.03118  0.09199  0.65400  Biso   1.000  O
  O3       1.0000 0.45501  0.43386  0.20703  Biso   1.000  O
  O4       1.0000 0.47209  0.33214  0.68908  Biso   1.000  O
  O5       1.0000 0.27002  0.12351  0.60761  Biso   1.000  O
  O6       1.0000 0.27632  0.12295  0.10466  Biso   1.000  O
  O7       1.0000 0.22392  0.37611  0.61390  Biso   1.000  O
  O8       1.0000 0.22255  0.37351  0.10834  Biso   1.000  O
  O9       1.0000 0.50734  0.12117  0.38511  Biso   1.000  O
  O10      1.0000 0.52961  0.07650  0.85002  Biso   1.000  O
  O11      1.0000 0.97417  0.41284  0.34336  Biso   1.000  O
  O12      1.0000 0.97973  0.34247  0.83703  Biso   1.000  O
  O13      1.0000 0.77757  0.12981  0.87470  Biso   1.000  O
  O14      1.0000 0.77251  0.12455  0.36671  Biso   1.000  O
  O15      1.0000 0.74210  0.39092  0.89072  Biso   1.000  O
  O16      1.0000 0.72763  0.38065  0.39295  Biso   1.000  O
  Hf9      1.0000 0.14217  0.52138  0.35023  Biso   1.000  Hf
  Hf10     1.0000 0.13689  0.73029  0.84814  Biso   1.000  Hf
  Hf11     1.0000 0.35877  0.76794  0.35681  Biso   1.000  Hf
  Hf12     1.0000 0.36046  0.97473  0.85293  Biso   1.000  Hf
  Hf13     1.0000 0.64279  0.53870  0.15350  Biso   1.000  Hf
  Hf14     1.0000 0.64060  0.73103  0.65855  Biso   1.000  Hf
  Hf15     1.0000 0.86792  0.77211  0.15870  Biso   1.000  Hf
  Hf16     1.0000 0.86465  0.98426  0.65544  Biso   1.000  Hf
  O17      1.0000 0.03405  0.66152  0.16025  Biso   1.000  O
  O18      1.0000 0.03426  0.59173  0.65837  Biso   1.000  O
  O19      1.0000 0.46650  0.89394  0.15367  Biso   1.000  O
  O20      1.0000 0.46941  0.83820  0.66200  Biso   1.000  O
  O21      1.0000 0.27567  0.62469  0.59985  Biso   1.000  O
  O22      1.0000 0.27344  0.62578  0.09544  Biso   1.000  O
  O23      1.0000 0.22432  0.87284  0.60064  Biso   1.000  O
  O24      1.0000 0.22256  0.87540  0.10224  Biso   1.000  O
  O25      1.0000 0.53336  0.66650  0.34923  Biso   1.000  O
  O26      1.0000 0.53048  0.58971  0.84303  Biso   1.000  O
  O27      1.0000 0.97010  0.91344  0.34293  Biso   1.000  O
  O28      1.0000 0.96983  0.84246  0.84471  Biso   1.000  O
  O29      1.0000 0.77926  0.63238  0.90364  Biso   1.000  O
  O30      1.0000 0.78102  0.63017  0.40741  Biso   1.000  O
  O31      1.0000 0.72860  0.87536  0.91429  Biso   1.000  O
  O32      1.0000 0.73096  0.87066  0.42174  Biso   1.000  O
  La1      1.0000 0.58929  0.26209  0.08581  Biso   1.000  La
