data_image0
_cell_length_a       10.1515
_cell_length_b       10.3702
_cell_length_c       5.2226
_cell_angle_alpha    90
_cell_angle_beta     90
_cell_angle_gamma    90

_symmetry_space_group_name_H-M    "P 1"
_symmetry_int_tables_number       1

loop_
  _symmetry_equiv_pos_as_xyz
  'x, y, z'

loop_
  _atom_site_label
  _atom_site_occupancy
  _atom_site_fract_x
  _atom_site_fract_y
  _atom_site_fract_z
  _atom_site_thermal_displace_type
  _atom_site_B_iso_or_equiv
  _atom_site_type_symbol
  La1      1.0000 0.10663  0.00792  0.28650  Biso   1.000  La
  Hf1      1.0000 0.14514  0.52602  0.30245  Biso   1.000  Hf
  Hf2      1.0000 0.13426  0.23098  0.81624  Biso   1.000  Hf
  Hf3      1.0000 0.13211  0.73639  0.81262  Biso   1.000  Hf
  Hf4      1.0000 0.35551  0.26707  0.33092  Biso   1.000  Hf
  Hf5      1.0000 0.36894  0.77174  0.33103  Biso   1.000  Hf
  Hf6      1.0000 0.35089  0.47783  0.82508  Biso   1.000  Hf
  Hf7      1.0000 0.36120  0.98209  0.82533  Biso   1.000  Hf
  Hf8      1.0000 0.63393  0.01921  0.17451  Biso   1.000  Hf
  Hf9      1.0000 0.63692  0.51518  0.17374  Biso   1.000  Hf
  Hf10     1.0000 0.62926  0.23015  0.66827  Biso   1.000  Hf
  Hf11     1.0000 0.62911  0.72553  0.66811  Biso   1.000  Hf
  Hf12     1.0000 0.85040  0.26640  0.18293  Biso   1.000  Hf
  Hf13     1.0000 0.86671  0.76021  0.18613  Biso   1.000  Hf
  La2      1.0000 0.87816  0.48955  0.71209  Biso   1.000  La
  Hf14     1.0000 0.85292  0.97123  0.69707  Biso   1.000  Hf
  Hf15     1.0000 0.04260  0.20872  0.21193  Biso   1.000  Hf
  Hf16     1.0000 0.02385  0.63692  0.06045  Biso   1.000  Hf
  Hf17     1.0000 0.01514  0.07609  0.73471  Biso   1.000  Hf
  Hf18     1.0000 0.03480  0.62777  0.55538  Biso   1.000  Hf
  Hf19     1.0000 0.46186  0.41794  0.17213  Biso   1.000  Hf
  Hf20     1.0000 0.48004  0.91733  0.16543  Biso   1.000  Hf
  Hf21     1.0000 0.45448  0.32973  0.66735  Biso   1.000  Hf
  Hf22     1.0000 0.46671  0.83534  0.66187  Biso   1.000  Hf
  Hf23     1.0000 0.26538  0.12762  0.57618  Biso   1.000  Hf
  Hf24     1.0000 0.27901  0.62087  0.56626  Biso   1.000  Hf
  Hf25     1.0000 0.28470  0.13290  0.06110  Biso   1.000  Hf
  Hf26     1.0000 0.27546  0.62873  0.06500  Biso   1.000  Hf
  Hf27     1.0000 0.21089  0.37759  0.56315  Biso   1.000  Hf
  Hf28     1.0000 0.23164  0.87001  0.56937  Biso   1.000  Hf
  Hf29     1.0000 0.22811  0.37920  0.05741  Biso   1.000  Hf
  Hf30     1.0000 0.25518  0.86859  0.05233  Biso   1.000  Hf
  Hf31     1.0000 0.53021  0.16749  0.33187  Biso   1.000  Hf
  Hf32     1.0000 0.53112  0.66166  0.33766  Biso   1.000  Hf
  Hf33     1.0000 0.52293  0.07919  0.82717  Biso   1.000  Hf
  Hf34     1.0000 0.51790  0.57991  0.83409  Biso   1.000  Hf
  Hf35     1.0000 0.96962  0.42108  0.26549  Biso   1.000  Hf
  Hf36     1.0000 0.96243  0.87105  0.44076  Biso   1.000  Hf
  Hf37     1.0000 0.94219  0.28878  0.78761  Biso   1.000  Hf
  Hf38     1.0000 0.97444  0.85931  0.93621  Biso   1.000  Hf
  Hf39     1.0000 0.75656  0.11810  0.94195  Biso   1.000  Hf
  Hf40     1.0000 0.74288  0.62854  0.94631  Biso   1.000  Hf
  Hf41     1.0000 0.77375  0.11981  0.43610  Biso   1.000  Hf
  Hf42     1.0000 0.76629  0.62724  0.42935  Biso   1.000  Hf
  Hf43     1.0000 0.70010  0.36446  0.93789  Biso   1.000  Hf
  Hf44     1.0000 0.72290  0.86836  0.93516  Biso   1.000  Hf
  Hf45     1.0000 0.71926  0.36969  0.42290  Biso   1.000  Hf
  Hf46     1.0000 0.71861  0.87631  0.43408  Biso   1.000  Hf
