data_image0
_cell_length_a       10.2583
_cell_length_b       10.4292
_cell_length_c       5.31378
_cell_angle_alpha    90
_cell_angle_beta     80
_cell_angle_gamma    90

_symmetry_space_group_name_H-M    "P 1"
_symmetry_int_tables_number       1

loop_
  _symmetry_equiv_pos_as_xyz
  'x, y, z'

loop_
  _atom_site_label
  _atom_site_occupancy
  _atom_site_fract_x
  _atom_site_fract_y
  _atom_site_fract_z
  _atom_site_thermal_displace_type
  _atom_site_B_iso_or_equiv
  _atom_site_type_symbol
  La1      1.0000 0.11745  0.00494  0.27341  Biso   1.000  La
  Hf1      1.0000 0.12802  0.51994  0.29497  Biso   1.000  Hf
  Hf2      1.0000 0.63927  0.01987  0.29479  Biso   1.000  Hf
  La2      1.0000 0.60600  0.50455  0.27295  Biso   1.000  La
  Hf3      1.0000 0.11854  0.22816  0.79180  Biso   1.000  Hf
  Hf4      1.0000 0.11844  0.72581  0.78969  Biso   1.000  Hf
  Hf5      1.0000 0.62975  0.22578  0.78945  Biso   1.000  Hf
  Hf6      1.0000 0.60742  0.72809  0.79139  Biso   1.000  Hf
  Hf7      1.0000 0.35783  0.25152  0.18954  Biso   1.000  Hf
  Hf8      1.0000 0.34510  0.77211  0.21046  Biso   1.000  Hf
  Hf9      1.0000 0.85620  0.27220  0.21042  Biso   1.000  Hf
  Hf10     1.0000 0.84631  0.75158  0.19007  Biso   1.000  Hf
  Hf11     1.0000 0.33466  0.47416  0.73950  Biso   1.000  Hf
  Hf12     1.0000 0.33298  0.98162  0.69593  Biso   1.000  Hf
  Hf13     1.0000 0.84389  0.48191  0.69560  Biso   1.000  Hf
  Hf14     1.0000 0.82373  0.97389  0.73899  Biso   1.000  Hf
  Hf15     1.0000 0.03064  0.18839  0.15158  Biso   1.000  Hf
  Hf16     1.0000 0.02512  0.66672  0.14872  Biso   1.000  Hf
  Hf17     1.0000 0.53665  0.16706  0.14900  Biso   1.000  Hf
  Hf18     1.0000 0.51953  0.68821  0.15151  Biso   1.000  Hf
  Hf19     1.0000 0.01239  0.08361  0.68491  Biso   1.000  Hf
  Hf20     1.0000 0.01255  0.59061  0.64458  Biso   1.000  Hf
  Hf21     1.0000 0.52386  0.09049  0.64482  Biso   1.000  Hf
  Hf22     1.0000 0.50120  0.58347  0.68464  Biso   1.000  Hf
  Hf23     1.0000 0.40951  0.40057  0.38666  Biso   1.000  Hf
  Hf24     1.0000 0.43820  0.92692  0.33281  Biso   1.000  Hf
  Hf25     1.0000 0.94927  0.42687  0.33292  Biso   1.000  Hf
  Hf26     1.0000 0.89918  0.90038  0.38623  Biso   1.000  Hf
  Hf27     1.0000 0.45937  0.34156  0.86627  Biso   1.000  Hf
  Hf28     1.0000 0.44201  0.84188  0.83208  Biso   1.000  Hf
  Hf29     1.0000 0.95310  0.34208  0.83198  Biso   1.000  Hf
  Hf30     1.0000 0.94805  0.84126  0.86608  Biso   1.000  Hf
  Hf31     1.0000 0.26461  0.13761  0.48283  Biso   1.000  Hf
  Hf32     1.0000 0.25901  0.62743  0.48431  Biso   1.000  Hf
  Hf33     1.0000 0.77026  0.12735  0.48416  Biso   1.000  Hf
  Hf34     1.0000 0.75338  0.63699  0.48246  Biso   1.000  Hf
  Hf35     1.0000 0.26351  0.12129  0.95714  Biso   1.000  Hf
  Hf36     1.0000 0.24612  0.61749  0.99117  Biso   1.000  Hf
  Hf37     1.0000 0.75741  0.11755  0.99083  Biso   1.000  Hf
  Hf38     1.0000 0.75218  0.62122  0.95695  Biso   1.000  Hf
  Hf39     1.0000 0.22291  0.37434  0.03661  Biso   1.000  Hf
  Hf40     1.0000 0.21217  0.86644  0.99528  Biso   1.000  Hf
  Hf41     1.0000 0.72345  0.36660  0.99492  Biso   1.000  Hf
  Hf42     1.0000 0.71173  0.87425  0.03581  Biso   1.000  Hf
  Hf43     1.0000 0.18180  0.38436  0.56253  Biso   1.000  Hf
  Hf44     1.0000 0.20772  0.86169  0.51987  Biso   1.000  Hf
  Hf45     1.0000 0.71868  0.36168  0.51963  Biso   1.000  Hf
  Hf46     1.0000 0.67142  0.88361  0.56077  Biso   1.000  Hf
