data_image0
_cell_length_a       5.03983
_cell_length_b       10.5197
_cell_length_c       10.1359
_cell_angle_alpha    90
_cell_angle_beta     90
_cell_angle_gamma    90

_symmetry_space_group_name_H-M    "P 1"
_symmetry_int_tables_number       1

loop_
  _symmetry_equiv_pos_as_xyz
  'x, y, z'

loop_
  _atom_site_label
  _atom_site_occupancy
  _atom_site_fract_x
  _atom_site_fract_y
  _atom_site_fract_z
  _atom_site_thermal_displace_type
  _atom_site_B_iso_or_equiv
  _atom_site_type_symbol
  La1      1.0000 0.25490  0.00905  0.12296  Biso   1.000  La
  Hf1      1.0000 0.28249  0.01839  0.62997  Biso   1.000  Hf
  Hf2      1.0000 0.26297  0.51785  0.12743  Biso   1.000  Hf
  Hf3      1.0000 0.27710  0.51763  0.62801  Biso   1.000  Hf
  Hf4      1.0000 0.27245  0.24377  0.38185  Biso   1.000  Hf
  Hf5      1.0000 0.27596  0.23786  0.87049  Biso   1.000  Hf
  Hf6      1.0000 0.27808  0.72802  0.38394  Biso   1.000  Hf
  Hf7      1.0000 0.27841  0.73214  0.87148  Biso   1.000  Hf
  Hf8      1.0000 0.71767  0.27324  0.12603  Biso   1.000  Hf
  Hf9      1.0000 0.74290  0.27250  0.63116  Biso   1.000  Hf
  Hf10     1.0000 0.72511  0.75603  0.11810  Biso   1.000  Hf
  Hf11     1.0000 0.74120  0.76724  0.62592  Biso   1.000  Hf
  Hf12     1.0000 0.73336  0.48583  0.37707  Biso   1.000  Hf
  Hf13     1.0000 0.73942  0.48517  0.87811  Biso   1.000  Hf
  La2      1.0000 0.74174  0.99499  0.37717  Biso   1.000  La
  Hf14     1.0000 0.73583  0.98395  0.87443  Biso   1.000  Hf
  Hf15     1.0000 0.02572  0.19122  0.21861  Biso   1.000  Hf
  Hf16     1.0000 0.08631  0.19010  0.68661  Biso   1.000  Hf
  Hf17     1.0000 0.07054  0.68930  0.19725  Biso   1.000  Hf
  Hf18     1.0000 0.08166  0.68343  0.69323  Biso   1.000  Hf
  Hf19     1.0000 0.14591  0.06193  0.43912  Biso   1.000  Hf
  Hf20     1.0000 0.07994  0.07340  0.91567  Biso   1.000  Hf
  Hf21     1.0000 0.08058  0.56047  0.44639  Biso   1.000  Hf
  Hf22     1.0000 0.06754  0.57244  0.94970  Biso   1.000  Hf
  Hf23     1.0000 0.92379  0.43873  0.19559  Biso   1.000  Hf
  Hf24     1.0000 0.94304  0.43708  0.70158  Biso   1.000  Hf
  Hf25     1.0000 0.83314  0.94171  0.14688  Biso   1.000  Hf
  Hf26     1.0000 0.93013  0.93795  0.68631  Biso   1.000  Hf
  Hf27     1.0000 0.92821  0.31988  0.45073  Biso   1.000  Hf
  Hf28     1.0000 0.94120  0.32158  0.94729  Biso   1.000  Hf
  Hf29     1.0000 0.94223  0.80345  0.45139  Biso   1.000  Hf
  Hf30     1.0000 0.94418  0.81742  0.93609  Biso   1.000  Hf
  Hf31     1.0000 0.51876  0.14586  0.24773  Biso   1.000  Hf
  Hf32     1.0000 0.55460  0.11973  0.75054  Biso   1.000  Hf
  Hf33     1.0000 0.53716  0.61229  0.24949  Biso   1.000  Hf
  Hf34     1.0000 0.54961  0.61779  0.75018  Biso   1.000  Hf
  Hf35     1.0000 0.53863  0.14966  0.51201  Biso   1.000  Hf
  Hf36     1.0000 0.55587  0.14264  0.99144  Biso   1.000  Hf
  Hf37     1.0000 0.55291  0.62993  0.50200  Biso   1.000  Hf
  Hf38     1.0000 0.54055  0.62905  0.99802  Biso   1.000  Hf
  Hf39     1.0000 0.46828  0.38913  0.50245  Biso   1.000  Hf
  Hf40     1.0000 0.45410  0.38519  0.00050  Biso   1.000  Hf
  Hf41     1.0000 0.44902  0.87195  0.51006  Biso   1.000  Hf
  Hf42     1.0000 0.47210  0.86819  0.98672  Biso   1.000  Hf
  Hf43     1.0000 0.45142  0.37678  0.25210  Biso   1.000  Hf
  Hf44     1.0000 0.47145  0.37161  0.75122  Biso   1.000  Hf
  Hf45     1.0000 0.46866  0.84569  0.25153  Biso   1.000  Hf
  Hf46     1.0000 0.46964  0.87001  0.74936  Biso   1.000  Hf
