data_image0
_cell_length_a       10.178
_cell_length_b       5.15446
_cell_length_c       10.1782
_cell_angle_alpha    90
_cell_angle_beta     90
_cell_angle_gamma    90

_symmetry_space_group_name_H-M    "P 1"
_symmetry_int_tables_number       1

loop_
  _symmetry_equiv_pos_as_xyz
  'x, y, z'

loop_
  _atom_site_label
  _atom_site_occupancy
  _atom_site_fract_x
  _atom_site_fract_y
  _atom_site_fract_z
  _atom_site_thermal_displace_type
  _atom_site_B_iso_or_equiv
  _atom_site_type_symbol
  La1      1.0000 0.12467  0.00230  0.12463  Biso   1.000  La
  Hf1      1.0000 0.12483  0.00216  0.62466  Biso   1.000  Hf
  Hf2      1.0000 0.62468  0.00228  0.12468  Biso   1.000  Hf
  La2      1.0000 0.62478  0.00215  0.62464  Biso   1.000  La
  Hf3      1.0000 0.12470  0.50226  0.37902  Biso   1.000  Hf
  Hf4      1.0000 0.12480  0.50212  0.87028  Biso   1.000  Hf
  Hf5      1.0000 0.62471  0.50231  0.37026  Biso   1.000  Hf
  Hf6      1.0000 0.62482  0.50201  0.87904  Biso   1.000  Hf
  Hf7      1.0000 0.37902  0.50232  0.12463  Biso   1.000  Hf
  Hf8      1.0000 0.37039  0.50224  0.62465  Biso   1.000  Hf
  Hf9      1.0000 0.87028  0.50232  0.12461  Biso   1.000  Hf
  Hf10     1.0000 0.87916  0.50208  0.62464  Biso   1.000  Hf
  Hf11     1.0000 0.37474  0.00961  0.37465  Biso   1.000  Hf
  Hf12     1.0000 0.37488  0.99459  0.87473  Biso   1.000  Hf
  Hf13     1.0000 0.87476  0.99473  0.37473  Biso   1.000  Hf
  Hf14     1.0000 0.87482  0.00948  0.87461  Biso   1.000  Hf
  Hf15     1.0000 0.99819  0.30156  0.99797  Biso   1.000  Hf
  Hf16     1.0000 0.01435  0.30026  0.51423  Biso   1.000  Hf
  Hf17     1.0000 0.51420  0.30039  0.01425  Biso   1.000  Hf
  Hf18     1.0000 0.49812  0.30172  0.49802  Biso   1.000  Hf
  Hf19     1.0000 0.98487  0.23537  0.26434  Biso   1.000  Hf
  Hf20     1.0000 0.99580  0.20398  0.75358  Biso   1.000  Hf
  Hf21     1.0000 0.49568  0.20421  0.25362  Biso   1.000  Hf
  Hf22     1.0000 0.48501  0.23525  0.76439  Biso   1.000  Hf
  Hf23     1.0000 0.99803  0.70257  0.25125  Biso   1.000  Hf
  Hf24     1.0000 0.01445  0.70373  0.73495  Biso   1.000  Hf
  Hf25     1.0000 0.51428  0.70395  0.23501  Biso   1.000  Hf
  Hf26     1.0000 0.49817  0.70245  0.75132  Biso   1.000  Hf
  Hf27     1.0000 0.98505  0.76894  0.98485  Biso   1.000  Hf
  Hf28     1.0000 0.99578  0.79999  0.49561  Biso   1.000  Hf
  Hf29     1.0000 0.49582  0.79985  0.99570  Biso   1.000  Hf
  Hf30     1.0000 0.48496  0.76902  0.48488  Biso   1.000  Hf
  Hf31     1.0000 0.25129  0.30186  0.25124  Biso   1.000  Hf
  Hf32     1.0000 0.23507  0.30061  0.73490  Biso   1.000  Hf
  Hf33     1.0000 0.73495  0.30074  0.23490  Biso   1.000  Hf
  Hf34     1.0000 0.75144  0.30161  0.75128  Biso   1.000  Hf
  Hf35     1.0000 0.26456  0.23519  0.98481  Biso   1.000  Hf
  Hf36     1.0000 0.25372  0.20415  0.49561  Biso   1.000  Hf
  Hf37     1.0000 0.75380  0.20391  0.99562  Biso   1.000  Hf
  Hf38     1.0000 0.76448  0.23532  0.48483  Biso   1.000  Hf
  Hf39     1.0000 0.25145  0.70238  0.99801  Biso   1.000  Hf
  Hf40     1.0000 0.23510  0.70387  0.51428  Biso   1.000  Hf
  Hf41     1.0000 0.73491  0.70391  0.01433  Biso   1.000  Hf
  Hf42     1.0000 0.75140  0.70252  0.49803  Biso   1.000  Hf
  Hf43     1.0000 0.26441  0.76908  0.26439  Biso   1.000  Hf
  Hf44     1.0000 0.25380  0.80032  0.75365  Biso   1.000  Hf
  Hf45     1.0000 0.75365  0.80046  0.25368  Biso   1.000  Hf
  Hf46     1.0000 0.76452  0.76889  0.76439  Biso   1.000  Hf
