data_image0
_cell_length_a       10.1808
_cell_length_b       10.3656
_cell_length_c       5.28375
_cell_angle_alpha    90
_cell_angle_beta     90
_cell_angle_gamma    90

_symmetry_space_group_name_H-M    "P 1"
_symmetry_int_tables_number       1

loop_
  _symmetry_equiv_pos_as_xyz
  'x, y, z'

loop_
  _atom_site_label
  _atom_site_occupancy
  _atom_site_fract_x
  _atom_site_fract_y
  _atom_site_fract_z
  _atom_site_thermal_displace_type
  _atom_site_B_iso_or_equiv
  _atom_site_type_symbol
  La1      1.0000 0.11573  0.99889  0.30041  Biso   1.000  La
  Hf1      1.0000 0.14093  0.51943  0.33309  Biso   1.000  Hf
  Hf2      1.0000 0.13166  0.23201  0.82366  Biso   1.000  Hf
  Hf3      1.0000 0.13860  0.72696  0.83508  Biso   1.000  Hf
  La2      1.0000 0.36510  0.25634  0.32150  Biso   1.000  La
  Hf4      1.0000 0.36640  0.76776  0.33581  Biso   1.000  Hf
  Hf5      1.0000 0.35900  0.47974  0.83466  Biso   1.000  Hf
  Hf6      1.0000 0.36009  0.97526  0.82689  Biso   1.000  Hf
  Hf7      1.0000 0.63771  0.01469  0.15677  Biso   1.000  Hf
  Hf8      1.0000 0.64037  0.52312  0.14983  Biso   1.000  Hf
  Hf9      1.0000 0.64337  0.23157  0.67644  Biso   1.000  Hf
  Hf10     1.0000 0.63896  0.72803  0.65136  Biso   1.000  Hf
  Hf11     1.0000 0.85865  0.27576  0.16257  Biso   1.000  Hf
  Hf12     1.0000 0.86308  0.76456  0.16825  Biso   1.000  Hf
  Hf13     1.0000 0.86126  0.48267  0.65482  Biso   1.000  Hf
  Hf14     1.0000 0.85706  0.97372  0.68093  Biso   1.000  Hf
  Hf15     1.0000 0.03282  0.19093  0.16040  Biso   1.000  Hf
  Hf16     1.0000 0.03142  0.65564  0.14113  Biso   1.000  Hf
  Hf17     1.0000 0.00953  0.09363  0.67625  Biso   1.000  Hf
  Hf18     1.0000 0.02871  0.59353  0.64601  Biso   1.000  Hf
  Hf19     1.0000 0.46717  0.43789  0.16662  Biso   1.000  Hf
  Hf20     1.0000 0.46848  0.92430  0.17106  Biso   1.000  Hf
  Hf21     1.0000 0.47390  0.33286  0.70092  Biso   1.000  Hf
  Hf22     1.0000 0.47376  0.83439  0.65840  Biso   1.000  Hf
  Hf23     1.0000 0.26105  0.11174  0.58773  Biso   1.000  Hf
  Hf24     1.0000 0.27725  0.62038  0.57757  Biso   1.000  Hf
  Hf25     1.0000 0.26131  0.11631  0.03877  Biso   1.000  Hf
  Hf26     1.0000 0.27444  0.62303  0.07929  Biso   1.000  Hf
  Hf27     1.0000 0.21785  0.37802  0.58960  Biso   1.000  Hf
  Hf28     1.0000 0.23300  0.86024  0.58374  Biso   1.000  Hf
  Hf29     1.0000 0.21724  0.38335  0.06490  Biso   1.000  Hf
  Hf30     1.0000 0.24949  0.85723  0.06237  Biso   1.000  Hf
  Hf31     1.0000 0.56978  0.16861  0.33737  Biso   1.000  Hf
  Hf32     1.0000 0.53944  0.67209  0.31980  Biso   1.000  Hf
  Hf33     1.0000 0.52965  0.08315  0.82927  Biso   1.000  Hf
  Hf34     1.0000 0.53325  0.58673  0.82020  Biso   1.000  Hf
  Hf35     1.0000 0.96514  0.42004  0.33181  Biso   1.000  Hf
  Hf36     1.0000 0.95878  0.85683  0.44787  Biso   1.000  Hf
  Hf37     1.0000 0.95870  0.33912  0.82663  Biso   1.000  Hf
  Hf38     1.0000 0.98350  0.86832  0.93162  Biso   1.000  Hf
  Hf39     1.0000 0.76831  0.12377  0.93062  Biso   1.000  Hf
  Hf40     1.0000 0.77570  0.62422  0.90597  Biso   1.000  Hf
  Hf41     1.0000 0.79411  0.12559  0.42980  Biso   1.000  Hf
  Hf42     1.0000 0.77327  0.62536  0.40783  Biso   1.000  Hf
  Hf43     1.0000 0.72307  0.37713  0.91747  Biso   1.000  Hf
  Hf44     1.0000 0.72798  0.86701  0.91467  Biso   1.000  Hf
  Hf45     1.0000 0.72507  0.37853  0.41953  Biso   1.000  Hf
  Hf46     1.0000 0.71991  0.88085  0.41181  Biso   1.000  Hf
