data_image0
_cell_length_a       10.0961
_cell_length_b       10.4643
_cell_length_c       5.09343
_cell_angle_alpha    90
_cell_angle_beta     90
_cell_angle_gamma    90

_symmetry_space_group_name_H-M    "P 1"
_symmetry_int_tables_number       1

loop_
  _symmetry_equiv_pos_as_xyz
  'x, y, z'

loop_
  _atom_site_label
  _atom_site_occupancy
  _atom_site_fract_x
  _atom_site_fract_y
  _atom_site_fract_z
  _atom_site_thermal_displace_type
  _atom_site_B_iso_or_equiv
  _atom_site_type_symbol
  La1      1.0000 0.11269  0.00879  0.24988  Biso   1.000  La
  Hf1      1.0000 0.13974  0.51211  0.24346  Biso   1.000  Hf
  Hf2      1.0000 0.62917  0.01881  0.25158  Biso   1.000  Hf
  Hf3      1.0000 0.62890  0.51538  0.24678  Biso   1.000  Hf
  Hf4      1.0000 0.13670  0.23816  0.74345  Biso   1.000  Hf
  La2      1.0000 0.10979  0.74148  0.74989  Biso   1.000  La
  Hf5      1.0000 0.62589  0.23489  0.74673  Biso   1.000  Hf
  Hf6      1.0000 0.62627  0.73143  0.75159  Biso   1.000  Hf
  Hf7      1.0000 0.36472  0.26500  0.24856  Biso   1.000  Hf
  Hf8      1.0000 0.36838  0.76483  0.24513  Biso   1.000  Hf
  Hf9      1.0000 0.85790  0.26955  0.24796  Biso   1.000  Hf
  Hf10     1.0000 0.85065  0.76770  0.26496  Biso   1.000  Hf
  Hf11     1.0000 0.36176  0.48523  0.74849  Biso   1.000  Hf
  Hf12     1.0000 0.36540  0.98544  0.74510  Biso   1.000  Hf
  Hf13     1.0000 0.85501  0.48065  0.74798  Biso   1.000  Hf
  Hf14     1.0000 0.84773  0.98250  0.76491  Biso   1.000  Hf
  Hf15     1.0000 0.03286  0.20973  0.37929  Biso   1.000  Hf
  Hf16     1.0000 0.02453  0.66734  0.32403  Biso   1.000  Hf
  Hf17     1.0000 0.53660  0.18507  0.38740  Biso   1.000  Hf
  Hf18     1.0000 0.53789  0.68264  0.38607  Biso   1.000  Hf
  Hf19     1.0000 0.02157  0.08282  0.82390  Biso   1.000  Hf
  Hf20     1.0000 0.02993  0.54060  0.87922  Biso   1.000  Hf
  Hf21     1.0000 0.53483  0.06762  0.88603  Biso   1.000  Hf
  Hf22     1.0000 0.53362  0.56519  0.88740  Biso   1.000  Hf
  Hf23     1.0000 0.46715  0.43170  0.39121  Biso   1.000  Hf
  Hf24     1.0000 0.46894  0.93417  0.39068  Biso   1.000  Hf
  Hf25     1.0000 0.96203  0.43456  0.38463  Biso   1.000  Hf
  Hf26     1.0000 0.96215  0.88622  0.50504  Biso   1.000  Hf
  Hf27     1.0000 0.46414  0.31854  0.89118  Biso   1.000  Hf
  Hf28     1.0000 0.46593  0.81605  0.89064  Biso   1.000  Hf
  Hf29     1.0000 0.95901  0.31567  0.88464  Biso   1.000  Hf
  Hf30     1.0000 0.96515  0.86397  0.00513  Biso   1.000  Hf
  Hf31     1.0000 0.27835  0.12905  0.50718  Biso   1.000  Hf
  Hf32     1.0000 0.27211  0.61282  0.48923  Biso   1.000  Hf
  Hf33     1.0000 0.77216  0.11625  0.48946  Biso   1.000  Hf
  Hf34     1.0000 0.76565  0.61381  0.49765  Biso   1.000  Hf
  Hf35     1.0000 0.26903  0.13746  0.98929  Biso   1.000  Hf
  Hf36     1.0000 0.28137  0.62122  0.00715  Biso   1.000  Hf
  Hf37     1.0000 0.76261  0.13643  0.99751  Biso   1.000  Hf
  Hf38     1.0000 0.76921  0.63397  0.98949  Biso   1.000  Hf
  Hf39     1.0000 0.22829  0.37996  0.99266  Biso   1.000  Hf
  Hf40     1.0000 0.24566  0.88554  0.99865  Biso   1.000  Hf
  Hf41     1.0000 0.72386  0.38403  0.99762  Biso   1.000  Hf
  Hf42     1.0000 0.72127  0.87868  0.01188  Biso   1.000  Hf
  Hf43     1.0000 0.23128  0.37032  0.49271  Biso   1.000  Hf
  Hf44     1.0000 0.24865  0.86477  0.49868  Biso   1.000  Hf
  Hf45     1.0000 0.72687  0.36622  0.49767  Biso   1.000  Hf
  Hf46     1.0000 0.71826  0.87153  0.51185  Biso   1.000  Hf
