data_image0
_cell_length_a       5.13598
_cell_length_b       10.2818
_cell_length_c       10.1501
_cell_angle_alpha    90
_cell_angle_beta     90
_cell_angle_gamma    90

_symmetry_space_group_name_H-M    "P 1"
_symmetry_int_tables_number       1

loop_
  _symmetry_equiv_pos_as_xyz
  'x, y, z'

loop_
  _atom_site_label
  _atom_site_occupancy
  _atom_site_fract_x
  _atom_site_fract_y
  _atom_site_fract_z
  _atom_site_thermal_displace_type
  _atom_site_B_iso_or_equiv
  _atom_site_type_symbol
  La1      1.0000 0.24261  0.00251  0.12470  Biso   1.000  La
  Hf1      1.0000 0.20858  0.98916  0.62448  Biso   1.000  Hf
  Hf2      1.0000 0.24304  0.49736  0.12461  Biso   1.000  Hf
  Hf3      1.0000 0.20856  0.50579  0.62440  Biso   1.000  Hf
  Hf4      1.0000 0.21999  0.24486  0.37743  Biso   1.000  Hf
  Hf5      1.0000 0.19682  0.24482  0.87135  Biso   1.000  Hf
  Hf6      1.0000 0.22465  0.74191  0.36924  Biso   1.000  Hf
  Hf7      1.0000 0.19280  0.74180  0.87943  Biso   1.000  Hf
  Hf8      1.0000 0.74298  0.26071  0.12450  Biso   1.000  Hf
  La2      1.0000 0.70829  0.24735  0.62431  Biso   1.000  La
  Hf9      1.0000 0.74295  0.74399  0.12463  Biso   1.000  Hf
  Hf10     1.0000 0.70848  0.75248  0.62440  Biso   1.000  Hf
  Hf11     1.0000 0.73114  0.00502  0.37147  Biso   1.000  Hf
  Hf12     1.0000 0.68594  0.00457  0.87709  Biso   1.000  Hf
  Hf13     1.0000 0.72691  0.50778  0.37978  Biso   1.000  Hf
  Hf14     1.0000 0.69062  0.50743  0.86901  Biso   1.000  Hf
  Hf15     1.0000 0.94447  0.15499  0.99395  Biso   1.000  Hf
  Hf16     1.0000 0.00977  0.12621  0.49606  Biso   1.000  Hf
  Hf17     1.0000 0.03310  0.63902  0.00449  Biso   1.000  Hf
  Hf18     1.0000 0.99652  0.64189  0.50154  Biso   1.000  Hf
  Hf19     1.0000 0.94145  0.12366  0.25286  Biso   1.000  Hf
  Hf20     1.0000 0.93837  0.09441  0.75451  Biso   1.000  Hf
  Hf21     1.0000 0.95499  0.60806  0.24746  Biso   1.000  Hf
  Hf22     1.0000 0.91842  0.61083  0.74461  Biso   1.000  Hf
  Hf23     1.0000 0.05219  0.35924  0.24060  Biso   1.000  Hf
  Hf24     1.0000 0.98576  0.37265  0.75988  Biso   1.000  Hf
  Hf25     1.0000 0.99347  0.85543  0.25609  Biso   1.000  Hf
  Hf26     1.0000 0.01804  0.84820  0.73850  Biso   1.000  Hf
  Hf27     1.0000 0.93362  0.40173  0.01061  Biso   1.000  Hf
  Hf28     1.0000 0.95811  0.39452  0.49317  Biso   1.000  Hf
  Hf29     1.0000 0.89726  0.87669  0.98870  Biso   1.000  Hf
  Hf30     1.0000 0.89884  0.89082  0.50863  Biso   1.000  Hf
  Hf31     1.0000 0.47329  0.15551  0.25489  Biso   1.000  Hf
  Hf32     1.0000 0.40680  0.12625  0.75259  Biso   1.000  Hf
  Hf33     1.0000 0.45277  0.63890  0.24489  Biso   1.000  Hf
  Hf34     1.0000 0.42063  0.64175  0.74718  Biso   1.000  Hf
  Hf35     1.0000 0.47595  0.12313  0.99588  Biso   1.000  Hf
  Hf36     1.0000 0.47784  0.09428  0.49419  Biso   1.000  Hf
  Hf37     1.0000 0.53095  0.60819  0.00191  Biso   1.000  Hf
  Hf38     1.0000 0.49878  0.61092  0.50413  Biso   1.000  Hf
  Hf39     1.0000 0.43428  0.35947  0.00832  Biso   1.000  Hf
  Hf40     1.0000 0.43159  0.37281  0.48846  Biso   1.000  Hf
  Hf41     1.0000 0.42416  0.85482  0.99294  Biso   1.000  Hf
  Hf42     1.0000 0.39833  0.84799  0.51072  Biso   1.000  Hf
  Hf43     1.0000 0.55287  0.40183  0.23824  Biso   1.000  Hf
  Hf44     1.0000 0.45906  0.39463  0.75527  Biso   1.000  Hf
  Hf45     1.0000 0.52021  0.87701  0.26045  Biso   1.000  Hf
  Hf46     1.0000 0.51745  0.89053  0.74052  Biso   1.000  Hf
