data_image0
_cell_length_a       10.2584
_cell_length_b       5.19039
_cell_length_c       10.4849
_cell_angle_alpha    90
_cell_angle_beta     80
_cell_angle_gamma    90

_symmetry_space_group_name_H-M    "P 1"
_symmetry_int_tables_number       1

loop_
  _symmetry_equiv_pos_as_xyz
  'x, y, z'

loop_
  _atom_site_label
  _atom_site_occupancy
  _atom_site_fract_x
  _atom_site_fract_y
  _atom_site_fract_z
  _atom_site_thermal_displace_type
  _atom_site_B_iso_or_equiv
  _atom_site_type_symbol
  La1      1.0000 0.12925  0.01976  0.13143  Biso   1.000  La
  Hf1      1.0000 0.12232  0.03651  0.64669  Biso   1.000  Hf
  Hf2      1.0000 0.63833  0.03683  0.14815  Biso   1.000  Hf
  Hf3      1.0000 0.62090  0.03646  0.65220  Biso   1.000  Hf
  Hf4      1.0000 0.13418  0.45557  0.40050  Biso   1.000  Hf
  Hf5      1.0000 0.11588  0.45810  0.89305  Biso   1.000  Hf
  Hf6      1.0000 0.61979  0.46515  0.40178  Biso   1.000  Hf
  Hf7      1.0000 0.62102  0.45235  0.89831  Biso   1.000  Hf
  Hf8      1.0000 0.36492  0.53120  0.09979  Biso   1.000  Hf
  Hf9      1.0000 0.34089  0.53679  0.60690  Biso   1.000  Hf
  Hf10     1.0000 0.85051  0.54074  0.10108  Biso   1.000  Hf
  Hf11     1.0000 0.84602  0.53104  0.61216  Biso   1.000  Hf
  Hf12     1.0000 0.34638  0.95955  0.35340  Biso   1.000  Hf
  Hf13     1.0000 0.34102  0.95265  0.85303  Biso   1.000  Hf
  La2      1.0000 0.85544  0.97657  0.37008  Biso   1.000  La
  Hf14     1.0000 0.83959  0.95261  0.85854  Biso   1.000  Hf
  Hf15     1.0000 0.03813  0.41742  0.08639  Biso   1.000  Hf
  Hf16     1.0000 0.02702  0.35587  0.59888  Biso   1.000  Hf
  Hf17     1.0000 0.53670  0.33234  0.07677  Biso   1.000  Hf
  Hf18     1.0000 0.50828  0.32205  0.58460  Biso   1.000  Hf
  Hf19     1.0000 0.06998  0.10528  0.35907  Biso   1.000  Hf
  Hf20     1.0000 0.02216  0.13133  0.84372  Biso   1.000  Hf
  Hf21     1.0000 0.52517  0.15997  0.33256  Biso   1.000  Hf
  Hf22     1.0000 0.51689  0.16046  0.83184  Biso   1.000  Hf
  Hf23     1.0000 0.45955  0.83633  0.16899  Biso   1.000  Hf
  Hf24     1.0000 0.44500  0.82873  0.67336  Biso   1.000  Hf
  Hf25     1.0000 0.91470  0.89114  0.14239  Biso   1.000  Hf
  Hf26     1.0000 0.93974  0.85781  0.66151  Biso   1.000  Hf
  Hf27     1.0000 0.44802  0.66400  0.42478  Biso   1.000  Hf
  Hf28     1.0000 0.45363  0.66711  0.92060  Biso   1.000  Hf
  Hf29     1.0000 0.94660  0.57898  0.41519  Biso   1.000  Hf
  Hf30     1.0000 0.93490  0.63326  0.90629  Biso   1.000  Hf
  Hf31     1.0000 0.28563  0.25783  0.24013  Biso   1.000  Hf
  Hf32     1.0000 0.25496  0.25370  0.74145  Biso   1.000  Hf
  Hf33     1.0000 0.75707  0.28360  0.24243  Biso   1.000  Hf
  Hf34     1.0000 0.75970  0.25072  0.74796  Biso   1.000  Hf
  Hf35     1.0000 0.26537  0.23803  0.49517  Biso   1.000  Hf
  Hf36     1.0000 0.26093  0.24170  0.98156  Biso   1.000  Hf
  Hf37     1.0000 0.74262  0.26143  0.51150  Biso   1.000  Hf
  Hf38     1.0000 0.75282  0.23197  0.99448  Biso   1.000  Hf
  Hf39     1.0000 0.21926  0.72764  0.99372  Biso   1.000  Hf
  Hf40     1.0000 0.20907  0.75719  0.51075  Biso   1.000  Hf
  Hf41     1.0000 0.71936  0.75837  0.00638  Biso   1.000  Hf
  Hf42     1.0000 0.70094  0.74738  0.52366  Biso   1.000  Hf
  Hf43     1.0000 0.22765  0.71275  0.25914  Biso   1.000  Hf
  Hf44     1.0000 0.20221  0.73844  0.75725  Biso   1.000  Hf
  Hf45     1.0000 0.69913  0.73850  0.26142  Biso   1.000  Hf
  Hf46     1.0000 0.70693  0.73544  0.76376  Biso   1.000  Hf
