data_image0
_cell_length_a       5.13097
_cell_length_b       10.4019
_cell_length_c       10.5264
_cell_angle_alpha    90
_cell_angle_beta     80
_cell_angle_gamma    90

_symmetry_space_group_name_H-M    "P 1"
_symmetry_int_tables_number       1

loop_
  _symmetry_equiv_pos_as_xyz
  'x, y, z'

loop_
  _atom_site_label
  _atom_site_occupancy
  _atom_site_fract_x
  _atom_site_fract_y
  _atom_site_fract_z
  _atom_site_thermal_displace_type
  _atom_site_B_iso_or_equiv
  _atom_site_type_symbol
  La1      1.0000 0.24872  0.00456  0.13709  Biso   1.000  La
  Hf1      1.0000 0.24569  0.01855  0.64967  Biso   1.000  Hf
  La2      1.0000 0.23727  0.50458  0.13709  Biso   1.000  La
  Hf2      1.0000 0.23420  0.51856  0.64967  Biso   1.000  Hf
  Hf3      1.0000 0.23849  0.22159  0.40173  Biso   1.000  Hf
  Hf4      1.0000 0.23974  0.22900  0.89369  Biso   1.000  Hf
  Hf5      1.0000 0.22691  0.72157  0.40171  Biso   1.000  Hf
  Hf6      1.0000 0.22818  0.72898  0.89368  Biso   1.000  Hf
  Hf7      1.0000 0.70974  0.25893  0.10402  Biso   1.000  Hf
  Hf8      1.0000 0.68436  0.26896  0.60583  Biso   1.000  Hf
  Hf9      1.0000 0.69832  0.75890  0.10394  Biso   1.000  Hf
  Hf10     1.0000 0.67281  0.76892  0.60581  Biso   1.000  Hf
  Hf11     1.0000 0.67061  0.47652  0.36253  Biso   1.000  Hf
  Hf12     1.0000 0.68030  0.47458  0.85446  Biso   1.000  Hf
  Hf13     1.0000 0.65898  0.97650  0.36254  Biso   1.000  Hf
  Hf14     1.0000 0.66875  0.97460  0.85446  Biso   1.000  Hf
  Hf15     1.0000 0.08189  0.19969  0.08196  Biso   1.000  Hf
  Hf16     1.0000 0.03340  0.16866  0.58969  Biso   1.000  Hf
  Hf17     1.0000 0.07041  0.69964  0.08192  Biso   1.000  Hf
  Hf18     1.0000 0.02185  0.66861  0.58967  Biso   1.000  Hf
  Hf19     1.0000 0.02733  0.07582  0.34717  Biso   1.000  Hf
  Hf20     1.0000 0.04021  0.07519  0.83614  Biso   1.000  Hf
  Hf21     1.0000 0.01585  0.57578  0.34715  Biso   1.000  Hf
  Hf22     1.0000 0.02864  0.57517  0.83611  Biso   1.000  Hf
  Hf23     1.0000 0.82384  0.42943  0.17029  Biso   1.000  Hf
  Hf24     1.0000 0.88736  0.41755  0.67058  Biso   1.000  Hf
  Hf25     1.0000 0.81224  0.92938  0.17031  Biso   1.000  Hf
  Hf26     1.0000 0.87577  0.91752  0.67057  Biso   1.000  Hf
  Hf27     1.0000 0.89110  0.32728  0.42154  Biso   1.000  Hf
  Hf28     1.0000 0.90358  0.33462  0.91801  Biso   1.000  Hf
  Hf29     1.0000 0.87949  0.82724  0.42155  Biso   1.000  Hf
  Hf30     1.0000 0.89195  0.83455  0.91802  Biso   1.000  Hf
  Hf31     1.0000 0.53546  0.12995  0.25074  Biso   1.000  Hf
  Hf32     1.0000 0.51656  0.12756  0.74034  Biso   1.000  Hf
  Hf33     1.0000 0.52398  0.62995  0.25071  Biso   1.000  Hf
  Hf34     1.0000 0.50501  0.62753  0.74033  Biso   1.000  Hf
  Hf35     1.0000 0.50949  0.11828  0.49695  Biso   1.000  Hf
  Hf36     1.0000 0.51719  0.11668  0.98403  Biso   1.000  Hf
  Hf37     1.0000 0.49794  0.61826  0.49691  Biso   1.000  Hf
  Hf38     1.0000 0.50564  0.61664  0.98400  Biso   1.000  Hf
  Hf39     1.0000 0.43326  0.36160  0.99601  Biso   1.000  Hf
  Hf40     1.0000 0.40837  0.37667  0.51504  Biso   1.000  Hf
  Hf41     1.0000 0.42175  0.86160  0.99597  Biso   1.000  Hf
  Hf42     1.0000 0.39677  0.87664  0.51504  Biso   1.000  Hf
  Hf43     1.0000 0.41301  0.35703  0.27087  Biso   1.000  Hf
  Hf44     1.0000 0.40860  0.36936  0.75754  Biso   1.000  Hf
  Hf45     1.0000 0.40138  0.85701  0.27087  Biso   1.000  Hf
  Hf46     1.0000 0.39706  0.86934  0.75751  Biso   1.000  Hf
