data_image0
_cell_length_a       10.2596
_cell_length_b       5.20893
_cell_length_c       10.526
_cell_angle_alpha    90
_cell_angle_beta     80
_cell_angle_gamma    90

_symmetry_space_group_name_H-M    "P 1"
_symmetry_int_tables_number       1

loop_
  _symmetry_equiv_pos_as_xyz
  'x, y, z'

loop_
  _atom_site_label
  _atom_site_occupancy
  _atom_site_fract_x
  _atom_site_fract_y
  _atom_site_fract_z
  _atom_site_thermal_displace_type
  _atom_site_B_iso_or_equiv
  _atom_site_type_symbol
  La1      1.0000 0.12568  0.02523  0.13817  Biso   1.000  La
  Hf1      1.0000 0.11544  0.04109  0.65237  Biso   1.000  Hf
  Hf2      1.0000 0.64273  0.03347  0.13908  Biso   1.000  Hf
  Hf3      1.0000 0.61862  0.03990  0.64985  Biso   1.000  Hf
  Hf4      1.0000 0.11620  0.46172  0.40373  Biso   1.000  Hf
  Hf5      1.0000 0.11444  0.46203  0.89599  Biso   1.000  Hf
  Hf6      1.0000 0.62621  0.46293  0.40124  Biso   1.000  Hf
  Hf7      1.0000 0.61365  0.45137  0.89710  Biso   1.000  Hf
  Hf8      1.0000 0.36355  0.53602  0.09843  Biso   1.000  Hf
  Hf9      1.0000 0.33709  0.53131  0.61059  Biso   1.000  Hf
  Hf10     1.0000 0.85349  0.53485  0.10093  Biso   1.000  Hf
  Hf11     1.0000 0.83782  0.54199  0.60947  Biso   1.000  Hf
  La2      1.0000 0.35406  0.97255  0.36397  Biso   1.000  La
  Hf12     1.0000 0.33608  0.95226  0.85420  Biso   1.000  Hf
  Hf13     1.0000 0.83696  0.96431  0.36309  Biso   1.000  Hf
  Hf14     1.0000 0.83282  0.95342  0.85675  Biso   1.000  Hf
  Hf15     1.0000 0.03803  0.40369  0.07994  Biso   1.000  Hf
  Hf16     1.0000 0.00658  0.34104  0.59282  Biso   1.000  Hf
  Hf17     1.0000 0.53778  0.33261  0.07793  Biso   1.000  Hf
  Hf18     1.0000 0.51507  0.33271  0.58829  Biso   1.000  Hf
  Hf19     1.0000 0.01356  0.16244  0.34964  Biso   1.000  Hf
  Hf20     1.0000 0.01356  0.15263  0.84032  Biso   1.000  Hf
  Hf21     1.0000 0.56223  0.14141  0.32761  Biso   1.000  Hf
  Hf22     1.0000 0.51600  0.14898  0.83325  Biso   1.000  Hf
  Hf23     1.0000 0.46618  0.83544  0.15245  Biso   1.000  Hf
  Hf24     1.0000 0.43794  0.84092  0.66618  Biso   1.000  Hf
  Hf25     1.0000 0.91747  0.85630  0.17461  Biso   1.000  Hf
  Hf26     1.0000 0.93550  0.84417  0.67340  Biso   1.000  Hf
  Hf27     1.0000 0.44171  0.59399  0.42216  Biso   1.000  Hf
  Hf28     1.0000 0.44490  0.65215  0.91367  Biso   1.000  Hf
  Hf29     1.0000 0.94194  0.66531  0.42427  Biso   1.000  Hf
  Hf30     1.0000 0.93642  0.66083  0.91838  Biso   1.000  Hf
  Hf31     1.0000 0.26333  0.28695  0.24569  Biso   1.000  Hf
  Hf32     1.0000 0.25327  0.25316  0.74506  Biso   1.000  Hf
  Hf33     1.0000 0.77797  0.26288  0.23927  Biso   1.000  Hf
  Hf34     1.0000 0.75251  0.25653  0.74481  Biso   1.000  Hf
  Hf35     1.0000 0.23842  0.25856  0.50866  Biso   1.000  Hf
  Hf36     1.0000 0.25637  0.24201  0.98357  Biso   1.000  Hf
  Hf37     1.0000 0.75538  0.24495  0.49747  Biso   1.000  Hf
  Hf38     1.0000 0.74946  0.23202  0.99259  Biso   1.000  Hf
  Hf39     1.0000 0.21310  0.73484  0.99793  Biso   1.000  Hf
  Hf40     1.0000 0.19512  0.75137  0.52300  Biso   1.000  Hf
  Hf41     1.0000 0.72431  0.75275  0.00471  Biso   1.000  Hf
  Hf42     1.0000 0.70201  0.76128  0.51403  Biso   1.000  Hf
  Hf43     1.0000 0.21641  0.71085  0.25649  Biso   1.000  Hf
  Hf44     1.0000 0.19824  0.74015  0.76152  Biso   1.000  Hf
  Hf45     1.0000 0.70170  0.73498  0.26295  Biso   1.000  Hf
  Hf46     1.0000 0.69894  0.73696  0.76178  Biso   1.000  Hf
