data_image0
_cell_length_a       10.1539
_cell_length_b       10.4793
_cell_length_c       5.08309
_cell_angle_alpha    90
_cell_angle_beta     90
_cell_angle_gamma    90

_symmetry_space_group_name_H-M    "P 1"
_symmetry_int_tables_number       1

loop_
  _symmetry_equiv_pos_as_xyz
  'x, y, z'

loop_
  _atom_site_label
  _atom_site_occupancy
  _atom_site_fract_x
  _atom_site_fract_y
  _atom_site_fract_z
  _atom_site_thermal_displace_type
  _atom_site_B_iso_or_equiv
  _atom_site_type_symbol
  La1      1.0000 0.12074  0.00792  0.23823  Biso   1.000  La
  Hf1      1.0000 0.12913  0.51619  0.24194  Biso   1.000  Hf
  Hf2      1.0000 0.63234  0.01539  0.25467  Biso   1.000  Hf
  Hf3      1.0000 0.63940  0.51708  0.25764  Biso   1.000  Hf
  Hf4      1.0000 0.13427  0.23890  0.74283  Biso   1.000  Hf
  Hf5      1.0000 0.13174  0.73584  0.75116  Biso   1.000  Hf
  Hf6      1.0000 0.63850  0.22867  0.74780  Biso   1.000  Hf
  Hf7      1.0000 0.63742  0.73526  0.76233  Biso   1.000  Hf
  Hf8      1.0000 0.36448  0.26085  0.24282  Biso   1.000  Hf
  Hf9      1.0000 0.36662  0.76388  0.25112  Biso   1.000  Hf
  Hf10     1.0000 0.86031  0.27109  0.24785  Biso   1.000  Hf
  Hf11     1.0000 0.86095  0.76451  0.26221  Biso   1.000  Hf
  La2      1.0000 0.37806  0.49181  0.73813  Biso   1.000  La
  Hf12     1.0000 0.36913  0.98355  0.74198  Biso   1.000  Hf
  Hf13     1.0000 0.86642  0.48440  0.75472  Biso   1.000  Hf
  Hf14     1.0000 0.85891  0.98271  0.75758  Biso   1.000  Hf
  Hf15     1.0000 0.02765  0.20326  0.39051  Biso   1.000  Hf
  Hf16     1.0000 0.02526  0.68146  0.40326  Biso   1.000  Hf
  Hf17     1.0000 0.53619  0.17832  0.39323  Biso   1.000  Hf
  Hf18     1.0000 0.52356  0.67178  0.43039  Biso   1.000  Hf
  Hf19     1.0000 0.02809  0.07608  0.83076  Biso   1.000  Hf
  Hf20     1.0000 0.03255  0.56881  0.88930  Biso   1.000  Hf
  Hf21     1.0000 0.54059  0.06003  0.88924  Biso   1.000  Hf
  Hf22     1.0000 0.55289  0.57919  0.92862  Biso   1.000  Hf
  Hf23     1.0000 0.47071  0.42362  0.33091  Biso   1.000  Hf
  Hf24     1.0000 0.46576  0.93093  0.38936  Biso   1.000  Hf
  Hf25     1.0000 0.95817  0.43981  0.38915  Biso   1.000  Hf
  Hf26     1.0000 0.94509  0.92095  0.42777  Biso   1.000  Hf
  Hf27     1.0000 0.47107  0.29651  0.89052  Biso   1.000  Hf
  Hf28     1.0000 0.47306  0.81856  0.90344  Biso   1.000  Hf
  Hf29     1.0000 0.96255  0.32143  0.89329  Biso   1.000  Hf
  Hf30     1.0000 0.97471  0.82795  0.92983  Biso   1.000  Hf
  Hf31     1.0000 0.27895  0.12521  0.50390  Biso   1.000  Hf
  Hf32     1.0000 0.25374  0.62266  0.47957  Biso   1.000  Hf
  Hf33     1.0000 0.76925  0.11545  0.49905  Biso   1.000  Hf
  Hf34     1.0000 0.76657  0.61959  0.50846  Biso   1.000  Hf
  Hf35     1.0000 0.27522  0.13421  0.97919  Biso   1.000  Hf
  Hf36     1.0000 0.25689  0.64104  0.00600  Biso   1.000  Hf
  Hf37     1.0000 0.76955  0.13300  0.00404  Biso   1.000  Hf
  Hf38     1.0000 0.77949  0.63227  0.00373  Biso   1.000  Hf
  Hf39     1.0000 0.21974  0.37459  0.00376  Biso   1.000  Hf
  Hf40     1.0000 0.24451  0.87705  0.97963  Biso   1.000  Hf
  Hf41     1.0000 0.72946  0.38438  0.99913  Biso   1.000  Hf
  Hf42     1.0000 0.73165  0.88022  0.00841  Biso   1.000  Hf
  Hf43     1.0000 0.22351  0.36552  0.47910  Biso   1.000  Hf
  Hf44     1.0000 0.24140  0.85872  0.50606  Biso   1.000  Hf
  Hf45     1.0000 0.72921  0.36682  0.50426  Biso   1.000  Hf
  Hf46     1.0000 0.71873  0.86752  0.50373  Biso   1.000  Hf
