data_image0
_cell_length_a       10.1282
_cell_length_b       10.5045
_cell_length_c       5.11652
_cell_angle_alpha    90
_cell_angle_beta     90
_cell_angle_gamma    90

_symmetry_space_group_name_H-M    "P 1"
_symmetry_int_tables_number       1

loop_
  _symmetry_equiv_pos_as_xyz
  'x, y, z'

loop_
  _atom_site_label
  _atom_site_occupancy
  _atom_site_fract_x
  _atom_site_fract_y
  _atom_site_fract_z
  _atom_site_thermal_displace_type
  _atom_site_B_iso_or_equiv
  _atom_site_type_symbol
  La1      1.0000 0.11344  0.00318  0.24836  Biso   1.000  La
  Hf1      1.0000 0.13817  0.51580  0.24743  Biso   1.000  Hf
  Hf2      1.0000 0.60672  0.01085  0.22278  Biso   1.000  Hf
  Hf3      1.0000 0.62191  0.50660  0.21509  Biso   1.000  Hf
  Hf4      1.0000 0.13449  0.23123  0.73709  Biso   1.000  Hf
  Hf5      1.0000 0.13892  0.72508  0.75784  Biso   1.000  Hf
  Hf6      1.0000 0.62989  0.22388  0.73296  Biso   1.000  Hf
  La2      1.0000 0.61943  0.74035  0.72132  Biso   1.000  La
  Hf7      1.0000 0.36358  0.26155  0.23974  Biso   1.000  Hf
  Hf8      1.0000 0.36370  0.76669  0.25029  Biso   1.000  Hf
  Hf9      1.0000 0.87712  0.27982  0.20826  Biso   1.000  Hf
  Hf10     1.0000 0.88450  0.72869  0.18675  Biso   1.000  Hf
  Hf11     1.0000 0.36462  0.46997  0.74047  Biso   1.000  Hf
  Hf12     1.0000 0.35835  0.98304  0.75949  Biso   1.000  Hf
  Hf13     1.0000 0.85746  0.47740  0.71940  Biso   1.000  Hf
  Hf14     1.0000 0.85136  0.98569  0.79863  Biso   1.000  Hf
  Hf15     1.0000 0.01556  0.19033  0.40461  Biso   1.000  Hf
  Hf16     1.0000 0.04050  0.68151  0.41034  Biso   1.000  Hf
  Hf17     1.0000 0.52429  0.17524  0.39072  Biso   1.000  Hf
  Hf18     1.0000 0.52317  0.66648  0.33903  Biso   1.000  Hf
  Hf19     1.0000 0.01803  0.08173  0.86529  Biso   1.000  Hf
  Hf20     1.0000 0.01541  0.58142  0.92749  Biso   1.000  Hf
  Hf21     1.0000 0.52047  0.07857  0.90261  Biso   1.000  Hf
  Hf22     1.0000 0.52169  0.55599  0.87976  Biso   1.000  Hf
  Hf23     1.0000 0.46687  0.42053  0.39662  Biso   1.000  Hf
  Hf24     1.0000 0.48575  0.91010  0.47808  Biso   1.000  Hf
  Hf25     1.0000 0.97010  0.43895  0.38219  Biso   1.000  Hf
  Hf26     1.0000 0.92157  0.91211  0.43405  Biso   1.000  Hf
  Hf27     1.0000 0.46574  0.31123  0.89545  Biso   1.000  Hf
  Hf28     1.0000 0.47897  0.85591  0.99666  Biso   1.000  Hf
  Hf29     1.0000 0.97186  0.32953  0.88077  Biso   1.000  Hf
  Hf30     1.0000 0.98626  0.82988  0.92777  Biso   1.000  Hf
  Hf31     1.0000 0.27300  0.11856  0.50568  Biso   1.000  Hf
  Hf32     1.0000 0.26707  0.60665  0.50746  Biso   1.000  Hf
  Hf33     1.0000 0.72803  0.06652  0.54161  Biso   1.000  Hf
  Hf34     1.0000 0.76273  0.59319  0.44694  Biso   1.000  Hf
  Hf35     1.0000 0.26049  0.12708  0.99210  Biso   1.000  Hf
  Hf36     1.0000 0.26793  0.63351  0.00419  Biso   1.000  Hf
  Hf37     1.0000 0.76087  0.13991  0.02312  Biso   1.000  Hf
  Hf38     1.0000 0.76657  0.61168  0.96100  Biso   1.000  Hf
  Hf39     1.0000 0.22776  0.37651  0.98457  Biso   1.000  Hf
  Hf40     1.0000 0.24052  0.86361  0.98670  Biso   1.000  Hf
  Hf41     1.0000 0.72734  0.37362  0.96262  Biso   1.000  Hf
  Hf42     1.0000 0.74323  0.88628  0.05006  Biso   1.000  Hf
  Hf43     1.0000 0.22728  0.36137  0.47930  Biso   1.000  Hf
  Hf44     1.0000 0.24109  0.85558  0.51199  Biso   1.000  Hf
  Hf45     1.0000 0.73927  0.34409  0.47349  Biso   1.000  Hf
  Hf46     1.0000 0.81798  0.82961  0.52203  Biso   1.000  Hf
