data_image0
_cell_length_a       10.1456
_cell_length_b       10.4255
_cell_length_c       5.21371
_cell_angle_alpha    90
_cell_angle_beta     90
_cell_angle_gamma    90

_symmetry_space_group_name_H-M    "P 1"
_symmetry_int_tables_number       1

loop_
  _symmetry_equiv_pos_as_xyz
  'x, y, z'

loop_
  _atom_site_label
  _atom_site_occupancy
  _atom_site_fract_x
  _atom_site_fract_y
  _atom_site_fract_z
  _atom_site_thermal_displace_type
  _atom_site_B_iso_or_equiv
  _atom_site_type_symbol
  La1      1.0000 0.12942  0.01177  0.30264  Biso   1.000  La
  Hf1      1.0000 0.13521  0.52111  0.34224  Biso   1.000  Hf
  Hf2      1.0000 0.13636  0.24132  0.84556  Biso   1.000  Hf
  Hf3      1.0000 0.13896  0.72465  0.83682  Biso   1.000  Hf
  Hf4      1.0000 0.35788  0.27146  0.33984  Biso   1.000  Hf
  Hf5      1.0000 0.36121  0.76729  0.33586  Biso   1.000  Hf
  Hf6      1.0000 0.35683  0.48149  0.84088  Biso   1.000  Hf
  Hf7      1.0000 0.35584  0.98268  0.82885  Biso   1.000  Hf
  Hf8      1.0000 0.63738  0.01984  0.17110  Biso   1.000  Hf
  Hf9      1.0000 0.63639  0.52103  0.15907  Biso   1.000  Hf
  Hf10     1.0000 0.63201  0.23522  0.66409  Biso   1.000  Hf
  Hf11     1.0000 0.63534  0.73106  0.66011  Biso   1.000  Hf
  Hf12     1.0000 0.85426  0.27786  0.16313  Biso   1.000  Hf
  Hf13     1.0000 0.85687  0.76121  0.15439  Biso   1.000  Hf
  Hf14     1.0000 0.85801  0.48141  0.65771  Biso   1.000  Hf
  La2      1.0000 0.86381  0.99074  0.69730  Biso   1.000  La
  Hf15     1.0000 0.03517  0.20397  0.19660  Biso   1.000  Hf
  Hf16     1.0000 0.04118  0.68408  0.20456  Biso   1.000  Hf
  Hf17     1.0000 0.07467  0.06083  0.77557  Biso   1.000  Hf
  Hf18     1.0000 0.03821  0.56536  0.69417  Biso   1.000  Hf
  Hf19     1.0000 0.46835  0.41272  0.16305  Biso   1.000  Hf
  Hf20     1.0000 0.46306  0.91878  0.16882  Biso   1.000  Hf
  Hf21     1.0000 0.46304  0.33985  0.66538  Biso   1.000  Hf
  Hf22     1.0000 0.46722  0.83959  0.65805  Biso   1.000  Hf
  Hf23     1.0000 0.27984  0.13058  0.58717  Biso   1.000  Hf
  Hf24     1.0000 0.27453  0.62120  0.58637  Biso   1.000  Hf
  Hf25     1.0000 0.28806  0.13615  0.07226  Biso   1.000  Hf
  Hf26     1.0000 0.27359  0.61833  0.09133  Biso   1.000  Hf
  Hf27     1.0000 0.22121  0.37606  0.58469  Biso   1.000  Hf
  Hf28     1.0000 0.22761  0.86107  0.58099  Biso   1.000  Hf
  Hf29     1.0000 0.22387  0.37981  0.08784  Biso   1.000  Hf
  Hf30     1.0000 0.24044  0.86009  0.05949  Biso   1.000  Hf
  Hf31     1.0000 0.52600  0.16293  0.34190  Biso   1.000  Hf
  Hf32     1.0000 0.53018  0.66267  0.33457  Biso   1.000  Hf
  Hf33     1.0000 0.53016  0.08373  0.83113  Biso   1.000  Hf
  Hf34     1.0000 0.52486  0.58980  0.83690  Biso   1.000  Hf
  Hf35     1.0000 0.95501  0.43716  0.30577  Biso   1.000  Hf
  Hf36     1.0000 0.91855  0.94168  0.22438  Biso   1.000  Hf
  Hf37     1.0000 0.95204  0.31843  0.79539  Biso   1.000  Hf
  Hf38     1.0000 0.95805  0.79854  0.80335  Biso   1.000  Hf
  Hf39     1.0000 0.75278  0.14243  0.94046  Biso   1.000  Hf
  Hf40     1.0000 0.76935  0.62271  0.91212  Biso   1.000  Hf
  Hf41     1.0000 0.76561  0.14145  0.41896  Biso   1.000  Hf
  Hf42     1.0000 0.77201  0.62645  0.41525  Biso   1.000  Hf
  Hf43     1.0000 0.71964  0.38419  0.90862  Biso   1.000  Hf
  Hf44     1.0000 0.70515  0.86637  0.92769  Biso   1.000  Hf
  Hf45     1.0000 0.71869  0.38132  0.41358  Biso   1.000  Hf
  Hf46     1.0000 0.71338  0.87194  0.41278  Biso   1.000  Hf
