data_image0
_cell_length_a       10.1776
_cell_length_b       5.17479
_cell_length_c       10.6338
_cell_angle_alpha    90
_cell_angle_beta     90
_cell_angle_gamma    90

_symmetry_space_group_name_H-M    "P 1"
_symmetry_int_tables_number       1

loop_
  _symmetry_equiv_pos_as_xyz
  'x, y, z'

loop_
  _atom_site_label
  _atom_site_occupancy
  _atom_site_fract_x
  _atom_site_fract_y
  _atom_site_fract_z
  _atom_site_thermal_displace_type
  _atom_site_B_iso_or_equiv
  _atom_site_type_symbol
  La1      1.0000 0.12740  0.00366  0.16120  Biso   1.000  La
  Hf1      1.0000 0.13947  0.03954  0.67011  Biso   1.000  Hf
  Hf2      1.0000 0.14028  0.44704  0.42468  Biso   1.000  Hf
  Hf3      1.0000 0.13696  0.46141  0.91183  Biso   1.000  Hf
  La2      1.0000 0.37274  0.50380  0.16117  Biso   1.000  La
  Hf4      1.0000 0.36094  0.53958  0.67014  Biso   1.000  Hf
  Hf5      1.0000 0.35996  0.94712  0.42469  Biso   1.000  Hf
  Hf6      1.0000 0.36346  0.96149  0.91182  Biso   1.000  Hf
  Hf7      1.0000 0.64301  0.02948  0.07457  Biso   1.000  Hf
  Hf8      1.0000 0.63617  0.04290  0.58206  Biso   1.000  Hf
  Hf9      1.0000 0.64578  0.46215  0.33974  Biso   1.000  Hf
  Hf10     1.0000 0.63910  0.45790  0.82633  Biso   1.000  Hf
  Hf11     1.0000 0.85705  0.52958  0.07449  Biso   1.000  Hf
  Hf12     1.0000 0.86413  0.54299  0.58199  Biso   1.000  Hf
  Hf13     1.0000 0.85429  0.96220  0.33971  Biso   1.000  Hf
  Hf14     1.0000 0.86124  0.95799  0.82632  Biso   1.000  Hf
  Hf15     1.0000 0.03581  0.38778  0.08245  Biso   1.000  Hf
  Hf16     1.0000 0.03344  0.33454  0.58834  Biso   1.000  Hf
  Hf17     1.0000 0.01856  0.17554  0.34621  Biso   1.000  Hf
  Hf18     1.0000 0.03222  0.16313  0.83131  Biso   1.000  Hf
  Hf19     1.0000 0.46415  0.88787  0.08252  Biso   1.000  Hf
  Hf20     1.0000 0.46677  0.83467  0.58843  Biso   1.000  Hf
  Hf21     1.0000 0.48152  0.67524  0.34633  Biso   1.000  Hf
  Hf22     1.0000 0.46817  0.66299  0.83137  Biso   1.000  Hf
  Hf23     1.0000 0.26954  0.21989  0.30982  Biso   1.000  Hf
  Hf24     1.0000 0.27552  0.24824  0.78599  Biso   1.000  Hf
  Hf25     1.0000 0.26057  0.22684  0.01870  Biso   1.000  Hf
  Hf26     1.0000 0.27557  0.24836  0.54721  Biso   1.000  Hf
  Hf27     1.0000 0.23065  0.71993  0.30979  Biso   1.000  Hf
  Hf28     1.0000 0.22489  0.74829  0.78598  Biso   1.000  Hf
  Hf29     1.0000 0.23940  0.72679  0.01871  Biso   1.000  Hf
  Hf30     1.0000 0.22470  0.74835  0.54721  Biso   1.000  Hf
  Hf31     1.0000 0.57647  0.34610  0.16537  Biso   1.000  Hf
  Hf32     1.0000 0.53404  0.33371  0.66511  Biso   1.000  Hf
  Hf33     1.0000 0.53346  0.16933  0.41738  Biso   1.000  Hf
  Hf34     1.0000 0.53659  0.17369  0.91212  Biso   1.000  Hf
  Hf35     1.0000 0.92356  0.84619  0.16532  Biso   1.000  Hf
  Hf36     1.0000 0.96635  0.83351  0.66514  Biso   1.000  Hf
  Hf37     1.0000 0.96685  0.66955  0.41735  Biso   1.000  Hf
  Hf38     1.0000 0.96389  0.67380  0.91213  Biso   1.000  Hf
  Hf39     1.0000 0.77805  0.23979  0.95396  Biso   1.000  Hf
  Hf40     1.0000 0.77305  0.24953  0.46333  Biso   1.000  Hf
  Hf41     1.0000 0.79166  0.27175  0.21588  Biso   1.000  Hf
  Hf42     1.0000 0.77513  0.25486  0.70622  Biso   1.000  Hf
  Hf43     1.0000 0.72247  0.73982  0.95395  Biso   1.000  Hf
  Hf44     1.0000 0.72716  0.74955  0.46334  Biso   1.000  Hf
  Hf45     1.0000 0.70833  0.77185  0.21594  Biso   1.000  Hf
  Hf46     1.0000 0.72521  0.75486  0.70623  Biso   1.000  Hf
