data_image0
_cell_length_a       10.1278
_cell_length_b       10.4961
_cell_length_c       5.08289
_cell_angle_alpha    90
_cell_angle_beta     90
_cell_angle_gamma    90

_symmetry_space_group_name_H-M    "P 1"
_symmetry_int_tables_number       1

loop_
  _symmetry_equiv_pos_as_xyz
  'x, y, z'

loop_
  _atom_site_label
  _atom_site_occupancy
  _atom_site_fract_x
  _atom_site_fract_y
  _atom_site_fract_z
  _atom_site_thermal_displace_type
  _atom_site_B_iso_or_equiv
  _atom_site_type_symbol
  La1      1.0000 0.11772  0.00775  0.23851  Biso   1.000  La
  Hf1      1.0000 0.13267  0.51952  0.25393  Biso   1.000  Hf
  Hf2      1.0000 0.63217  0.01051  0.24455  Biso   1.000  Hf
  Hf3      1.0000 0.63191  0.51529  0.25671  Biso   1.000  Hf
  Hf4      1.0000 0.12770  0.23946  0.74448  Biso   1.000  Hf
  Hf5      1.0000 0.12758  0.73469  0.75677  Biso   1.000  Hf
  La2      1.0000 0.61322  0.24218  0.73834  Biso   1.000  La
  Hf6      1.0000 0.62826  0.73052  0.75391  Biso   1.000  Hf
  Hf7      1.0000 0.35703  0.26888  0.25421  Biso   1.000  Hf
  Hf8      1.0000 0.36754  0.76290  0.25258  Biso   1.000  Hf
  Hf9      1.0000 0.86296  0.27101  0.24163  Biso   1.000  Hf
  Hf10     1.0000 0.85850  0.76250  0.25771  Biso   1.000  Hf
  Hf11     1.0000 0.35415  0.48738  0.75782  Biso   1.000  Hf
  Hf12     1.0000 0.35836  0.97900  0.74166  Biso   1.000  Hf
  Hf13     1.0000 0.86319  0.48704  0.75241  Biso   1.000  Hf
  Hf14     1.0000 0.85242  0.98109  0.75410  Biso   1.000  Hf
  Hf15     1.0000 0.03419  0.20743  0.38185  Biso   1.000  Hf
  Hf16     1.0000 0.02960  0.68318  0.40344  Biso   1.000  Hf
  Hf17     1.0000 0.53181  0.17713  0.31438  Biso   1.000  Hf
  Hf18     1.0000 0.53050  0.67642  0.39963  Biso   1.000  Hf
  Hf19     1.0000 0.02758  0.07277  0.81441  Biso   1.000  Hf
  Hf20     1.0000 0.02622  0.57353  0.89966  Biso   1.000  Hf
  Hf21     1.0000 0.52998  0.04251  0.88181  Biso   1.000  Hf
  Hf22     1.0000 0.52526  0.56691  0.90348  Biso   1.000  Hf
  Hf23     1.0000 0.47312  0.42321  0.42829  Biso   1.000  Hf
  Hf24     1.0000 0.46252  0.92911  0.39137  Biso   1.000  Hf
  Hf25     1.0000 0.96851  0.43883  0.39912  Biso   1.000  Hf
  Hf26     1.0000 0.94142  0.91832  0.42147  Biso   1.000  Hf
  Hf27     1.0000 0.43759  0.33189  0.92194  Biso   1.000  Hf
  Hf28     1.0000 0.46410  0.81119  0.89921  Biso   1.000  Hf
  Hf29     1.0000 0.95833  0.32087  0.89119  Biso   1.000  Hf
  Hf30     1.0000 0.96865  0.82670  0.92788  Biso   1.000  Hf
  Hf31     1.0000 0.27974  0.12687  0.51208  Biso   1.000  Hf
  Hf32     1.0000 0.26553  0.61644  0.49584  Biso   1.000  Hf
  Hf33     1.0000 0.76992  0.11237  0.48850  Biso   1.000  Hf
  Hf34     1.0000 0.76561  0.61815  0.49953  Biso   1.000  Hf
  Hf35     1.0000 0.26563  0.13768  0.98847  Biso   1.000  Hf
  Hf36     1.0000 0.26134  0.63184  0.99952  Biso   1.000  Hf
  Hf37     1.0000 0.78404  0.12306  0.01211  Biso   1.000  Hf
  Hf38     1.0000 0.76121  0.63351  0.99565  Biso   1.000  Hf
  Hf39     1.0000 0.22028  0.38647  0.00439  Biso   1.000  Hf
  Hf40     1.0000 0.23548  0.87288  0.98464  Biso   1.000  Hf
  Hf41     1.0000 0.74072  0.39513  0.00477  Biso   1.000  Hf
  Hf42     1.0000 0.73195  0.87608  0.00410  Biso   1.000  Hf
  Hf43     1.0000 0.22783  0.37385  0.50405  Biso   1.000  Hf
  Hf44     1.0000 0.23636  0.85483  0.50482  Biso   1.000  Hf
  Hf45     1.0000 0.73989  0.37707  0.48452  Biso   1.000  Hf
  Hf46     1.0000 0.71577  0.86348  0.50436  Biso   1.000  Hf
