data_image0
_cell_length_a       10.2183
_cell_length_b       10.3785
_cell_length_c       5.25262
_cell_angle_alpha    90
_cell_angle_beta     80
_cell_angle_gamma    90

_symmetry_space_group_name_H-M    "P 1"
_symmetry_int_tables_number       1

loop_
  _symmetry_equiv_pos_as_xyz
  'x, y, z'

loop_
  _atom_site_label
  _atom_site_occupancy
  _atom_site_fract_x
  _atom_site_fract_y
  _atom_site_fract_z
  _atom_site_thermal_displace_type
  _atom_site_B_iso_or_equiv
  _atom_site_type_symbol
  La1      1.0000 0.10997  0.00632  0.26414  Biso   1.000  La
  Hf1      1.0000 0.13598  0.51716  0.27415  Biso   1.000  Hf
  Hf2      1.0000 0.63458  0.02319  0.29418  Biso   1.000  Hf
  Hf3      1.0000 0.62934  0.51668  0.29488  Biso   1.000  Hf
  Hf4      1.0000 0.12661  0.23277  0.77692  Biso   1.000  Hf
  La2      1.0000 0.10104  0.74360  0.76698  Biso   1.000  La
  Hf5      1.0000 0.62005  0.23318  0.79765  Biso   1.000  Hf
  Hf6      1.0000 0.62556  0.72668  0.79696  Biso   1.000  Hf
  Hf7      1.0000 0.35380  0.26724  0.19942  Biso   1.000  Hf
  Hf8      1.0000 0.36427  0.76779  0.18964  Biso   1.000  Hf
  Hf9      1.0000 0.85455  0.27192  0.20868  Biso   1.000  Hf
  Hf10     1.0000 0.84917  0.76994  0.24674  Biso   1.000  Hf
  Hf11     1.0000 0.34461  0.48269  0.70228  Biso   1.000  Hf
  Hf12     1.0000 0.35507  0.98218  0.69242  Biso   1.000  Hf
  Hf13     1.0000 0.84541  0.47795  0.71149  Biso   1.000  Hf
  Hf14     1.0000 0.84001  0.97987  0.74962  Biso   1.000  Hf
  Hf15     1.0000 0.03850  0.20070  0.16020  Biso   1.000  Hf
  Hf16     1.0000 0.02308  0.66384  0.18520  Biso   1.000  Hf
  Hf17     1.0000 0.53046  0.16802  0.15330  Biso   1.000  Hf
  Hf18     1.0000 0.53927  0.66433  0.14900  Biso   1.000  Hf
  Hf19     1.0000 0.01372  0.08589  0.68841  Biso   1.000  Hf
  Hf20     1.0000 0.02919  0.54936  0.66273  Biso   1.000  Hf
  Hf21     1.0000 0.52977  0.08559  0.65188  Biso   1.000  Hf
  Hf22     1.0000 0.52125  0.58186  0.65624  Biso   1.000  Hf
  Hf23     1.0000 0.45944  0.41345  0.34031  Biso   1.000  Hf
  Hf24     1.0000 0.47166  0.91421  0.33412  Biso   1.000  Hf
  Hf25     1.0000 0.94982  0.42620  0.32366  Biso   1.000  Hf
  Hf26     1.0000 0.95478  0.85323  0.50779  Biso   1.000  Hf
  Hf27     1.0000 0.45011  0.33646  0.84315  Biso   1.000  Hf
  Hf28     1.0000 0.46228  0.83574  0.83698  Biso   1.000  Hf
  Hf29     1.0000 0.94043  0.32362  0.82660  Biso   1.000  Hf
  Hf30     1.0000 0.96406  0.89659  0.00507  Biso   1.000  Hf
  Hf31     1.0000 0.27154  0.13280  0.47543  Biso   1.000  Hf
  Hf32     1.0000 0.27371  0.62051  0.45140  Biso   1.000  Hf
  Hf33     1.0000 0.77764  0.12450  0.48343  Biso   1.000  Hf
  Hf34     1.0000 0.75975  0.62460  0.49534  Biso   1.000  Hf
  Hf35     1.0000 0.26428  0.12945  0.95426  Biso   1.000  Hf
  Hf36     1.0000 0.26243  0.61715  0.97836  Biso   1.000  Hf
  Hf37     1.0000 0.75035  0.12525  0.99826  Biso   1.000  Hf
  Hf38     1.0000 0.76853  0.62537  0.98614  Biso   1.000  Hf
  Hf39     1.0000 0.22392  0.38022  0.00044  Biso   1.000  Hf
  Hf40     1.0000 0.23263  0.87840  0.98796  Biso   1.000  Hf
  Hf41     1.0000 0.72223  0.38272  0.01710  Biso   1.000  Hf
  Hf42     1.0000 0.72095  0.87552  0.02734  Biso   1.000  Hf
  Hf43     1.0000 0.21465  0.36969  0.50326  Biso   1.000  Hf
  Hf44     1.0000 0.24195  0.87158  0.48511  Biso   1.000  Hf
  Hf45     1.0000 0.71299  0.36716  0.51987  Biso   1.000  Hf
  Hf46     1.0000 0.71168  0.87436  0.53023  Biso   1.000  Hf
