data_image0
_cell_length_a       10.1954
_cell_length_b       10.4874
_cell_length_c       5.03374
_cell_angle_alpha    90
_cell_angle_beta     90
_cell_angle_gamma    90

_symmetry_space_group_name_H-M    "P 1"
_symmetry_int_tables_number       1

loop_
  _symmetry_equiv_pos_as_xyz
  'x, y, z'

loop_
  _atom_site_label
  _atom_site_occupancy
  _atom_site_fract_x
  _atom_site_fract_y
  _atom_site_fract_z
  _atom_site_thermal_displace_type
  _atom_site_B_iso_or_equiv
  _atom_site_type_symbol
  La1      1.0000 0.12109  0.00303  0.25110  Biso   1.000  La
  Hf1      1.0000 0.13794  0.51861  0.25905  Biso   1.000  Hf
  Hf2      1.0000 0.63374  0.01607  0.25187  Biso   1.000  Hf
  Hf3      1.0000 0.63141  0.51718  0.25848  Biso   1.000  Hf
  La2      1.0000 0.11979  0.24655  0.75104  Biso   1.000  La
  Hf4      1.0000 0.13666  0.73094  0.75904  Biso   1.000  Hf
  Hf5      1.0000 0.63244  0.23355  0.75180  Biso   1.000  Hf
  Hf6      1.0000 0.63013  0.73238  0.75846  Biso   1.000  Hf
  Hf7      1.0000 0.37249  0.26763  0.25249  Biso   1.000  Hf
  Hf8      1.0000 0.36955  0.76430  0.25386  Biso   1.000  Hf
  Hf9      1.0000 0.85269  0.27065  0.25221  Biso   1.000  Hf
  Hf10     1.0000 0.86158  0.76082  0.25458  Biso   1.000  Hf
  Hf11     1.0000 0.36831  0.48533  0.75391  Biso   1.000  Hf
  Hf12     1.0000 0.37124  0.98196  0.75251  Biso   1.000  Hf
  Hf13     1.0000 0.86035  0.48884  0.75457  Biso   1.000  Hf
  Hf14     1.0000 0.85138  0.97901  0.75224  Biso   1.000  Hf
  Hf15     1.0000 0.03193  0.20231  0.30568  Biso   1.000  Hf
  Hf16     1.0000 0.03586  0.68751  0.39518  Biso   1.000  Hf
  Hf17     1.0000 0.54360  0.18624  0.38088  Biso   1.000  Hf
  Hf18     1.0000 0.53314  0.68092  0.40337  Biso   1.000  Hf
  Hf19     1.0000 0.03072  0.04731  0.80564  Biso   1.000  Hf
  Hf20     1.0000 0.03462  0.56211  0.89509  Biso   1.000  Hf
  Hf21     1.0000 0.54239  0.06342  0.88085  Biso   1.000  Hf
  Hf22     1.0000 0.53190  0.56871  0.90335  Biso   1.000  Hf
  Hf23     1.0000 0.47230  0.43165  0.40238  Biso   1.000  Hf
  Hf24     1.0000 0.46640  0.93376  0.38711  Biso   1.000  Hf
  Hf25     1.0000 0.96827  0.43540  0.40561  Biso   1.000  Hf
  Hf26     1.0000 0.92758  0.92933  0.38903  Biso   1.000  Hf
  Hf27     1.0000 0.46519  0.31585  0.88709  Biso   1.000  Hf
  Hf28     1.0000 0.47107  0.81802  0.90241  Biso   1.000  Hf
  Hf29     1.0000 0.92635  0.32030  0.88892  Biso   1.000  Hf
  Hf30     1.0000 0.96698  0.81425  0.90565  Biso   1.000  Hf
  Hf31     1.0000 0.29115  0.12382  0.50594  Biso   1.000  Hf
  Hf32     1.0000 0.26930  0.61659  0.50553  Biso   1.000  Hf
  Hf33     1.0000 0.76756  0.11929  0.50488  Biso   1.000  Hf
  Hf34     1.0000 0.76758  0.61909  0.49753  Biso   1.000  Hf
  Hf35     1.0000 0.29240  0.12576  0.00599  Biso   1.000  Hf
  Hf36     1.0000 0.27055  0.63295  0.00547  Biso   1.000  Hf
  Hf37     1.0000 0.76877  0.13034  0.00494  Biso   1.000  Hf
  Hf38     1.0000 0.76634  0.63056  0.99747  Biso   1.000  Hf
  Hf39     1.0000 0.24558  0.39425  0.01445  Biso   1.000  Hf
  Hf40     1.0000 0.24085  0.87129  0.98940  Biso   1.000  Hf
  Hf41     1.0000 0.71712  0.38419  0.00666  Biso   1.000  Hf
  Hf42     1.0000 0.72949  0.87614  0.00835  Biso   1.000  Hf
  Hf43     1.0000 0.24210  0.37830  0.48939  Biso   1.000  Hf
  Hf44     1.0000 0.24439  0.85531  0.51445  Biso   1.000  Hf
  Hf45     1.0000 0.72830  0.37350  0.50827  Biso   1.000  Hf
  Hf46     1.0000 0.71586  0.86544  0.50671  Biso   1.000  Hf
