data_image0
_cell_length_a       10.1496
_cell_length_b       5.21089
_cell_length_c       10.1331
_cell_angle_alpha    90
_cell_angle_beta     90
_cell_angle_gamma    90

_symmetry_space_group_name_H-M    "P 1"
_symmetry_int_tables_number       1

loop_
  _symmetry_equiv_pos_as_xyz
  'x, y, z'

loop_
  _atom_site_label
  _atom_site_occupancy
  _atom_site_fract_x
  _atom_site_fract_y
  _atom_site_fract_z
  _atom_site_thermal_displace_type
  _atom_site_B_iso_or_equiv
  _atom_site_type_symbol
  La1      1.0000 0.12149  0.01966  0.12752  Biso   1.000  La
  Hf1      1.0000 0.14396  0.03181  0.62847  Biso   1.000  Hf
  Hf2      1.0000 0.63387  0.03007  0.12437  Biso   1.000  Hf
  Hf3      1.0000 0.64027  0.03068  0.62722  Biso   1.000  Hf
  Hf4      1.0000 0.14647  0.47109  0.38517  Biso   1.000  Hf
  Hf5      1.0000 0.14278  0.46913  0.87032  Biso   1.000  Hf
  Hf6      1.0000 0.63174  0.47229  0.38081  Biso   1.000  Hf
  Hf7      1.0000 0.63533  0.46647  0.87231  Biso   1.000  Hf
  Hf8      1.0000 0.36523  0.52794  0.12564  Biso   1.000  Hf
  Hf9      1.0000 0.37368  0.53635  0.62852  Biso   1.000  Hf
  Hf10     1.0000 0.85197  0.53005  0.11910  Biso   1.000  Hf
  Hf11     1.0000 0.86832  0.53406  0.63013  Biso   1.000  Hf
  Hf12     1.0000 0.36833  0.97120  0.37638  Biso   1.000  Hf
  Hf13     1.0000 0.37014  0.96801  0.87709  Biso   1.000  Hf
  La2      1.0000 0.87276  0.98679  0.37565  Biso   1.000  La
  Hf14     1.0000 0.86650  0.96460  0.88034  Biso   1.000  Hf
  Hf15     1.0000 0.02012  0.42714  0.21237  Biso   1.000  Hf
  Hf16     1.0000 0.04452  0.37150  0.68629  Biso   1.000  Hf
  Hf17     1.0000 0.52748  0.35909  0.19942  Biso   1.000  Hf
  Hf18     1.0000 0.54008  0.36596  0.69601  Biso   1.000  Hf
  Hf19     1.0000 0.07668  0.11104  0.43658  Biso   1.000  Hf
  Hf20     1.0000 0.03958  0.14566  0.91793  Biso   1.000  Hf
  Hf21     1.0000 0.53964  0.13008  0.44685  Biso   1.000  Hf
  Hf22     1.0000 0.53718  0.13759  0.94763  Biso   1.000  Hf
  Hf23     1.0000 0.46441  0.86612  0.19441  Biso   1.000  Hf
  Hf24     1.0000 0.47137  0.86737  0.70063  Biso   1.000  Hf
  Hf25     1.0000 0.90552  0.91307  0.13217  Biso   1.000  Hf
  Hf26     1.0000 0.96793  0.87371  0.69066  Biso   1.000  Hf
  Hf27     1.0000 0.46676  0.63840  0.44929  Biso   1.000  Hf
  Hf28     1.0000 0.47141  0.63645  0.94552  Biso   1.000  Hf
  Hf29     1.0000 0.97479  0.60035  0.45871  Biso   1.000  Hf
  Hf30     1.0000 0.96937  0.62927  0.93844  Biso   1.000  Hf
  Hf31     1.0000 0.27756  0.24664  0.25543  Biso   1.000  Hf
  Hf32     1.0000 0.27706  0.23736  0.75044  Biso   1.000  Hf
  Hf33     1.0000 0.75338  0.25901  0.24332  Biso   1.000  Hf
  Hf34     1.0000 0.77589  0.23070  0.75093  Biso   1.000  Hf
  Hf35     1.0000 0.28655  0.26474  0.50593  Biso   1.000  Hf
  Hf36     1.0000 0.27752  0.26797  0.99529  Biso   1.000  Hf
  Hf37     1.0000 0.76202  0.28263  0.50840  Biso   1.000  Hf
  Hf38     1.0000 0.76967  0.26630  0.99409  Biso   1.000  Hf
  Hf39     1.0000 0.23950  0.76341  0.50521  Biso   1.000  Hf
  Hf40     1.0000 0.24100  0.74900  0.99316  Biso   1.000  Hf
  Hf41     1.0000 0.72483  0.75441  0.50751  Biso   1.000  Hf
  Hf42     1.0000 0.72094  0.75751  0.99420  Biso   1.000  Hf
  Hf43     1.0000 0.24309  0.72169  0.25877  Biso   1.000  Hf
  Hf44     1.0000 0.23619  0.73895  0.74789  Biso   1.000  Hf
  Hf45     1.0000 0.71654  0.73141  0.24582  Biso   1.000  Hf
  Hf46     1.0000 0.73661  0.73663  0.75278  Biso   1.000  Hf
