data_image0
_cell_length_a       10.2587
_cell_length_b       10.4371
_cell_length_c       5.2199
_cell_angle_alpha    90
_cell_angle_beta     80
_cell_angle_gamma    90

_symmetry_space_group_name_H-M    "P 1"
_symmetry_int_tables_number       1

loop_
  _symmetry_equiv_pos_as_xyz
  'x, y, z'

loop_
  _atom_site_label
  _atom_site_occupancy
  _atom_site_fract_x
  _atom_site_fract_y
  _atom_site_fract_z
  _atom_site_thermal_displace_type
  _atom_site_B_iso_or_equiv
  _atom_site_type_symbol
  La1      1.0000 0.12570  0.00522  0.27793  Biso   1.000  La
  Hf1      1.0000 0.13741  0.52397  0.28693  Biso   1.000  Hf
  Hf2      1.0000 0.63049  0.01664  0.30051  Biso   1.000  Hf
  Hf3      1.0000 0.63766  0.51389  0.29486  Biso   1.000  Hf
  Hf4      1.0000 0.13531  0.23308  0.77220  Biso   1.000  Hf
  Hf5      1.0000 0.13270  0.72688  0.79202  Biso   1.000  Hf
  Hf6      1.0000 0.62329  0.23008  0.80841  Biso   1.000  Hf
  Hf7      1.0000 0.63108  0.72324  0.79803  Biso   1.000  Hf
  Hf8      1.0000 0.35365  0.26922  0.20325  Biso   1.000  Hf
  Hf9      1.0000 0.36646  0.76326  0.20444  Biso   1.000  Hf
  La2      1.0000 0.87129  0.26060  0.22580  Biso   1.000  La
  Hf10     1.0000 0.85820  0.76569  0.21387  Biso   1.000  Hf
  Hf11     1.0000 0.35454  0.47902  0.70284  Biso   1.000  Hf
  Hf12     1.0000 0.35847  0.97372  0.70322  Biso   1.000  Hf
  Hf13     1.0000 0.85568  0.48262  0.71221  Biso   1.000  Hf
  Hf14     1.0000 0.84388  0.97525  0.73296  Biso   1.000  Hf
  Hf15     1.0000 0.08242  0.21159  0.16486  Biso   1.000  Hf
  Hf16     1.0000 0.04606  0.69124  0.18230  Biso   1.000  Hf
  Hf17     1.0000 0.52851  0.16807  0.16783  Biso   1.000  Hf
  Hf18     1.0000 0.53786  0.66243  0.15992  Biso   1.000  Hf
  Hf19     1.0000 0.01501  0.07975  0.71316  Biso   1.000  Hf
  Hf20     1.0000 0.03448  0.57629  0.67934  Biso   1.000  Hf
  Hf21     1.0000 0.51976  0.08156  0.66795  Biso   1.000  Hf
  Hf22     1.0000 0.52773  0.57921  0.66133  Biso   1.000  Hf
  Hf23     1.0000 0.46244  0.41482  0.33821  Biso   1.000  Hf
  Hf24     1.0000 0.46290  0.91557  0.33762  Biso   1.000  Hf
  Hf25     1.0000 0.95489  0.45440  0.32448  Biso   1.000  Hf
  Hf26     1.0000 0.92028  0.93724  0.33805  Biso   1.000  Hf
  Hf27     1.0000 0.45207  0.33023  0.84184  Biso   1.000  Hf
  Hf28     1.0000 0.46451  0.82972  0.84319  Biso   1.000  Hf
  Hf29     1.0000 0.95838  0.32708  0.78912  Biso   1.000  Hf
  Hf30     1.0000 0.95572  0.82688  0.83903  Biso   1.000  Hf
  Hf31     1.0000 0.27354  0.13140  0.48602  Biso   1.000  Hf
  Hf32     1.0000 0.27384  0.62409  0.47721  Biso   1.000  Hf
  Hf33     1.0000 0.74885  0.11956  0.52022  Biso   1.000  Hf
  Hf34     1.0000 0.76901  0.63001  0.48909  Biso   1.000  Hf
  Hf35     1.0000 0.27547  0.12425  0.95879  Biso   1.000  Hf
  Hf36     1.0000 0.26537  0.61944  0.98115  Biso   1.000  Hf
  Hf37     1.0000 0.74592  0.10831  0.99748  Biso   1.000  Hf
  Hf38     1.0000 0.76769  0.61925  0.99130  Biso   1.000  Hf
  Hf39     1.0000 0.21678  0.38730  0.00355  Biso   1.000  Hf
  Hf40     1.0000 0.23265  0.86647  0.99479  Biso   1.000  Hf
  Hf41     1.0000 0.72162  0.38230  0.01166  Biso   1.000  Hf
  Hf42     1.0000 0.72489  0.87114  0.02824  Biso   1.000  Hf
  Hf43     1.0000 0.22006  0.37388  0.50432  Biso   1.000  Hf
  Hf44     1.0000 0.23131  0.85615  0.51887  Biso   1.000  Hf
  Hf45     1.0000 0.71245  0.37597  0.53826  Biso   1.000  Hf
  Hf46     1.0000 0.70862  0.86585  0.53537  Biso   1.000  Hf
