data_image0
_cell_length_a       5.11572
_cell_length_b       10.4601
_cell_length_c       10.4911
_cell_angle_alpha    90
_cell_angle_beta     80
_cell_angle_gamma    90

_symmetry_space_group_name_H-M    "P 1"
_symmetry_int_tables_number       1

loop_
  _symmetry_equiv_pos_as_xyz
  'x, y, z'

loop_
  _atom_site_label
  _atom_site_occupancy
  _atom_site_fract_x
  _atom_site_fract_y
  _atom_site_fract_z
  _atom_site_thermal_displace_type
  _atom_site_B_iso_or_equiv
  _atom_site_type_symbol
  La1      1.0000 0.25570  0.00662  0.13674  Biso   1.000  La
  Hf1      1.0000 0.24207  0.01775  0.65111  Biso   1.000  Hf
  Hf2      1.0000 0.28081  0.51918  0.14116  Biso   1.000  Hf
  Hf3      1.0000 0.23998  0.52188  0.64960  Biso   1.000  Hf
  La2      1.0000 0.24145  0.23500  0.38959  Biso   1.000  La
  Hf4      1.0000 0.23682  0.22884  0.89822  Biso   1.000  Hf
  Hf5      1.0000 0.25246  0.72428  0.39907  Biso   1.000  Hf
  Hf6      1.0000 0.24501  0.72491  0.89534  Biso   1.000  Hf
  Hf7      1.0000 0.72470  0.27313  0.10027  Biso   1.000  Hf
  Hf8      1.0000 0.67710  0.26733  0.61298  Biso   1.000  Hf
  Hf9      1.0000 0.72416  0.76142  0.10261  Biso   1.000  Hf
  Hf10     1.0000 0.68941  0.76904  0.60637  Biso   1.000  Hf
  Hf11     1.0000 0.70560  0.48560  0.35280  Biso   1.000  Hf
  Hf12     1.0000 0.68426  0.47441  0.85458  Biso   1.000  Hf
  Hf13     1.0000 0.68496  0.97477  0.36196  Biso   1.000  Hf
  Hf14     1.0000 0.69256  0.97398  0.85639  Biso   1.000  Hf
  Hf15     1.0000 0.08630  0.19623  0.08203  Biso   1.000  Hf
  Hf16     1.0000 0.02443  0.16905  0.60385  Biso   1.000  Hf
  Hf17     1.0000 0.08796  0.67830  0.08412  Biso   1.000  Hf
  Hf18     1.0000 0.03890  0.66781  0.58523  Biso   1.000  Hf
  Hf19     1.0000 0.04061  0.04705  0.35296  Biso   1.000  Hf
  Hf20     1.0000 0.03954  0.07223  0.84216  Biso   1.000  Hf
  Hf21     1.0000 0.06783  0.57050  0.33431  Biso   1.000  Hf
  Hf22     1.0000 0.03249  0.57590  0.83568  Biso   1.000  Hf
  Hf23     1.0000 0.93379  0.42363  0.16765  Biso   1.000  Hf
  Hf24     1.0000 0.89363  0.41850  0.66912  Biso   1.000  Hf
  Hf25     1.0000 0.84815  0.92688  0.16617  Biso   1.000  Hf
  Hf26     1.0000 0.89631  0.91547  0.67323  Biso   1.000  Hf
  Hf27     1.0000 0.83831  0.32105  0.42225  Biso   1.000  Hf
  Hf28     1.0000 0.88518  0.32787  0.91653  Biso   1.000  Hf
  Hf29     1.0000 0.89471  0.81915  0.41926  Biso   1.000  Hf
  Hf30     1.0000 0.91093  0.83004  0.92405  Biso   1.000  Hf
  Hf31     1.0000 0.57446  0.13061  0.24082  Biso   1.000  Hf
  Hf32     1.0000 0.50924  0.12574  0.74625  Biso   1.000  Hf
  Hf33     1.0000 0.54426  0.62595  0.23903  Biso   1.000  Hf
  Hf34     1.0000 0.51552  0.62672  0.74134  Biso   1.000  Hf
  Hf35     1.0000 0.52185  0.11105  0.50475  Biso   1.000  Hf
  Hf36     1.0000 0.52388  0.12219  0.98466  Biso   1.000  Hf
  Hf37     1.0000 0.52533  0.62293  0.49149  Biso   1.000  Hf
  Hf38     1.0000 0.50909  0.61191  0.99126  Biso   1.000  Hf
  Hf39     1.0000 0.45723  0.38208  0.00258  Biso   1.000  Hf
  Hf40     1.0000 0.42323  0.39036  0.51776  Biso   1.000  Hf
  Hf41     1.0000 0.43980  0.85888  0.99624  Biso   1.000  Hf
  Hf42     1.0000 0.41439  0.87433  0.51445  Biso   1.000  Hf
  Hf43     1.0000 0.46603  0.38318  0.24429  Biso   1.000  Hf
  Hf44     1.0000 0.41072  0.36822  0.76220  Biso   1.000  Hf
  Hf45     1.0000 0.43507  0.85284  0.26683  Biso   1.000  Hf
  Hf46     1.0000 0.41647  0.86744  0.75917  Biso   1.000  Hf
