data_image0
_cell_length_a       5.11832
_cell_length_b       10.268
_cell_length_c       10.2396
_cell_angle_alpha    90
_cell_angle_beta     90
_cell_angle_gamma    90

_symmetry_space_group_name_H-M    "P 1"
_symmetry_int_tables_number       1

loop_
  _symmetry_equiv_pos_as_xyz
  'x, y, z'

loop_
  _atom_site_label
  _atom_site_occupancy
  _atom_site_fract_x
  _atom_site_fract_y
  _atom_site_fract_z
  _atom_site_thermal_displace_type
  _atom_site_B_iso_or_equiv
  _atom_site_type_symbol
  La1      1.0000 0.26622  0.99654  0.13325  Biso   1.000  La
  Hf1      1.0000 0.35679  0.00397  0.63028  Biso   1.000  Hf
  Hf2      1.0000 0.25346  0.50899  0.12268  Biso   1.000  Hf
  Hf3      1.0000 0.36086  0.48827  0.63342  Biso   1.000  Hf
  Hf4      1.0000 0.29960  0.27098  0.37790  Biso   1.000  Hf
  Hf5      1.0000 0.38818  0.26222  0.88393  Biso   1.000  Hf
  Hf6      1.0000 0.30135  0.75458  0.38615  Biso   1.000  Hf
  Hf7      1.0000 0.39427  0.75271  0.87399  Biso   1.000  Hf
  La2      1.0000 0.76621  0.25480  0.13324  Biso   1.000  La
  Hf8      1.0000 0.85691  0.24753  0.63026  Biso   1.000  Hf
  Hf9      1.0000 0.75351  0.74236  0.12274  Biso   1.000  Hf
  Hf10     1.0000 0.86093  0.76318  0.63342  Biso   1.000  Hf
  Hf11     1.0000 0.79961  0.98047  0.37792  Biso   1.000  Hf
  Hf12     1.0000 0.88809  0.98966  0.88395  Biso   1.000  Hf
  Hf13     1.0000 0.80128  0.49693  0.38612  Biso   1.000  Hf
  Hf14     1.0000 0.89394  0.49917  0.87394  Biso   1.000  Hf
  Hf15     1.0000 0.15774  0.13113  0.97824  Biso   1.000  Hf
  Hf16     1.0000 0.18689  0.15967  0.52889  Biso   1.000  Hf
  Hf17     1.0000 0.16651  0.63468  0.98413  Biso   1.000  Hf
  Hf18     1.0000 0.98204  0.66034  0.47139  Biso   1.000  Hf
  Hf19     1.0000 0.02407  0.12090  0.29052  Biso   1.000  Hf
  Hf20     1.0000 0.03468  0.09612  0.73738  Biso   1.000  Hf
  Hf21     1.0000 0.91620  0.59235  0.21965  Biso   1.000  Hf
  Hf22     1.0000 0.07425  0.60308  0.72596  Biso   1.000  Hf
  Hf23     1.0000 0.06149  0.37552  0.25958  Biso   1.000  Hf
  Hf24     1.0000 0.13968  0.35141  0.75011  Biso   1.000  Hf
  Hf25     1.0000 0.02830  0.84420  0.26103  Biso   1.000  Hf
  Hf26     1.0000 0.14418  0.85405  0.74900  Biso   1.000  Hf
  Hf27     1.0000 0.13073  0.39500  0.99228  Biso   1.000  Hf
  Hf28     1.0000 0.06344  0.40078  0.50858  Biso   1.000  Hf
  Hf29     1.0000 0.97836  0.87354  0.00114  Biso   1.000  Hf
  Hf30     1.0000 0.07948  0.90289  0.50667  Biso   1.000  Hf
  Hf31     1.0000 0.52410  0.13049  0.29048  Biso   1.000  Hf
  Hf32     1.0000 0.53480  0.15530  0.73755  Biso   1.000  Hf
  Hf33     1.0000 0.41620  0.65897  0.21972  Biso   1.000  Hf
  Hf34     1.0000 0.57438  0.64834  0.72623  Biso   1.000  Hf
  Hf35     1.0000 0.65779  0.12083  0.97840  Biso   1.000  Hf
  Hf36     1.0000 0.68676  0.09183  0.52889  Biso   1.000  Hf
  Hf37     1.0000 0.66663  0.61729  0.98425  Biso   1.000  Hf
  Hf38     1.0000 0.48216  0.59119  0.47151  Biso   1.000  Hf
  Hf39     1.0000 0.47831  0.37773  0.00113  Biso   1.000  Hf
  Hf40     1.0000 0.57931  0.34860  0.50667  Biso   1.000  Hf
  Hf41     1.0000 0.63069  0.85700  0.99238  Biso   1.000  Hf
  Hf42     1.0000 0.56356  0.85070  0.50862  Biso   1.000  Hf
  Hf43     1.0000 0.52842  0.40719  0.26102  Biso   1.000  Hf
  Hf44     1.0000 0.64414  0.39740  0.74903  Biso   1.000  Hf
  Hf45     1.0000 0.56136  0.87587  0.25964  Biso   1.000  Hf
  Hf46     1.0000 0.63976  0.90006  0.75018  Biso   1.000  Hf
