data_image0
_cell_length_a       10.1807
_cell_length_b       5.23025
_cell_length_c       10.0981
_cell_angle_alpha    90
_cell_angle_beta     90
_cell_angle_gamma    90

_symmetry_space_group_name_H-M    "P 1"
_symmetry_int_tables_number       1

loop_
  _symmetry_equiv_pos_as_xyz
  'x, y, z'

loop_
  _atom_site_label
  _atom_site_occupancy
  _atom_site_fract_x
  _atom_site_fract_y
  _atom_site_fract_z
  _atom_site_thermal_displace_type
  _atom_site_B_iso_or_equiv
  _atom_site_type_symbol
  La1      1.0000 0.11946  0.00795  0.12189  Biso   1.000  La
  La2      1.0000 0.11367  0.00143  0.62208  Biso   1.000  La
  Hf1      1.0000 0.63259  0.02683  0.12764  Biso   1.000  Hf
  Hf2      1.0000 0.62678  0.02032  0.62758  Biso   1.000  Hf
  Hf3      1.0000 0.13291  0.46696  0.37406  Biso   1.000  Hf
  Hf4      1.0000 0.12714  0.46040  0.87394  Biso   1.000  Hf
  Hf5      1.0000 0.62837  0.45554  0.37847  Biso   1.000  Hf
  Hf6      1.0000 0.62260  0.44896  0.87845  Biso   1.000  Hf
  Hf7      1.0000 0.36830  0.52166  0.12541  Biso   1.000  Hf
  Hf8      1.0000 0.36251  0.51505  0.62530  Biso   1.000  Hf
  Hf9      1.0000 0.85472  0.53168  0.12917  Biso   1.000  Hf
  Hf10     1.0000 0.84893  0.52509  0.62907  Biso   1.000  Hf
  Hf11     1.0000 0.36363  0.95696  0.37377  Biso   1.000  Hf
  Hf12     1.0000 0.35795  0.95027  0.87376  Biso   1.000  Hf
  Hf13     1.0000 0.85155  0.95948  0.37891  Biso   1.000  Hf
  Hf14     1.0000 0.84573  0.95292  0.87872  Biso   1.000  Hf
  Hf15     1.0000 0.03231  0.42332  0.19302  Biso   1.000  Hf
  Hf16     1.0000 0.02658  0.41704  0.69290  Biso   1.000  Hf
  Hf17     1.0000 0.53604  0.35866  0.19522  Biso   1.000  Hf
  Hf18     1.0000 0.53026  0.35208  0.69522  Biso   1.000  Hf
  Hf19     1.0000 0.02769  0.13842  0.40939  Biso   1.000  Hf
  Hf20     1.0000 0.02202  0.13163  0.90899  Biso   1.000  Hf
  Hf21     1.0000 0.53359  0.12115  0.44666  Biso   1.000  Hf
  Hf22     1.0000 0.52790  0.11451  0.94657  Biso   1.000  Hf
  Hf23     1.0000 0.46318  0.86211  0.19465  Biso   1.000  Hf
  Hf24     1.0000 0.45740  0.85550  0.69460  Biso   1.000  Hf
  Hf25     1.0000 0.92125  0.88012  0.19399  Biso   1.000  Hf
  Hf26     1.0000 0.91522  0.87386  0.69360  Biso   1.000  Hf
  Hf27     1.0000 0.46696  0.62640  0.44771  Biso   1.000  Hf
  Hf28     1.0000 0.46121  0.61981  0.94773  Biso   1.000  Hf
  Hf29     1.0000 0.96506  0.64798  0.45364  Biso   1.000  Hf
  Hf30     1.0000 0.95933  0.64142  0.95360  Biso   1.000  Hf
  Hf31     1.0000 0.27887  0.24058  0.25451  Biso   1.000  Hf
  Hf32     1.0000 0.27316  0.23396  0.75449  Biso   1.000  Hf
  Hf33     1.0000 0.76405  0.23687  0.25255  Biso   1.000  Hf
  Hf34     1.0000 0.75824  0.23048  0.75253  Biso   1.000  Hf
  Hf35     1.0000 0.27043  0.25444  0.49530  Biso   1.000  Hf
  Hf36     1.0000 0.26469  0.24779  0.99525  Biso   1.000  Hf
  Hf37     1.0000 0.76480  0.25369  0.50127  Biso   1.000  Hf
  Hf38     1.0000 0.77072  0.26021  0.00128  Biso   1.000  Hf
  Hf39     1.0000 0.23767  0.73776  0.49258  Biso   1.000  Hf
  Hf40     1.0000 0.23192  0.73108  0.99251  Biso   1.000  Hf
  Hf41     1.0000 0.72122  0.74980  0.50339  Biso   1.000  Hf
  Hf42     1.0000 0.72712  0.75652  0.00344  Biso   1.000  Hf
  Hf43     1.0000 0.24011  0.71415  0.25263  Biso   1.000  Hf
  Hf44     1.0000 0.23442  0.70752  0.75262  Biso   1.000  Hf
  Hf45     1.0000 0.71366  0.73060  0.25523  Biso   1.000  Hf
  Hf46     1.0000 0.70784  0.72412  0.75525  Biso   1.000  Hf
