data_image0
_cell_length_a       10.2111
_cell_length_b       5.18861
_cell_length_c       10.4411
_cell_angle_alpha    90
_cell_angle_beta     90
_cell_angle_gamma    90

_symmetry_space_group_name_H-M    "P 1"
_symmetry_int_tables_number       1

loop_
  _symmetry_equiv_pos_as_xyz
  'x, y, z'

loop_
  _atom_site_label
  _atom_site_occupancy
  _atom_site_fract_x
  _atom_site_fract_y
  _atom_site_fract_z
  _atom_site_thermal_displace_type
  _atom_site_B_iso_or_equiv
  _atom_site_type_symbol
  La1      1.0000 0.12262  0.01605  0.15604  Biso   1.000  La
  La2      1.0000 0.11048  0.01407  0.65589  Biso   1.000  La
  Hf1      1.0000 0.12991  0.45793  0.41495  Biso   1.000  Hf
  Hf2      1.0000 0.11772  0.45593  0.91482  Biso   1.000  Hf
  Hf3      1.0000 0.35771  0.52645  0.16720  Biso   1.000  Hf
  Hf4      1.0000 0.34556  0.52447  0.66707  Biso   1.000  Hf
  Hf5      1.0000 0.35044  0.95314  0.41576  Biso   1.000  Hf
  Hf6      1.0000 0.33828  0.95114  0.91562  Biso   1.000  Hf
  Hf7      1.0000 0.63858  0.03598  0.08298  Biso   1.000  Hf
  Hf8      1.0000 0.62644  0.03399  0.58285  Biso   1.000  Hf
  Hf9      1.0000 0.62873  0.45581  0.33166  Biso   1.000  Hf
  Hf10     1.0000 0.61659  0.45384  0.83149  Biso   1.000  Hf
  Hf11     1.0000 0.85586  0.53523  0.08067  Biso   1.000  Hf
  Hf12     1.0000 0.84369  0.53327  0.58056  Biso   1.000  Hf
  Hf13     1.0000 0.84241  0.96149  0.33864  Biso   1.000  Hf
  Hf14     1.0000 0.83029  0.95953  0.83853  Biso   1.000  Hf
  Hf15     1.0000 0.03964  0.42249  0.09822  Biso   1.000  Hf
  Hf16     1.0000 0.02745  0.42049  0.59810  Biso   1.000  Hf
  Hf17     1.0000 0.02047  0.14668  0.36208  Biso   1.000  Hf
  Hf18     1.0000 0.00837  0.14453  0.86200  Biso   1.000  Hf
  Hf19     1.0000 0.46713  0.82331  0.08239  Biso   1.000  Hf
  Hf20     1.0000 0.45500  0.82134  0.58225  Biso   1.000  Hf
  Hf21     1.0000 0.46292  0.66974  0.32968  Biso   1.000  Hf
  Hf22     1.0000 0.45076  0.66778  0.82953  Biso   1.000  Hf
  Hf23     1.0000 0.27236  0.24428  0.29443  Biso   1.000  Hf
  Hf24     1.0000 0.26020  0.24227  0.79428  Biso   1.000  Hf
  Hf25     1.0000 0.28071  0.24878  0.03430  Biso   1.000  Hf
  Hf26     1.0000 0.26857  0.24682  0.53417  Biso   1.000  Hf
  Hf27     1.0000 0.22418  0.72333  0.29136  Biso   1.000  Hf
  Hf28     1.0000 0.21202  0.72132  0.79122  Biso   1.000  Hf
  Hf29     1.0000 0.24074  0.72732  0.03060  Biso   1.000  Hf
  Hf30     1.0000 0.22860  0.72533  0.53047  Biso   1.000  Hf
  Hf31     1.0000 0.52891  0.31979  0.16764  Biso   1.000  Hf
  Hf32     1.0000 0.51678  0.31783  0.66751  Biso   1.000  Hf
  Hf33     1.0000 0.52566  0.16322  0.41719  Biso   1.000  Hf
  Hf34     1.0000 0.51349  0.16131  0.91708  Biso   1.000  Hf
  Hf35     1.0000 0.91061  0.88162  0.15307  Biso   1.000  Hf
  Hf36     1.0000 0.89844  0.87965  0.65295  Biso   1.000  Hf
  Hf37     1.0000 0.95030  0.65495  0.40328  Biso   1.000  Hf
  Hf38     1.0000 0.93801  0.65283  0.90315  Biso   1.000  Hf
  Hf39     1.0000 0.74936  0.24426  0.96090  Biso   1.000  Hf
  Hf40     1.0000 0.76156  0.24625  0.46103  Biso   1.000  Hf
  Hf41     1.0000 0.76885  0.26436  0.21250  Biso   1.000  Hf
  Hf42     1.0000 0.75673  0.26242  0.71236  Biso   1.000  Hf
  Hf43     1.0000 0.69808  0.74297  0.95939  Biso   1.000  Hf
  Hf44     1.0000 0.71027  0.74493  0.45952  Biso   1.000  Hf
  Hf45     1.0000 0.70358  0.75329  0.21297  Biso   1.000  Hf
  Hf46     1.0000 0.69141  0.75136  0.71282  Biso   1.000  Hf
