data_image0
_cell_length_a       5.0896
_cell_length_b       10.3286
_cell_length_c       10.1716
_cell_angle_alpha    90
_cell_angle_beta     90
_cell_angle_gamma    90

_symmetry_space_group_name_H-M    "P 1"
_symmetry_int_tables_number       1

loop_
  _symmetry_equiv_pos_as_xyz
  'x, y, z'

loop_
  _atom_site_label
  _atom_site_occupancy
  _atom_site_fract_x
  _atom_site_fract_y
  _atom_site_fract_z
  _atom_site_thermal_displace_type
  _atom_site_B_iso_or_equiv
  _atom_site_type_symbol
  La1      1.0000 0.25451  0.00008  0.12462  Biso   1.000  La
  Hf1      1.0000 0.25457  0.99979  0.62463  Biso   1.000  Hf
  Hf2      1.0000 0.25454  0.50009  0.12465  Biso   1.000  Hf
  La2      1.0000 0.25504  0.49978  0.62463  Biso   1.000  La
  Hf3      1.0000 0.24705  0.24997  0.37466  Biso   1.000  Hf
  Hf4      1.0000 0.26186  0.24967  0.87466  Biso   1.000  Hf
  Hf5      1.0000 0.26218  0.75000  0.37471  Biso   1.000  Hf
  Hf6      1.0000 0.24739  0.74966  0.87472  Biso   1.000  Hf
  Hf7      1.0000 0.75439  0.25760  0.12463  Biso   1.000  Hf
  Hf8      1.0000 0.75464  0.24227  0.62475  Biso   1.000  Hf
  Hf9      1.0000 0.75467  0.74254  0.12476  Biso   1.000  Hf
  Hf10     1.0000 0.75504  0.75733  0.62467  Biso   1.000  Hf
  Hf11     1.0000 0.75471  0.99997  0.37690  Biso   1.000  Hf
  Hf12     1.0000 0.75457  0.99972  0.87229  Biso   1.000  Hf
  Hf13     1.0000 0.75505  0.49973  0.37227  Biso   1.000  Hf
  Hf14     1.0000 0.75488  0.49989  0.87693  Biso   1.000  Hf
  Hf15     1.0000 0.00856  0.15268  0.99802  Biso   1.000  Hf
  Hf16     1.0000 0.03936  0.14496  0.51103  Biso   1.000  Hf
  Hf17     1.0000 0.03921  0.64522  0.01091  Biso   1.000  Hf
  Hf18     1.0000 0.00903  0.65277  0.49796  Biso   1.000  Hf
  Hf19     1.0000 0.97502  0.11787  0.26361  Biso   1.000  Hf
  Hf20     1.0000 0.97835  0.10044  0.74749  Biso   1.000  Hf
  Hf21     1.0000 0.97805  0.60073  0.24738  Biso   1.000  Hf
  Hf22     1.0000 0.97547  0.61763  0.76361  Biso   1.000  Hf
  Hf23     1.0000 0.03890  0.35499  0.23846  Biso   1.000  Hf
  Hf24     1.0000 0.00900  0.34683  0.75131  Biso   1.000  Hf
  Hf25     1.0000 0.00924  0.84707  0.25124  Biso   1.000  Hf
  Hf26     1.0000 0.03992  0.85463  0.73822  Biso   1.000  Hf
  Hf27     1.0000 0.97809  0.39949  0.00192  Biso   1.000  Hf
  Hf28     1.0000 0.97516  0.38202  0.48579  Biso   1.000  Hf
  Hf29     1.0000 0.97556  0.88183  0.98560  Biso   1.000  Hf
  Hf30     1.0000 0.97905  0.89915  0.50173  Biso   1.000  Hf
  Hf31     1.0000 0.50042  0.15305  0.25130  Biso   1.000  Hf
  Hf32     1.0000 0.46982  0.14494  0.73828  Biso   1.000  Hf
  Hf33     1.0000 0.46954  0.64530  0.23808  Biso   1.000  Hf
  Hf34     1.0000 0.50093  0.65282  0.75124  Biso   1.000  Hf
  Hf35     1.0000 0.53399  0.11745  0.98567  Biso   1.000  Hf
  Hf36     1.0000 0.53084  0.10038  0.50187  Biso   1.000  Hf
  Hf37     1.0000 0.53060  0.60071  0.00171  Biso   1.000  Hf
  Hf38     1.0000 0.53439  0.61764  0.48553  Biso   1.000  Hf
  Hf39     1.0000 0.46951  0.35489  0.01118  Biso   1.000  Hf
  Hf40     1.0000 0.50056  0.34670  0.49803  Biso   1.000  Hf
  Hf41     1.0000 0.50088  0.84658  0.99803  Biso   1.000  Hf
  Hf42     1.0000 0.47037  0.85462  0.51109  Biso   1.000  Hf
  Hf43     1.0000 0.53035  0.39941  0.24760  Biso   1.000  Hf
  Hf44     1.0000 0.53434  0.38188  0.76376  Biso   1.000  Hf
  Hf45     1.0000 0.53459  0.88216  0.26375  Biso   1.000  Hf
  Hf46     1.0000 0.53137  0.89913  0.74753  Biso   1.000  Hf
