data_image0
_cell_length_a       10.1706
_cell_length_b       10.3622
_cell_length_c       5.25804
_cell_angle_alpha    90
_cell_angle_beta     90
_cell_angle_gamma    90

_symmetry_space_group_name_H-M    "P 1"
_symmetry_int_tables_number       1

loop_
  _symmetry_equiv_pos_as_xyz
  'x, y, z'

loop_
  _atom_site_label
  _atom_site_occupancy
  _atom_site_fract_x
  _atom_site_fract_y
  _atom_site_fract_z
  _atom_site_thermal_displace_type
  _atom_site_B_iso_or_equiv
  _atom_site_type_symbol
  La1      1.0000 0.11602  0.00211  0.30690  Biso   1.000  La
  Hf1      1.0000 0.13947  0.52161  0.33451  Biso   1.000  Hf
  Hf2      1.0000 0.13945  0.22832  0.82344  Biso   1.000  Hf
  Hf3      1.0000 0.13600  0.72949  0.84078  Biso   1.000  Hf
  Hf4      1.0000 0.35195  0.26662  0.31275  Biso   1.000  Hf
  Hf5      1.0000 0.36527  0.76458  0.33822  Biso   1.000  Hf
  Hf6      1.0000 0.35722  0.47893  0.82131  Biso   1.000  Hf
  Hf7      1.0000 0.36240  0.97294  0.83308  Biso   1.000  Hf
  Hf8      1.0000 0.63930  0.01682  0.17652  Biso   1.000  Hf
  Hf9      1.0000 0.63580  0.51561  0.15914  Biso   1.000  Hf
  La2      1.0000 0.61610  0.24309  0.69309  Biso   1.000  La
  Hf10     1.0000 0.63954  0.72353  0.66544  Biso   1.000  Hf
  Hf11     1.0000 0.86220  0.27224  0.16684  Biso   1.000  Hf
  Hf12     1.0000 0.85716  0.76624  0.17863  Biso   1.000  Hf
  Hf13     1.0000 0.86526  0.48063  0.66172  Biso   1.000  Hf
  Hf14     1.0000 0.85211  0.97856  0.68726  Biso   1.000  Hf
  Hf15     1.0000 0.04245  0.19598  0.17384  Biso   1.000  Hf
  Hf16     1.0000 0.02719  0.65548  0.14692  Biso   1.000  Hf
  Hf17     1.0000 0.02357  0.08542  0.69467  Biso   1.000  Hf
  Hf18     1.0000 0.02903  0.59397  0.65141  Biso   1.000  Hf
  Hf19     1.0000 0.48323  0.38137  0.06270  Biso   1.000  Hf
  Hf20     1.0000 0.47083  0.90884  0.17160  Biso   1.000  Hf
  Hf21     1.0000 0.45830  0.38456  0.54798  Biso   1.000  Hf
  Hf22     1.0000 0.47031  0.82698  0.66275  Biso   1.000  Hf
  Hf23     1.0000 0.28499  0.12764  0.57596  Biso   1.000  Hf
  Hf24     1.0000 0.27152  0.62124  0.57997  Biso   1.000  Hf
  Hf25     1.0000 0.27990  0.12876  0.04950  Biso   1.000  Hf
  Hf26     1.0000 0.27113  0.62327  0.07970  Biso   1.000  Hf
  Hf27     1.0000 0.21525  0.37075  0.57622  Biso   1.000  Hf
  Hf28     1.0000 0.23343  0.86390  0.58828  Biso   1.000  Hf
  Hf29     1.0000 0.22908  0.38134  0.07500  Biso   1.000  Hf
  Hf30     1.0000 0.24529  0.86049  0.06876  Biso   1.000  Hf
  Hf31     1.0000 0.52357  0.15973  0.30550  Biso   1.000  Hf
  Hf32     1.0000 0.52904  0.65120  0.34855  Biso   1.000  Hf
  Hf33     1.0000 0.54247  0.04919  0.82611  Biso   1.000  Hf
  Hf34     1.0000 0.52725  0.58965  0.85304  Biso   1.000  Hf
  Hf35     1.0000 0.97024  0.41815  0.33718  Biso   1.000  Hf
  Hf36     1.0000 0.95841  0.86069  0.45177  Biso   1.000  Hf
  Hf37     1.0000 0.97082  0.33636  0.82840  Biso   1.000  Hf
  Hf38     1.0000 0.98335  0.86374  0.93704  Biso   1.000  Hf
  Hf39     1.0000 0.77995  0.11642  0.95055  Biso   1.000  Hf
  Hf40     1.0000 0.77116  0.62189  0.92035  Biso   1.000  Hf
  Hf41     1.0000 0.78501  0.11750  0.42404  Biso   1.000  Hf
  Hf42     1.0000 0.77153  0.62392  0.41996  Biso   1.000  Hf
  Hf43     1.0000 0.74531  0.38466  0.93113  Biso   1.000  Hf
  Hf44     1.0000 0.72921  0.86380  0.92494  Biso   1.000  Hf
  Hf45     1.0000 0.73337  0.38127  0.41169  Biso   1.000  Hf
  Hf46     1.0000 0.71531  0.87439  0.42375  Biso   1.000  Hf
