data_image0
_cell_length_a       10.1485
_cell_length_b       10.3658
_cell_length_c       5.24797
_cell_angle_alpha    90
_cell_angle_beta     90
_cell_angle_gamma    90

_symmetry_space_group_name_H-M    "P 1"
_symmetry_int_tables_number       1

loop_
  _symmetry_equiv_pos_as_xyz
  'x, y, z'

loop_
  _atom_site_label
  _atom_site_occupancy
  _atom_site_fract_x
  _atom_site_fract_y
  _atom_site_fract_z
  _atom_site_thermal_displace_type
  _atom_site_B_iso_or_equiv
  _atom_site_type_symbol
  La1      1.0000 0.11044  0.00603  0.29878  Biso   1.000  La
  Hf1      1.0000 0.13851  0.51788  0.32180  Biso   1.000  Hf
  Hf2      1.0000 0.13133  0.23211  0.82164  Biso   1.000  Hf
  La2      1.0000 0.10378  0.74392  0.79865  Biso   1.000  La
  Hf3      1.0000 0.35305  0.26715  0.33028  Biso   1.000  Hf
  Hf4      1.0000 0.36242  0.76672  0.31825  Biso   1.000  Hf
  Hf5      1.0000 0.34610  0.48276  0.83010  Biso   1.000  Hf
  Hf6      1.0000 0.35548  0.98328  0.81813  Biso   1.000  Hf
  Hf7      1.0000 0.63566  0.02217  0.16285  Biso   1.000  Hf
  Hf8      1.0000 0.63462  0.51796  0.15345  Biso   1.000  Hf
  Hf9      1.0000 0.62753  0.23196  0.65330  Biso   1.000  Hf
  Hf10     1.0000 0.62886  0.72771  0.66265  Biso   1.000  Hf
  Hf11     1.0000 0.85564  0.27255  0.15548  Biso   1.000  Hf
  Hf12     1.0000 0.85047  0.76915  0.19525  Biso   1.000  Hf
  Hf13     1.0000 0.84871  0.47735  0.65535  Biso   1.000  Hf
  Hf14     1.0000 0.84356  0.98071  0.69518  Biso   1.000  Hf
  Hf15     1.0000 0.03724  0.19962  0.17420  Biso   1.000  Hf
  Hf16     1.0000 0.02211  0.66328  0.19431  Biso   1.000  Hf
  Hf17     1.0000 0.01496  0.08648  0.69468  Biso   1.000  Hf
  Hf18     1.0000 0.03014  0.55051  0.67359  Biso   1.000  Hf
  Hf19     1.0000 0.46656  0.41285  0.15692  Biso   1.000  Hf
  Hf20     1.0000 0.47375  0.91469  0.15577  Biso   1.000  Hf
  Hf21     1.0000 0.45946  0.33710  0.65667  Biso   1.000  Hf
  Hf22     1.0000 0.46662  0.83528  0.65560  Biso   1.000  Hf
  Hf23     1.0000 0.26991  0.13098  0.58024  Biso   1.000  Hf
  Hf24     1.0000 0.27569  0.61720  0.55852  Biso   1.000  Hf
  Hf25     1.0000 0.28261  0.13276  0.05881  Biso   1.000  Hf
  Hf26     1.0000 0.27716  0.61901  0.08040  Biso   1.000  Hf
  Hf27     1.0000 0.21639  0.37249  0.57215  Biso   1.000  Hf
  Hf28     1.0000 0.24243  0.87891  0.55028  Biso   1.000  Hf
  Hf29     1.0000 0.22347  0.37750  0.07230  Biso   1.000  Hf
  Hf30     1.0000 0.24949  0.87114  0.05047  Biso   1.000  Hf
  Hf31     1.0000 0.52939  0.16598  0.32750  Biso   1.000  Hf
  Hf32     1.0000 0.53484  0.66560  0.32235  Biso   1.000  Hf
  Hf33     1.0000 0.52760  0.08435  0.82219  Biso   1.000  Hf
  Hf34     1.0000 0.52240  0.58398  0.82727  Biso   1.000  Hf
  Hf35     1.0000 0.95527  0.42452  0.30689  Biso   1.000  Hf
  Hf36     1.0000 0.95542  0.85279  0.49495  Biso   1.000  Hf
  Hf37     1.0000 0.94805  0.32531  0.80681  Biso   1.000  Hf
  Hf38     1.0000 0.94834  0.89709  0.99488  Biso   1.000  Hf
  Hf39     1.0000 0.75780  0.12804  0.92469  Biso   1.000  Hf
  Hf40     1.0000 0.76854  0.62492  0.92003  Biso   1.000  Hf
  Hf41     1.0000 0.77552  0.12493  0.42023  Biso   1.000  Hf
  Hf42     1.0000 0.76503  0.62184  0.42477  Biso   1.000  Hf
  Hf43     1.0000 0.71079  0.37654  0.90456  Biso   1.000  Hf
  Hf44     1.0000 0.70788  0.86896  0.92008  Biso   1.000  Hf
  Hf45     1.0000 0.71794  0.37336  0.40476  Biso   1.000  Hf
  Hf46     1.0000 0.71495  0.88089  0.42038  Biso   1.000  Hf
