data_image0
_cell_length_a       10.2146
_cell_length_b       10.4924
_cell_length_c       5.25454
_cell_angle_alpha    90
_cell_angle_beta     80
_cell_angle_gamma    90

_symmetry_space_group_name_H-M    "P 1"
_symmetry_int_tables_number       1

loop_
  _symmetry_equiv_pos_as_xyz
  'x, y, z'

loop_
  _atom_site_label
  _atom_site_occupancy
  _atom_site_fract_x
  _atom_site_fract_y
  _atom_site_fract_z
  _atom_site_thermal_displace_type
  _atom_site_B_iso_or_equiv
  _atom_site_type_symbol
  La1      1.0000 0.12663  0.01398  0.27832  Biso   1.000  La
  Hf1      1.0000 0.13599  0.52404  0.28675  Biso   1.000  Hf
  Hf2      1.0000 0.63534  0.01595  0.29365  Biso   1.000  Hf
  Hf3      1.0000 0.63682  0.52073  0.28836  Biso   1.000  Hf
  Hf4      1.0000 0.12945  0.23399  0.79550  Biso   1.000  Hf
  Hf5      1.0000 0.13084  0.72916  0.79032  Biso   1.000  Hf
  La2      1.0000 0.62070  0.23598  0.78017  Biso   1.000  La
  Hf6      1.0000 0.62988  0.72590  0.78870  Biso   1.000  Hf
  Hf7      1.0000 0.35270  0.27073  0.22818  Biso   1.000  Hf
  Hf8      1.0000 0.36357  0.76687  0.20217  Biso   1.000  Hf
  Hf9      1.0000 0.86037  0.27644  0.20118  Biso   1.000  Hf
  Hf10     1.0000 0.85547  0.76538  0.20459  Biso   1.000  Hf
  Hf11     1.0000 0.34936  0.48456  0.70637  Biso   1.000  Hf
  Hf12     1.0000 0.35458  0.97350  0.70313  Biso   1.000  Hf
  Hf13     1.0000 0.85735  0.48311  0.70407  Biso   1.000  Hf
  Hf14     1.0000 0.84689  0.97911  0.73023  Biso   1.000  Hf
  Hf15     1.0000 0.04155  0.20204  0.16944  Biso   1.000  Hf
  Hf16     1.0000 0.03655  0.67504  0.16275  Biso   1.000  Hf
  Hf17     1.0000 0.52747  0.17038  0.21177  Biso   1.000  Hf
  Hf18     1.0000 0.53742  0.66815  0.15858  Biso   1.000  Hf
  Hf19     1.0000 0.02130  0.07963  0.71384  Biso   1.000  Hf
  Hf20     1.0000 0.03120  0.58190  0.66039  Biso   1.000  Hf
  Hf21     1.0000 0.53523  0.04803  0.67133  Biso   1.000  Hf
  Hf22     1.0000 0.53043  0.57468  0.66495  Biso   1.000  Hf
  Hf23     1.0000 0.46336  0.41641  0.34896  Biso   1.000  Hf
  Hf24     1.0000 0.45845  0.91892  0.32384  Biso   1.000  Hf
  Hf25     1.0000 0.96278  0.42883  0.32911  Biso   1.000  Hf
  Hf26     1.0000 0.93306  0.91498  0.36407  Biso   1.000  Hf
  Hf27     1.0000 0.42650  0.33457  0.86557  Biso   1.000  Hf
  Hf28     1.0000 0.45672  0.82102  0.83109  Biso   1.000  Hf
  Hf29     1.0000 0.95210  0.33111  0.82596  Biso   1.000  Hf
  Hf30     1.0000 0.95741  0.83364  0.85141  Biso   1.000  Hf
  Hf31     1.0000 0.27209  0.13366  0.50113  Biso   1.000  Hf
  Hf32     1.0000 0.27281  0.62604  0.47377  Biso   1.000  Hf
  Hf33     1.0000 0.78030  0.12424  0.47198  Biso   1.000  Hf
  Hf34     1.0000 0.76911  0.63078  0.47757  Biso   1.000  Hf
  Hf35     1.0000 0.27411  0.12563  0.97390  Biso   1.000  Hf
  Hf36     1.0000 0.26306  0.61914  0.97954  Biso   1.000  Hf
  Hf37     1.0000 0.76598  0.11621  0.00318  Biso   1.000  Hf
  Hf38     1.0000 0.76670  0.62387  0.97566  Biso   1.000  Hf
  Hf39     1.0000 0.21669  0.38315  0.02218  Biso   1.000  Hf
  Hf40     1.0000 0.22665  0.86694  0.99698  Biso   1.000  Hf
  Hf41     1.0000 0.73340  0.39217  0.01550  Biso   1.000  Hf
  Hf42     1.0000 0.72331  0.87590  0.01792  Biso   1.000  Hf
  Hf43     1.0000 0.21701  0.37406  0.51985  Biso   1.000  Hf
  Hf44     1.0000 0.22745  0.85780  0.51758  Biso   1.000  Hf
  Hf45     1.0000 0.73269  0.38297  0.49498  Biso   1.000  Hf
  Hf46     1.0000 0.71073  0.86684  0.52422  Biso   1.000  Hf
