data_image0
_cell_length_a       5.14655
_cell_length_b       10.3456
_cell_length_c       10.7089
_cell_angle_alpha    90
_cell_angle_beta     80
_cell_angle_gamma    90

_symmetry_space_group_name_H-M    "P 1"
_symmetry_int_tables_number       1

loop_
  _symmetry_equiv_pos_as_xyz
  'x, y, z'

loop_
  _atom_site_label
  _atom_site_occupancy
  _atom_site_fract_x
  _atom_site_fract_y
  _atom_site_fract_z
  _atom_site_thermal_displace_type
  _atom_site_B_iso_or_equiv
  _atom_site_type_symbol
  La1      1.0000 0.25776  0.00813  0.14105  Biso   1.000  La
  Hf1      1.0000 0.23759  0.02215  0.65344  Biso   1.000  Hf
  Hf2      1.0000 0.27215  0.51804  0.13645  Biso   1.000  Hf
  Hf3      1.0000 0.21433  0.51874  0.64980  Biso   1.000  Hf
  Hf4      1.0000 0.24988  0.22848  0.40009  Biso   1.000  Hf
  Hf5      1.0000 0.22185  0.23122  0.89881  Biso   1.000  Hf
  Hf6      1.0000 0.20028  0.73780  0.41421  Biso   1.000  Hf
  Hf7      1.0000 0.21935  0.72512  0.89342  Biso   1.000  Hf
  Hf8      1.0000 0.70516  0.27027  0.10258  Biso   1.000  Hf
  Hf9      1.0000 0.67757  0.26522  0.60815  Biso   1.000  Hf
  Hf10     1.0000 0.72071  0.76075  0.08840  Biso   1.000  Hf
  Hf11     1.0000 0.64594  0.77117  0.61357  Biso   1.000  Hf
  La2      1.0000 0.69713  0.49061  0.36156  Biso   1.000  La
  Hf12     1.0000 0.66181  0.47427  0.85354  Biso   1.000  Hf
  Hf13     1.0000 0.64867  0.98058  0.36626  Biso   1.000  Hf
  Hf14     1.0000 0.65090  0.97757  0.85718  Biso   1.000  Hf
  Hf15     1.0000 0.05781  0.18287  0.07083  Biso   1.000  Hf
  Hf16     1.0000 0.02547  0.16175  0.58815  Biso   1.000  Hf
  Hf17     1.0000 0.06743  0.66628  0.06767  Biso   1.000  Hf
  Hf18     1.0000 0.97273  0.65352  0.57983  Biso   1.000  Hf
  Hf19     1.0000 0.03463  0.08029  0.34603  Biso   1.000  Hf
  Hf20     1.0000 0.02634  0.08368  0.83245  Biso   1.000  Hf
  Hf21     1.0000 0.09916  0.58969  0.31607  Biso   1.000  Hf
  Hf22     1.0000 0.99931  0.58524  0.82524  Biso   1.000  Hf
  Hf23     1.0000 0.92033  0.41858  0.15656  Biso   1.000  Hf
  Hf24     1.0000 0.87305  0.41278  0.67451  Biso   1.000  Hf
  Hf25     1.0000 0.82135  0.90883  0.18668  Biso   1.000  Hf
  Hf26     1.0000 0.86589  0.91107  0.68178  Biso   1.000  Hf
  Hf27     1.0000 0.89725  0.31593  0.43186  Biso   1.000  Hf
  Hf28     1.0000 0.87400  0.33468  0.91878  Biso   1.000  Hf
  Hf29     1.0000 0.85351  0.83235  0.43500  Biso   1.000  Hf
  Hf30     1.0000 0.89262  0.84282  0.92716  Biso   1.000  Hf
  Hf31     1.0000 0.55027  0.13394  0.25114  Biso   1.000  Hf
  Hf32     1.0000 0.50925  0.12606  0.74361  Biso   1.000  Hf
  Hf33     1.0000 0.54219  0.63177  0.21688  Biso   1.000  Hf
  Hf34     1.0000 0.48360  0.62607  0.74372  Biso   1.000  Hf
  Hf35     1.0000 0.50637  0.12064  0.49856  Biso   1.000  Hf
  Hf36     1.0000 0.50842  0.12422  0.98415  Biso   1.000  Hf
  Hf37     1.0000 0.45439  0.63419  0.50897  Biso   1.000  Hf
  Hf38     1.0000 0.48510  0.61292  0.98348  Biso   1.000  Hf
  Hf39     1.0000 0.44867  0.37814  0.00410  Biso   1.000  Hf
  Hf40     1.0000 0.39096  0.37225  0.52283  Biso   1.000  Hf
  Hf41     1.0000 0.41084  0.86211  0.99802  Biso   1.000  Hf
  Hf42     1.0000 0.38014  0.88335  0.52356  Biso   1.000  Hf
  Hf43     1.0000 0.40474  0.36488  0.25150  Biso   1.000  Hf
  Hf44     1.0000 0.39026  0.37032  0.76333  Biso   1.000  Hf
  Hf45     1.0000 0.37798  0.86724  0.28607  Biso   1.000  Hf
  Hf46     1.0000 0.38164  0.87020  0.76326  Biso   1.000  Hf
