data_image0
_cell_length_a       10.2812
_cell_length_b       5.21353
_cell_length_c       10.4711
_cell_angle_alpha    90
_cell_angle_beta     80
_cell_angle_gamma    90

_symmetry_space_group_name_H-M    "P 1"
_symmetry_int_tables_number       1

loop_
  _symmetry_equiv_pos_as_xyz
  'x, y, z'

loop_
  _atom_site_label
  _atom_site_occupancy
  _atom_site_fract_x
  _atom_site_fract_y
  _atom_site_fract_z
  _atom_site_thermal_displace_type
  _atom_site_B_iso_or_equiv
  _atom_site_type_symbol
  La1      1.0000 0.12611  0.02009  0.13884  Biso   1.000  La
  Hf1      1.0000 0.12016  0.02900  0.64880  Biso   1.000  Hf
  Hf2      1.0000 0.63347  0.03815  0.14635  Biso   1.000  Hf
  Hf3      1.0000 0.63064  0.03424  0.65067  Biso   1.000  Hf
  Hf4      1.0000 0.13155  0.45091  0.39945  Biso   1.000  Hf
  Hf5      1.0000 0.11528  0.46408  0.89853  Biso   1.000  Hf
  Hf6      1.0000 0.63430  0.45585  0.39188  Biso   1.000  Hf
  Hf7      1.0000 0.62092  0.45839  0.89725  Biso   1.000  Hf
  Hf8      1.0000 0.36288  0.52903  0.10381  Biso   1.000  Hf
  La2      1.0000 0.35693  0.52021  0.61377  Biso   1.000  La
  Hf9      1.0000 0.85241  0.53430  0.10181  Biso   1.000  Hf
  Hf10     1.0000 0.84958  0.53811  0.60620  Biso   1.000  Hf
  Hf11     1.0000 0.35125  0.95099  0.35314  Biso   1.000  Hf
  Hf12     1.0000 0.34485  0.96411  0.85770  Biso   1.000  Hf
  Hf13     1.0000 0.84848  0.95590  0.36070  Biso   1.000  Hf
  Hf14     1.0000 0.83920  0.95840  0.85892  Biso   1.000  Hf
  Hf15     1.0000 0.03703  0.40580  0.08597  Biso   1.000  Hf
  Hf16     1.0000 0.02346  0.34602  0.59030  Biso   1.000  Hf
  Hf17     1.0000 0.53899  0.34421  0.08123  Biso   1.000  Hf
  Hf18     1.0000 0.56212  0.36347  0.58361  Biso   1.000  Hf
  Hf19     1.0000 0.01757  0.16189  0.34588  Biso   1.000  Hf
  Hf20     1.0000 0.00911  0.15631  0.84415  Biso   1.000  Hf
  Hf21     1.0000 0.52784  0.15897  0.33374  Biso   1.000  Hf
  Hf22     1.0000 0.52337  0.15530  0.83832  Biso   1.000  Hf
  Hf23     1.0000 0.45942  0.84606  0.16224  Biso   1.000  Hf
  Hf24     1.0000 0.44575  0.90589  0.66652  Biso   1.000  Hf
  Hf25     1.0000 0.92063  0.86353  0.16900  Biso   1.000  Hf
  Hf26     1.0000 0.94386  0.84418  0.67130  Biso   1.000  Hf
  Hf27     1.0000 0.46538  0.66180  0.40666  Biso   1.000  Hf
  Hf28     1.0000 0.45120  0.65614  0.91188  Biso   1.000  Hf
  Hf29     1.0000 0.95511  0.65906  0.41881  Biso   1.000  Hf
  Hf30     1.0000 0.93702  0.65557  0.91787  Biso   1.000  Hf
  Hf31     1.0000 0.27594  0.25584  0.24684  Biso   1.000  Hf
  Hf32     1.0000 0.23929  0.23509  0.75619  Biso   1.000  Hf
  Hf33     1.0000 0.76661  0.26237  0.24228  Biso   1.000  Hf
  Hf34     1.0000 0.76169  0.25810  0.74443  Biso   1.000  Hf
  Hf35     1.0000 0.25341  0.21527  0.49136  Biso   1.000  Hf
  Hf36     1.0000 0.26233  0.24859  0.98803  Biso   1.000  Hf
  Hf37     1.0000 0.77393  0.24274  0.49033  Biso   1.000  Hf
  Hf38     1.0000 0.75143  0.23717  0.99580  Biso   1.000  Hf
  Hf39     1.0000 0.22107  0.73500  0.00005  Biso   1.000  Hf
  Hf40     1.0000 0.20700  0.75590  0.50575  Biso   1.000  Hf
  Hf41     1.0000 0.72123  0.75817  0.00813  Biso   1.000  Hf
  Hf42     1.0000 0.71633  0.76215  0.51029  Biso   1.000  Hf
  Hf43     1.0000 0.22952  0.71517  0.26121  Biso   1.000  Hf
  Hf44     1.0000 0.19788  0.74877  0.76821  Biso   1.000  Hf
  Hf45     1.0000 0.70886  0.74292  0.26227  Biso   1.000  Hf
  Hf46     1.0000 0.70881  0.73731  0.76032  Biso   1.000  Hf
