data_image0
_cell_length_a       5.10931
_cell_length_b       10.4849
_cell_length_c       10.4989
_cell_angle_alpha    90
_cell_angle_beta     80
_cell_angle_gamma    90

_symmetry_space_group_name_H-M    "P 1"
_symmetry_int_tables_number       1

loop_
  _symmetry_equiv_pos_as_xyz
  'x, y, z'

loop_
  _atom_site_label
  _atom_site_occupancy
  _atom_site_fract_x
  _atom_site_fract_y
  _atom_site_fract_z
  _atom_site_thermal_displace_type
  _atom_site_B_iso_or_equiv
  _atom_site_type_symbol
  La1      1.0000 0.26141  0.01303  0.14153  Biso   1.000  La
  La2      1.0000 0.23833  0.01100  0.64339  Biso   1.000  La
  Hf1      1.0000 0.25973  0.51729  0.14529  Biso   1.000  Hf
  Hf2      1.0000 0.23660  0.51523  0.64714  Biso   1.000  Hf
  Hf3      1.0000 0.25299  0.23297  0.39717  Biso   1.000  Hf
  Hf4      1.0000 0.22983  0.23092  0.89903  Biso   1.000  Hf
  Hf5      1.0000 0.25202  0.72109  0.39630  Biso   1.000  Hf
  Hf6      1.0000 0.22886  0.71903  0.89815  Biso   1.000  Hf
  Hf7      1.0000 0.70848  0.27290  0.10377  Biso   1.000  Hf
  Hf8      1.0000 0.68534  0.27086  0.60562  Biso   1.000  Hf
  Hf9      1.0000 0.70557  0.76044  0.10343  Biso   1.000  Hf
  Hf10     1.0000 0.68248  0.75839  0.60527  Biso   1.000  Hf
  Hf11     1.0000 0.69701  0.47625  0.35316  Biso   1.000  Hf
  Hf12     1.0000 0.67389  0.47419  0.85500  Biso   1.000  Hf
  Hf13     1.0000 0.68727  0.97631  0.36171  Biso   1.000  Hf
  Hf14     1.0000 0.66416  0.97425  0.86355  Biso   1.000  Hf
  Hf15     1.0000 0.06813  0.19599  0.08233  Biso   1.000  Hf
  Hf16     1.0000 0.04498  0.19393  0.58416  Biso   1.000  Hf
  Hf17     1.0000 0.06728  0.67358  0.08424  Biso   1.000  Hf
  Hf18     1.0000 0.04414  0.67152  0.58610  Biso   1.000  Hf
  Hf19     1.0000 0.05032  0.07556  0.35420  Biso   1.000  Hf
  Hf20     1.0000 0.02715  0.07353  0.85605  Biso   1.000  Hf
  Hf21     1.0000 0.04617  0.57613  0.33119  Biso   1.000  Hf
  Hf22     1.0000 0.02302  0.57410  0.83302  Biso   1.000  Hf
  Hf23     1.0000 0.90242  0.42698  0.16540  Biso   1.000  Hf
  Hf24     1.0000 0.87927  0.42494  0.66726  Biso   1.000  Hf
  Hf25     1.0000 0.84128  0.92433  0.17266  Biso   1.000  Hf
  Hf26     1.0000 0.81821  0.92226  0.67451  Biso   1.000  Hf
  Hf27     1.0000 0.89850  0.33011  0.41409  Biso   1.000  Hf
  Hf28     1.0000 0.87534  0.32804  0.91593  Biso   1.000  Hf
  Hf29     1.0000 0.91617  0.82988  0.42152  Biso   1.000  Hf
  Hf30     1.0000 0.89300  0.82780  0.92337  Biso   1.000  Hf
  Hf31     1.0000 0.54943  0.13839  0.24959  Biso   1.000  Hf
  Hf32     1.0000 0.52633  0.13635  0.75144  Biso   1.000  Hf
  Hf33     1.0000 0.52949  0.62266  0.23928  Biso   1.000  Hf
  Hf34     1.0000 0.50639  0.62062  0.74112  Biso   1.000  Hf
  Hf35     1.0000 0.53918  0.12543  0.48703  Biso   1.000  Hf
  Hf36     1.0000 0.51610  0.12340  0.98889  Biso   1.000  Hf
  Hf37     1.0000 0.51993  0.61341  0.49132  Biso   1.000  Hf
  Hf38     1.0000 0.49682  0.61138  0.99316  Biso   1.000  Hf
  Hf39     1.0000 0.44127  0.38136  0.00667  Biso   1.000  Hf
  Hf40     1.0000 0.41820  0.37932  0.50853  Biso   1.000  Hf
  Hf41     1.0000 0.41945  0.85972  0.00310  Biso   1.000  Hf
  Hf42     1.0000 0.44261  0.86175  0.50124  Biso   1.000  Hf
  Hf43     1.0000 0.42270  0.37279  0.25798  Biso   1.000  Hf
  Hf44     1.0000 0.39955  0.37075  0.75985  Biso   1.000  Hf
  Hf45     1.0000 0.42802  0.85473  0.26488  Biso   1.000  Hf
  Hf46     1.0000 0.40492  0.85265  0.76673  Biso   1.000  Hf
