data_image0
_cell_length_a       10.3232
_cell_length_b       5.19536
_cell_length_c       10.4766
_cell_angle_alpha    90
_cell_angle_beta     80
_cell_angle_gamma    90

_symmetry_space_group_name_H-M    "P 1"
_symmetry_int_tables_number       1

loop_
  _symmetry_equiv_pos_as_xyz
  'x, y, z'

loop_
  _atom_site_label
  _atom_site_occupancy
  _atom_site_fract_x
  _atom_site_fract_y
  _atom_site_fract_z
  _atom_site_thermal_displace_type
  _atom_site_B_iso_or_equiv
  _atom_site_type_symbol
  La1      1.0000 0.12673  0.01461  0.14013  Biso   1.000  La
  Hf1      1.0000 0.12658  0.03368  0.64910  Biso   1.000  Hf
  Hf2      1.0000 0.63766  0.03493  0.14730  Biso   1.000  Hf
  La2      1.0000 0.61562  0.01337  0.64195  Biso   1.000  La
  Hf3      1.0000 0.13289  0.45122  0.39703  Biso   1.000  Hf
  Hf4      1.0000 0.11268  0.46078  0.89912  Biso   1.000  Hf
  Hf5      1.0000 0.62374  0.46207  0.39732  Biso   1.000  Hf
  Hf6      1.0000 0.62176  0.44995  0.89881  Biso   1.000  Hf
  Hf7      1.0000 0.36270  0.52768  0.10430  Biso   1.000  Hf
  Hf8      1.0000 0.33876  0.53365  0.60497  Biso   1.000  Hf
  Hf9      1.0000 0.84984  0.53486  0.10321  Biso   1.000  Hf
  Hf10     1.0000 0.85158  0.52645  0.60604  Biso   1.000  Hf
  Hf11     1.0000 0.34808  0.95555  0.35440  Biso   1.000  Hf
  Hf12     1.0000 0.33156  0.95850  0.86074  Biso   1.000  Hf
  Hf13     1.0000 0.84267  0.95973  0.35895  Biso   1.000  Hf
  Hf14     1.0000 0.83698  0.95425  0.85621  Biso   1.000  Hf
  Hf15     1.0000 0.03358  0.40268  0.08670  Biso   1.000  Hf
  Hf16     1.0000 0.02697  0.34188  0.58700  Biso   1.000  Hf
  Hf17     1.0000 0.53814  0.34336  0.08524  Biso   1.000  Hf
  Hf18     1.0000 0.52245  0.40156  0.58852  Biso   1.000  Hf
  Hf19     1.0000 0.01918  0.16531  0.34667  Biso   1.000  Hf
  Hf20     1.0000 0.01922  0.14754  0.84003  Biso   1.000  Hf
  Hf21     1.0000 0.53034  0.14869  0.33829  Biso   1.000  Hf
  Hf22     1.0000 0.50805  0.16393  0.84850  Biso   1.000  Hf
  Hf23     1.0000 0.45607  0.84274  0.16626  Biso   1.000  Hf
  Hf24     1.0000 0.40191  0.86762  0.66968  Biso   1.000  Hf
  Hf25     1.0000 0.91305  0.86862  0.16799  Biso   1.000  Hf
  Hf26     1.0000 0.94499  0.84135  0.66809  Biso   1.000  Hf
  Hf27     1.0000 0.44756  0.65569  0.41733  Biso   1.000  Hf
  Hf28     1.0000 0.45374  0.66867  0.91481  Biso   1.000  Hf
  Hf29     1.0000 0.96481  0.67001  0.41319  Biso   1.000  Hf
  Hf30     1.0000 0.93652  0.65463  0.91917  Biso   1.000  Hf
  Hf31     1.0000 0.27730  0.25463  0.24700  Biso   1.000  Hf
  Hf32     1.0000 0.25319  0.26434  0.74528  Biso   1.000  Hf
  Hf33     1.0000 0.76428  0.26566  0.24348  Biso   1.000  Hf
  Hf34     1.0000 0.76615  0.25331  0.74879  Biso   1.000  Hf
  Hf35     1.0000 0.26330  0.23349  0.49428  Biso   1.000  Hf
  Hf36     1.0000 0.25603  0.24435  0.98811  Biso   1.000  Hf
  Hf37     1.0000 0.76715  0.24561  0.48630  Biso   1.000  Hf
  Hf38     1.0000 0.75218  0.23212  0.99606  Biso   1.000  Hf
  Hf39     1.0000 0.21887  0.72738  0.99978  Biso   1.000  Hf
  Hf40     1.0000 0.20783  0.75512  0.51001  Biso   1.000  Hf
  Hf41     1.0000 0.71899  0.75632  0.00821  Biso   1.000  Hf
  Hf42     1.0000 0.72994  0.72862  0.49799  Biso   1.000  Hf
  Hf43     1.0000 0.22820  0.71574  0.26104  Biso   1.000  Hf
  Hf44     1.0000 0.18689  0.74219  0.76550  Biso   1.000  Hf
  Hf45     1.0000 0.69794  0.74352  0.26372  Biso   1.000  Hf
  Hf46     1.0000 0.71711  0.71452  0.76284  Biso   1.000  Hf
