data_image0
_cell_length_a       5.07888
_cell_length_b       10.1448
_cell_length_c       10.3463
_cell_angle_alpha    90
_cell_angle_beta     90
_cell_angle_gamma    90

_symmetry_space_group_name_H-M    "P 1"
_symmetry_int_tables_number       1

loop_
  _symmetry_equiv_pos_as_xyz
  'x, y, z'

loop_
  _atom_site_label
  _atom_site_occupancy
  _atom_site_fract_x
  _atom_site_fract_y
  _atom_site_fract_z
  _atom_site_thermal_displace_type
  _atom_site_B_iso_or_equiv
  _atom_site_type_symbol
  La1      1.0000 0.24005  0.00904  0.13144  Biso   1.000  La
  Hf1      1.0000 0.34316  0.96132  0.63439  Biso   1.000  Hf
  Hf2      1.0000 0.25385  0.49990  0.13687  Biso   1.000  Hf
  Hf3      1.0000 0.29557  0.46496  0.61641  Biso   1.000  Hf
  La2      1.0000 0.30664  0.21706  0.36863  Biso   1.000  La
  Hf4      1.0000 0.29282  0.21796  0.86432  Biso   1.000  Hf
  Hf5      1.0000 0.32635  0.72601  0.36323  Biso   1.000  Hf
  Hf6      1.0000 0.34043  0.71426  0.88227  Biso   1.000  Hf
  Hf7      1.0000 0.74911  0.29008  0.09038  Biso   1.000  Hf
  Hf8      1.0000 0.79973  0.20595  0.61877  Biso   1.000  Hf
  Hf9      1.0000 0.77950  0.76012  0.11495  Biso   1.000  Hf
  Hf10     1.0000 0.84750  0.71871  0.64979  Biso   1.000  Hf
  Hf11     1.0000 0.83109  0.93579  0.40971  Biso   1.000  Hf
  Hf12     1.0000 0.80286  0.97335  0.87987  Biso   1.000  Hf
  Hf13     1.0000 0.80054  0.46581  0.38515  Biso   1.000  Hf
  Hf14     1.0000 0.78847  0.46054  0.84890  Biso   1.000  Hf
  Hf15     1.0000 0.00074  0.15894  0.00005  Biso   1.000  Hf
  Hf16     1.0000 0.04197  0.07194  0.52046  Biso   1.000  Hf
  Hf17     1.0000 0.10733  0.66137  0.04197  Biso   1.000  Hf
  Hf18     1.0000 0.97595  0.56937  0.54040  Biso   1.000  Hf
  Hf19     1.0000 0.87326  0.10862  0.29932  Biso   1.000  Hf
  Hf20     1.0000 0.05533  0.08332  0.76032  Biso   1.000  Hf
  Hf21     1.0000 0.04750  0.59306  0.28959  Biso   1.000  Hf
  Hf22     1.0000 0.07931  0.58641  0.77936  Biso   1.000  Hf
  Hf23     1.0000 0.02893  0.35368  0.22210  Biso   1.000  Hf
  Hf24     1.0000 0.03616  0.33203  0.72847  Biso   1.000  Hf
  Hf25     1.0000 0.04286  0.84637  0.25488  Biso   1.000  Hf
  Hf26     1.0000 0.10619  0.83514  0.74685  Biso   1.000  Hf
  Hf27     1.0000 0.04839  0.36378  0.97606  Biso   1.000  Hf
  Hf28     1.0000 0.04030  0.33894  0.48674  Biso   1.000  Hf
  Hf29     1.0000 0.07567  0.84647  0.98369  Biso   1.000  Hf
  Hf30     1.0000 0.09560  0.82169  0.50550  Biso   1.000  Hf
  Hf31     1.0000 0.67341  0.11736  0.20071  Biso   1.000  Hf
  Hf32     1.0000 0.54721  0.09605  0.73830  Biso   1.000  Hf
  Hf33     1.0000 0.53290  0.63272  0.21059  Biso   1.000  Hf
  Hf34     1.0000 0.55654  0.59284  0.71936  Biso   1.000  Hf
  Hf35     1.0000 0.56066  0.10739  0.97815  Biso   1.000  Hf
  Hf36     1.0000 0.54614  0.06714  0.50001  Biso   1.000  Hf
  Hf37     1.0000 0.65995  0.60984  0.95834  Biso   1.000  Hf
  Hf38     1.0000 0.47279  0.56455  0.45817  Biso   1.000  Hf
  Hf39     1.0000 0.54030  0.35750  0.99321  Biso   1.000  Hf
  Hf40     1.0000 0.56021  0.33276  0.51501  Biso   1.000  Hf
  Hf41     1.0000 0.53970  0.88697  0.01334  Biso   1.000  Hf
  Hf42     1.0000 0.58751  0.81547  0.52259  Biso   1.000  Hf
  Hf43     1.0000 0.53755  0.37948  0.24525  Biso   1.000  Hf
  Hf44     1.0000 0.52985  0.34408  0.75186  Biso   1.000  Hf
  Hf45     1.0000 0.55145  0.87212  0.27790  Biso   1.000  Hf
  Hf46     1.0000 0.59990  0.84719  0.77019  Biso   1.000  Hf
