data_image0
_cell_length_a       10.2295
_cell_length_b       10.4693
_cell_length_c       5.21026
_cell_angle_alpha    90
_cell_angle_beta     80
_cell_angle_gamma    90

_symmetry_space_group_name_H-M    "P 1"
_symmetry_int_tables_number       1

loop_
  _symmetry_equiv_pos_as_xyz
  'x, y, z'

loop_
  _atom_site_label
  _atom_site_occupancy
  _atom_site_fract_x
  _atom_site_fract_y
  _atom_site_fract_z
  _atom_site_thermal_displace_type
  _atom_site_B_iso_or_equiv
  _atom_site_type_symbol
  La1      1.0000 0.12949  0.01327  0.26542  Biso   1.000  La
  Hf1      1.0000 0.13332  0.52077  0.29258  Biso   1.000  Hf
  Hf2      1.0000 0.63622  0.01990  0.30163  Biso   1.000  Hf
  Hf3      1.0000 0.63351  0.52020  0.29519  Biso   1.000  Hf
  Hf4      1.0000 0.13250  0.24030  0.80005  Biso   1.000  Hf
  Hf5      1.0000 0.13430  0.72314  0.78927  Biso   1.000  Hf
  Hf6      1.0000 0.62657  0.23324  0.79711  Biso   1.000  Hf
  Hf7      1.0000 0.62891  0.72895  0.79306  Biso   1.000  Hf
  Hf8      1.0000 0.35809  0.27180  0.20982  Biso   1.000  Hf
  Hf9      1.0000 0.36045  0.76751  0.20579  Biso   1.000  Hf
  Hf10     1.0000 0.85271  0.27761  0.21362  Biso   1.000  Hf
  Hf11     1.0000 0.85451  0.76044  0.20283  Biso   1.000  Hf
  Hf12     1.0000 0.35352  0.48055  0.70770  Biso   1.000  Hf
  Hf13     1.0000 0.35079  0.98085  0.70126  Biso   1.000  Hf
  Hf14     1.0000 0.85370  0.47997  0.71031  Biso   1.000  Hf
  La2      1.0000 0.85752  0.98747  0.73746  Biso   1.000  La
  Hf15     1.0000 0.03505  0.20420  0.18284  Biso   1.000  Hf
  Hf16     1.0000 0.04030  0.68251  0.18868  Biso   1.000  Hf
  Hf17     1.0000 0.52764  0.16758  0.16649  Biso   1.000  Hf
  Hf18     1.0000 0.53148  0.66602  0.16034  Biso   1.000  Hf
  Hf19     1.0000 0.07055  0.06212  0.74194  Biso   1.000  Hf
  Hf20     1.0000 0.03576  0.56421  0.68022  Biso   1.000  Hf
  Hf21     1.0000 0.53082  0.07877  0.66810  Biso   1.000  Hf
  Hf22     1.0000 0.52565  0.58207  0.66151  Biso   1.000  Hf
  Hf23     1.0000 0.46136  0.41867  0.34138  Biso   1.000  Hf
  Hf24     1.0000 0.45618  0.92197  0.33478  Biso   1.000  Hf
  Hf25     1.0000 0.95125  0.43654  0.32267  Biso   1.000  Hf
  Hf26     1.0000 0.91647  0.93863  0.26094  Biso   1.000  Hf
  Hf27     1.0000 0.45553  0.33472  0.84255  Biso   1.000  Hf
  Hf28     1.0000 0.45938  0.83316  0.83640  Biso   1.000  Hf
  Hf29     1.0000 0.94671  0.31824  0.81419  Biso   1.000  Hf
  Hf30     1.0000 0.95195  0.79655  0.82005  Biso   1.000  Hf
  Hf31     1.0000 0.28149  0.13602  0.48560  Biso   1.000  Hf
  Hf32     1.0000 0.27124  0.62380  0.47859  Biso   1.000  Hf
  Hf33     1.0000 0.76055  0.14397  0.48743  Biso   1.000  Hf
  Hf34     1.0000 0.76870  0.62782  0.48777  Biso   1.000  Hf
  Hf35     1.0000 0.27881  0.13139  0.97041  Biso   1.000  Hf
  Hf36     1.0000 0.26587  0.61754  0.98520  Biso   1.000  Hf
  Hf37     1.0000 0.75928  0.13407  0.00995  Biso   1.000  Hf
  Hf38     1.0000 0.76301  0.61795  0.98706  Biso   1.000  Hf
  Hf39     1.0000 0.22400  0.38280  0.01582  Biso   1.000  Hf
  Hf40     1.0000 0.22774  0.86668  0.99295  Biso   1.000  Hf
  Hf41     1.0000 0.72113  0.38321  0.01768  Biso   1.000  Hf
  Hf42     1.0000 0.70821  0.86936  0.03247  Biso   1.000  Hf
  Hf43     1.0000 0.21831  0.37292  0.51512  Biso   1.000  Hf
  Hf44     1.0000 0.22646  0.85677  0.51544  Biso   1.000  Hf
  Hf45     1.0000 0.71578  0.37694  0.52431  Biso   1.000  Hf
  Hf46     1.0000 0.70552  0.86472  0.51728  Biso   1.000  Hf
