data_image0
_cell_length_a       10.2158
_cell_length_b       10.408
_cell_length_c       5.27292
_cell_angle_alpha    90
_cell_angle_beta     90
_cell_angle_gamma    90

_symmetry_space_group_name_H-M    "P 1"
_symmetry_int_tables_number       1

loop_
  _symmetry_equiv_pos_as_xyz
  'x, y, z'

loop_
  _atom_site_label
  _atom_site_occupancy
  _atom_site_fract_x
  _atom_site_fract_y
  _atom_site_fract_z
  _atom_site_thermal_displace_type
  _atom_site_B_iso_or_equiv
  _atom_site_type_symbol
  La1      1.0000 0.12926  0.00858  0.32869  Biso   1.000  La
  Hf1      1.0000 0.13495  0.52092  0.33001  Biso   1.000  Hf
  Hf2      1.0000 0.13691  0.23058  0.84001  Biso   1.000  Hf
  Hf3      1.0000 0.13600  0.72702  0.83852  Biso   1.000  Hf
  Hf4      1.0000 0.35694  0.26109  0.34587  Biso   1.000  Hf
  Hf5      1.0000 0.35687  0.77062  0.34160  Biso   1.000  Hf
  Hf6      1.0000 0.34926  0.47833  0.81973  Biso   1.000  Hf
  Hf7      1.0000 0.35638  0.98084  0.84313  Biso   1.000  Hf
  Hf8      1.0000 0.63974  0.02086  0.16992  Biso   1.000  Hf
  La2      1.0000 0.62429  0.50851  0.17121  Biso   1.000  La
  Hf9      1.0000 0.64091  0.22702  0.66161  Biso   1.000  Hf
  Hf10     1.0000 0.63202  0.73054  0.65995  Biso   1.000  Hf
  Hf11     1.0000 0.86173  0.27062  0.15831  Biso   1.000  Hf
  Hf12     1.0000 0.85184  0.76121  0.15437  Biso   1.000  Hf
  Hf13     1.0000 0.86114  0.48088  0.65673  Biso   1.000  Hf
  Hf14     1.0000 0.84450  0.97826  0.68018  Biso   1.000  Hf
  Hf15     1.0000 0.03489  0.18872  0.17476  Biso   1.000  Hf
  Hf16     1.0000 0.03030  0.67008  0.16872  Biso   1.000  Hf
  Hf17     1.0000 0.02127  0.08521  0.70734  Biso   1.000  Hf
  Hf18     1.0000 0.03264  0.58216  0.66673  Biso   1.000  Hf
  Hf19     1.0000 0.43040  0.40903  0.14925  Biso   1.000  Hf
  Hf20     1.0000 0.45576  0.92676  0.18082  Biso   1.000  Hf
  Hf21     1.0000 0.47053  0.33827  0.65571  Biso   1.000  Hf
  Hf22     1.0000 0.46424  0.83930  0.67460  Biso   1.000  Hf
  Hf23     1.0000 0.27793  0.12563  0.60355  Biso   1.000  Hf
  Hf24     1.0000 0.26890  0.62231  0.57367  Biso   1.000  Hf
  Hf25     1.0000 0.28216  0.13393  0.07558  Biso   1.000  Hf
  Hf26     1.0000 0.26903  0.62163  0.07726  Biso   1.000  Hf
  Hf27     1.0000 0.22204  0.37180  0.57395  Biso   1.000  Hf
  Hf28     1.0000 0.22747  0.86388  0.59822  Biso   1.000  Hf
  Hf29     1.0000 0.20588  0.38060  0.07147  Biso   1.000  Hf
  Hf30     1.0000 0.23463  0.86208  0.07132  Biso   1.000  Hf
  Hf31     1.0000 0.53528  0.17019  0.33138  Biso   1.000  Hf
  Hf32     1.0000 0.52991  0.68856  0.32531  Biso   1.000  Hf
  Hf33     1.0000 0.53760  0.08209  0.83316  Biso   1.000  Hf
  Hf34     1.0000 0.51643  0.58521  0.79295  Biso   1.000  Hf
  Hf35     1.0000 0.96064  0.42676  0.31910  Biso   1.000  Hf
  Hf36     1.0000 0.92597  0.90875  0.35117  Biso   1.000  Hf
  Hf37     1.0000 0.96903  0.33930  0.82542  Biso   1.000  Hf
  Hf38     1.0000 0.96562  0.83822  0.84479  Biso   1.000  Hf
  Hf39     1.0000 0.77384  0.12228  0.92637  Biso   1.000  Hf
  Hf40     1.0000 0.77304  0.62561  0.89654  Biso   1.000  Hf
  Hf41     1.0000 0.77388  0.12141  0.42289  Biso   1.000  Hf
  Hf42     1.0000 0.77717  0.63367  0.42429  Biso   1.000  Hf
  Hf43     1.0000 0.73239  0.36388  0.90172  Biso   1.000  Hf
  Hf44     1.0000 0.71713  0.87182  0.92581  Biso   1.000  Hf
  Hf45     1.0000 0.73955  0.36200  0.42854  Biso   1.000  Hf
  Hf46     1.0000 0.70125  0.88022  0.42776  Biso   1.000  Hf
