data_image0
_cell_length_a       10.2849
_cell_length_b       10.4383
_cell_length_c       5.27341
_cell_angle_alpha    90
_cell_angle_beta     80
_cell_angle_gamma    90

_symmetry_space_group_name_H-M    "P 1"
_symmetry_int_tables_number       1

loop_
  _symmetry_equiv_pos_as_xyz
  'x, y, z'

loop_
  _atom_site_label
  _atom_site_occupancy
  _atom_site_fract_x
  _atom_site_fract_y
  _atom_site_fract_z
  _atom_site_thermal_displace_type
  _atom_site_B_iso_or_equiv
  _atom_site_type_symbol
  La1      1.0000 0.12848  0.01532  0.28340  Biso   1.000  La
  Hf1      1.0000 0.12539  0.52106  0.29598  Biso   1.000  Hf
  Hf2      1.0000 0.63716  0.02020  0.29903  Biso   1.000  Hf
  Hf3      1.0000 0.63419  0.51906  0.27329  Biso   1.000  Hf
  Hf4      1.0000 0.12644  0.23437  0.79353  Biso   1.000  Hf
  Hf5      1.0000 0.11997  0.72879  0.79454  Biso   1.000  Hf
  Hf6      1.0000 0.63128  0.22480  0.79635  Biso   1.000  Hf
  Hf7      1.0000 0.62337  0.73197  0.79600  Biso   1.000  Hf
  Hf8      1.0000 0.35726  0.26435  0.20967  Biso   1.000  Hf
  Hf9      1.0000 0.35063  0.76988  0.20858  Biso   1.000  Hf
  Hf10     1.0000 0.85239  0.27390  0.20679  Biso   1.000  Hf
  Hf11     1.0000 0.84719  0.76671  0.20700  Biso   1.000  Hf
  La2      1.0000 0.35524  0.48340  0.71978  Biso   1.000  La
  Hf12     1.0000 0.34517  0.97765  0.70722  Biso   1.000  Hf
  Hf13     1.0000 0.84657  0.47850  0.70404  Biso   1.000  Hf
  Hf14     1.0000 0.83639  0.97962  0.72973  Biso   1.000  Hf
  Hf15     1.0000 0.03014  0.19543  0.16248  Biso   1.000  Hf
  Hf16     1.0000 0.01953  0.67064  0.16202  Biso   1.000  Hf
  Hf17     1.0000 0.53513  0.16490  0.17046  Biso   1.000  Hf
  Hf18     1.0000 0.52283  0.66307  0.14899  Biso   1.000  Hf
  Hf19     1.0000 0.01960  0.08253  0.70385  Biso   1.000  Hf
  Hf20     1.0000 0.01870  0.58104  0.66238  Biso   1.000  Hf
  Hf21     1.0000 0.53639  0.07178  0.66816  Biso   1.000  Hf
  Hf22     1.0000 0.54938  0.58274  0.63519  Biso   1.000  Hf
  Hf23     1.0000 0.46417  0.41613  0.29940  Biso   1.000  Hf
  Hf24     1.0000 0.45192  0.91759  0.34076  Biso   1.000  Hf
  Hf25     1.0000 0.94730  0.42696  0.33495  Biso   1.000  Hf
  Hf26     1.0000 0.92110  0.91607  0.36765  Biso   1.000  Hf
  Hf27     1.0000 0.45361  0.30335  0.84076  Biso   1.000  Hf
  Hf28     1.0000 0.45106  0.82810  0.84120  Biso   1.000  Hf
  Hf29     1.0000 0.94859  0.33380  0.83262  Biso   1.000  Hf
  Hf30     1.0000 0.94770  0.83546  0.85387  Biso   1.000  Hf
  Hf31     1.0000 0.27870  0.13251  0.49755  Biso   1.000  Hf
  Hf32     1.0000 0.25215  0.63494  0.47731  Biso   1.000  Hf
  Hf33     1.0000 0.77156  0.12962  0.48811  Biso   1.000  Hf
  Hf34     1.0000 0.77172  0.62827  0.47067  Biso   1.000  Hf
  Hf35     1.0000 0.27030  0.12475  0.96931  Biso   1.000  Hf
  Hf36     1.0000 0.25087  0.62912  0.00310  Biso   1.000  Hf
  Hf37     1.0000 0.76323  0.12012  0.99374  Biso   1.000  Hf
  Hf38     1.0000 0.75652  0.61973  0.97668  Biso   1.000  Hf
  Hf39     1.0000 0.21345  0.37395  0.03389  Biso   1.000  Hf
  Hf40     1.0000 0.21970  0.86951  0.00010  Biso   1.000  Hf
  Hf41     1.0000 0.72052  0.37865  0.00934  Biso   1.000  Hf
  Hf42     1.0000 0.71402  0.87898  0.02632  Biso   1.000  Hf
  Hf43     1.0000 0.20505  0.36624  0.50566  Biso   1.000  Hf
  Hf44     1.0000 0.21845  0.86374  0.52583  Biso   1.000  Hf
  Hf45     1.0000 0.71219  0.36905  0.51507  Biso   1.000  Hf
  Hf46     1.0000 0.69884  0.87033  0.53227  Biso   1.000  Hf
