data_image0
_cell_length_a       10.1847
_cell_length_b       10.5406
_cell_length_c       5.24009
_cell_angle_alpha    90
_cell_angle_beta     80
_cell_angle_gamma    90

_symmetry_space_group_name_H-M    "P 1"
_symmetry_int_tables_number       1

loop_
  _symmetry_equiv_pos_as_xyz
  'x, y, z'

loop_
  _atom_site_label
  _atom_site_occupancy
  _atom_site_fract_x
  _atom_site_fract_y
  _atom_site_fract_z
  _atom_site_thermal_displace_type
  _atom_site_B_iso_or_equiv
  _atom_site_type_symbol
  La1      1.0000 0.12476  0.01555  0.28359  Biso   1.000  La
  Hf1      1.0000 0.13003  0.52121  0.29213  Biso   1.000  Hf
  Hf2      1.0000 0.63960  0.02192  0.27639  Biso   1.000  Hf
  Hf3      1.0000 0.62885  0.51836  0.29477  Biso   1.000  Hf
  Hf4      1.0000 0.12057  0.23857  0.79408  Biso   1.000  Hf
  Hf5      1.0000 0.12360  0.72558  0.79277  Biso   1.000  Hf
  Hf6      1.0000 0.62671  0.23744  0.80078  Biso   1.000  Hf
  Hf7      1.0000 0.62367  0.72409  0.79266  Biso   1.000  Hf
  Hf8      1.0000 0.35277  0.27476  0.21164  Biso   1.000  Hf
  Hf9      1.0000 0.35577  0.76178  0.21040  Biso   1.000  Hf
  Hf10     1.0000 0.85267  0.27624  0.21169  Biso   1.000  Hf
  Hf11     1.0000 0.84964  0.76294  0.20358  Biso   1.000  Hf
  Hf12     1.0000 0.34633  0.47913  0.71240  Biso   1.000  Hf
  La2      1.0000 0.35160  0.98479  0.72088  Biso   1.000  La
  Hf13     1.0000 0.84751  0.48200  0.70963  Biso   1.000  Hf
  Hf14     1.0000 0.83672  0.97846  0.72795  Biso   1.000  Hf
  Hf15     1.0000 0.03176  0.20221  0.17493  Biso   1.000  Hf
  Hf16     1.0000 0.02746  0.67089  0.16689  Biso   1.000  Hf
  Hf17     1.0000 0.52963  0.17072  0.15603  Biso   1.000  Hf
  Hf18     1.0000 0.53514  0.66828  0.17136  Biso   1.000  Hf
  Hf19     1.0000 0.01879  0.07765  0.71975  Biso   1.000  Hf
  Hf20     1.0000 0.02187  0.57847  0.66502  Biso   1.000  Hf
  Hf21     1.0000 0.55667  0.08524  0.64103  Biso   1.000  Hf
  Hf22     1.0000 0.52728  0.56966  0.67128  Biso   1.000  Hf
  Hf23     1.0000 0.45451  0.42181  0.33955  Biso   1.000  Hf
  Hf24     1.0000 0.45758  0.92264  0.28476  Biso   1.000  Hf
  Hf25     1.0000 0.94906  0.43072  0.33304  Biso   1.000  Hf
  Hf26     1.0000 0.91959  0.91526  0.36315  Biso   1.000  Hf
  Hf27     1.0000 0.44892  0.32954  0.83766  Biso   1.000  Hf
  Hf28     1.0000 0.44461  0.79816  0.82953  Biso   1.000  Hf
  Hf29     1.0000 0.94119  0.33203  0.83297  Biso   1.000  Hf
  Hf30     1.0000 0.94668  0.82955  0.84818  Biso   1.000  Hf
  Hf31     1.0000 0.26111  0.15004  0.49054  Biso   1.000  Hf
  Hf32     1.0000 0.26691  0.62174  0.48299  Biso   1.000  Hf
  Hf33     1.0000 0.78159  0.13006  0.47745  Biso   1.000  Hf
  Hf34     1.0000 0.76282  0.62944  0.48253  Biso   1.000  Hf
  Hf35     1.0000 0.25515  0.14389  0.98706  Biso   1.000  Hf
  Hf36     1.0000 0.25563  0.61528  0.98775  Biso   1.000  Hf
  Hf37     1.0000 0.75750  0.12358  0.98861  Biso   1.000  Hf
  Hf38     1.0000 0.75814  0.61792  0.98361  Biso   1.000  Hf
  Hf39     1.0000 0.22071  0.38502  0.01677  Biso   1.000  Hf
  Hf40     1.0000 0.22118  0.85642  0.01741  Biso   1.000  Hf
  Hf41     1.0000 0.71823  0.38247  0.02080  Biso   1.000  Hf
  Hf42     1.0000 0.71883  0.87681  0.01576  Biso   1.000  Hf
  Hf43     1.0000 0.20946  0.37863  0.52149  Biso   1.000  Hf
  Hf44     1.0000 0.21524  0.85035  0.51395  Biso   1.000  Hf
  Hf45     1.0000 0.71356  0.37089  0.52179  Biso   1.000  Hf
  Hf46     1.0000 0.69472  0.87026  0.52695  Biso   1.000  Hf
