data_image0
_cell_length_a       10.1147
_cell_length_b       5.24696
_cell_length_c       10.1848
_cell_angle_alpha    90
_cell_angle_beta     90
_cell_angle_gamma    90

_symmetry_space_group_name_H-M    "P 1"
_symmetry_int_tables_number       1

loop_
  _symmetry_equiv_pos_as_xyz
  'x, y, z'

loop_
  _atom_site_label
  _atom_site_occupancy
  _atom_site_fract_x
  _atom_site_fract_y
  _atom_site_fract_z
  _atom_site_thermal_displace_type
  _atom_site_B_iso_or_equiv
  _atom_site_type_symbol
  La1      1.0000 0.12094  0.00625  0.12707  Biso   1.000  La
  Hf1      1.0000 0.12985  0.04513  0.62604  Biso   1.000  Hf
  Hf2      1.0000 0.62916  0.02149  0.11197  Biso   1.000  Hf
  Hf3      1.0000 0.62706  0.04717  0.62559  Biso   1.000  Hf
  Hf4      1.0000 0.13310  0.47995  0.38263  Biso   1.000  Hf
  Hf5      1.0000 0.13459  0.48060  0.87117  Biso   1.000  Hf
  La2      1.0000 0.62220  0.49348  0.35897  Biso   1.000  La
  Hf6      1.0000 0.62223  0.47905  0.86961  Biso   1.000  Hf
  Hf7      1.0000 0.36145  0.51774  0.12379  Biso   1.000  Hf
  Hf8      1.0000 0.35926  0.54511  0.62773  Biso   1.000  Hf
  Hf9      1.0000 0.88387  0.48114  0.08668  Biso   1.000  Hf
  Hf10     1.0000 0.86312  0.55116  0.62283  Biso   1.000  Hf
  Hf11     1.0000 0.35818  0.97032  0.38158  Biso   1.000  Hf
  Hf12     1.0000 0.35977  0.97174  0.87258  Biso   1.000  Hf
  Hf13     1.0000 0.85873  0.00241  0.39059  Biso   1.000  Hf
  Hf14     1.0000 0.85068  0.98246  0.86815  Biso   1.000  Hf
  Hf15     1.0000 0.02785  0.39552  0.21005  Biso   1.000  Hf
  Hf16     1.0000 0.02978  0.38326  0.69642  Biso   1.000  Hf
  Hf17     1.0000 0.52659  0.32970  0.16468  Biso   1.000  Hf
  Hf18     1.0000 0.52640  0.37668  0.69565  Biso   1.000  Hf
  Hf19     1.0000 0.03589  0.14681  0.44507  Biso   1.000  Hf
  Hf20     1.0000 0.99392  0.23071  0.95689  Biso   1.000  Hf
  Hf21     1.0000 0.52673  0.12704  0.45530  Biso   1.000  Hf
  Hf22     1.0000 0.53131  0.13332  0.93320  Biso   1.000  Hf
  Hf23     1.0000 0.48432  0.82349  0.21350  Biso   1.000  Hf
  Hf24     1.0000 0.45944  0.87274  0.70074  Biso   1.000  Hf
  Hf25     1.0000 0.90866  0.84244  0.19437  Biso   1.000  Hf
  Hf26     1.0000 0.95909  0.88594  0.70068  Biso   1.000  Hf
  Hf27     1.0000 0.44404  0.64722  0.46100  Biso   1.000  Hf
  Hf28     1.0000 0.46522  0.64812  0.94924  Biso   1.000  Hf
  Hf29     1.0000 0.96541  0.65833  0.45113  Biso   1.000  Hf
  Hf30     1.0000 0.98206  0.71024  0.95122  Biso   1.000  Hf
  Hf31     1.0000 0.27781  0.23990  0.25583  Biso   1.000  Hf
  Hf32     1.0000 0.26061  0.24073  0.75187  Biso   1.000  Hf
  Hf33     1.0000 0.76352  0.20097  0.23894  Biso   1.000  Hf
  Hf34     1.0000 0.76308  0.24995  0.74593  Biso   1.000  Hf
  Hf35     1.0000 0.26315  0.27582  0.50582  Biso   1.000  Hf
  Hf36     1.0000 0.26324  0.26845  0.99348  Biso   1.000  Hf
  Hf37     1.0000 0.77553  0.27908  0.50330  Biso   1.000  Hf
  Hf38     1.0000 0.75169  0.26599  0.98891  Biso   1.000  Hf
  Hf39     1.0000 0.21770  0.78226  0.50333  Biso   1.000  Hf
  Hf40     1.0000 0.23681  0.75381  0.99388  Biso   1.000  Hf
  Hf41     1.0000 0.73314  0.79936  0.50547  Biso   1.000  Hf
  Hf42     1.0000 0.73123  0.75951  0.99414  Biso   1.000  Hf
  Hf43     1.0000 0.24113  0.71855  0.25812  Biso   1.000  Hf
  Hf44     1.0000 0.22266  0.74864  0.74829  Biso   1.000  Hf
  Hf45     1.0000 0.78519  0.73294  0.23558  Biso   1.000  Hf
  Hf46     1.0000 0.72417  0.74511  0.74804  Biso   1.000  Hf
