data_image0
_cell_length_a       5.12093
_cell_length_b       10.4811
_cell_length_c       10.5191
_cell_angle_alpha    90
_cell_angle_beta     80
_cell_angle_gamma    90

_symmetry_space_group_name_H-M    "P 1"
_symmetry_int_tables_number       1

loop_
  _symmetry_equiv_pos_as_xyz
  'x, y, z'

loop_
  _atom_site_label
  _atom_site_occupancy
  _atom_site_fract_x
  _atom_site_fract_y
  _atom_site_fract_z
  _atom_site_thermal_displace_type
  _atom_site_B_iso_or_equiv
  _atom_site_type_symbol
  La1      1.0000 0.25675  0.01297  0.14068  Biso   1.000  La
  Hf1      1.0000 0.26793  0.02146  0.64279  Biso   1.000  Hf
  Hf2      1.0000 0.25716  0.51836  0.14848  Biso   1.000  Hf
  Hf3      1.0000 0.24688  0.52244  0.64690  Biso   1.000  Hf
  Hf4      1.0000 0.25329  0.22873  0.39989  Biso   1.000  Hf
  Hf5      1.0000 0.23570  0.24344  0.89800  Biso   1.000  Hf
  Hf6      1.0000 0.24225  0.72386  0.39906  Biso   1.000  Hf
  Hf7      1.0000 0.24473  0.72558  0.89511  Biso   1.000  Hf
  Hf8      1.0000 0.69651  0.27536  0.10780  Biso   1.000  Hf
  Hf9      1.0000 0.69902  0.27707  0.60383  Biso   1.000  Hf
  Hf10     1.0000 0.70555  0.75752  0.10489  Biso   1.000  Hf
  Hf11     1.0000 0.68795  0.77224  0.60301  Biso   1.000  Hf
  Hf12     1.0000 0.69435  0.47851  0.35600  Biso   1.000  Hf
  Hf13     1.0000 0.68407  0.48259  0.85442  Biso   1.000  Hf
  Hf14     1.0000 0.67334  0.97948  0.36011  Biso   1.000  Hf
  La2      1.0000 0.68451  0.98797  0.86222  Biso   1.000  La
  Hf15     1.0000 0.04271  0.18778  0.07408  Biso   1.000  Hf
  Hf16     1.0000 0.04612  0.17301  0.58841  Biso   1.000  Hf
  Hf17     1.0000 0.06420  0.66757  0.08744  Biso   1.000  Hf
  Hf18     1.0000 0.03667  0.66930  0.58302  Biso   1.000  Hf
  Hf19     1.0000 0.03834  0.08120  0.34782  Biso   1.000  Hf
  Hf20     1.0000 0.11506  0.07236  0.83642  Biso   1.000  Hf
  Hf21     1.0000 0.04240  0.57812  0.33436  Biso   1.000  Hf
  Hf22     1.0000 0.03976  0.57566  0.83157  Biso   1.000  Hf
  Hf23     1.0000 0.90148  0.42529  0.17132  Biso   1.000  Hf
  Hf24     1.0000 0.89883  0.42283  0.66854  Biso   1.000  Hf
  Hf25     1.0000 0.82621  0.92859  0.16648  Biso   1.000  Hf
  Hf26     1.0000 0.90293  0.91974  0.65507  Biso   1.000  Hf
  Hf27     1.0000 0.90456  0.33164  0.41987  Biso   1.000  Hf
  Hf28     1.0000 0.87703  0.33339  0.91546  Biso   1.000  Hf
  Hf29     1.0000 0.89515  0.82793  0.41448  Biso   1.000  Hf
  Hf30     1.0000 0.89856  0.81316  0.92881  Biso   1.000  Hf
  Hf31     1.0000 0.54110  0.13873  0.25230  Biso   1.000  Hf
  Hf32     1.0000 0.52086  0.14395  0.73295  Biso   1.000  Hf
  Hf33     1.0000 0.52497  0.62219  0.24301  Biso   1.000  Hf
  Hf34     1.0000 0.52229  0.62872  0.73985  Biso   1.000  Hf
  Hf35     1.0000 0.52372  0.12133  0.49280  Biso   1.000  Hf
  Hf36     1.0000 0.49728  0.14837  0.99589  Biso   1.000  Hf
  Hf37     1.0000 0.51886  0.62066  0.49186  Biso   1.000  Hf
  Hf38     1.0000 0.50732  0.61478  0.99389  Biso   1.000  Hf
  Hf39     1.0000 0.43393  0.38617  0.00902  Biso   1.000  Hf
  Hf40     1.0000 0.42241  0.38029  0.51105  Biso   1.000  Hf
  Hf41     1.0000 0.44396  0.85257  0.00700  Biso   1.000  Hf
  Hf42     1.0000 0.41751  0.87962  0.51008  Biso   1.000  Hf
  Hf43     1.0000 0.41897  0.37223  0.26304  Biso   1.000  Hf
  Hf44     1.0000 0.41629  0.37876  0.75988  Biso   1.000  Hf
  Hf45     1.0000 0.42039  0.85701  0.26996  Biso   1.000  Hf
  Hf46     1.0000 0.40015  0.86222  0.75062  Biso   1.000  Hf
