data_image0
_cell_length_a       10.3455
_cell_length_b       5.18215
_cell_length_c       10.4395
_cell_angle_alpha    90
_cell_angle_beta     80
_cell_angle_gamma    90

_symmetry_space_group_name_H-M    "P 1"
_symmetry_int_tables_number       1

loop_
  _symmetry_equiv_pos_as_xyz
  'x, y, z'

loop_
  _atom_site_label
  _atom_site_occupancy
  _atom_site_fract_x
  _atom_site_fract_y
  _atom_site_fract_z
  _atom_site_thermal_displace_type
  _atom_site_B_iso_or_equiv
  _atom_site_type_symbol
  La1      1.0000 0.12131  0.01657  0.14080  Biso   1.000  La
  Hf1      1.0000 0.13221  0.03506  0.64839  Biso   1.000  Hf
  Hf2      1.0000 0.63933  0.03353  0.14691  Biso   1.000  Hf
  Hf3      1.0000 0.62300  0.02661  0.65219  Biso   1.000  Hf
  Hf4      1.0000 0.14510  0.45757  0.39189  Biso   1.000  Hf
  Hf5      1.0000 0.12136  0.46339  0.89562  Biso   1.000  Hf
  Hf6      1.0000 0.62557  0.45422  0.40193  Biso   1.000  Hf
  Hf7      1.0000 0.62236  0.45597  0.89989  Biso   1.000  Hf
  Hf8      1.0000 0.36324  0.52668  0.09983  Biso   1.000  Hf
  Hf9      1.0000 0.34689  0.53343  0.60514  Biso   1.000  Hf
  Hf10     1.0000 0.85399  0.53516  0.10361  Biso   1.000  Hf
  La2      1.0000 0.86492  0.51662  0.61123  Biso   1.000  La
  Hf11     1.0000 0.36045  0.95419  0.35012  Biso   1.000  Hf
  Hf12     1.0000 0.34513  0.95597  0.85517  Biso   1.000  Hf
  Hf13     1.0000 0.84099  0.95765  0.36018  Biso   1.000  Hf
  Hf14     1.0000 0.84612  0.96342  0.85944  Biso   1.000  Hf
  Hf15     1.0000 0.03892  0.41802  0.08691  Biso   1.000  Hf
  Hf16     1.0000 0.07337  0.38493  0.59162  Biso   1.000  Hf
  Hf17     1.0000 0.53540  0.32621  0.07899  Biso   1.000  Hf
  Hf18     1.0000 0.51873  0.32863  0.58614  Biso   1.000  Hf
  Hf19     1.0000 0.00983  0.18461  0.35806  Biso   1.000  Hf
  Hf20     1.0000 0.02779  0.13897  0.84924  Biso   1.000  Hf
  Hf21     1.0000 0.53095  0.15558  0.32940  Biso   1.000  Hf
  Hf22     1.0000 0.51209  0.16792  0.83279  Biso   1.000  Hf
  Hf23     1.0000 0.46732  0.82875  0.16587  Biso   1.000  Hf
  Hf24     1.0000 0.45068  0.82614  0.67305  Biso   1.000  Hf
  Hf25     1.0000 0.91267  0.88497  0.16049  Biso   1.000  Hf
  Hf26     1.0000 0.94712  0.91799  0.66507  Biso   1.000  Hf
  Hf27     1.0000 0.45519  0.65553  0.42261  Biso   1.000  Hf
  Hf28     1.0000 0.45557  0.66792  0.92225  Biso   1.000  Hf
  Hf29     1.0000 0.97629  0.68452  0.39402  Biso   1.000  Hf
  Hf30     1.0000 0.93984  0.63897  0.90582  Biso   1.000  Hf
  Hf31     1.0000 0.27452  0.25099  0.24502  Biso   1.000  Hf
  Hf32     1.0000 0.26270  0.25346  0.74226  Biso   1.000  Hf
  Hf33     1.0000 0.76595  0.26798  0.24700  Biso   1.000  Hf
  Hf34     1.0000 0.74549  0.23538  0.75833  Biso   1.000  Hf
  Hf35     1.0000 0.28029  0.23846  0.48606  Biso   1.000  Hf
  Hf36     1.0000 0.26132  0.24447  0.98623  Biso   1.000  Hf
  Hf37     1.0000 0.74897  0.22052  0.49513  Biso   1.000  Hf
  Hf38     1.0000 0.75730  0.23884  0.99851  Biso   1.000  Hf
  Hf39     1.0000 0.22216  0.73535  0.99675  Biso   1.000  Hf
  Hf40     1.0000 0.22021  0.76776  0.50507  Biso   1.000  Hf
  Hf41     1.0000 0.72344  0.75359  0.00978  Biso   1.000  Hf
  Hf42     1.0000 0.71161  0.75099  0.50706  Biso   1.000  Hf
  Hf43     1.0000 0.23716  0.72049  0.25688  Biso   1.000  Hf
  Hf44     1.0000 0.21026  0.73889  0.75655  Biso   1.000  Hf
  Hf45     1.0000 0.70572  0.73871  0.26603  Biso   1.000  Hf
  Hf46     1.0000 0.70626  0.74457  0.76881  Biso   1.000  Hf
