data_image0
_cell_length_a       10.133
_cell_length_b       10.5103
_cell_length_c       5.23238
_cell_angle_alpha    90
_cell_angle_beta     90
_cell_angle_gamma    90

_symmetry_space_group_name_H-M    "P 1"
_symmetry_int_tables_number       1

loop_
  _symmetry_equiv_pos_as_xyz
  'x, y, z'

loop_
  _atom_site_label
  _atom_site_occupancy
  _atom_site_fract_x
  _atom_site_fract_y
  _atom_site_fract_z
  _atom_site_thermal_displace_type
  _atom_site_B_iso_or_equiv
  _atom_site_type_symbol
  La1      1.0000 0.12694  0.01165  0.30489  Biso   1.000  La
  Hf1      1.0000 0.13550  0.52217  0.33608  Biso   1.000  Hf
  Hf2      1.0000 0.13234  0.23870  0.83205  Biso   1.000  Hf
  Hf3      1.0000 0.13782  0.72594  0.83393  Biso   1.000  Hf
  Hf4      1.0000 0.35382  0.27398  0.33389  Biso   1.000  Hf
  Hf5      1.0000 0.35928  0.76133  0.33204  Biso   1.000  Hf
  Hf6      1.0000 0.35621  0.47778  0.83605  Biso   1.000  Hf
  La2      1.0000 0.36464  0.98834  0.80492  Biso   1.000  La
  Hf7      1.0000 0.64357  0.02059  0.18981  Biso   1.000  Hf
  Hf8      1.0000 0.63330  0.51765  0.15259  Biso   1.000  Hf
  Hf9      1.0000 0.63755  0.23691  0.65615  Biso   1.000  Hf
  Hf10     1.0000 0.63514  0.72318  0.65627  Biso   1.000  Hf
  Hf11     1.0000 0.85645  0.27683  0.15630  Biso   1.000  Hf
  Hf12     1.0000 0.85409  0.76303  0.15612  Biso   1.000  Hf
  Hf13     1.0000 0.85825  0.48234  0.65262  Biso   1.000  Hf
  Hf14     1.0000 0.84800  0.97937  0.68983  Biso   1.000  Hf
  Hf15     1.0000 0.03160  0.19894  0.18065  Biso   1.000  Hf
  Hf16     1.0000 0.03114  0.67156  0.17365  Biso   1.000  Hf
  Hf17     1.0000 0.02726  0.07834  0.72281  Biso   1.000  Hf
  Hf18     1.0000 0.02945  0.58170  0.66914  Biso   1.000  Hf
  Hf19     1.0000 0.46212  0.41828  0.16913  Biso   1.000  Hf
  Hf20     1.0000 0.46427  0.92168  0.22247  Biso   1.000  Hf
  Hf21     1.0000 0.46046  0.32829  0.67369  Biso   1.000  Hf
  Hf22     1.0000 0.46002  0.80109  0.68054  Biso   1.000  Hf
  Hf23     1.0000 0.25633  0.14526  0.56838  Biso   1.000  Hf
  Hf24     1.0000 0.27395  0.61779  0.58168  Biso   1.000  Hf
  Hf25     1.0000 0.27628  0.14757  0.06584  Biso   1.000  Hf
  Hf26     1.0000 0.27122  0.61832  0.08224  Biso   1.000  Hf
  Hf27     1.0000 0.22042  0.38165  0.58226  Biso   1.000  Hf
  Hf28     1.0000 0.21537  0.85242  0.56595  Biso   1.000  Hf
  Hf29     1.0000 0.21763  0.38224  0.08165  Biso   1.000  Hf
  Hf30     1.0000 0.23517  0.85470  0.06851  Biso   1.000  Hf
  Hf31     1.0000 0.52899  0.16740  0.33991  Biso   1.000  Hf
  Hf32     1.0000 0.53490  0.66457  0.31317  Biso   1.000  Hf
  Hf33     1.0000 0.56905  0.08236  0.84093  Biso   1.000  Hf
  Hf34     1.0000 0.53335  0.57081  0.81608  Biso   1.000  Hf
  Hf35     1.0000 0.95831  0.42918  0.31612  Biso   1.000  Hf
  Hf36     1.0000 0.92268  0.91739  0.34130  Biso   1.000  Hf
  Hf37     1.0000 0.95670  0.33541  0.81320  Biso   1.000  Hf
  Hf38     1.0000 0.96267  0.83263  0.84018  Biso   1.000  Hf
  Hf39     1.0000 0.78573  0.12438  0.93715  Biso   1.000  Hf
  Hf40     1.0000 0.77086  0.62172  0.90738  Biso   1.000  Hf
  Hf41     1.0000 0.77384  0.12907  0.43216  Biso   1.000  Hf
  Hf42     1.0000 0.77184  0.62459  0.40684  Biso   1.000  Hf
  Hf43     1.0000 0.71973  0.37535  0.90681  Biso   1.000  Hf
  Hf44     1.0000 0.71786  0.87091  0.93215  Biso   1.000  Hf
  Hf45     1.0000 0.72076  0.37824  0.40738  Biso   1.000  Hf
  Hf46     1.0000 0.70584  0.87567  0.43710  Biso   1.000  Hf
