data_image0
_cell_length_a       5.0553
_cell_length_b       10.4527
_cell_length_c       10.2278
_cell_angle_alpha    90
_cell_angle_beta     90
_cell_angle_gamma    90

_symmetry_space_group_name_H-M    "P 1"
_symmetry_int_tables_number       1

loop_
  _symmetry_equiv_pos_as_xyz
  'x, y, z'

loop_
  _atom_site_label
  _atom_site_occupancy
  _atom_site_fract_x
  _atom_site_fract_y
  _atom_site_fract_z
  _atom_site_thermal_displace_type
  _atom_site_B_iso_or_equiv
  _atom_site_type_symbol
  La1      1.0000 0.23772  0.99982  0.11578  Biso   1.000  La
  Hf1      1.0000 0.23872  0.00752  0.62582  Biso   1.000  Hf
  La2      1.0000 0.23599  0.49987  0.11578  Biso   1.000  La
  Hf2      1.0000 0.23701  0.50758  0.62581  Biso   1.000  Hf
  Hf3      1.0000 0.24325  0.22420  0.38228  Biso   1.000  Hf
  Hf4      1.0000 0.24908  0.22130  0.86856  Biso   1.000  Hf
  Hf5      1.0000 0.24152  0.72419  0.38230  Biso   1.000  Hf
  Hf6      1.0000 0.24738  0.72129  0.86859  Biso   1.000  Hf
  Hf7      1.0000 0.70941  0.25609  0.13549  Biso   1.000  Hf
  Hf8      1.0000 0.70636  0.25730  0.62271  Biso   1.000  Hf
  Hf9      1.0000 0.70770  0.75610  0.13551  Biso   1.000  Hf
  Hf10     1.0000 0.70464  0.75731  0.62272  Biso   1.000  Hf
  Hf11     1.0000 0.69638  0.47547  0.38139  Biso   1.000  Hf
  Hf12     1.0000 0.70035  0.46925  0.86919  Biso   1.000  Hf
  Hf13     1.0000 0.69467  0.97551  0.38140  Biso   1.000  Hf
  Hf14     1.0000 0.69859  0.96930  0.86921  Biso   1.000  Hf
  Hf15     1.0000 0.05151  0.19293  0.20414  Biso   1.000  Hf
  Hf16     1.0000 0.05002  0.17819  0.68422  Biso   1.000  Hf
  Hf17     1.0000 0.04978  0.69294  0.20416  Biso   1.000  Hf
  Hf18     1.0000 0.04826  0.67818  0.68425  Biso   1.000  Hf
  Hf19     1.0000 0.04411  0.05571  0.44492  Biso   1.000  Hf
  Hf20     1.0000 0.02894  0.06672  0.91474  Biso   1.000  Hf
  Hf21     1.0000 0.04235  0.55574  0.44496  Biso   1.000  Hf
  Hf22     1.0000 0.02718  0.56672  0.91478  Biso   1.000  Hf
  Hf23     1.0000 0.85616  0.43018  0.20326  Biso   1.000  Hf
  Hf24     1.0000 0.90001  0.42330  0.69242  Biso   1.000  Hf
  Hf25     1.0000 0.85447  0.93021  0.20325  Biso   1.000  Hf
  Hf26     1.0000 0.89825  0.92333  0.69240  Biso   1.000  Hf
  Hf27     1.0000 0.90237  0.30884  0.44887  Biso   1.000  Hf
  Hf28     1.0000 0.93950  0.31991  0.95470  Biso   1.000  Hf
  Hf29     1.0000 0.90061  0.80882  0.44888  Biso   1.000  Hf
  Hf30     1.0000 0.93779  0.81992  0.95472  Biso   1.000  Hf
  Hf31     1.0000 0.53280  0.11628  0.26005  Biso   1.000  Hf
  Hf32     1.0000 0.51622  0.10785  0.74607  Biso   1.000  Hf
  Hf33     1.0000 0.53107  0.61629  0.26007  Biso   1.000  Hf
  Hf34     1.0000 0.51452  0.60786  0.74609  Biso   1.000  Hf
  Hf35     1.0000 0.50977  0.12294  0.50369  Biso   1.000  Hf
  Hf36     1.0000 0.51748  0.11346  0.99248  Biso   1.000  Hf
  Hf37     1.0000 0.50802  0.62296  0.50372  Biso   1.000  Hf
  Hf38     1.0000 0.51576  0.61347  0.99251  Biso   1.000  Hf
  Hf39     1.0000 0.42956  0.37401  0.50276  Biso   1.000  Hf
  Hf40     1.0000 0.46289  0.35164  0.98906  Biso   1.000  Hf
  Hf41     1.0000 0.42783  0.87403  0.50278  Biso   1.000  Hf
  Hf42     1.0000 0.46115  0.85166  0.98907  Biso   1.000  Hf
  Hf43     1.0000 0.44186  0.34996  0.26056  Biso   1.000  Hf
  Hf44     1.0000 0.43249  0.35894  0.74527  Biso   1.000  Hf
  Hf45     1.0000 0.44018  0.84995  0.26059  Biso   1.000  Hf
  Hf46     1.0000 0.43078  0.85895  0.74530  Biso   1.000  Hf
