data_image0
_cell_length_a       5.10905
_cell_length_b       10.4746
_cell_length_c       10.5364
_cell_angle_alpha    90
_cell_angle_beta     80
_cell_angle_gamma    90

_symmetry_space_group_name_H-M    "P 1"
_symmetry_int_tables_number       1

loop_
  _symmetry_equiv_pos_as_xyz
  'x, y, z'

loop_
  _atom_site_label
  _atom_site_occupancy
  _atom_site_fract_x
  _atom_site_fract_y
  _atom_site_fract_z
  _atom_site_thermal_displace_type
  _atom_site_B_iso_or_equiv
  _atom_site_type_symbol
  La1      1.0000 0.27504  0.01173  0.13623  Biso   1.000  La
  Hf1      1.0000 0.24837  0.01882  0.64997  Biso   1.000  Hf
  Hf2      1.0000 0.26484  0.51973  0.14604  Biso   1.000  Hf
  Hf3      1.0000 0.24610  0.51746  0.64930  Biso   1.000  Hf
  Hf4      1.0000 0.25846  0.23827  0.40067  Biso   1.000  Hf
  Hf5      1.0000 0.24265  0.22795  0.89663  Biso   1.000  Hf
  Hf6      1.0000 0.25437  0.72004  0.40146  Biso   1.000  Hf
  Hf7      1.0000 0.24377  0.72407  0.89455  Biso   1.000  Hf
  Hf8      1.0000 0.71361  0.27759  0.09996  Biso   1.000  Hf
  Hf9      1.0000 0.68787  0.26907  0.60980  Biso   1.000  Hf
  Hf10     1.0000 0.70948  0.75937  0.10075  Biso   1.000  Hf
  Hf11     1.0000 0.68902  0.76521  0.60772  Biso   1.000  Hf
  Hf12     1.0000 0.70310  0.47791  0.35539  Biso   1.000  Hf
  Hf13     1.0000 0.68556  0.47570  0.85503  Biso   1.000  Hf
  La2      1.0000 0.69289  0.98591  0.36519  Biso   1.000  La
  Hf14     1.0000 0.68333  0.97434  0.85438  Biso   1.000  Hf
  Hf15     1.0000 0.06509  0.18944  0.07420  Biso   1.000  Hf
  Hf16     1.0000 0.02676  0.16665  0.58802  Biso   1.000  Hf
  Hf17     1.0000 0.07280  0.67432  0.08167  Biso   1.000  Hf
  Hf18     1.0000 0.03858  0.66252  0.59004  Biso   1.000  Hf
  Hf19     1.0000 0.12470  0.06701  0.35437  Biso   1.000  Hf
  Hf20     1.0000 0.04551  0.07568  0.83371  Biso   1.000  Hf
  Hf21     1.0000 0.05590  0.57402  0.33235  Biso   1.000  Hf
  Hf22     1.0000 0.03459  0.57488  0.83400  Biso   1.000  Hf
  Hf23     1.0000 0.91204  0.42364  0.16907  Biso   1.000  Hf
  Hf24     1.0000 0.89709  0.41826  0.67035  Biso   1.000  Hf
  Hf25     1.0000 0.84323  0.93064  0.14705  Biso   1.000  Hf
  Hf26     1.0000 0.88618  0.91747  0.67065  Biso   1.000  Hf
  Hf27     1.0000 0.89519  0.32333  0.41976  Biso   1.000  Hf
  Hf28     1.0000 0.89306  0.33063  0.91429  Biso   1.000  Hf
  Hf29     1.0000 0.90292  0.80822  0.42725  Biso   1.000  Hf
  Hf30     1.0000 0.90489  0.82651  0.91631  Biso   1.000  Hf
  Hf31     1.0000 0.54062  0.15684  0.24390  Biso   1.000  Hf
  Hf32     1.0000 0.52075  0.12577  0.74423  Biso   1.000  Hf
  Hf33     1.0000 0.54306  0.61827  0.23946  Biso   1.000  Hf
  Hf34     1.0000 0.51636  0.62505  0.74286  Biso   1.000  Hf
  Hf35     1.0000 0.49757  0.13341  0.50933  Biso   1.000  Hf
  Hf36     1.0000 0.53232  0.12413  0.98170  Biso   1.000  Hf
  Hf37     1.0000 0.52380  0.61535  0.49445  Biso   1.000  Hf
  Hf38     1.0000 0.50973  0.61219  0.99157  Biso   1.000  Hf
  Hf39     1.0000 0.44414  0.38229  0.00697  Biso   1.000  Hf
  Hf40     1.0000 0.42194  0.38096  0.51277  Biso   1.000  Hf
  Hf41     1.0000 0.43407  0.85975  0.99502  Biso   1.000  Hf
  Hf42     1.0000 0.39936  0.86903  0.52266  Biso   1.000  Hf
  Hf43     1.0000 0.42488  0.37938  0.26198  Biso   1.000  Hf
  Hf44     1.0000 0.41530  0.36812  0.76147  Biso   1.000  Hf
  Hf45     1.0000 0.42736  0.84081  0.25753  Biso   1.000  Hf
  Hf46     1.0000 0.41092  0.86740  0.76011  Biso   1.000  Hf
