data_image0
_cell_length_a       10.153
_cell_length_b       5.16987
_cell_length_c       10.3715
_cell_angle_alpha    90
_cell_angle_beta     80
_cell_angle_gamma    90

_symmetry_space_group_name_H-M    "P 1"
_symmetry_int_tables_number       1

loop_
  _symmetry_equiv_pos_as_xyz
  'x, y, z'

loop_
  _atom_site_label
  _atom_site_occupancy
  _atom_site_fract_x
  _atom_site_fract_y
  _atom_site_fract_z
  _atom_site_thermal_displace_type
  _atom_site_B_iso_or_equiv
  _atom_site_type_symbol
  La1      1.0000 0.12675  0.00589  0.13212  Biso   1.000  La
  Hf1      1.0000 0.12397  0.03402  0.64701  Biso   1.000  Hf
  Hf2      1.0000 0.63881  0.03137  0.14915  Biso   1.000  Hf
  Hf3      1.0000 0.62730  0.03919  0.64604  Biso   1.000  Hf
  Hf4      1.0000 0.12896  0.44281  0.39497  Biso   1.000  Hf
  Hf5      1.0000 0.11507  0.44903  0.89348  Biso   1.000  Hf
  Hf6      1.0000 0.62442  0.45325  0.39907  Biso   1.000  Hf
  Hf7      1.0000 0.61906  0.45662  0.89867  Biso   1.000  Hf
  Hf8      1.0000 0.36632  0.51816  0.10793  Biso   1.000  Hf
  Hf9      1.0000 0.34639  0.53546  0.60580  Biso   1.000  Hf
  Hf10     1.0000 0.85631  0.53920  0.10593  Biso   1.000  Hf
  Hf11     1.0000 0.84943  0.53869  0.60537  Biso   1.000  Hf
  Hf12     1.0000 0.35133  0.95065  0.35405  Biso   1.000  Hf
  Hf13     1.0000 0.35177  0.96167  0.85005  Biso   1.000  Hf
  Hf14     1.0000 0.84535  0.95710  0.35866  Biso   1.000  Hf
  Hf15     1.0000 0.83862  0.95154  0.85875  Biso   1.000  Hf
  Hf16     1.0000 0.05179  0.43511  0.08894  Biso   1.000  Hf
  Hf17     1.0000 0.02528  0.34496  0.59022  Biso   1.000  Hf
  Hf18     1.0000 0.54061  0.33686  0.08208  Biso   1.000  Hf
  Hf19     1.0000 0.52171  0.33953  0.58800  Biso   1.000  Hf
  Hf20     1.0000 0.02179  0.14703  0.34296  Biso   1.000  Hf
  Hf21     1.0000 0.02147  0.13401  0.84620  Biso   1.000  Hf
  Hf22     1.0000 0.52924  0.14545  0.33542  Biso   1.000  Hf
  Hf23     1.0000 0.52516  0.14999  0.83367  Biso   1.000  Hf
  Hf24     1.0000 0.45959  0.83771  0.16618  Biso   1.000  Hf
  Hf25     1.0000 0.44822  0.84145  0.66604  Biso   1.000  Hf
  Hf26     1.0000 0.91344  0.88772  0.15983  Biso   1.000  Hf
  Hf27     1.0000 0.94415  0.84730  0.66949  Biso   1.000  Hf
  Hf28     1.0000 0.44788  0.64327  0.41990  Biso   1.000  Hf
  Hf29     1.0000 0.43783  0.65069  0.92221  Biso   1.000  Hf
  Hf30     1.0000 0.95143  0.64925  0.41428  Biso   1.000  Hf
  Hf31     1.0000 0.93766  0.64203  0.91466  Biso   1.000  Hf
  Hf32     1.0000 0.27621  0.24604  0.24486  Biso   1.000  Hf
  Hf33     1.0000 0.25788  0.25261  0.73958  Biso   1.000  Hf
  Hf34     1.0000 0.76576  0.26730  0.24642  Biso   1.000  Hf
  Hf35     1.0000 0.76198  0.25770  0.74428  Biso   1.000  Hf
  Hf36     1.0000 0.26271  0.23204  0.49343  Biso   1.000  Hf
  Hf37     1.0000 0.26070  0.24127  0.98316  Biso   1.000  Hf
  Hf38     1.0000 0.76211  0.23853  0.49537  Biso   1.000  Hf
  Hf39     1.0000 0.75411  0.23370  0.99527  Biso   1.000  Hf
  Hf40     1.0000 0.20875  0.75251  0.51363  Biso   1.000  Hf
  Hf41     1.0000 0.72194  0.75613  0.00722  Biso   1.000  Hf
  Hf42     1.0000 0.71100  0.75416  0.51231  Biso   1.000  Hf
  Hf43     1.0000 0.22588  0.71247  0.26002  Biso   1.000  Hf
  Hf44     1.0000 0.20663  0.73893  0.77010  Biso   1.000  Hf
  Hf45     1.0000 0.70319  0.73387  0.26588  Biso   1.000  Hf
  Hf46     1.0000 0.70509  0.73727  0.76111  Biso   1.000  Hf
