data_image0
_cell_length_a       10.1491
_cell_length_b       10.243
_cell_length_c       5.26389
_cell_angle_alpha    90
_cell_angle_beta     80
_cell_angle_gamma    90

_symmetry_space_group_name_H-M    "P 1"
_symmetry_int_tables_number       1

loop_
  _symmetry_equiv_pos_as_xyz
  'x, y, z'

loop_
  _atom_site_label
  _atom_site_occupancy
  _atom_site_fract_x
  _atom_site_fract_y
  _atom_site_fract_z
  _atom_site_thermal_displace_type
  _atom_site_B_iso_or_equiv
  _atom_site_type_symbol
  La1      1.0000 0.10889  0.01006  0.25999  Biso   1.000  La
  Hf1      1.0000 0.13603  0.52222  0.27789  Biso   1.000  Hf
  Hf2      1.0000 0.63435  0.02051  0.29582  Biso   1.000  Hf
  Hf3      1.0000 0.63226  0.52048  0.29209  Biso   1.000  Hf
  Hf4      1.0000 0.13247  0.23532  0.76041  Biso   1.000  Hf
  Hf5      1.0000 0.12520  0.73364  0.78331  Biso   1.000  Hf
  Hf6      1.0000 0.62560  0.22750  0.79726  Biso   1.000  Hf
  Hf7      1.0000 0.62904  0.72701  0.79380  Biso   1.000  Hf
  Hf8      1.0000 0.35744  0.26914  0.19690  Biso   1.000  Hf
  Hf9      1.0000 0.36481  0.77181  0.19874  Biso   1.000  Hf
  Hf10     1.0000 0.85149  0.27560  0.21915  Biso   1.000  Hf
  Hf11     1.0000 0.85979  0.76486  0.23017  Biso   1.000  Hf
  Hf12     1.0000 0.35238  0.48001  0.70198  Biso   1.000  Hf
  Hf13     1.0000 0.35603  0.97931  0.69687  Biso   1.000  Hf
  Hf14     1.0000 0.85605  0.47642  0.71728  Biso   1.000  Hf
  Hf15     1.0000 0.85224  0.97353  0.74075  Biso   1.000  Hf
  Hf16     1.0000 0.02738  0.65280  0.12547  Biso   1.000  Hf
  Hf17     1.0000 0.53082  0.16320  0.14454  Biso   1.000  Hf
  Hf18     1.0000 0.53440  0.66192  0.14216  Biso   1.000  Hf
  Hf19     1.0000 0.01206  0.09406  0.68074  Biso   1.000  Hf
  Hf20     1.0000 0.02212  0.59126  0.63633  Biso   1.000  Hf
  Hf21     1.0000 0.52716  0.08749  0.64513  Biso   1.000  Hf
  Hf22     1.0000 0.52348  0.58762  0.64584  Biso   1.000  Hf
  Hf23     1.0000 0.46278  0.41221  0.34431  Biso   1.000  Hf
  Hf24     1.0000 0.46888  0.91342  0.34455  Biso   1.000  Hf
  Hf25     1.0000 0.96870  0.40038  0.36919  Biso   1.000  Hf
  Hf26     1.0000 0.96437  0.85821  0.46622  Biso   1.000  Hf
  Hf27     1.0000 0.45657  0.33682  0.84580  Biso   1.000  Hf
  Hf28     1.0000 0.46664  0.84121  0.85018  Biso   1.000  Hf
  Hf29     1.0000 0.95625  0.33655  0.87958  Biso   1.000  Hf
  Hf30     1.0000 0.97169  0.86928  0.95026  Biso   1.000  Hf
  Hf31     1.0000 0.27096  0.13188  0.46506  Biso   1.000  Hf
  Hf32     1.0000 0.26935  0.62678  0.46253  Biso   1.000  Hf
  Hf33     1.0000 0.77838  0.12363  0.48320  Biso   1.000  Hf
  Hf34     1.0000 0.76790  0.62269  0.48743  Biso   1.000  Hf
  Hf35     1.0000 0.25797  0.12843  0.95287  Biso   1.000  Hf
  Hf36     1.0000 0.25931  0.62219  0.96494  Biso   1.000  Hf
  Hf37     1.0000 0.75879  0.12066  0.99807  Biso   1.000  Hf
  Hf38     1.0000 0.76445  0.61860  0.98622  Biso   1.000  Hf
  Hf39     1.0000 0.22547  0.38182  0.00637  Biso   1.000  Hf
  Hf40     1.0000 0.22902  0.86934  0.99326  Biso   1.000  Hf
  Hf41     1.0000 0.72470  0.37944  0.02358  Biso   1.000  Hf
  Hf42     1.0000 0.73207  0.87479  0.02945  Biso   1.000  Hf
  Hf43     1.0000 0.21974  0.37555  0.50672  Biso   1.000  Hf
  Hf44     1.0000 0.22923  0.86606  0.51225  Biso   1.000  Hf
  Hf45     1.0000 0.71832  0.36962  0.52714  Biso   1.000  Hf
  Hf46     1.0000 0.71682  0.87263  0.53070  Biso   1.000  Hf
