data_image0
_cell_length_a       10.2298
_cell_length_b       5.16447
_cell_length_c       10.4573
_cell_angle_alpha    90
_cell_angle_beta     80
_cell_angle_gamma    90

_symmetry_space_group_name_H-M    "P 1"
_symmetry_int_tables_number       1

loop_
  _symmetry_equiv_pos_as_xyz
  'x, y, z'

loop_
  _atom_site_label
  _atom_site_occupancy
  _atom_site_fract_x
  _atom_site_fract_y
  _atom_site_fract_z
  _atom_site_thermal_displace_type
  _atom_site_B_iso_or_equiv
  _atom_site_type_symbol
  La1      1.0000 0.12619  0.01620  0.13879  Biso   1.000  La
  Hf1      1.0000 0.13137  0.03908  0.64887  Biso   1.000  Hf
  Hf2      1.0000 0.63725  0.03510  0.14527  Biso   1.000  Hf
  Hf3      1.0000 0.63252  0.03713  0.64981  Biso   1.000  Hf
  Hf4      1.0000 0.14296  0.46787  0.40088  Biso   1.000  Hf
  Hf5      1.0000 0.13237  0.45913  0.89583  Biso   1.000  Hf
  Hf6      1.0000 0.62658  0.44769  0.39953  Biso   1.000  Hf
  Hf7      1.0000 0.63304  0.45257  0.89670  Biso   1.000  Hf
  Hf8      1.0000 0.36567  0.53031  0.10261  Biso   1.000  Hf
  Hf9      1.0000 0.35583  0.53716  0.60748  Biso   1.000  Hf
  Hf10     1.0000 0.85670  0.53686  0.10450  Biso   1.000  Hf
  Hf11     1.0000 0.85700  0.53708  0.60367  Biso   1.000  Hf
  Hf12     1.0000 0.35821  0.95613  0.35382  Biso   1.000  Hf
  Hf13     1.0000 0.35894  0.95040  0.85439  Biso   1.000  Hf
  Hf14     1.0000 0.83597  0.94224  0.35898  Biso   1.000  Hf
  Hf15     1.0000 0.85435  0.95058  0.85546  Biso   1.000  Hf
  Hf16     1.0000 0.04088  0.40357  0.08646  Biso   1.000  Hf
  Hf17     1.0000 0.02765  0.32624  0.57479  Biso   1.000  Hf
  Hf18     1.0000 0.53915  0.33455  0.07985  Biso   1.000  Hf
  Hf19     1.0000 0.52747  0.32926  0.58421  Biso   1.000  Hf
  Hf20     1.0000 0.02828  0.15466  0.83471  Biso   1.000  Hf
  Hf21     1.0000 0.53059  0.15345  0.33113  Biso   1.000  Hf
  Hf22     1.0000 0.53231  0.15465  0.83115  Biso   1.000  Hf
  Hf23     1.0000 0.46279  0.83958  0.16819  Biso   1.000  Hf
  Hf24     1.0000 0.46060  0.83061  0.67126  Biso   1.000  Hf
  Hf25     1.0000 0.92034  0.86808  0.17246  Biso   1.000  Hf
  Hf26     1.0000 0.95934  0.83027  0.66968  Biso   1.000  Hf
  Hf27     1.0000 0.45488  0.65323  0.42353  Biso   1.000  Hf
  Hf28     1.0000 0.46631  0.66081  0.92154  Biso   1.000  Hf
  Hf29     1.0000 0.96295  0.66621  0.41247  Biso   1.000  Hf
  Hf30     1.0000 0.95522  0.65892  0.91937  Biso   1.000  Hf
  Hf31     1.0000 0.26911  0.25871  0.25219  Biso   1.000  Hf
  Hf32     1.0000 0.26751  0.25373  0.74076  Biso   1.000  Hf
  Hf33     1.0000 0.76766  0.26092  0.24570  Biso   1.000  Hf
  Hf34     1.0000 0.77169  0.25505  0.74009  Biso   1.000  Hf
  Hf35     1.0000 0.26977  0.23589  0.49549  Biso   1.000  Hf
  Hf36     1.0000 0.27486  0.24013  0.98326  Biso   1.000  Hf
  Hf37     1.0000 0.76764  0.23282  0.49274  Biso   1.000  Hf
  Hf38     1.0000 0.76692  0.23168  0.99253  Biso   1.000  Hf
  Hf39     1.0000 0.23282  0.73016  0.99639  Biso   1.000  Hf
  Hf40     1.0000 0.21686  0.75341  0.51183  Biso   1.000  Hf
  Hf41     1.0000 0.72557  0.75646  0.00823  Biso   1.000  Hf
  Hf42     1.0000 0.71652  0.74345  0.51334  Biso   1.000  Hf
  Hf43     1.0000 0.23299  0.72539  0.26296  Biso   1.000  Hf
  Hf44     1.0000 0.21783  0.73992  0.75789  Biso   1.000  Hf
  Hf45     1.0000 0.70198  0.73448  0.26791  Biso   1.000  Hf
  Hf46     1.0000 0.72045  0.73669  0.75946  Biso   1.000  Hf
