data_image0
_cell_length_a       10.1841
_cell_length_b       10.3798
_cell_length_c       5.22676
_cell_angle_alpha    90
_cell_angle_beta     80
_cell_angle_gamma    90

_symmetry_space_group_name_H-M    "P 1"
_symmetry_int_tables_number       1

loop_
  _symmetry_equiv_pos_as_xyz
  'x, y, z'

loop_
  _atom_site_label
  _atom_site_occupancy
  _atom_site_fract_x
  _atom_site_fract_y
  _atom_site_fract_z
  _atom_site_thermal_displace_type
  _atom_site_B_iso_or_equiv
  _atom_site_type_symbol
  La1      1.0000 0.13147  0.01512  0.27800  Biso   1.000  La
  Hf1      1.0000 0.12818  0.51949  0.28793  Biso   1.000  Hf
  Hf2      1.0000 0.63640  0.01981  0.29636  Biso   1.000  Hf
  Hf3      1.0000 0.63174  0.51935  0.29264  Biso   1.000  Hf
  Hf4      1.0000 0.11809  0.23369  0.80404  Biso   1.000  Hf
  Hf5      1.0000 0.12706  0.72236  0.79472  Biso   1.000  Hf
  Hf6      1.0000 0.63075  0.22546  0.79437  Biso   1.000  Hf
  Hf7      1.0000 0.62734  0.72343  0.79440  Biso   1.000  Hf
  Hf8      1.0000 0.36248  0.27599  0.18202  Biso   1.000  Hf
  Hf9      1.0000 0.35661  0.76374  0.21089  Biso   1.000  Hf
  Hf10     1.0000 0.85244  0.27345  0.21296  Biso   1.000  Hf
  Hf11     1.0000 0.85032  0.76735  0.21270  Biso   1.000  Hf
  Hf12     1.0000 0.35027  0.47513  0.70111  Biso   1.000  Hf
  Hf13     1.0000 0.35615  0.96603  0.71679  Biso   1.000  Hf
  Hf14     1.0000 0.84855  0.47789  0.70973  Biso   1.000  Hf
  Hf15     1.0000 0.84432  0.97418  0.72544  Biso   1.000  Hf
  Hf16     1.0000 0.03361  0.19964  0.17567  Biso   1.000  Hf
  Hf17     1.0000 0.03276  0.67489  0.17158  Biso   1.000  Hf
  Hf18     1.0000 0.52975  0.16678  0.15801  Biso   1.000  Hf
  Hf19     1.0000 0.53236  0.66752  0.16289  Biso   1.000  Hf
  Hf20     1.0000 0.02737  0.07364  0.70893  Biso   1.000  Hf
  Hf21     1.0000 0.02811  0.57014  0.66888  Biso   1.000  Hf
  Hf22     1.0000 0.53044  0.07856  0.65957  Biso   1.000  Hf
  Hf23     1.0000 0.52358  0.57778  0.66116  Biso   1.000  Hf
  Hf24     1.0000 0.45788  0.41914  0.33437  Biso   1.000  Hf
  Hf25     1.0000 0.45248  0.91980  0.33991  Biso   1.000  Hf
  Hf26     1.0000 0.94844  0.43059  0.33059  Biso   1.000  Hf
  Hf27     1.0000 0.92793  0.92017  0.35608  Biso   1.000  Hf
  Hf28     1.0000 0.45697  0.33034  0.83389  Biso   1.000  Hf
  Hf29     1.0000 0.45808  0.82636  0.85064  Biso   1.000  Hf
  Hf30     1.0000 0.94226  0.32542  0.83071  Biso   1.000  Hf
  Hf31     1.0000 0.95053  0.82399  0.84639  Biso   1.000  Hf
  Hf32     1.0000 0.26595  0.61913  0.47809  Biso   1.000  Hf
  Hf33     1.0000 0.77048  0.12930  0.48994  Biso   1.000  Hf
  Hf34     1.0000 0.76562  0.62762  0.48492  Biso   1.000  Hf
  Hf35     1.0000 0.27394  0.12485  0.93833  Biso   1.000  Hf
  Hf36     1.0000 0.26221  0.61317  0.98131  Biso   1.000  Hf
  Hf37     1.0000 0.76160  0.11734  0.99283  Biso   1.000  Hf
  Hf38     1.0000 0.76183  0.61525  0.98492  Biso   1.000  Hf
  Hf39     1.0000 0.22165  0.38422  0.00760  Biso   1.000  Hf
  Hf40     1.0000 0.23286  0.86464  0.00193  Biso   1.000  Hf
  Hf41     1.0000 0.71705  0.38061  0.01968  Biso   1.000  Hf
  Hf42     1.0000 0.71865  0.87814  0.02378  Biso   1.000  Hf
  Hf43     1.0000 0.21956  0.35479  0.50640  Biso   1.000  Hf
  Hf44     1.0000 0.22424  0.85653  0.52745  Biso   1.000  Hf
  Hf45     1.0000 0.71326  0.36931  0.52169  Biso   1.000  Hf
  Hf46     1.0000 0.70088  0.86698  0.52960  Biso   1.000  Hf
