data_image0
_cell_length_a       10.0002
_cell_length_b       10.4043
_cell_length_c       5.02622
_cell_angle_alpha    90
_cell_angle_beta     90
_cell_angle_gamma    90

_symmetry_space_group_name_H-M    "P 1"
_symmetry_int_tables_number       1

loop_
  _symmetry_equiv_pos_as_xyz
  'x, y, z'

loop_
  _atom_site_label
  _atom_site_occupancy
  _atom_site_fract_x
  _atom_site_fract_y
  _atom_site_fract_z
  _atom_site_thermal_displace_type
  _atom_site_B_iso_or_equiv
  _atom_site_type_symbol
  La1      1.0000 0.11138  0.00086  0.25602  Biso   1.000  La
  Hf1      1.0000 0.13426  0.51645  0.25253  Biso   1.000  Hf
  Hf2      1.0000 0.63338  0.01669  0.25354  Biso   1.000  Hf
  Hf3      1.0000 0.62917  0.51109  0.25182  Biso   1.000  Hf
  Hf4      1.0000 0.13430  0.23098  0.74237  Biso   1.000  Hf
  Hf5      1.0000 0.13705  0.73154  0.76262  Biso   1.000  Hf
  Hf6      1.0000 0.63127  0.23164  0.74922  Biso   1.000  Hf
  Hf7      1.0000 0.63052  0.72835  0.75210  Biso   1.000  Hf
  Hf8      1.0000 0.36156  0.26141  0.25210  Biso   1.000  Hf
  Hf9      1.0000 0.36953  0.76420  0.25225  Biso   1.000  Hf
  Hf10     1.0000 0.86507  0.27143  0.24874  Biso   1.000  Hf
  Hf11     1.0000 0.85774  0.75485  0.24858  Biso   1.000  Hf
  Hf12     1.0000 0.36341  0.47845  0.75431  Biso   1.000  Hf
  Hf13     1.0000 0.36561  0.98193  0.75331  Biso   1.000  Hf
  Hf14     1.0000 0.86542  0.48008  0.75113  Biso   1.000  Hf
  Hf15     1.0000 0.85420  0.98100  0.76902  Biso   1.000  Hf
  Hf16     1.0000 0.03592  0.20229  0.36944  Biso   1.000  Hf
  Hf17     1.0000 0.03456  0.69893  0.39825  Biso   1.000  Hf
  Hf18     1.0000 0.53812  0.18395  0.38465  Biso   1.000  Hf
  Hf19     1.0000 0.53725  0.68039  0.39137  Biso   1.000  Hf
  Hf20     1.0000 0.03460  0.05890  0.79284  Biso   1.000  Hf
  Hf21     1.0000 0.03103  0.56930  0.89721  Biso   1.000  Hf
  Hf22     1.0000 0.53888  0.06263  0.88987  Biso   1.000  Hf
  Hf23     1.0000 0.53263  0.56231  0.89232  Biso   1.000  Hf
  Hf24     1.0000 0.46211  0.43078  0.39276  Biso   1.000  Hf
  Hf25     1.0000 0.47052  0.93064  0.39706  Biso   1.000  Hf
  Hf26     1.0000 0.96012  0.44379  0.38542  Biso   1.000  Hf
  Hf27     1.0000 0.46282  0.31213  0.88933  Biso   1.000  Hf
  Hf28     1.0000 0.46859  0.81351  0.89644  Biso   1.000  Hf
  Hf29     1.0000 0.96243  0.31504  0.88366  Biso   1.000  Hf
  Hf30     1.0000 0.97068  0.82648  0.92514  Biso   1.000  Hf
  Hf31     1.0000 0.28001  0.12184  0.50609  Biso   1.000  Hf
  Hf32     1.0000 0.26640  0.61324  0.50501  Biso   1.000  Hf
  Hf33     1.0000 0.77210  0.11394  0.49904  Biso   1.000  Hf
  Hf34     1.0000 0.76699  0.61167  0.49739  Biso   1.000  Hf
  Hf35     1.0000 0.26698  0.12890  0.99440  Biso   1.000  Hf
  Hf36     1.0000 0.27159  0.62908  0.00579  Biso   1.000  Hf
  Hf37     1.0000 0.77278  0.13349  0.00094  Biso   1.000  Hf
  Hf38     1.0000 0.76712  0.62628  0.99421  Biso   1.000  Hf
  Hf39     1.0000 0.22862  0.38322  0.00233  Biso   1.000  Hf
  Hf40     1.0000 0.23972  0.86989  0.99475  Biso   1.000  Hf
  Hf41     1.0000 0.72680  0.37956  0.99618  Biso   1.000  Hf
  Hf42     1.0000 0.72451  0.87602  0.01156  Biso   1.000  Hf
  Hf43     1.0000 0.22723  0.36784  0.49912  Biso   1.000  Hf
  Hf44     1.0000 0.24218  0.85710  0.51397  Biso   1.000  Hf
  Hf45     1.0000 0.72841  0.36533  0.49945  Biso   1.000  Hf
  Hf46     1.0000 0.74036  0.86262  0.51015  Biso   1.000  Hf
