data_image0
_cell_length_a       5.03208
_cell_length_b       10.4138
_cell_length_c       10.0873
_cell_angle_alpha    90
_cell_angle_beta     90
_cell_angle_gamma    90

_symmetry_space_group_name_H-M    "P 1"
_symmetry_int_tables_number       1

loop_
  _symmetry_equiv_pos_as_xyz
  'x, y, z'

loop_
  _atom_site_label
  _atom_site_occupancy
  _atom_site_fract_x
  _atom_site_fract_y
  _atom_site_fract_z
  _atom_site_thermal_displace_type
  _atom_site_B_iso_or_equiv
  _atom_site_type_symbol
  La1      1.0000 0.24503  0.01306  0.11269  Biso   1.000  La
  Hf1      1.0000 0.26164  0.02316  0.62490  Biso   1.000  Hf
  Hf2      1.0000 0.24925  0.51894  0.12756  Biso   1.000  Hf
  Hf3      1.0000 0.24590  0.52368  0.62841  Biso   1.000  Hf
  Hf4      1.0000 0.24151  0.23660  0.37784  Biso   1.000  Hf
  Hf5      1.0000 0.18625  0.26837  0.84880  Biso   1.000  Hf
  Hf6      1.0000 0.23806  0.73746  0.37780  Biso   1.000  Hf
  Hf7      1.0000 0.24267  0.74219  0.87506  Biso   1.000  Hf
  Hf8      1.0000 0.71402  0.27813  0.13906  Biso   1.000  Hf
  Hf9      1.0000 0.70655  0.27250  0.62121  Biso   1.000  Hf
  Hf10     1.0000 0.71270  0.76652  0.13008  Biso   1.000  Hf
  Hf11     1.0000 0.70786  0.76879  0.61995  Biso   1.000  Hf
  Hf12     1.0000 0.70487  0.49097  0.37731  Biso   1.000  Hf
  Hf13     1.0000 0.69350  0.49163  0.88445  Biso   1.000  Hf
  Hf14     1.0000 0.69879  0.98751  0.37433  Biso   1.000  Hf
  Hf15     1.0000 0.71796  0.98420  0.85836  Biso   1.000  Hf
  Hf16     1.0000 0.04397  0.19962  0.20609  Biso   1.000  Hf
  Hf17     1.0000 0.06221  0.19442  0.66659  Biso   1.000  Hf
  Hf18     1.0000 0.04913  0.68476  0.19996  Biso   1.000  Hf
  Hf19     1.0000 0.04256  0.68747  0.69768  Biso   1.000  Hf
  Hf20     1.0000 0.05961  0.06640  0.44099  Biso   1.000  Hf
  Hf21     1.0000 0.04981  0.09296  0.90321  Biso   1.000  Hf
  Hf22     1.0000 0.03678  0.57085  0.45542  Biso   1.000  Hf
  Hf23     1.0000 0.02773  0.58203  0.94835  Biso   1.000  Hf
  Hf24     1.0000 0.89922  0.44492  0.19609  Biso   1.000  Hf
  Hf25     1.0000 0.95071  0.42294  0.72515  Biso   1.000  Hf
  Hf26     1.0000 0.86541  0.93467  0.20037  Biso   1.000  Hf
  Hf27     1.0000 0.90478  0.93610  0.68623  Biso   1.000  Hf
  Hf28     1.0000 0.90326  0.32572  0.44554  Biso   1.000  Hf
  Hf29     1.0000 0.87087  0.32473  0.95731  Biso   1.000  Hf
  Hf30     1.0000 0.89930  0.81885  0.44485  Biso   1.000  Hf
  Hf31     1.0000 0.93824  0.83940  0.95722  Biso   1.000  Hf
  Hf32     1.0000 0.53647  0.13274  0.25412  Biso   1.000  Hf
  Hf33     1.0000 0.52132  0.13039  0.75918  Biso   1.000  Hf
  Hf34     1.0000 0.51436  0.61994  0.25094  Biso   1.000  Hf
  Hf35     1.0000 0.51925  0.62337  0.74980  Biso   1.000  Hf
  Hf36     1.0000 0.52433  0.13612  0.50383  Biso   1.000  Hf
  Hf37     1.0000 0.50956  0.63678  0.50010  Biso   1.000  Hf
  Hf38     1.0000 0.53186  0.62850  0.00174  Biso   1.000  Hf
  Hf39     1.0000 0.43810  0.38898  0.50183  Biso   1.000  Hf
  Hf40     1.0000 0.40083  0.39305  0.99836  Biso   1.000  Hf
  Hf41     1.0000 0.43017  0.88764  0.49969  Biso   1.000  Hf
  Hf42     1.0000 0.46241  0.88673  0.98530  Biso   1.000  Hf
  Hf43     1.0000 0.42944  0.37714  0.25399  Biso   1.000  Hf
  Hf44     1.0000 0.46128  0.38108  0.74563  Biso   1.000  Hf
  Hf45     1.0000 0.43747  0.85882  0.25540  Biso   1.000  Hf
  Hf46     1.0000 0.43689  0.87206  0.74247  Biso   1.000  Hf
