data_image0
_cell_length_a       10.0465
_cell_length_b       5.20701
_cell_length_c       10.0608
_cell_angle_alpha    90
_cell_angle_beta     90
_cell_angle_gamma    90

_symmetry_space_group_name_H-M    "P 1"
_symmetry_int_tables_number       1

loop_
  _symmetry_equiv_pos_as_xyz
  'x, y, z'

loop_
  _atom_site_label
  _atom_site_occupancy
  _atom_site_fract_x
  _atom_site_fract_y
  _atom_site_fract_z
  _atom_site_thermal_displace_type
  _atom_site_B_iso_or_equiv
  _atom_site_type_symbol
  La1      1.0000 0.12864  0.00821  0.11363  Biso   1.000  La
  Hf1      1.0000 0.13462  0.02108  0.62279  Biso   1.000  Hf
  Hf2      1.0000 0.63843  0.02652  0.13124  Biso   1.000  Hf
  Hf3      1.0000 0.63731  0.02761  0.62479  Biso   1.000  Hf
  Hf4      1.0000 0.13954  0.45566  0.37442  Biso   1.000  Hf
  Hf5      1.0000 0.13205  0.45503  0.86155  Biso   1.000  Hf
  Hf6      1.0000 0.63592  0.46056  0.37964  Biso   1.000  Hf
  Hf7      1.0000 0.63902  0.46073  0.87904  Biso   1.000  Hf
  Hf8      1.0000 0.37904  0.51621  0.12676  Biso   1.000  Hf
  Hf9      1.0000 0.36843  0.52229  0.62477  Biso   1.000  Hf
  Hf10     1.0000 0.86413  0.53017  0.13255  Biso   1.000  Hf
  Hf11     1.0000 0.86908  0.52743  0.62244  Biso   1.000  Hf
  Hf12     1.0000 0.37130  0.95846  0.37387  Biso   1.000  Hf
  Hf13     1.0000 0.38732  0.98114  0.86350  Biso   1.000  Hf
  Hf14     1.0000 0.86996  0.95932  0.37928  Biso   1.000  Hf
  Hf15     1.0000 0.86778  0.95553  0.87350  Biso   1.000  Hf
  Hf16     1.0000 0.03326  0.38577  0.20191  Biso   1.000  Hf
  Hf17     1.0000 0.04196  0.36705  0.68009  Biso   1.000  Hf
  Hf18     1.0000 0.54331  0.36115  0.19808  Biso   1.000  Hf
  Hf19     1.0000 0.53253  0.34871  0.70464  Biso   1.000  Hf
  Hf20     1.0000 0.03938  0.11970  0.44150  Biso   1.000  Hf
  Hf21     1.0000 0.03249  0.13819  0.91447  Biso   1.000  Hf
  Hf22     1.0000 0.53759  0.12325  0.44728  Biso   1.000  Hf
  Hf23     1.0000 0.54062  0.13605  0.95451  Biso   1.000  Hf
  Hf24     1.0000 0.47184  0.86068  0.19505  Biso   1.000  Hf
  Hf25     1.0000 0.47306  0.85328  0.69073  Biso   1.000  Hf
  Hf26     1.0000 0.94316  0.86793  0.20037  Biso   1.000  Hf
  Hf27     1.0000 0.96783  0.85712  0.69425  Biso   1.000  Hf
  Hf28     1.0000 0.46849  0.62249  0.44882  Biso   1.000  Hf
  Hf29     1.0000 0.46887  0.63987  0.94302  Biso   1.000  Hf
  Hf30     1.0000 0.96817  0.62539  0.44572  Biso   1.000  Hf
  Hf31     1.0000 0.98512  0.64810  0.95876  Biso   1.000  Hf
  Hf32     1.0000 0.28357  0.23198  0.25121  Biso   1.000  Hf
  Hf33     1.0000 0.27123  0.22373  0.74206  Biso   1.000  Hf
  Hf34     1.0000 0.77037  0.23271  0.25476  Biso   1.000  Hf
  Hf35     1.0000 0.77186  0.23022  0.75054  Biso   1.000  Hf
  Hf36     1.0000 0.27301  0.25315  0.49922  Biso   1.000  Hf
  Hf37     1.0000 0.27340  0.29717  0.98733  Biso   1.000  Hf
  Hf38     1.0000 0.77074  0.25861  0.50268  Biso   1.000  Hf
  Hf39     1.0000 0.77284  0.26380  0.00076  Biso   1.000  Hf
  Hf40     1.0000 0.23397  0.75506  0.50086  Biso   1.000  Hf
  Hf41     1.0000 0.73387  0.75679  0.50267  Biso   1.000  Hf
  Hf42     1.0000 0.73212  0.76061  0.00085  Biso   1.000  Hf
  Hf43     1.0000 0.24662  0.70706  0.25062  Biso   1.000  Hf
  Hf44     1.0000 0.23899  0.73253  0.75652  Biso   1.000  Hf
  Hf45     1.0000 0.72360  0.72828  0.25496  Biso   1.000  Hf
  Hf46     1.0000 0.73383  0.72681  0.75094  Biso   1.000  Hf
