data_image0
_cell_length_a       10.0788
_cell_length_b       10.3089
_cell_length_c       5.23438
_cell_angle_alpha    90
_cell_angle_beta     90
_cell_angle_gamma    90

_symmetry_space_group_name_H-M    "P 1"
_symmetry_int_tables_number       1

loop_
  _symmetry_equiv_pos_as_xyz
  'x, y, z'

loop_
  _atom_site_label
  _atom_site_occupancy
  _atom_site_fract_x
  _atom_site_fract_y
  _atom_site_fract_z
  _atom_site_thermal_displace_type
  _atom_site_B_iso_or_equiv
  _atom_site_type_symbol
  La1      1.0000 0.11485  0.00192  0.30055  Biso   1.000  La
  Hf1      1.0000 0.13922  0.52496  0.33475  Biso   1.000  Hf
  Hf2      1.0000 0.14577  0.23934  0.84118  Biso   1.000  Hf
  Hf3      1.0000 0.13910  0.73161  0.83422  Biso   1.000  Hf
  Hf4      1.0000 0.35954  0.26807  0.34085  Biso   1.000  Hf
  Hf5      1.0000 0.36904  0.76978  0.33900  Biso   1.000  Hf
  Hf6      1.0000 0.36146  0.47903  0.83810  Biso   1.000  Hf
  Hf7      1.0000 0.36619  0.97999  0.83151  Biso   1.000  Hf
  Hf8      1.0000 0.63540  0.02225  0.16304  Biso   1.000  Hf
  Hf9      1.0000 0.64034  0.51726  0.15535  Biso   1.000  Hf
  Hf10     1.0000 0.63849  0.22872  0.65811  Biso   1.000  Hf
  Hf11     1.0000 0.63804  0.72331  0.65761  Biso   1.000  Hf
  Hf12     1.0000 0.86214  0.27390  0.15143  Biso   1.000  Hf
  Hf13     1.0000 0.86287  0.76701  0.17210  Biso   1.000  Hf
  Hf14     1.0000 0.86308  0.47843  0.65154  Biso   1.000  Hf
  Hf15     1.0000 0.84777  0.96922  0.67915  Biso   1.000  Hf
  Hf16     1.0000 0.03541  0.18593  0.15213  Biso   1.000  Hf
  Hf17     1.0000 0.03466  0.66359  0.14686  Biso   1.000  Hf
  Hf18     1.0000 0.03045  0.59023  0.65500  Biso   1.000  Hf
  Hf19     1.0000 0.46745  0.41534  0.16690  Biso   1.000  Hf
  Hf20     1.0000 0.47378  0.91972  0.16784  Biso   1.000  Hf
  Hf21     1.0000 0.46617  0.33064  0.66974  Biso   1.000  Hf
  Hf22     1.0000 0.47467  0.83363  0.66295  Biso   1.000  Hf
  Hf23     1.0000 0.26434  0.12807  0.58930  Biso   1.000  Hf
  Hf24     1.0000 0.27711  0.62350  0.58305  Biso   1.000  Hf
  Hf25     1.0000 0.28904  0.13485  0.06998  Biso   1.000  Hf
  Hf26     1.0000 0.27588  0.62355  0.08101  Biso   1.000  Hf
  Hf27     1.0000 0.22486  0.37857  0.58261  Biso   1.000  Hf
  Hf28     1.0000 0.23575  0.86725  0.58849  Biso   1.000  Hf
  Hf29     1.0000 0.22564  0.37916  0.08444  Biso   1.000  Hf
  Hf30     1.0000 0.24970  0.86267  0.06471  Biso   1.000  Hf
  Hf31     1.0000 0.53626  0.16851  0.33070  Biso   1.000  Hf
  Hf32     1.0000 0.53637  0.66237  0.32922  Biso   1.000  Hf
  Hf33     1.0000 0.53677  0.07888  0.82206  Biso   1.000  Hf
  Hf34     1.0000 0.53325  0.58052  0.83023  Biso   1.000  Hf
  Hf35     1.0000 0.96474  0.42353  0.31625  Biso   1.000  Hf
  Hf36     1.0000 0.96293  0.86089  0.45286  Biso   1.000  Hf
  Hf37     1.0000 0.96349  0.32701  0.80365  Biso   1.000  Hf
  Hf38     1.0000 0.98081  0.87456  0.93134  Biso   1.000  Hf
  Hf39     1.0000 0.77299  0.12240  0.92124  Biso   1.000  Hf
  Hf40     1.0000 0.77713  0.62084  0.91212  Biso   1.000  Hf
  Hf41     1.0000 0.78375  0.12120  0.41980  Biso   1.000  Hf
  Hf42     1.0000 0.77411  0.62232  0.41174  Biso   1.000  Hf
  Hf43     1.0000 0.72336  0.37318  0.90582  Biso   1.000  Hf
  Hf44     1.0000 0.72426  0.86520  0.91813  Biso   1.000  Hf
  Hf45     1.0000 0.72480  0.37335  0.40829  Biso   1.000  Hf
  Hf46     1.0000 0.71902  0.87717  0.41491  Biso   1.000  Hf
