data_image0
_cell_length_a       10.1288
_cell_length_b       5.16552
_cell_length_c       10.4053
_cell_angle_alpha    90
_cell_angle_beta     90
_cell_angle_gamma    90

_symmetry_space_group_name_H-M    "P 1"
_symmetry_int_tables_number       1

loop_
  _symmetry_equiv_pos_as_xyz
  'x, y, z'

loop_
  _atom_site_label
  _atom_site_occupancy
  _atom_site_fract_x
  _atom_site_fract_y
  _atom_site_fract_z
  _atom_site_thermal_displace_type
  _atom_site_B_iso_or_equiv
  _atom_site_type_symbol
  La1      1.0000 0.13424  0.01404  0.15488  Biso   1.000  La
  Hf1      1.0000 0.13667  0.04777  0.67085  Biso   1.000  Hf
  Hf2      1.0000 0.13601  0.45844  0.42040  Biso   1.000  Hf
  Hf3      1.0000 0.12751  0.47991  0.90985  Biso   1.000  Hf
  Hf4      1.0000 0.37233  0.54904  0.18244  Biso   1.000  Hf
  Hf5      1.0000 0.35870  0.54620  0.66910  Biso   1.000  Hf
  Hf6      1.0000 0.35837  0.96666  0.42230  Biso   1.000  Hf
  Hf7      1.0000 0.36803  0.95508  0.91304  Biso   1.000  Hf
  Hf8      1.0000 0.63998  0.04229  0.08249  Biso   1.000  Hf
  Hf9      1.0000 0.63590  0.05083  0.57930  Biso   1.000  Hf
  Hf10     1.0000 0.64081  0.46712  0.33315  Biso   1.000  Hf
  Hf11     1.0000 0.63883  0.46825  0.82772  Biso   1.000  Hf
  Hf12     1.0000 0.85591  0.54240  0.07826  Biso   1.000  Hf
  Hf13     1.0000 0.86232  0.55354  0.57929  Biso   1.000  Hf
  Hf14     1.0000 0.85609  0.96901  0.33229  Biso   1.000  Hf
  Hf15     1.0000 0.85476  0.97416  0.82784  Biso   1.000  Hf
  Hf16     1.0000 0.03971  0.39612  0.08543  Biso   1.000  Hf
  Hf17     1.0000 0.03669  0.36097  0.59506  Biso   1.000  Hf
  Hf18     1.0000 0.02812  0.16592  0.34782  Biso   1.000  Hf
  Hf19     1.0000 0.03448  0.15624  0.84227  Biso   1.000  Hf
  Hf20     1.0000 0.45931  0.86645  0.09184  Biso   1.000  Hf
  Hf21     1.0000 0.46285  0.84352  0.58828  Biso   1.000  Hf
  Hf22     1.0000 0.47128  0.67875  0.34028  Biso   1.000  Hf
  Hf23     1.0000 0.46562  0.66702  0.83383  Biso   1.000  Hf
  Hf24     1.0000 0.28309  0.25324  0.29431  Biso   1.000  Hf
  Hf25     1.0000 0.27556  0.25793  0.80058  Biso   1.000  Hf
  Hf26     1.0000 0.27383  0.25712  0.54599  Biso   1.000  Hf
  Hf27     1.0000 0.23103  0.73550  0.30200  Biso   1.000  Hf
  Hf28     1.0000 0.22234  0.75991  0.78877  Biso   1.000  Hf
  Hf29     1.0000 0.25258  0.67827  0.02872  Biso   1.000  Hf
  Hf30     1.0000 0.22147  0.76013  0.54500  Biso   1.000  Hf
  Hf31     1.0000 0.53709  0.34357  0.16487  Biso   1.000  Hf
  Hf32     1.0000 0.53229  0.34401  0.66436  Biso   1.000  Hf
  Hf33     1.0000 0.53323  0.17278  0.41617  Biso   1.000  Hf
  Hf34     1.0000 0.53391  0.17553  0.91343  Biso   1.000  Hf
  Hf35     1.0000 0.92986  0.86675  0.15464  Biso   1.000  Hf
  Hf36     1.0000 0.95992  0.86125  0.65867  Biso   1.000  Hf
  Hf37     1.0000 0.96289  0.66531  0.40982  Biso   1.000  Hf
  Hf38     1.0000 0.95402  0.66822  0.90209  Biso   1.000  Hf
  Hf39     1.0000 0.77335  0.26115  0.95542  Biso   1.000  Hf
  Hf40     1.0000 0.77379  0.25904  0.45857  Biso   1.000  Hf
  Hf41     1.0000 0.77435  0.26478  0.20837  Biso   1.000  Hf
  Hf42     1.0000 0.77383  0.26417  0.70543  Biso   1.000  Hf
  Hf43     1.0000 0.71699  0.76270  0.95583  Biso   1.000  Hf
  Hf44     1.0000 0.72359  0.75841  0.45845  Biso   1.000  Hf
  Hf45     1.0000 0.70902  0.75837  0.20960  Biso   1.000  Hf
  Hf46     1.0000 0.72203  0.76164  0.70559  Biso   1.000  Hf
