data_image0
_cell_length_a       10.1666
_cell_length_b       10.3493
_cell_length_c       5.20979
_cell_angle_alpha    90
_cell_angle_beta     80
_cell_angle_gamma    90

_symmetry_space_group_name_H-M    "P 1"
_symmetry_int_tables_number       1

loop_
  _symmetry_equiv_pos_as_xyz
  'x, y, z'

loop_
  _atom_site_label
  _atom_site_occupancy
  _atom_site_fract_x
  _atom_site_fract_y
  _atom_site_fract_z
  _atom_site_thermal_displace_type
  _atom_site_B_iso_or_equiv
  _atom_site_type_symbol
  La1      1.0000 0.13167  0.00458  0.27367  Biso   1.000  La
  Hf1      1.0000 0.13681  0.51828  0.28758  Biso   1.000  Hf
  Hf2      1.0000 0.64164  0.02193  0.29070  Biso   1.000  Hf
  Hf3      1.0000 0.63694  0.51574  0.29403  Biso   1.000  Hf
  Hf4      1.0000 0.13046  0.22745  0.78655  Biso   1.000  Hf
  Hf5      1.0000 0.12993  0.71892  0.79182  Biso   1.000  Hf
  Hf6      1.0000 0.63356  0.22965  0.79638  Biso   1.000  Hf
  Hf7      1.0000 0.62736  0.72711  0.79206  Biso   1.000  Hf
  Hf8      1.0000 0.35930  0.26746  0.20415  Biso   1.000  Hf
  Hf9      1.0000 0.36919  0.76309  0.22260  Biso   1.000  Hf
  Hf10     1.0000 0.86318  0.27223  0.20673  Biso   1.000  Hf
  Hf11     1.0000 0.85436  0.76685  0.20986  Biso   1.000  Hf
  Hf12     1.0000 0.35526  0.47458  0.70725  Biso   1.000  Hf
  Hf13     1.0000 0.36691  0.98441  0.69563  Biso   1.000  Hf
  Hf14     1.0000 0.85351  0.47775  0.70902  Biso   1.000  Hf
  Hf15     1.0000 0.85129  0.97707  0.71989  Biso   1.000  Hf
  Hf16     1.0000 0.04165  0.19352  0.16655  Biso   1.000  Hf
  Hf17     1.0000 0.04136  0.68289  0.17678  Biso   1.000  Hf
  Hf18     1.0000 0.53673  0.16993  0.16187  Biso   1.000  Hf
  Hf19     1.0000 0.53911  0.66811  0.16597  Biso   1.000  Hf
  Hf20     1.0000 0.02578  0.07242  0.69987  Biso   1.000  Hf
  Hf21     1.0000 0.03183  0.57285  0.66936  Biso   1.000  Hf
  Hf22     1.0000 0.53887  0.07749  0.66184  Biso   1.000  Hf
  Hf23     1.0000 0.52827  0.57822  0.66309  Biso   1.000  Hf
  Hf24     1.0000 0.46110  0.41775  0.33759  Biso   1.000  Hf
  Hf25     1.0000 0.46381  0.92240  0.32931  Biso   1.000  Hf
  Hf26     1.0000 0.95496  0.43259  0.32548  Biso   1.000  Hf
  Hf27     1.0000 0.92713  0.92662  0.34235  Biso   1.000  Hf
  Hf28     1.0000 0.45838  0.32776  0.83726  Biso   1.000  Hf
  Hf29     1.0000 0.44655  0.82639  0.85226  Biso   1.000  Hf
  Hf30     1.0000 0.95241  0.32569  0.82387  Biso   1.000  Hf
  Hf31     1.0000 0.95847  0.82628  0.84132  Biso   1.000  Hf
  Hf32     1.0000 0.27825  0.13275  0.48439  Biso   1.000  Hf
  Hf33     1.0000 0.27205  0.62122  0.48106  Biso   1.000  Hf
  Hf34     1.0000 0.77371  0.13249  0.48770  Biso   1.000  Hf
  Hf35     1.0000 0.76950  0.62839  0.48405  Biso   1.000  Hf
  Hf36     1.0000 0.27600  0.11977  0.96405  Biso   1.000  Hf
  Hf37     1.0000 0.26719  0.62055  0.98597  Biso   1.000  Hf
  Hf38     1.0000 0.76701  0.11956  0.99035  Biso   1.000  Hf
  Hf39     1.0000 0.76538  0.61794  0.98159  Biso   1.000  Hf
  Hf40     1.0000 0.22617  0.38164  0.00979  Biso   1.000  Hf
  Hf41     1.0000 0.72467  0.38002  0.01704  Biso   1.000  Hf
  Hf42     1.0000 0.72330  0.87790  0.01687  Biso   1.000  Hf
  Hf43     1.0000 0.21731  0.37027  0.51172  Biso   1.000  Hf
  Hf44     1.0000 0.23160  0.85797  0.54897  Biso   1.000  Hf
  Hf45     1.0000 0.71917  0.37117  0.52001  Biso   1.000  Hf
  Hf46     1.0000 0.70446  0.86635  0.52711  Biso   1.000  Hf
