data_image0
_cell_length_a       10.072
_cell_length_b       5.20708
_cell_length_c       10.0456
_cell_angle_alpha    90
_cell_angle_beta     90
_cell_angle_gamma    90

_symmetry_space_group_name_H-M    "P 1"
_symmetry_int_tables_number       1

loop_
  _symmetry_equiv_pos_as_xyz
  'x, y, z'

loop_
  _atom_site_label
  _atom_site_occupancy
  _atom_site_fract_x
  _atom_site_fract_y
  _atom_site_fract_z
  _atom_site_thermal_displace_type
  _atom_site_B_iso_or_equiv
  _atom_site_type_symbol
  La1      1.0000 0.12206  0.99714  0.12416  Biso   1.000  La
  Hf1      1.0000 0.12242  0.01412  0.62325  Biso   1.000  Hf
  Hf2      1.0000 0.63173  0.02887  0.12566  Biso   1.000  Hf
  Hf3      1.0000 0.62392  0.01644  0.62748  Biso   1.000  Hf
  Hf4      1.0000 0.12094  0.45759  0.38111  Biso   1.000  Hf
  Hf5      1.0000 0.12473  0.45039  0.87132  Biso   1.000  Hf
  Hf6      1.0000 0.62734  0.45251  0.37979  Biso   1.000  Hf
  Hf7      1.0000 0.62818  0.44401  0.87470  Biso   1.000  Hf
  Hf8      1.0000 0.37888  0.53638  0.11075  Biso   1.000  Hf
  Hf9      1.0000 0.35647  0.51241  0.62342  Biso   1.000  Hf
  Hf10     1.0000 0.85771  0.53195  0.13289  Biso   1.000  Hf
  Hf11     1.0000 0.85776  0.51778  0.62655  Biso   1.000  Hf
  Hf12     1.0000 0.36552  0.93556  0.37907  Biso   1.000  Hf
  Hf13     1.0000 0.35794  0.95109  0.87037  Biso   1.000  Hf
  Hf14     1.0000 0.85231  0.95650  0.38153  Biso   1.000  Hf
  Hf15     1.0000 0.85453  0.94414  0.87633  Biso   1.000  Hf
  Hf16     1.0000 0.02979  0.39351  0.20279  Biso   1.000  Hf
  Hf17     1.0000 0.03144  0.35982  0.68277  Biso   1.000  Hf
  Hf18     1.0000 0.52865  0.35859  0.19985  Biso   1.000  Hf
  Hf19     1.0000 0.52542  0.34831  0.69580  Biso   1.000  Hf
  Hf20     1.0000 0.02660  0.11501  0.44216  Biso   1.000  Hf
  Hf21     1.0000 0.01875  0.13429  0.92146  Biso   1.000  Hf
  Hf22     1.0000 0.53001  0.11469  0.44628  Biso   1.000  Hf
  Hf23     1.0000 0.52442  0.11905  0.94508  Biso   1.000  Hf
  Hf24     1.0000 0.45525  0.88366  0.18978  Biso   1.000  Hf
  Hf25     1.0000 0.45550  0.84737  0.69142  Biso   1.000  Hf
  Hf26     1.0000 0.92943  0.87081  0.20285  Biso   1.000  Hf
  Hf27     1.0000 0.95517  0.85095  0.69548  Biso   1.000  Hf
  Hf28     1.0000 0.45870  0.61577  0.44846  Biso   1.000  Hf
  Hf29     1.0000 0.46564  0.62635  0.94110  Biso   1.000  Hf
  Hf30     1.0000 0.95245  0.62290  0.44760  Biso   1.000  Hf
  Hf31     1.0000 0.96310  0.63210  0.95819  Biso   1.000  Hf
  Hf32     1.0000 0.26099  0.21736  0.74326  Biso   1.000  Hf
  Hf33     1.0000 0.76071  0.23457  0.25381  Biso   1.000  Hf
  Hf34     1.0000 0.76188  0.21745  0.75018  Biso   1.000  Hf
  Hf35     1.0000 0.26653  0.24413  0.48624  Biso   1.000  Hf
  Hf36     1.0000 0.26294  0.24306  0.99636  Biso   1.000  Hf
  Hf37     1.0000 0.76065  0.25057  0.50349  Biso   1.000  Hf
  Hf38     1.0000 0.77251  0.26312  0.00165  Biso   1.000  Hf
  Hf39     1.0000 0.22096  0.74953  0.49827  Biso   1.000  Hf
  Hf40     1.0000 0.23268  0.72692  0.98443  Biso   1.000  Hf
  Hf41     1.0000 0.72011  0.74753  0.50412  Biso   1.000  Hf
  Hf42     1.0000 0.73368  0.76363  0.00161  Biso   1.000  Hf
  Hf43     1.0000 0.24837  0.66349  0.25563  Biso   1.000  Hf
  Hf44     1.0000 0.22126  0.71877  0.74288  Biso   1.000  Hf
  Hf45     1.0000 0.70872  0.72848  0.25404  Biso   1.000  Hf
  Hf46     1.0000 0.72187  0.71701  0.75142  Biso   1.000  Hf
