data_image0
_cell_length_a       10.0537
_cell_length_b       10.4015
_cell_length_c       5.04507
_cell_angle_alpha    90
_cell_angle_beta     90
_cell_angle_gamma    90

_symmetry_space_group_name_H-M    "P 1"
_symmetry_int_tables_number       1

loop_
  _symmetry_equiv_pos_as_xyz
  'x, y, z'

loop_
  _atom_site_label
  _atom_site_occupancy
  _atom_site_fract_x
  _atom_site_fract_y
  _atom_site_fract_z
  _atom_site_thermal_displace_type
  _atom_site_B_iso_or_equiv
  _atom_site_type_symbol
  La1      1.0000 0.11756  0.00655  0.24155  Biso   1.000  La
  Hf1      1.0000 0.13398  0.51847  0.24662  Biso   1.000  Hf
  Hf2      1.0000 0.62671  0.01614  0.24805  Biso   1.000  Hf
  Hf3      1.0000 0.63619  0.51317  0.25274  Biso   1.000  Hf
  Hf4      1.0000 0.13888  0.24494  0.73357  Biso   1.000  Hf
  Hf5      1.0000 0.13591  0.73418  0.75054  Biso   1.000  Hf
  Hf6      1.0000 0.62950  0.23217  0.74630  Biso   1.000  Hf
  Hf7      1.0000 0.63156  0.72670  0.75628  Biso   1.000  Hf
  Hf8      1.0000 0.36649  0.26542  0.24078  Biso   1.000  Hf
  Hf9      1.0000 0.37406  0.76376  0.24164  Biso   1.000  Hf
  Hf10     1.0000 0.86448  0.26687  0.25353  Biso   1.000  Hf
  Hf11     1.0000 0.86592  0.76231  0.26189  Biso   1.000  Hf
  Hf12     1.0000 0.36641  0.48348  0.74468  Biso   1.000  Hf
  Hf13     1.0000 0.36865  0.98313  0.73889  Biso   1.000  Hf
  Hf14     1.0000 0.86626  0.47932  0.75544  Biso   1.000  Hf
  Hf15     1.0000 0.84814  0.97434  0.75405  Biso   1.000  Hf
  Hf16     1.0000 0.01890  0.18656  0.42999  Biso   1.000  Hf
  Hf17     1.0000 0.03736  0.68273  0.39494  Biso   1.000  Hf
  Hf18     1.0000 0.53695  0.18560  0.37854  Biso   1.000  Hf
  Hf19     1.0000 0.53823  0.67886  0.39454  Biso   1.000  Hf
  Hf20     1.0000 0.02978  0.57107  0.89269  Biso   1.000  Hf
  Hf21     1.0000 0.53188  0.06495  0.88249  Biso   1.000  Hf
  Hf22     1.0000 0.53177  0.56343  0.89698  Biso   1.000  Hf
  Hf23     1.0000 0.46766  0.43151  0.38933  Biso   1.000  Hf
  Hf24     1.0000 0.46723  0.93505  0.38167  Biso   1.000  Hf
  Hf25     1.0000 0.96680  0.43447  0.39966  Biso   1.000  Hf
  Hf26     1.0000 0.95062  0.91694  0.44038  Biso   1.000  Hf
  Hf27     1.0000 0.46162  0.31428  0.88168  Biso   1.000  Hf
  Hf28     1.0000 0.47230  0.81682  0.89298  Biso   1.000  Hf
  Hf29     1.0000 0.96801  0.31325  0.91002  Biso   1.000  Hf
  Hf30     1.0000 0.97594  0.83312  0.93414  Biso   1.000  Hf
  Hf31     1.0000 0.27895  0.12795  0.49688  Biso   1.000  Hf
  Hf32     1.0000 0.27009  0.61323  0.49371  Biso   1.000  Hf
  Hf33     1.0000 0.76100  0.11289  0.49861  Biso   1.000  Hf
  Hf34     1.0000 0.77204  0.61368  0.50273  Biso   1.000  Hf
  Hf35     1.0000 0.25957  0.13660  0.97967  Biso   1.000  Hf
  Hf36     1.0000 0.26709  0.63039  0.99390  Biso   1.000  Hf
  Hf37     1.0000 0.76829  0.12819  0.99911  Biso   1.000  Hf
  Hf38     1.0000 0.77559  0.62955  0.00044  Biso   1.000  Hf
  Hf39     1.0000 0.22938  0.38718  0.98938  Biso   1.000  Hf
  Hf40     1.0000 0.24245  0.87366  0.97514  Biso   1.000  Hf
  Hf41     1.0000 0.72619  0.37930  0.99683  Biso   1.000  Hf
  Hf42     1.0000 0.73501  0.87681  0.01103  Biso   1.000  Hf
  Hf43     1.0000 0.23065  0.36980  0.48355  Biso   1.000  Hf
  Hf44     1.0000 0.24516  0.85487  0.49876  Biso   1.000  Hf
  Hf45     1.0000 0.73106  0.36548  0.50095  Biso   1.000  Hf
  Hf46     1.0000 0.72032  0.86395  0.50922  Biso   1.000  Hf
