data_image0
_cell_length_a       5.07962
_cell_length_b       10.3318
_cell_length_c       10.4751
_cell_angle_alpha    90
_cell_angle_beta     80
_cell_angle_gamma    90

_symmetry_space_group_name_H-M    "P 1"
_symmetry_int_tables_number       1

loop_
  _symmetry_equiv_pos_as_xyz
  'x, y, z'

loop_
  _atom_site_label
  _atom_site_occupancy
  _atom_site_fract_x
  _atom_site_fract_y
  _atom_site_fract_z
  _atom_site_thermal_displace_type
  _atom_site_B_iso_or_equiv
  _atom_site_type_symbol
  La1      1.0000 0.25600  0.01281  0.13857  Biso   1.000  La
  Hf1      1.0000 0.25187  0.01992  0.64849  Biso   1.000  Hf
  Hf2      1.0000 0.26497  0.52095  0.14596  Biso   1.000  Hf
  Hf3      1.0000 0.25011  0.52097  0.64718  Biso   1.000  Hf
  Hf4      1.0000 0.25471  0.22807  0.39945  Biso   1.000  Hf
  Hf5      1.0000 0.24714  0.23381  0.88754  Biso   1.000  Hf
  Hf6      1.0000 0.25236  0.72472  0.39855  Biso   1.000  Hf
  Hf7      1.0000 0.24679  0.72715  0.89532  Biso   1.000  Hf
  Hf8      1.0000 0.69075  0.27454  0.10687  Biso   1.000  Hf
  Hf9      1.0000 0.69955  0.27033  0.60485  Biso   1.000  Hf
  Hf10     1.0000 0.71804  0.76469  0.10428  Biso   1.000  Hf
  Hf11     1.0000 0.69546  0.77131  0.60557  Biso   1.000  Hf
  Hf12     1.0000 0.70207  0.47712  0.35543  Biso   1.000  Hf
  Hf13     1.0000 0.69422  0.47673  0.85738  Biso   1.000  Hf
  Hf14     1.0000 0.69217  0.97853  0.35911  Biso   1.000  Hf
  Hf15     1.0000 0.69413  0.97664  0.85654  Biso   1.000  Hf
  Hf16     1.0000 0.04778  0.17111  0.58813  Biso   1.000  Hf
  Hf17     1.0000 0.07781  0.67421  0.08172  Biso   1.000  Hf
  Hf18     1.0000 0.04277  0.66773  0.58431  Biso   1.000  Hf
  Hf19     1.0000 0.03658  0.08364  0.34375  Biso   1.000  Hf
  Hf20     1.0000 0.04482  0.07844  0.84087  Biso   1.000  Hf
  Hf21     1.0000 0.04970  0.58050  0.32870  Biso   1.000  Hf
  Hf22     1.0000 0.04111  0.57634  0.83410  Biso   1.000  Hf
  Hf23     1.0000 0.92018  0.41135  0.17212  Biso   1.000  Hf
  Hf24     1.0000 0.90317  0.41664  0.67531  Biso   1.000  Hf
  Hf25     1.0000 0.84917  0.93103  0.16787  Biso   1.000  Hf
  Hf26     1.0000 0.90024  0.91914  0.67404  Biso   1.000  Hf
  Hf27     1.0000 0.90822  0.33326  0.42498  Biso   1.000  Hf
  Hf28     1.0000 0.88968  0.32698  0.92982  Biso   1.000  Hf
  Hf29     1.0000 0.90390  0.83009  0.42174  Biso   1.000  Hf
  Hf30     1.0000 0.90851  0.83221  0.92396  Biso   1.000  Hf
  Hf31     1.0000 0.54852  0.14038  0.24895  Biso   1.000  Hf
  Hf32     1.0000 0.52448  0.12840  0.73993  Biso   1.000  Hf
  Hf33     1.0000 0.53988  0.62296  0.23968  Biso   1.000  Hf
  Hf34     1.0000 0.52376  0.62769  0.74158  Biso   1.000  Hf
  Hf35     1.0000 0.52249  0.12011  0.49526  Biso   1.000  Hf
  Hf36     1.0000 0.51184  0.13003  0.98487  Biso   1.000  Hf
  Hf37     1.0000 0.52814  0.61996  0.49197  Biso   1.000  Hf
  Hf38     1.0000 0.51078  0.61477  0.99299  Biso   1.000  Hf
  Hf39     1.0000 0.44285  0.38124  0.00726  Biso   1.000  Hf
  Hf40     1.0000 0.42402  0.37954  0.51100  Biso   1.000  Hf
  Hf41     1.0000 0.43448  0.86483  0.99848  Biso   1.000  Hf
  Hf42     1.0000 0.41977  0.87875  0.51355  Biso   1.000  Hf
  Hf43     1.0000 0.42479  0.37423  0.26018  Biso   1.000  Hf
  Hf44     1.0000 0.42185  0.37163  0.75923  Biso   1.000  Hf
  Hf45     1.0000 0.42500  0.85737  0.26791  Biso   1.000  Hf
  Hf46     1.0000 0.41936  0.86994  0.75906  Biso   1.000  Hf
