data_image0
_cell_length_a       5.09178
_cell_length_b       10.1485
_cell_length_c       10.1014
_cell_angle_alpha    90
_cell_angle_beta     90
_cell_angle_gamma    90

_symmetry_space_group_name_H-M    "P 1"
_symmetry_int_tables_number       1

loop_
  _symmetry_equiv_pos_as_xyz
  'x, y, z'

loop_
  _atom_site_label
  _atom_site_occupancy
  _atom_site_fract_x
  _atom_site_fract_y
  _atom_site_fract_z
  _atom_site_thermal_displace_type
  _atom_site_B_iso_or_equiv
  _atom_site_type_symbol
  La1      1.0000 0.23894  0.99015  0.12906  Biso   1.000  La
  Hf1      1.0000 0.16016  0.01537  0.62616  Biso   1.000  Hf
  Hf2      1.0000 0.23178  0.50160  0.13407  Biso   1.000  Hf
  Hf3      1.0000 0.15067  0.51148  0.62278  Biso   1.000  Hf
  Hf4      1.0000 0.21199  0.25454  0.37559  Biso   1.000  Hf
  Hf5      1.0000 0.10760  0.26358  0.88332  Biso   1.000  Hf
  Hf6      1.0000 0.22265  0.74383  0.38358  Biso   1.000  Hf
  Hf7      1.0000 0.09341  0.74365  0.87249  Biso   1.000  Hf
  Hf8      1.0000 0.75412  0.24420  0.12560  Biso   1.000  Hf
  Hf9      1.0000 0.65570  0.24804  0.62171  Biso   1.000  Hf
  Hf10     1.0000 0.72624  0.74711  0.10145  Biso   1.000  Hf
  Hf11     1.0000 0.65491  0.75092  0.62839  Biso   1.000  Hf
  Hf12     1.0000 0.71949  0.01781  0.37990  Biso   1.000  Hf
  Hf13     1.0000 0.59918  0.02174  0.87350  Biso   1.000  Hf
  Hf14     1.0000 0.72028  0.52384  0.36872  Biso   1.000  Hf
  Hf15     1.0000 0.60542  0.50337  0.87853  Biso   1.000  Hf
  Hf16     1.0000 0.84014  0.15016  0.99631  Biso   1.000  Hf
  Hf17     1.0000 0.93213  0.15484  0.50555  Biso   1.000  Hf
  Hf18     1.0000 0.84149  0.63910  0.99610  Biso   1.000  Hf
  Hf19     1.0000 0.93984  0.65634  0.50038  Biso   1.000  Hf
  Hf20     1.0000 0.98276  0.12916  0.25943  Biso   1.000  Hf
  Hf21     1.0000 0.88419  0.10408  0.74873  Biso   1.000  Hf
  Hf22     1.0000 0.98145  0.63159  0.25028  Biso   1.000  Hf
  Hf23     1.0000 0.86292  0.60336  0.75019  Biso   1.000  Hf
  Hf24     1.0000 0.93392  0.37682  0.26429  Biso   1.000  Hf
  Hf25     1.0000 0.78227  0.34680  0.78092  Biso   1.000  Hf
  Hf26     1.0000 0.98046  0.84643  0.70289  Biso   1.000  Hf
  Hf27     1.0000 0.98975  0.38514  0.01694  Biso   1.000  Hf
  Hf28     1.0000 0.84804  0.41049  0.52608  Biso   1.000  Hf
  Hf29     1.0000 0.84074  0.88321  0.96354  Biso   1.000  Hf
  Hf30     1.0000 0.05443  0.91843  0.44126  Biso   1.000  Hf
  Hf31     1.0000 0.48932  0.15835  0.26148  Biso   1.000  Hf
  Hf32     1.0000 0.36433  0.16030  0.74915  Biso   1.000  Hf
  Hf33     1.0000 0.48660  0.65473  0.24626  Biso   1.000  Hf
  Hf34     1.0000 0.38011  0.65862  0.74620  Biso   1.000  Hf
  Hf35     1.0000 0.35973  0.13152  0.99356  Biso   1.000  Hf
  Hf36     1.0000 0.43717  0.10749  0.49924  Biso   1.000  Hf
  Hf37     1.0000 0.47949  0.60519  0.00162  Biso   1.000  Hf
  Hf38     1.0000 0.43028  0.60538  0.50205  Biso   1.000  Hf
  Hf39     1.0000 0.47720  0.35940  0.03538  Biso   1.000  Hf
  Hf40     1.0000 0.34049  0.34891  0.54547  Biso   1.000  Hf
  Hf41     1.0000 0.35255  0.86916  0.96377  Biso   1.000  Hf
  Hf42     1.0000 0.54311  0.84694  0.45754  Biso   1.000  Hf
  Hf43     1.0000 0.41617  0.41332  0.29327  Biso   1.000  Hf
  Hf44     1.0000 0.27716  0.42213  0.79128  Biso   1.000  Hf
  Hf45     1.0000 0.70622  0.91142  0.20899  Biso   1.000  Hf
  Hf46     1.0000 0.47842  0.91766  0.70869  Biso   1.000  Hf
