data_image0
_cell_length_a       10.0316
_cell_length_b       10.4172
_cell_length_c       5.0303
_cell_angle_alpha    90
_cell_angle_beta     90
_cell_angle_gamma    90

_symmetry_space_group_name_H-M    "P 1"
_symmetry_int_tables_number       1

loop_
  _symmetry_equiv_pos_as_xyz
  'x, y, z'

loop_
  _atom_site_label
  _atom_site_occupancy
  _atom_site_fract_x
  _atom_site_fract_y
  _atom_site_fract_z
  _atom_site_thermal_displace_type
  _atom_site_B_iso_or_equiv
  _atom_site_type_symbol
  La1      1.0000 0.12730  0.00125  0.23886  Biso   1.000  La
  Hf1      1.0000 0.13650  0.51356  0.24795  Biso   1.000  Hf
  Hf2      1.0000 0.63663  0.01783  0.25701  Biso   1.000  Hf
  Hf3      1.0000 0.63854  0.51210  0.25750  Biso   1.000  Hf
  Hf4      1.0000 0.13924  0.23127  0.73945  Biso   1.000  Hf
  Hf5      1.0000 0.13416  0.72328  0.74125  Biso   1.000  Hf
  Hf6      1.0000 0.63990  0.23174  0.75205  Biso   1.000  Hf
  Hf7      1.0000 0.63710  0.73040  0.76766  Biso   1.000  Hf
  Hf8      1.0000 0.36798  0.26395  0.24702  Biso   1.000  Hf
  Hf9      1.0000 0.38050  0.75747  0.25997  Biso   1.000  Hf
  Hf10     1.0000 0.87045  0.26800  0.25003  Biso   1.000  Hf
  Hf11     1.0000 0.86375  0.76259  0.26415  Biso   1.000  Hf
  Hf12     1.0000 0.37203  0.47962  0.74900  Biso   1.000  Hf
  Hf13     1.0000 0.38631  0.98913  0.73472  Biso   1.000  Hf
  Hf14     1.0000 0.87037  0.47923  0.75352  Biso   1.000  Hf
  Hf15     1.0000 0.86923  0.97941  0.75795  Biso   1.000  Hf
  Hf16     1.0000 0.03894  0.19656  0.37789  Biso   1.000  Hf
  Hf17     1.0000 0.03919  0.68232  0.39083  Biso   1.000  Hf
  Hf18     1.0000 0.54036  0.18322  0.38741  Biso   1.000  Hf
  Hf19     1.0000 0.54075  0.67826  0.41060  Biso   1.000  Hf
  Hf20     1.0000 0.03632  0.06660  0.82811  Biso   1.000  Hf
  Hf21     1.0000 0.03873  0.56182  0.88929  Biso   1.000  Hf
  Hf22     1.0000 0.54773  0.06157  0.88327  Biso   1.000  Hf
  Hf23     1.0000 0.53393  0.56677  0.91194  Biso   1.000  Hf
  Hf24     1.0000 0.47055  0.43016  0.39588  Biso   1.000  Hf
  Hf25     1.0000 0.47074  0.93421  0.37244  Biso   1.000  Hf
  Hf26     1.0000 0.96463  0.43906  0.38801  Biso   1.000  Hf
  Hf27     1.0000 0.94888  0.92220  0.41321  Biso   1.000  Hf
  Hf28     1.0000 0.47151  0.31421  0.88777  Biso   1.000  Hf
  Hf29     1.0000 0.46623  0.81596  0.89845  Biso   1.000  Hf
  Hf30     1.0000 0.96905  0.31546  0.88900  Biso   1.000  Hf
  Hf31     1.0000 0.98578  0.82160  0.92633  Biso   1.000  Hf
  Hf32     1.0000 0.28323  0.12425  0.49694  Biso   1.000  Hf
  Hf33     1.0000 0.27414  0.60839  0.49509  Biso   1.000  Hf
  Hf34     1.0000 0.77310  0.11666  0.50454  Biso   1.000  Hf
  Hf35     1.0000 0.77200  0.61619  0.50845  Biso   1.000  Hf
  Hf36     1.0000 0.28033  0.13040  0.98137  Biso   1.000  Hf
  Hf37     1.0000 0.26826  0.64307  0.00070  Biso   1.000  Hf
  Hf38     1.0000 0.77343  0.13302  0.00634  Biso   1.000  Hf
  Hf39     1.0000 0.77213  0.63046  0.00414  Biso   1.000  Hf
  Hf40     1.0000 0.23736  0.38219  0.99423  Biso   1.000  Hf
  Hf41     1.0000 0.73322  0.37951  0.99905  Biso   1.000  Hf
  Hf42     1.0000 0.73666  0.87768  0.01200  Biso   1.000  Hf
  Hf43     1.0000 0.23294  0.36729  0.49213  Biso   1.000  Hf
  Hf44     1.0000 0.25210  0.85352  0.53170  Biso   1.000  Hf
  Hf45     1.0000 0.73409  0.36625  0.50105  Biso   1.000  Hf
  Hf46     1.0000 0.72254  0.86486  0.51392  Biso   1.000  Hf
