data_image0
_cell_length_a       10.0488
_cell_length_b       10.3425
_cell_length_c       5.20342
_cell_angle_alpha    90
_cell_angle_beta     90
_cell_angle_gamma    90

_symmetry_space_group_name_H-M    "P 1"
_symmetry_int_tables_number       1

loop_
  _symmetry_equiv_pos_as_xyz
  'x, y, z'

loop_
  _atom_site_label
  _atom_site_occupancy
  _atom_site_fract_x
  _atom_site_fract_y
  _atom_site_fract_z
  _atom_site_thermal_displace_type
  _atom_site_B_iso_or_equiv
  _atom_site_type_symbol
  La1      1.0000 0.11706  0.00440  0.31009  Biso   1.000  La
  Hf1      1.0000 0.13402  0.52142  0.33890  Biso   1.000  Hf
  Hf2      1.0000 0.13147  0.22962  0.83257  Biso   1.000  Hf
  Hf3      1.0000 0.13371  0.72750  0.83719  Biso   1.000  Hf
  Hf4      1.0000 0.35229  0.26583  0.33657  Biso   1.000  Hf
  Hf5      1.0000 0.35931  0.76833  0.33649  Biso   1.000  Hf
  Hf6      1.0000 0.35211  0.47610  0.83812  Biso   1.000  Hf
  Hf7      1.0000 0.35468  0.98021  0.83019  Biso   1.000  Hf
  Hf8      1.0000 0.63686  0.02184  0.16816  Biso   1.000  Hf
  Hf9      1.0000 0.63152  0.51661  0.15745  Biso   1.000  Hf
  Hf10     1.0000 0.63108  0.23146  0.65884  Biso   1.000  Hf
  Hf11     1.0000 0.63058  0.72720  0.65755  Biso   1.000  Hf
  Hf12     1.0000 0.85889  0.27601  0.15812  Biso   1.000  Hf
  Hf13     1.0000 0.84995  0.76125  0.15797  Biso   1.000  Hf
  Hf14     1.0000 0.85531  0.47893  0.65610  Biso   1.000  Hf
  Hf15     1.0000 0.84358  0.98483  0.69368  Biso   1.000  Hf
  Hf16     1.0000 0.03455  0.19428  0.18180  Biso   1.000  Hf
  Hf17     1.0000 0.03579  0.68840  0.19921  Biso   1.000  Hf
  Hf18     1.0000 0.02294  0.07480  0.71149  Biso   1.000  Hf
  Hf19     1.0000 0.02890  0.57807  0.68357  Biso   1.000  Hf
  Hf20     1.0000 0.46102  0.41597  0.17067  Biso   1.000  Hf
  Hf21     1.0000 0.46431  0.91905  0.17286  Biso   1.000  Hf
  Hf22     1.0000 0.45814  0.33077  0.66955  Biso   1.000  Hf
  Hf23     1.0000 0.46521  0.83481  0.66133  Biso   1.000  Hf
  Hf24     1.0000 0.27151  0.12476  0.58463  Biso   1.000  Hf
  Hf25     1.0000 0.27222  0.62049  0.58477  Biso   1.000  Hf
  Hf26     1.0000 0.28050  0.12970  0.06716  Biso   1.000  Hf
  Hf27     1.0000 0.26923  0.62038  0.08570  Biso   1.000  Hf
  Hf28     1.0000 0.21520  0.37395  0.58003  Biso   1.000  Hf
  Hf29     1.0000 0.22250  0.86230  0.58531  Biso   1.000  Hf
  Hf30     1.0000 0.21897  0.37716  0.08211  Biso   1.000  Hf
  Hf31     1.0000 0.23909  0.86309  0.06290  Biso   1.000  Hf
  Hf32     1.0000 0.53117  0.16891  0.32745  Biso   1.000  Hf
  Hf33     1.0000 0.53149  0.66703  0.32481  Biso   1.000  Hf
  Hf34     1.0000 0.53461  0.07925  0.82638  Biso   1.000  Hf
  Hf35     1.0000 0.52558  0.58152  0.82786  Biso   1.000  Hf
  Hf36     1.0000 0.95444  0.43462  0.30959  Biso   1.000  Hf
  Hf37     1.0000 0.95333  0.32779  0.80874  Biso   1.000  Hf
  Hf38     1.0000 0.95867  0.83675  0.84269  Biso   1.000  Hf
  Hf39     1.0000 0.76690  0.12814  0.92604  Biso   1.000  Hf
  Hf40     1.0000 0.76901  0.62338  0.91256  Biso   1.000  Hf
  Hf41     1.0000 0.77482  0.12553  0.42372  Biso   1.000  Hf
  Hf42     1.0000 0.76850  0.62379  0.41284  Biso   1.000  Hf
  Hf43     1.0000 0.71481  0.37713  0.90808  Biso   1.000  Hf
  Hf44     1.0000 0.71017  0.87076  0.92255  Biso   1.000  Hf
  Hf45     1.0000 0.71837  0.37476  0.41039  Biso   1.000  Hf
  Hf46     1.0000 0.73261  0.87360  0.41892  Biso   1.000  Hf
