data_image0
_cell_length_a       10.1883
_cell_length_b       10.3485
_cell_length_c       5.2181
_cell_angle_alpha    90
_cell_angle_beta     80
_cell_angle_gamma    90

_symmetry_space_group_name_H-M    "P 1"
_symmetry_int_tables_number       1

loop_
  _symmetry_equiv_pos_as_xyz
  'x, y, z'

loop_
  _atom_site_label
  _atom_site_occupancy
  _atom_site_fract_x
  _atom_site_fract_y
  _atom_site_fract_z
  _atom_site_thermal_displace_type
  _atom_site_B_iso_or_equiv
  _atom_site_type_symbol
  La1      1.0000 0.13318  0.01104  0.28380  Biso   1.000  La
  Hf1      1.0000 0.13465  0.51953  0.29423  Biso   1.000  Hf
  Hf2      1.0000 0.63561  0.02064  0.29307  Biso   1.000  Hf
  Hf3      1.0000 0.63621  0.51744  0.29223  Biso   1.000  Hf
  Hf4      1.0000 0.12990  0.23186  0.79599  Biso   1.000  Hf
  Hf5      1.0000 0.12544  0.72212  0.80352  Biso   1.000  Hf
  Hf6      1.0000 0.63187  0.23169  0.79774  Biso   1.000  Hf
  Hf7      1.0000 0.63351  0.72713  0.78665  Biso   1.000  Hf
  Hf8      1.0000 0.35797  0.26969  0.21055  Biso   1.000  Hf
  Hf9      1.0000 0.36891  0.76339  0.18532  Biso   1.000  Hf
  Hf10     1.0000 0.86028  0.27199  0.20843  Biso   1.000  Hf
  Hf11     1.0000 0.85335  0.76879  0.20974  Biso   1.000  Hf
  Hf12     1.0000 0.35600  0.47739  0.70988  Biso   1.000  Hf
  Hf13     1.0000 0.36265  0.98584  0.71430  Biso   1.000  Hf
  Hf14     1.0000 0.85361  0.47847  0.70873  Biso   1.000  Hf
  Hf15     1.0000 0.84891  0.98009  0.72000  Biso   1.000  Hf
  Hf16     1.0000 0.03899  0.19395  0.17255  Biso   1.000  Hf
  Hf17     1.0000 0.03713  0.67767  0.17341  Biso   1.000  Hf
  Hf18     1.0000 0.53374  0.16940  0.16363  Biso   1.000  Hf
  Hf19     1.0000 0.53897  0.66822  0.15885  Biso   1.000  Hf
  Hf20     1.0000 0.02432  0.07520  0.71132  Biso   1.000  Hf
  Hf21     1.0000 0.03047  0.57252  0.66948  Biso   1.000  Hf
  Hf22     1.0000 0.53601  0.07963  0.66454  Biso   1.000  Hf
  Hf23     1.0000 0.52915  0.58047  0.66003  Biso   1.000  Hf
  Hf24     1.0000 0.45923  0.42151  0.33827  Biso   1.000  Hf
  Hf25     1.0000 0.44496  0.92273  0.34008  Biso   1.000  Hf
  Hf26     1.0000 0.95496  0.43070  0.32745  Biso   1.000  Hf
  Hf27     1.0000 0.93090  0.92369  0.34794  Biso   1.000  Hf
  Hf28     1.0000 0.45778  0.33267  0.84156  Biso   1.000  Hf
  Hf29     1.0000 0.46534  0.83290  0.83771  Biso   1.000  Hf
  Hf30     1.0000 0.95043  0.32681  0.82807  Biso   1.000  Hf
  Hf31     1.0000 0.95380  0.82663  0.83717  Biso   1.000  Hf
  Hf32     1.0000 0.27749  0.13650  0.49873  Biso   1.000  Hf
  Hf33     1.0000 0.26687  0.64194  0.48366  Biso   1.000  Hf
  Hf34     1.0000 0.77014  0.13067  0.48637  Biso   1.000  Hf
  Hf35     1.0000 0.77063  0.62850  0.48066  Biso   1.000  Hf
  Hf36     1.0000 0.27681  0.12824  0.97362  Biso   1.000  Hf
  Hf37     1.0000 0.26644  0.61555  0.98551  Biso   1.000  Hf
  Hf38     1.0000 0.76295  0.12173  0.99270  Biso   1.000  Hf
  Hf39     1.0000 0.76682  0.61890  0.98199  Biso   1.000  Hf
  Hf40     1.0000 0.22459  0.37990  0.01687  Biso   1.000  Hf
  Hf41     1.0000 0.22788  0.86619  0.97381  Biso   1.000  Hf
  Hf42     1.0000 0.72256  0.37896  0.01783  Biso   1.000  Hf
  Hf43     1.0000 0.72159  0.87843  0.01786  Biso   1.000  Hf
  Hf44     1.0000 0.21768  0.37573  0.51878  Biso   1.000  Hf
  Hf45     1.0000 0.71830  0.37116  0.51968  Biso   1.000  Hf
  Hf46     1.0000 0.70516  0.86802  0.52025  Biso   1.000  Hf
