data_image0
_cell_length_a       10.0732
_cell_length_b       5.18899
_cell_length_c       10.0103
_cell_angle_alpha    90
_cell_angle_beta     90
_cell_angle_gamma    90

_symmetry_space_group_name_H-M    "P 1"
_symmetry_int_tables_number       1

loop_
  _symmetry_equiv_pos_as_xyz
  'x, y, z'

loop_
  _atom_site_label
  _atom_site_occupancy
  _atom_site_fract_x
  _atom_site_fract_y
  _atom_site_fract_z
  _atom_site_thermal_displace_type
  _atom_site_B_iso_or_equiv
  _atom_site_type_symbol
  La1      1.0000 0.12381  0.00766  0.12822  Biso   1.000  La
  Hf1      1.0000 0.13214  0.02936  0.62372  Biso   1.000  Hf
  Hf2      1.0000 0.63298  0.02907  0.12743  Biso   1.000  Hf
  Hf3      1.0000 0.63301  0.03090  0.63081  Biso   1.000  Hf
  Hf4      1.0000 0.12718  0.45931  0.38136  Biso   1.000  Hf
  Hf5      1.0000 0.13216  0.46527  0.87178  Biso   1.000  Hf
  Hf6      1.0000 0.63008  0.46685  0.38111  Biso   1.000  Hf
  Hf7      1.0000 0.63266  0.46272  0.87725  Biso   1.000  Hf
  Hf8      1.0000 0.37221  0.51068  0.11898  Biso   1.000  Hf
  Hf9      1.0000 0.36494  0.52826  0.62409  Biso   1.000  Hf
  Hf10     1.0000 0.85792  0.53745  0.13093  Biso   1.000  Hf
  Hf11     1.0000 0.86369  0.53386  0.62643  Biso   1.000  Hf
  Hf12     1.0000 0.36757  0.97576  0.37712  Biso   1.000  Hf
  Hf13     1.0000 0.36207  0.96143  0.87463  Biso   1.000  Hf
  Hf14     1.0000 0.85270  0.96732  0.37984  Biso   1.000  Hf
  Hf15     1.0000 0.85880  0.96280  0.87699  Biso   1.000  Hf
  Hf16     1.0000 0.03997  0.43618  0.19648  Biso   1.000  Hf
  Hf17     1.0000 0.03751  0.37244  0.68084  Biso   1.000  Hf
  Hf18     1.0000 0.53742  0.35931  0.19594  Biso   1.000  Hf
  Hf19     1.0000 0.53291  0.36618  0.69463  Biso   1.000  Hf
  Hf20     1.0000 0.03395  0.12562  0.43491  Biso   1.000  Hf
  Hf21     1.0000 0.02763  0.14929  0.92364  Biso   1.000  Hf
  Hf22     1.0000 0.53558  0.12904  0.44814  Biso   1.000  Hf
  Hf23     1.0000 0.53359  0.12786  0.94490  Biso   1.000  Hf
  Hf24     1.0000 0.44699  0.86725  0.19122  Biso   1.000  Hf
  Hf25     1.0000 0.45940  0.86599  0.69249  Biso   1.000  Hf
  Hf26     1.0000 0.92115  0.89236  0.19410  Biso   1.000  Hf
  Hf27     1.0000 0.95779  0.86922  0.69279  Biso   1.000  Hf
  Hf28     1.0000 0.45879  0.63137  0.44434  Biso   1.000  Hf
  Hf29     1.0000 0.46688  0.63049  0.94184  Biso   1.000  Hf
  Hf30     1.0000 0.95527  0.63431  0.44322  Biso   1.000  Hf
  Hf31     1.0000 0.96465  0.64563  0.95131  Biso   1.000  Hf
  Hf32     1.0000 0.27635  0.26261  0.25837  Biso   1.000  Hf
  Hf33     1.0000 0.26732  0.23107  0.74745  Biso   1.000  Hf
  Hf34     1.0000 0.76514  0.24870  0.25562  Biso   1.000  Hf
  Hf35     1.0000 0.76871  0.23639  0.75175  Biso   1.000  Hf
  Hf36     1.0000 0.26759  0.25906  0.50251  Biso   1.000  Hf
  Hf37     1.0000 0.27206  0.25659  0.99162  Biso   1.000  Hf
  Hf38     1.0000 0.76635  0.26229  0.50389  Biso   1.000  Hf
  Hf39     1.0000 0.77009  0.25776  0.00348  Biso   1.000  Hf
  Hf40     1.0000 0.22306  0.76671  0.48434  Biso   1.000  Hf
  Hf41     1.0000 0.23537  0.73718  0.99386  Biso   1.000  Hf
  Hf42     1.0000 0.72203  0.76007  0.50486  Biso   1.000  Hf
  Hf43     1.0000 0.72758  0.75699  0.00214  Biso   1.000  Hf
  Hf44     1.0000 0.22555  0.73460  0.74130  Biso   1.000  Hf
  Hf45     1.0000 0.70778  0.74095  0.25556  Biso   1.000  Hf
  Hf46     1.0000 0.72598  0.73448  0.75216  Biso   1.000  Hf
