data_image0
_cell_length_a       10.0433
_cell_length_b       10.2628
_cell_length_c       5.21813
_cell_angle_alpha    90
_cell_angle_beta     90
_cell_angle_gamma    90

_symmetry_space_group_name_H-M    "P 1"
_symmetry_int_tables_number       1

loop_
  _symmetry_equiv_pos_as_xyz
  'x, y, z'

loop_
  _atom_site_label
  _atom_site_occupancy
  _atom_site_fract_x
  _atom_site_fract_y
  _atom_site_fract_z
  _atom_site_thermal_displace_type
  _atom_site_B_iso_or_equiv
  _atom_site_type_symbol
  La1      1.0000 0.10692  0.00859  0.29248  Biso   1.000  La
  Hf1      1.0000 0.13863  0.52510  0.31956  Biso   1.000  Hf
  Hf2      1.0000 0.13315  0.23741  0.80267  Biso   1.000  Hf
  Hf3      1.0000 0.11064  0.74854  0.80122  Biso   1.000  Hf
  Hf4      1.0000 0.35597  0.27031  0.32720  Biso   1.000  Hf
  Hf5      1.0000 0.36329  0.77027  0.32258  Biso   1.000  Hf
  Hf6      1.0000 0.34727  0.48583  0.83151  Biso   1.000  Hf
  Hf7      1.0000 0.35711  0.98152  0.81937  Biso   1.000  Hf
  Hf8      1.0000 0.63475  0.02068  0.16183  Biso   1.000  Hf
  Hf9      1.0000 0.63742  0.52071  0.15596  Biso   1.000  Hf
  Hf10     1.0000 0.62726  0.23071  0.65723  Biso   1.000  Hf
  Hf11     1.0000 0.63293  0.72874  0.66006  Biso   1.000  Hf
  Hf12     1.0000 0.85364  0.27569  0.16613  Biso   1.000  Hf
  Hf13     1.0000 0.86238  0.76323  0.18914  Biso   1.000  Hf
  Hf14     1.0000 0.85891  0.47706  0.66437  Biso   1.000  Hf
  Hf15     1.0000 0.85450  0.97812  0.69304  Biso   1.000  Hf
  Hf16     1.0000 0.03127  0.65964  0.12921  Biso   1.000  Hf
  Hf17     1.0000 0.01414  0.09195  0.68707  Biso   1.000  Hf
  Hf18     1.0000 0.02573  0.58699  0.64733  Biso   1.000  Hf
  Hf19     1.0000 0.46653  0.41826  0.16099  Biso   1.000  Hf
  Hf20     1.0000 0.47281  0.92124  0.16230  Biso   1.000  Hf
  Hf21     1.0000 0.45897  0.33556  0.66164  Biso   1.000  Hf
  Hf22     1.0000 0.46838  0.83671  0.65548  Biso   1.000  Hf
  Hf23     1.0000 0.27080  0.12954  0.56723  Biso   1.000  Hf
  Hf24     1.0000 0.26747  0.62897  0.56717  Biso   1.000  Hf
  Hf25     1.0000 0.27304  0.13378  0.05445  Biso   1.000  Hf
  Hf26     1.0000 0.27700  0.62518  0.07077  Biso   1.000  Hf
  Hf27     1.0000 0.22061  0.38006  0.57077  Biso   1.000  Hf
  Hf28     1.0000 0.23063  0.87427  0.56638  Biso   1.000  Hf
  Hf29     1.0000 0.22361  0.37885  0.07259  Biso   1.000  Hf
  Hf30     1.0000 0.24493  0.86500  0.04608  Biso   1.000  Hf
  Hf31     1.0000 0.53388  0.17105  0.32062  Biso   1.000  Hf
  Hf32     1.0000 0.53652  0.66905  0.32136  Biso   1.000  Hf
  Hf33     1.0000 0.52502  0.08189  0.81913  Biso   1.000  Hf
  Hf34     1.0000 0.52377  0.58506  0.82348  Biso   1.000  Hf
  Hf35     1.0000 0.96976  0.40451  0.34986  Biso   1.000  Hf
  Hf36     1.0000 0.97234  0.83936  0.50475  Biso   1.000  Hf
  Hf37     1.0000 0.95608  0.33367  0.85840  Biso   1.000  Hf
  Hf38     1.0000 0.96737  0.88639  0.97897  Biso   1.000  Hf
  Hf39     1.0000 0.76091  0.12546  0.92748  Biso   1.000  Hf
  Hf40     1.0000 0.76823  0.62351  0.92219  Biso   1.000  Hf
  Hf41     1.0000 0.78046  0.12345  0.41983  Biso   1.000  Hf
  Hf42     1.0000 0.77113  0.62089  0.42305  Biso   1.000  Hf
  Hf43     1.0000 0.71102  0.37554  0.91139  Biso   1.000  Hf
  Hf44     1.0000 0.71790  0.86868  0.92250  Biso   1.000  Hf
  Hf45     1.0000 0.72110  0.37582  0.41373  Biso   1.000  Hf
  Hf46     1.0000 0.72734  0.88070  0.42010  Biso   1.000  Hf
