data_image0
_cell_length_a       5.01968
_cell_length_b       10.3875
_cell_length_c       10.0411
_cell_angle_alpha    90
_cell_angle_beta     90
_cell_angle_gamma    90

_symmetry_space_group_name_H-M    "P 1"
_symmetry_int_tables_number       1

loop_
  _symmetry_equiv_pos_as_xyz
  'x, y, z'

loop_
  _atom_site_label
  _atom_site_occupancy
  _atom_site_fract_x
  _atom_site_fract_y
  _atom_site_fract_z
  _atom_site_thermal_displace_type
  _atom_site_B_iso_or_equiv
  _atom_site_type_symbol
  La1      1.0000 0.23413  0.99698  0.12926  Biso   1.000  La
  Hf1      1.0000 0.26881  0.01823  0.62647  Biso   1.000  Hf
  Hf2      1.0000 0.26535  0.51695  0.12767  Biso   1.000  Hf
  Hf3      1.0000 0.26785  0.51481  0.62708  Biso   1.000  Hf
  Hf4      1.0000 0.26642  0.23680  0.37670  Biso   1.000  Hf
  Hf5      1.0000 0.26822  0.23378  0.87587  Biso   1.000  Hf
  Hf6      1.0000 0.26170  0.72918  0.38233  Biso   1.000  Hf
  Hf7      1.0000 0.27100  0.73102  0.87274  Biso   1.000  Hf
  Hf8      1.0000 0.72186  0.26556  0.12844  Biso   1.000  Hf
  Hf9      1.0000 0.73369  0.26798  0.62671  Biso   1.000  Hf
  Hf10     1.0000 0.74462  0.75107  0.11414  Biso   1.000  Hf
  Hf11     1.0000 0.73254  0.76654  0.62305  Biso   1.000  Hf
  Hf12     1.0000 0.72734  0.48332  0.37632  Biso   1.000  Hf
  Hf13     1.0000 0.73026  0.48002  0.87765  Biso   1.000  Hf
  Hf14     1.0000 0.72514  0.99117  0.38384  Biso   1.000  Hf
  Hf15     1.0000 0.72085  0.98430  0.87221  Biso   1.000  Hf
  Hf16     1.0000 0.05581  0.19295  0.20240  Biso   1.000  Hf
  Hf17     1.0000 0.07786  0.18700  0.68708  Biso   1.000  Hf
  Hf18     1.0000 0.09499  0.69701  0.19393  Biso   1.000  Hf
  Hf19     1.0000 0.06811  0.68380  0.69233  Biso   1.000  Hf
  Hf20     1.0000 0.07826  0.06541  0.44191  Biso   1.000  Hf
  Hf21     1.0000 0.06817  0.07037  0.92378  Biso   1.000  Hf
  Hf22     1.0000 0.07178  0.56467  0.44289  Biso   1.000  Hf
  Hf23     1.0000 0.05420  0.57366  0.95203  Biso   1.000  Hf
  Hf24     1.0000 0.91972  0.44130  0.19402  Biso   1.000  Hf
  Hf25     1.0000 0.93030  0.43490  0.69773  Biso   1.000  Hf
  Hf26     1.0000 0.80578  0.92525  0.19874  Biso   1.000  Hf
  Hf27     1.0000 0.91485  0.93572  0.68888  Biso   1.000  Hf
  Hf28     1.0000 0.92291  0.31844  0.44667  Biso   1.000  Hf
  Hf29     1.0000 0.92871  0.31829  0.94630  Biso   1.000  Hf
  Hf30     1.0000 0.92660  0.81759  0.44542  Biso   1.000  Hf
  Hf31     1.0000 0.95252  0.82516  0.94833  Biso   1.000  Hf
  Hf32     1.0000 0.54273  0.12736  0.26120  Biso   1.000  Hf
  Hf33     1.0000 0.54137  0.11889  0.74951  Biso   1.000  Hf
  Hf34     1.0000 0.54746  0.62207  0.25009  Biso   1.000  Hf
  Hf35     1.0000 0.53936  0.61690  0.74885  Biso   1.000  Hf
  Hf36     1.0000 0.53679  0.13414  0.50515  Biso   1.000  Hf
  Hf37     1.0000 0.54826  0.13330  0.99722  Biso   1.000  Hf
  Hf38     1.0000 0.54065  0.63089  0.50067  Biso   1.000  Hf
  Hf39     1.0000 0.53119  0.62413  0.99627  Biso   1.000  Hf
  Hf40     1.0000 0.45669  0.38325  0.50109  Biso   1.000  Hf
  Hf41     1.0000 0.45049  0.38162  0.00114  Biso   1.000  Hf
  Hf42     1.0000 0.44944  0.88279  0.48975  Biso   1.000  Hf
  Hf43     1.0000 0.47862  0.86505  0.99132  Biso   1.000  Hf
  Hf44     1.0000 0.45240  0.37313  0.25152  Biso   1.000  Hf
  Hf45     1.0000 0.46009  0.36858  0.75015  Biso   1.000  Hf
  Hf46     1.0000 0.45084  0.86801  0.74277  Biso   1.000  Hf
