data_image0
_cell_length_a       10.1449
_cell_length_b       5.14963
_cell_length_c       10.4628
_cell_angle_alpha    90
_cell_angle_beta     90
_cell_angle_gamma    90

_symmetry_space_group_name_H-M    "P 1"
_symmetry_int_tables_number       1

loop_
  _symmetry_equiv_pos_as_xyz
  'x, y, z'

loop_
  _atom_site_label
  _atom_site_occupancy
  _atom_site_fract_x
  _atom_site_fract_y
  _atom_site_fract_z
  _atom_site_thermal_displace_type
  _atom_site_B_iso_or_equiv
  _atom_site_type_symbol
  La1      1.0000 0.12803  0.01612  0.16104  Biso   1.000  La
  Hf1      1.0000 0.12409  0.02964  0.66973  Biso   1.000  Hf
  Hf2      1.0000 0.11900  0.45193  0.42740  Biso   1.000  Hf
  Hf3      1.0000 0.12072  0.45152  0.91732  Biso   1.000  Hf
  Hf4      1.0000 0.36885  0.54373  0.16140  Biso   1.000  Hf
  Hf5      1.0000 0.34519  0.52303  0.67155  Biso   1.000  Hf
  Hf6      1.0000 0.35443  0.92485  0.42742  Biso   1.000  Hf
  Hf7      1.0000 0.34587  0.94822  0.91641  Biso   1.000  Hf
  Hf8      1.0000 0.64409  0.03755  0.07964  Biso   1.000  Hf
  Hf9      1.0000 0.62738  0.03267  0.57994  Biso   1.000  Hf
  Hf10     1.0000 0.63010  0.45026  0.33024  Biso   1.000  Hf
  Hf11     1.0000 0.62146  0.44416  0.82820  Biso   1.000  Hf
  Hf12     1.0000 0.85602  0.53989  0.07826  Biso   1.000  Hf
  Hf13     1.0000 0.84639  0.53538  0.58215  Biso   1.000  Hf
  Hf14     1.0000 0.84455  0.95621  0.33333  Biso   1.000  Hf
  Hf15     1.0000 0.84365  0.94659  0.82988  Biso   1.000  Hf
  Hf16     1.0000 0.03848  0.40205  0.08955  Biso   1.000  Hf
  Hf17     1.0000 0.02248  0.34431  0.59823  Biso   1.000  Hf
  Hf18     1.0000 0.02318  0.14995  0.35275  Biso   1.000  Hf
  Hf19     1.0000 0.02344  0.13634  0.84306  Biso   1.000  Hf
  Hf20     1.0000 0.47141  0.82610  0.07804  Biso   1.000  Hf
  Hf21     1.0000 0.45622  0.80521  0.58234  Biso   1.000  Hf
  Hf22     1.0000 0.46349  0.66297  0.32961  Biso   1.000  Hf
  Hf23     1.0000 0.45124  0.65682  0.82880  Biso   1.000  Hf
  Hf24     1.0000 0.26003  0.23558  0.78950  Biso   1.000  Hf
  Hf25     1.0000 0.28531  0.25685  0.03796  Biso   1.000  Hf
  Hf26     1.0000 0.26209  0.23722  0.53567  Biso   1.000  Hf
  Hf27     1.0000 0.22696  0.68750  0.29785  Biso   1.000  Hf
  Hf28     1.0000 0.20711  0.73599  0.78927  Biso   1.000  Hf
  Hf29     1.0000 0.24256  0.73513  0.02943  Biso   1.000  Hf
  Hf30     1.0000 0.21073  0.74240  0.54703  Biso   1.000  Hf
  Hf31     1.0000 0.52930  0.31347  0.16845  Biso   1.000  Hf
  Hf32     1.0000 0.51628  0.30963  0.66822  Biso   1.000  Hf
  Hf33     1.0000 0.51953  0.15992  0.41945  Biso   1.000  Hf
  Hf34     1.0000 0.52057  0.15620  0.91717  Biso   1.000  Hf
  Hf35     1.0000 0.92156  0.86924  0.15639  Biso   1.000  Hf
  Hf36     1.0000 0.94602  0.84061  0.66048  Biso   1.000  Hf
  Hf37     1.0000 0.94911  0.65366  0.41316  Biso   1.000  Hf
  Hf38     1.0000 0.94475  0.64602  0.90691  Biso   1.000  Hf
  Hf39     1.0000 0.76014  0.22962  0.95526  Biso   1.000  Hf
  Hf40     1.0000 0.76207  0.24135  0.45891  Biso   1.000  Hf
  Hf41     1.0000 0.77082  0.26040  0.20928  Biso   1.000  Hf
  Hf42     1.0000 0.76088  0.24403  0.70647  Biso   1.000  Hf
  Hf43     1.0000 0.70473  0.73144  0.95422  Biso   1.000  Hf
  Hf44     1.0000 0.71148  0.74180  0.45875  Biso   1.000  Hf
  Hf45     1.0000 0.70329  0.74843  0.21112  Biso   1.000  Hf
  Hf46     1.0000 0.70845  0.74058  0.70584  Biso   1.000  Hf
