data_image0
_cell_length_a       10.1871
_cell_length_b       5.16778
_cell_length_c       10.4439
_cell_angle_alpha    90
_cell_angle_beta     80
_cell_angle_gamma    90

_symmetry_space_group_name_H-M    "P 1"
_symmetry_int_tables_number       1

loop_
  _symmetry_equiv_pos_as_xyz
  'x, y, z'

loop_
  _atom_site_label
  _atom_site_occupancy
  _atom_site_fract_x
  _atom_site_fract_y
  _atom_site_fract_z
  _atom_site_thermal_displace_type
  _atom_site_B_iso_or_equiv
  _atom_site_type_symbol
  La1      1.0000 0.13080  0.02333  0.14253  Biso   1.000  La
  Hf1      1.0000 0.12539  0.03878  0.64918  Biso   1.000  Hf
  Hf2      1.0000 0.63635  0.03061  0.14680  Biso   1.000  Hf
  Hf3      1.0000 0.62482  0.04417  0.64816  Biso   1.000  Hf
  Hf4      1.0000 0.12243  0.44685  0.40563  Biso   1.000  Hf
  Hf5      1.0000 0.12010  0.46206  0.89601  Biso   1.000  Hf
  Hf6      1.0000 0.62582  0.45946  0.39924  Biso   1.000  Hf
  Hf7      1.0000 0.62601  0.45587  0.89508  Biso   1.000  Hf
  Hf8      1.0000 0.37058  0.52265  0.09314  Biso   1.000  Hf
  Hf9      1.0000 0.34589  0.54025  0.60546  Biso   1.000  Hf
  Hf10     1.0000 0.85489  0.53652  0.10449  Biso   1.000  Hf
  Hf11     1.0000 0.84759  0.54518  0.60663  Biso   1.000  Hf
  Hf12     1.0000 0.35601  0.96476  0.36056  Biso   1.000  Hf
  Hf13     1.0000 0.34676  0.95470  0.85351  Biso   1.000  Hf
  Hf14     1.0000 0.84302  0.95920  0.35961  Biso   1.000  Hf
  Hf15     1.0000 0.84297  0.95686  0.85711  Biso   1.000  Hf
  Hf16     1.0000 0.03999  0.39686  0.08421  Biso   1.000  Hf
  Hf17     1.0000 0.02486  0.35142  0.59205  Biso   1.000  Hf
  Hf18     1.0000 0.54131  0.33317  0.07795  Biso   1.000  Hf
  Hf19     1.0000 0.51988  0.33870  0.58375  Biso   1.000  Hf
  Hf20     1.0000 0.01836  0.15183  0.35139  Biso   1.000  Hf
  Hf21     1.0000 0.02306  0.14578  0.84015  Biso   1.000  Hf
  Hf22     1.0000 0.52820  0.16073  0.33163  Biso   1.000  Hf
  Hf23     1.0000 0.52325  0.15905  0.83144  Biso   1.000  Hf
  Hf24     1.0000 0.44245  0.84767  0.17188  Biso   1.000  Hf
  Hf25     1.0000 0.44835  0.83974  0.66890  Biso   1.000  Hf
  Hf26     1.0000 0.92183  0.86457  0.17014  Biso   1.000  Hf
  Hf27     1.0000 0.94642  0.84957  0.66847  Biso   1.000  Hf
  Hf28     1.0000 0.44997  0.65994  0.42201  Biso   1.000  Hf
  Hf29     1.0000 0.45756  0.66544  0.91777  Biso   1.000  Hf
  Hf30     1.0000 0.95056  0.65617  0.41770  Biso   1.000  Hf
  Hf31     1.0000 0.93960  0.65128  0.91601  Biso   1.000  Hf
  Hf32     1.0000 0.26958  0.30812  0.25169  Biso   1.000  Hf
  Hf33     1.0000 0.26010  0.25831  0.74173  Biso   1.000  Hf
  Hf34     1.0000 0.76413  0.26222  0.24398  Biso   1.000  Hf
  Hf35     1.0000 0.76348  0.25936  0.74218  Biso   1.000  Hf
  Hf36     1.0000 0.26327  0.23771  0.49635  Biso   1.000  Hf
  Hf37     1.0000 0.26626  0.24399  0.98333  Biso   1.000  Hf
  Hf38     1.0000 0.76035  0.24519  0.49488  Biso   1.000  Hf
  Hf39     1.0000 0.75638  0.23369  0.99466  Biso   1.000  Hf
  Hf40     1.0000 0.21984  0.73488  0.99852  Biso   1.000  Hf
  Hf41     1.0000 0.20982  0.75950  0.50453  Biso   1.000  Hf
  Hf42     1.0000 0.72148  0.75352  0.00860  Biso   1.000  Hf
  Hf43     1.0000 0.70981  0.75887  0.51256  Biso   1.000  Hf
  Hf44     1.0000 0.20644  0.74141  0.75655  Biso   1.000  Hf
  Hf45     1.0000 0.69854  0.73916  0.26521  Biso   1.000  Hf
  Hf46     1.0000 0.70939  0.74149  0.75961  Biso   1.000  Hf
