data_image0
_cell_length_a       10.215
_cell_length_b       5.17786
_cell_length_c       10.4053
_cell_angle_alpha    90
_cell_angle_beta     80
_cell_angle_gamma    90

_symmetry_space_group_name_H-M    "P 1"
_symmetry_int_tables_number       1

loop_
  _symmetry_equiv_pos_as_xyz
  'x, y, z'

loop_
  _atom_site_label
  _atom_site_occupancy
  _atom_site_fract_x
  _atom_site_fract_y
  _atom_site_fract_z
  _atom_site_thermal_displace_type
  _atom_site_B_iso_or_equiv
  _atom_site_type_symbol
  La1      1.0000 0.12728  0.01838  0.13545  Biso   1.000  La
  Hf1      1.0000 0.12796  0.05126  0.64827  Biso   1.000  Hf
  Hf2      1.0000 0.64205  0.03944  0.14929  Biso   1.000  Hf
  Hf3      1.0000 0.63103  0.05413  0.64709  Biso   1.000  Hf
  Hf4      1.0000 0.12944  0.45978  0.39638  Biso   1.000  Hf
  Hf5      1.0000 0.11531  0.48394  0.89138  Biso   1.000  Hf
  Hf6      1.0000 0.62525  0.46357  0.39973  Biso   1.000  Hf
  Hf7      1.0000 0.62816  0.46720  0.89770  Biso   1.000  Hf
  Hf8      1.0000 0.37079  0.54769  0.10891  Biso   1.000  Hf
  Hf9      1.0000 0.34717  0.54479  0.60287  Biso   1.000  Hf
  Hf10     1.0000 0.85369  0.54268  0.10595  Biso   1.000  Hf
  Hf11     1.0000 0.85299  0.55549  0.60504  Biso   1.000  Hf
  Hf12     1.0000 0.35068  0.96639  0.35508  Biso   1.000  Hf
  Hf13     1.0000 0.35575  0.94772  0.84485  Biso   1.000  Hf
  Hf14     1.0000 0.84545  0.96791  0.36036  Biso   1.000  Hf
  Hf15     1.0000 0.84274  0.97332  0.85614  Biso   1.000  Hf
  Hf16     1.0000 0.04208  0.41215  0.08273  Biso   1.000  Hf
  Hf17     1.0000 0.02971  0.36661  0.59137  Biso   1.000  Hf
  Hf18     1.0000 0.53899  0.33546  0.08141  Biso   1.000  Hf
  Hf19     1.0000 0.52133  0.34177  0.58465  Biso   1.000  Hf
  Hf20     1.0000 0.02196  0.16409  0.34678  Biso   1.000  Hf
  Hf21     1.0000 0.02631  0.15516  0.84229  Biso   1.000  Hf
  Hf22     1.0000 0.53047  0.16184  0.33337  Biso   1.000  Hf
  Hf23     1.0000 0.52450  0.16877  0.83268  Biso   1.000  Hf
  Hf24     1.0000 0.46077  0.84811  0.16916  Biso   1.000  Hf
  Hf25     1.0000 0.45445  0.83839  0.66796  Biso   1.000  Hf
  Hf26     1.0000 0.91712  0.87897  0.16607  Biso   1.000  Hf
  Hf27     1.0000 0.94793  0.86656  0.66669  Biso   1.000  Hf
  Hf28     1.0000 0.45068  0.66264  0.42106  Biso   1.000  Hf
  Hf29     1.0000 0.46051  0.67063  0.92070  Biso   1.000  Hf
  Hf30     1.0000 0.95337  0.66425  0.41610  Biso   1.000  Hf
  Hf31     1.0000 0.93974  0.66345  0.91109  Biso   1.000  Hf
  Hf32     1.0000 0.27950  0.26256  0.24005  Biso   1.000  Hf
  Hf33     1.0000 0.26447  0.26813  0.74995  Biso   1.000  Hf
  Hf34     1.0000 0.76756  0.27250  0.24643  Biso   1.000  Hf
  Hf35     1.0000 0.76539  0.27012  0.74291  Biso   1.000  Hf
  Hf36     1.0000 0.26498  0.24876  0.49408  Biso   1.000  Hf
  Hf37     1.0000 0.76371  0.25405  0.49589  Biso   1.000  Hf
  Hf38     1.0000 0.76252  0.25289  0.99500  Biso   1.000  Hf
  Hf39     1.0000 0.22978  0.73619  0.99249  Biso   1.000  Hf
  Hf40     1.0000 0.21170  0.77091  0.51023  Biso   1.000  Hf
  Hf41     1.0000 0.72077  0.75607  0.00870  Biso   1.000  Hf
  Hf42     1.0000 0.71294  0.76807  0.51309  Biso   1.000  Hf
  Hf43     1.0000 0.22742  0.72795  0.26282  Biso   1.000  Hf
  Hf44     1.0000 0.20973  0.75291  0.75380  Biso   1.000  Hf
  Hf45     1.0000 0.70214  0.74388  0.26708  Biso   1.000  Hf
  Hf46     1.0000 0.71210  0.75178  0.75991  Biso   1.000  Hf
