data_image0
_cell_length_a       10.1278
_cell_length_b       10.35
_cell_length_c       5.22296
_cell_angle_alpha    90
_cell_angle_beta     90
_cell_angle_gamma    90

_symmetry_space_group_name_H-M    "P 1"
_symmetry_int_tables_number       1

loop_
  _symmetry_equiv_pos_as_xyz
  'x, y, z'

loop_
  _atom_site_label
  _atom_site_occupancy
  _atom_site_fract_x
  _atom_site_fract_y
  _atom_site_fract_z
  _atom_site_thermal_displace_type
  _atom_site_B_iso_or_equiv
  _atom_site_type_symbol
  La1      1.0000 0.13461  0.01428  0.32108  Biso   1.000  La
  Hf1      1.0000 0.13399  0.52086  0.34085  Biso   1.000  Hf
  Hf2      1.0000 0.12675  0.23902  0.82949  Biso   1.000  Hf
  Hf3      1.0000 0.13573  0.72896  0.83635  Biso   1.000  Hf
  Hf4      1.0000 0.36568  0.27924  0.36344  Biso   1.000  Hf
  Hf5      1.0000 0.36061  0.76516  0.33500  Biso   1.000  Hf
  Hf6      1.0000 0.35853  0.48183  0.84692  Biso   1.000  Hf
  Hf7      1.0000 0.36648  0.97340  0.82388  Biso   1.000  Hf
  Hf8      1.0000 0.63774  0.02213  0.16678  Biso   1.000  Hf
  Hf9      1.0000 0.63686  0.52140  0.15269  Biso   1.000  Hf
  Hf10     1.0000 0.63930  0.23190  0.66168  Biso   1.000  Hf
  Hf11     1.0000 0.63707  0.73055  0.65342  Biso   1.000  Hf
  Hf12     1.0000 0.85878  0.27479  0.15594  Biso   1.000  Hf
  Hf13     1.0000 0.85673  0.76982  0.15516  Biso   1.000  Hf
  Hf14     1.0000 0.85592  0.48466  0.65030  Biso   1.000  Hf
  Hf15     1.0000 0.85181  0.98215  0.66890  Biso   1.000  Hf
  Hf16     1.0000 0.03739  0.19526  0.17344  Biso   1.000  Hf
  Hf17     1.0000 0.03441  0.67417  0.17587  Biso   1.000  Hf
  Hf18     1.0000 0.02470  0.08405  0.70544  Biso   1.000  Hf
  Hf19     1.0000 0.03120  0.58172  0.66908  Biso   1.000  Hf
  Hf20     1.0000 0.46714  0.41790  0.17239  Biso   1.000  Hf
  Hf21     1.0000 0.46043  0.92178  0.17199  Biso   1.000  Hf
  Hf22     1.0000 0.46844  0.33975  0.67433  Biso   1.000  Hf
  Hf23     1.0000 0.46755  0.83284  0.66114  Biso   1.000  Hf
  Hf24     1.0000 0.28151  0.13194  0.61989  Biso   1.000  Hf
  Hf25     1.0000 0.27427  0.62169  0.58663  Biso   1.000  Hf
  Hf26     1.0000 0.27027  0.61711  0.08912  Biso   1.000  Hf
  Hf27     1.0000 0.22152  0.37947  0.59073  Biso   1.000  Hf
  Hf28     1.0000 0.22978  0.86257  0.58439  Biso   1.000  Hf
  Hf29     1.0000 0.22925  0.36610  0.09109  Biso   1.000  Hf
  Hf30     1.0000 0.23932  0.86111  0.06032  Biso   1.000  Hf
  Hf31     1.0000 0.53058  0.16763  0.33757  Biso   1.000  Hf
  Hf32     1.0000 0.53215  0.66510  0.32898  Biso   1.000  Hf
  Hf33     1.0000 0.53477  0.08635  0.83309  Biso   1.000  Hf
  Hf34     1.0000 0.52851  0.58777  0.83269  Biso   1.000  Hf
  Hf35     1.0000 0.95829  0.42899  0.31403  Biso   1.000  Hf
  Hf36     1.0000 0.93631  0.91918  0.33561  Biso   1.000  Hf
  Hf37     1.0000 0.95598  0.33655  0.80992  Biso   1.000  Hf
  Hf38     1.0000 0.96351  0.83485  0.83052  Biso   1.000  Hf
  Hf39     1.0000 0.77188  0.13001  0.92031  Biso   1.000  Hf
  Hf40     1.0000 0.77207  0.62701  0.90379  Biso   1.000  Hf
  Hf41     1.0000 0.77408  0.13028  0.41823  Biso   1.000  Hf
  Hf42     1.0000 0.77227  0.62901  0.40466  Biso   1.000  Hf
  Hf43     1.0000 0.72005  0.37956  0.90800  Biso   1.000  Hf
  Hf44     1.0000 0.71897  0.87719  0.91612  Biso   1.000  Hf
  Hf45     1.0000 0.72119  0.37836  0.40895  Biso   1.000  Hf
  Hf46     1.0000 0.70762  0.87806  0.41649  Biso   1.000  Hf
