data_image0
_cell_length_a       10.0719
_cell_length_b       10.3127
_cell_length_c       5.22595
_cell_angle_alpha    90
_cell_angle_beta     90
_cell_angle_gamma    90

_symmetry_space_group_name_H-M    "P 1"
_symmetry_int_tables_number       1

loop_
  _symmetry_equiv_pos_as_xyz
  'x, y, z'

loop_
  _atom_site_label
  _atom_site_occupancy
  _atom_site_fract_x
  _atom_site_fract_y
  _atom_site_fract_z
  _atom_site_thermal_displace_type
  _atom_site_B_iso_or_equiv
  _atom_site_type_symbol
  La1      1.0000 0.11133  0.00007  0.28801  Biso   1.000  La
  Hf1      1.0000 0.12915  0.52371  0.32276  Biso   1.000  Hf
  Hf2      1.0000 0.11815  0.23269  0.83077  Biso   1.000  Hf
  Hf3      1.0000 0.09628  0.74895  0.79240  Biso   1.000  Hf
  Hf4      1.0000 0.35574  0.27406  0.31742  Biso   1.000  Hf
  Hf5      1.0000 0.35409  0.76199  0.33295  Biso   1.000  Hf
  Hf6      1.0000 0.34044  0.47994  0.83085  Biso   1.000  Hf
  Hf7      1.0000 0.35295  0.96523  0.84368  Biso   1.000  Hf
  Hf8      1.0000 0.63894  0.02071  0.16612  Biso   1.000  Hf
  Hf9      1.0000 0.63195  0.51783  0.15214  Biso   1.000  Hf
  Hf10     1.0000 0.62481  0.22655  0.65707  Biso   1.000  Hf
  Hf11     1.0000 0.62543  0.72299  0.66139  Biso   1.000  Hf
  Hf12     1.0000 0.85470  0.27533  0.15845  Biso   1.000  Hf
  Hf13     1.0000 0.85239  0.76220  0.18673  Biso   1.000  Hf
  Hf14     1.0000 0.84813  0.47746  0.65387  Biso   1.000  Hf
  Hf15     1.0000 0.84165  0.97651  0.69112  Biso   1.000  Hf
  Hf16     1.0000 0.03130  0.19317  0.16830  Biso   1.000  Hf
  Hf17     1.0000 0.02858  0.66658  0.13079  Biso   1.000  Hf
  Hf18     1.0000 0.02287  0.08080  0.67819  Biso   1.000  Hf
  Hf19     1.0000 0.01760  0.58455  0.65002  Biso   1.000  Hf
  Hf20     1.0000 0.46269  0.41097  0.14898  Biso   1.000  Hf
  Hf21     1.0000 0.46358  0.91207  0.16796  Biso   1.000  Hf
  Hf22     1.0000 0.45178  0.32972  0.65396  Biso   1.000  Hf
  Hf23     1.0000 0.46208  0.82923  0.65948  Biso   1.000  Hf
  Hf24     1.0000 0.25654  0.62661  0.58546  Biso   1.000  Hf
  Hf25     1.0000 0.28093  0.13118  0.04130  Biso   1.000  Hf
  Hf26     1.0000 0.27797  0.61432  0.09771  Biso   1.000  Hf
  Hf27     1.0000 0.21200  0.36769  0.56847  Biso   1.000  Hf
  Hf28     1.0000 0.22538  0.87639  0.57620  Biso   1.000  Hf
  Hf29     1.0000 0.21766  0.37962  0.07346  Biso   1.000  Hf
  Hf30     1.0000 0.23485  0.85260  0.05162  Biso   1.000  Hf
  Hf31     1.0000 0.52540  0.16199  0.32894  Biso   1.000  Hf
  Hf32     1.0000 0.52648  0.66097  0.32772  Biso   1.000  Hf
  Hf33     1.0000 0.52773  0.07715  0.82883  Biso   1.000  Hf
  Hf34     1.0000 0.51855  0.57855  0.82587  Biso   1.000  Hf
  Hf35     1.0000 0.95012  0.42821  0.31548  Biso   1.000  Hf
  Hf36     1.0000 0.96094  0.83453  0.50738  Biso   1.000  Hf
  Hf37     1.0000 0.94580  0.33105  0.81547  Biso   1.000  Hf
  Hf38     1.0000 0.95696  0.88226  0.97584  Biso   1.000  Hf
  Hf39     1.0000 0.76239  0.12002  0.92494  Biso   1.000  Hf
  Hf40     1.0000 0.76305  0.61922  0.91995  Biso   1.000  Hf
  Hf41     1.0000 0.77415  0.12339  0.42368  Biso   1.000  Hf
  Hf42     1.0000 0.76118  0.62166  0.41835  Biso   1.000  Hf
  Hf43     1.0000 0.70666  0.37033  0.90610  Biso   1.000  Hf
  Hf44     1.0000 0.70984  0.86342  0.92258  Biso   1.000  Hf
  Hf45     1.0000 0.71233  0.37281  0.40900  Biso   1.000  Hf
  Hf46     1.0000 0.71827  0.87893  0.41814  Biso   1.000  Hf
