data_image0
_cell_length_a       10.0986
_cell_length_b       10.3301
_cell_length_c       10.4822
_cell_angle_alpha    90
_cell_angle_beta     90
_cell_angle_gamma    90

_symmetry_space_group_name_H-M    "P 1"
_symmetry_int_tables_number       1

loop_
  _symmetry_equiv_pos_as_xyz
  'x, y, z'

loop_
  _atom_site_label
  _atom_site_occupancy
  _atom_site_fract_x
  _atom_site_fract_y
  _atom_site_fract_z
  _atom_site_thermal_displace_type
  _atom_site_B_iso_or_equiv
  _atom_site_type_symbol
  La1      1.0000 0.13529  0.01216  0.16131  Biso   1.000  La
  Hf1      1.0000 0.13879  0.02071  0.66910  Biso   1.000  Hf
  Hf2      1.0000 0.13628  0.51804  0.17144  Biso   1.000  Hf
  Hf3      1.0000 0.13595  0.52052  0.67127  Biso   1.000  Hf
  Hf4      1.0000 0.13839  0.22785  0.42312  Biso   1.000  Hf
  Hf5      1.0000 0.13564  0.23446  0.91791  Biso   1.000  Hf
  Hf6      1.0000 0.13528  0.72746  0.42306  Biso   1.000  Hf
  Hf7      1.0000 0.13839  0.72502  0.91773  Biso   1.000  Hf
  Hf8      1.0000 0.35696  0.27251  0.17216  Biso   1.000  Hf
  Hf9      1.0000 0.36072  0.27115  0.67060  Biso   1.000  Hf
  Hf10     1.0000 0.35899  0.76139  0.17214  Biso   1.000  Hf
  Hf11     1.0000 0.35817  0.77094  0.67015  Biso   1.000  Hf
  Hf12     1.0000 0.35651  0.47843  0.42281  Biso   1.000  Hf
  Hf13     1.0000 0.35982  0.47807  0.92112  Biso   1.000  Hf
  Hf14     1.0000 0.35845  0.97841  0.42015  Biso   1.000  Hf
  Hf15     1.0000 0.35398  0.98230  0.91118  Biso   1.000  Hf
  La2      1.0000 0.63529  0.01216  0.08867  Biso   1.000  La
  Hf16     1.0000 0.63875  0.02073  0.58089  Biso   1.000  Hf
  Hf17     1.0000 0.63626  0.51806  0.07854  Biso   1.000  Hf
  Hf18     1.0000 0.63592  0.52051  0.57871  Biso   1.000  Hf
  Hf19     1.0000 0.63563  0.23444  0.33207  Biso   1.000  Hf
  Hf20     1.0000 0.63838  0.22786  0.82685  Biso   1.000  Hf
  Hf21     1.0000 0.63835  0.72500  0.33225  Biso   1.000  Hf
  Hf22     1.0000 0.63527  0.72746  0.82692  Biso   1.000  Hf
  Hf23     1.0000 0.85695  0.27253  0.07785  Biso   1.000  Hf
  Hf24     1.0000 0.86069  0.27115  0.57942  Biso   1.000  Hf
  Hf25     1.0000 0.85899  0.76139  0.07788  Biso   1.000  Hf
  Hf26     1.0000 0.85814  0.77093  0.57987  Biso   1.000  Hf
  Hf27     1.0000 0.85981  0.47808  0.32890  Biso   1.000  Hf
  Hf28     1.0000 0.85648  0.47847  0.82719  Biso   1.000  Hf
  Hf29     1.0000 0.85395  0.98228  0.33884  Biso   1.000  Hf
  Hf30     1.0000 0.85844  0.97842  0.82985  Biso   1.000  Hf
  Hf31     1.0000 0.03180  0.18725  0.08032  Biso   1.000  Hf
  Hf32     1.0000 0.03418  0.17090  0.59110  Biso   1.000  Hf
  Hf33     1.0000 0.03546  0.67002  0.08705  Biso   1.000  Hf
  Hf34     1.0000 0.03054  0.66743  0.58705  Biso   1.000  Hf
  Hf35     1.0000 0.02928  0.08103  0.35264  Biso   1.000  Hf
  Hf36     1.0000 0.03663  0.08031  0.83768  Biso   1.000  Hf
  Hf37     1.0000 0.03091  0.58307  0.33542  Biso   1.000  Hf
  Hf38     1.0000 0.02982  0.58151  0.83398  Biso   1.000  Hf
  Hf39     1.0000 0.46102  0.42142  0.08655  Biso   1.000  Hf
  Hf40     1.0000 0.46370  0.41934  0.58713  Biso   1.000  Hf
  Hf41     1.0000 0.43085  0.92592  0.09018  Biso   1.000  Hf
  Hf42     1.0000 0.46192  0.91708  0.58429  Biso   1.000  Hf
  Hf43     1.0000 0.46170  0.33637  0.34085  Biso   1.000  Hf
  Hf44     1.0000 0.46501  0.33276  0.83400  Biso   1.000  Hf
  Hf45     1.0000 0.47213  0.83586  0.33130  Biso   1.000  Hf
  Hf46     1.0000 0.46372  0.83261  0.83421  Biso   1.000  Hf
  Hf47     1.0000 0.28149  0.12857  0.30150  Biso   1.000  Hf
  Hf48     1.0000 0.27300  0.12539  0.78873  Biso   1.000  Hf
  Hf49     1.0000 0.27390  0.61847  0.29527  Biso   1.000  Hf
  Hf50     1.0000 0.27407  0.62366  0.79382  Biso   1.000  Hf
  Hf51     1.0000 0.28362  0.13738  0.03115  Biso   1.000  Hf
  Hf52     1.0000 0.27588  0.12507  0.54447  Biso   1.000  Hf
  Hf53     1.0000 0.27299  0.61983  0.04537  Biso   1.000  Hf
  Hf54     1.0000 0.27202  0.62623  0.54553  Biso   1.000  Hf
  Hf55     1.0000 0.21856  0.37358  0.29542  Biso   1.000  Hf
  Hf56     1.0000 0.22311  0.37598  0.79353  Biso   1.000  Hf
  Hf57     1.0000 0.23119  0.86074  0.30131  Biso   1.000  Hf
  Hf58     1.0000 0.22040  0.87372  0.78901  Biso   1.000  Hf
  Hf59     1.0000 0.21993  0.37871  0.04343  Biso   1.000  Hf
  Hf60     1.0000 0.22228  0.37567  0.54585  Biso   1.000  Hf
  Hf61     1.0000 0.23275  0.85897  0.03050  Biso   1.000  Hf
  Hf62     1.0000 0.22066  0.87615  0.54447  Biso   1.000  Hf
  Hf63     1.0000 0.53180  0.18729  0.16967  Biso   1.000  Hf
  Hf64     1.0000 0.53421  0.17097  0.65889  Biso   1.000  Hf
  Hf65     1.0000 0.53547  0.67012  0.16289  Biso   1.000  Hf
  Hf66     1.0000 0.53057  0.66750  0.66293  Biso   1.000  Hf
  Hf67     1.0000 0.53659  0.08025  0.41228  Biso   1.000  Hf
  Hf68     1.0000 0.52933  0.08096  0.89730  Biso   1.000  Hf
  Hf69     1.0000 0.52980  0.58145  0.41597  Biso   1.000  Hf
  Hf70     1.0000 0.53090  0.58302  0.91453  Biso   1.000  Hf
  Hf71     1.0000 0.96101  0.42136  0.16349  Biso   1.000  Hf
  Hf72     1.0000 0.96371  0.41926  0.66296  Biso   1.000  Hf
  Hf73     1.0000 0.93086  0.92585  0.15987  Biso   1.000  Hf
  Hf74     1.0000 0.96193  0.91701  0.66578  Biso   1.000  Hf
  Hf75     1.0000 0.96502  0.33281  0.41603  Biso   1.000  Hf
  Hf76     1.0000 0.96170  0.33647  0.90919  Biso   1.000  Hf
  Hf77     1.0000 0.96375  0.83266  0.41582  Biso   1.000  Hf
  Hf78     1.0000 0.97216  0.83595  0.91874  Biso   1.000  Hf
  Hf79     1.0000 0.78148  0.12858  0.94848  Biso   1.000  Hf
  Hf80     1.0000 0.77298  0.12540  0.46124  Biso   1.000  Hf
  Hf81     1.0000 0.77388  0.61852  0.95469  Biso   1.000  Hf
  Hf82     1.0000 0.77408  0.62368  0.45614  Biso   1.000  Hf
  Hf83     1.0000 0.78362  0.13738  0.21880  Biso   1.000  Hf
  Hf84     1.0000 0.77589  0.12506  0.70550  Biso   1.000  Hf
  Hf85     1.0000 0.77300  0.61984  0.20458  Biso   1.000  Hf
  Hf86     1.0000 0.77201  0.62623  0.70444  Biso   1.000  Hf
  Hf87     1.0000 0.71856  0.37361  0.95460  Biso   1.000  Hf
  Hf88     1.0000 0.72312  0.37598  0.45649  Biso   1.000  Hf
  Hf89     1.0000 0.73122  0.86075  0.94870  Biso   1.000  Hf
  Hf90     1.0000 0.72039  0.87371  0.46103  Biso   1.000  Hf
  Hf91     1.0000 0.71993  0.37874  0.20661  Biso   1.000  Hf
  Hf92     1.0000 0.72228  0.37571  0.70420  Biso   1.000  Hf
  Hf93     1.0000 0.73269  0.85901  0.21954  Biso   1.000  Hf
  Hf94     1.0000 0.72065  0.87616  0.70556  Biso   1.000  Hf
