data_image0
_cell_length_a       10.1147
_cell_length_b       10.2384
_cell_length_c       10.5554
_cell_angle_alpha    90
_cell_angle_beta     90
_cell_angle_gamma    90

_symmetry_space_group_name_H-M    "P 1"
_symmetry_int_tables_number       1

loop_
  _symmetry_equiv_pos_as_xyz
  'x, y, z'

loop_
  _atom_site_label
  _atom_site_occupancy
  _atom_site_fract_x
  _atom_site_fract_y
  _atom_site_fract_z
  _atom_site_thermal_displace_type
  _atom_site_B_iso_or_equiv
  _atom_site_type_symbol
  Hf1      1.0000 0.13078  0.00270  0.15001  Biso   1.000  Hf
  Hf2      1.0000 0.14547  0.02395  0.66862  Biso   1.000  Hf
  Hf3      1.0000 0.14164  0.52081  0.17159  Biso   1.000  Hf
  Hf4      1.0000 0.14803  0.52863  0.67038  Biso   1.000  Hf
  Hf5      1.0000 0.14280  0.25094  0.43343  Biso   1.000  Hf
  Hf6      1.0000 0.14384  0.23399  0.91709  Biso   1.000  Hf
  Hf7      1.0000 0.14778  0.73431  0.41885  Biso   1.000  Hf
  Hf8      1.0000 0.15073  0.73145  0.91838  Biso   1.000  Hf
  La1      1.0000 0.36601  0.25690  0.16303  Biso   1.000  La
  Hf9      1.0000 0.37397  0.27248  0.67524  Biso   1.000  Hf
  Hf10     1.0000 0.36630  0.76438  0.16649  Biso   1.000  Hf
  Hf11     1.0000 0.37173  0.77894  0.66594  Biso   1.000  Hf
  Hf12     1.0000 0.37041  0.48072  0.42017  Biso   1.000  Hf
  Hf13     1.0000 0.37205  0.48530  0.91805  Biso   1.000  Hf
  La2      1.0000 0.37806  0.00118  0.40302  Biso   1.000  La
  Hf14     1.0000 0.37629  0.98433  0.91656  Biso   1.000  Hf
  Hf15     1.0000 0.63619  0.01839  0.08334  Biso   1.000  Hf
  Hf16     1.0000 0.64260  0.02626  0.59008  Biso   1.000  Hf
  Hf17     1.0000 0.64060  0.52074  0.07381  Biso   1.000  Hf
  Hf18     1.0000 0.64548  0.52332  0.58066  Biso   1.000  Hf
  Hf19     1.0000 0.64749  0.23272  0.33742  Biso   1.000  Hf
  Hf20     1.0000 0.64613  0.23364  0.83653  Biso   1.000  Hf
  Hf21     1.0000 0.63908  0.72223  0.32688  Biso   1.000  Hf
  Hf22     1.0000 0.64863  0.73345  0.82598  Biso   1.000  Hf
  Hf23     1.0000 0.86209  0.27204  0.07894  Biso   1.000  Hf
  Hf24     1.0000 0.86629  0.27217  0.58020  Biso   1.000  Hf
  Hf25     1.0000 0.86256  0.76860  0.07664  Biso   1.000  Hf
  Hf26     1.0000 0.87071  0.77414  0.57764  Biso   1.000  Hf
  Hf27     1.0000 0.86587  0.48352  0.32655  Biso   1.000  Hf
  Hf28     1.0000 0.87110  0.48217  0.82548  Biso   1.000  Hf
  Hf29     1.0000 0.84475  0.97001  0.33130  Biso   1.000  Hf
  Hf30     1.0000 0.87427  0.98253  0.82854  Biso   1.000  Hf
  Hf31     1.0000 0.02237  0.15667  0.07714  Biso   1.000  Hf
  Hf32     1.0000 0.02785  0.15248  0.56537  Biso   1.000  Hf
  Hf33     1.0000 0.03338  0.66363  0.07856  Biso   1.000  Hf
  Hf34     1.0000 0.03752  0.66421  0.57540  Biso   1.000  Hf
  Hf35     1.0000 0.18793  0.12015  0.29535  Biso   1.000  Hf
  Hf36     1.0000 0.03434  0.09804  0.82147  Biso   1.000  Hf
  Hf37     1.0000 0.03391  0.59351  0.32880  Biso   1.000  Hf
  Hf38     1.0000 0.03920  0.59401  0.82633  Biso   1.000  Hf
  Hf39     1.0000 0.47397  0.41729  0.06821  Biso   1.000  Hf
  Hf40     1.0000 0.47798  0.41098  0.58135  Biso   1.000  Hf
  Hf41     1.0000 0.47180  0.90551  0.07318  Biso   1.000  Hf
  Hf42     1.0000 0.48612  0.91019  0.57980  Biso   1.000  Hf
  Hf43     1.0000 0.48311  0.34688  0.33231  Biso   1.000  Hf
  Hf44     1.0000 0.48080  0.34778  0.82803  Biso   1.000  Hf
  Hf45     1.0000 0.47269  0.82343  0.32242  Biso   1.000  Hf
  Hf46     1.0000 0.48476  0.84985  0.82374  Biso   1.000  Hf
  Hf47     1.0000 0.27990  0.12751  0.79438  Biso   1.000  Hf
  Hf48     1.0000 0.28117  0.62305  0.29461  Biso   1.000  Hf
  Hf49     1.0000 0.28456  0.62950  0.79262  Biso   1.000  Hf
  Hf50     1.0000 0.25365  0.10979  0.03136  Biso   1.000  Hf
  Hf51     1.0000 0.27283  0.14316  0.55272  Biso   1.000  Hf
  Hf52     1.0000 0.27547  0.62432  0.04312  Biso   1.000  Hf
  Hf53     1.0000 0.28377  0.63235  0.54324  Biso   1.000  Hf
  Hf54     1.0000 0.22595  0.38279  0.30222  Biso   1.000  Hf
  Hf55     1.0000 0.23573  0.37715  0.78971  Biso   1.000  Hf
  Hf56     1.0000 0.21827  0.86408  0.27527  Biso   1.000  Hf
  Hf57     1.0000 0.23703  0.87875  0.79169  Biso   1.000  Hf
  Hf58     1.0000 0.21483  0.38208  0.03354  Biso   1.000  Hf
  Hf59     1.0000 0.23295  0.38697  0.54584  Biso   1.000  Hf
  Hf60     1.0000 0.23253  0.86891  0.03446  Biso   1.000  Hf
  Hf61     1.0000 0.22780  0.87837  0.54510  Biso   1.000  Hf
  Hf62     1.0000 0.53321  0.11110  0.22397  Biso   1.000  Hf
  Hf63     1.0000 0.52989  0.14279  0.70582  Biso   1.000  Hf
  Hf64     1.0000 0.53542  0.65451  0.16913  Biso   1.000  Hf
  Hf65     1.0000 0.54005  0.66399  0.67088  Biso   1.000  Hf
  Hf66     1.0000 0.54285  0.13742  0.46862  Biso   1.000  Hf
  Hf67     1.0000 0.52724  0.11945  0.95653  Biso   1.000  Hf
  Hf68     1.0000 0.53925  0.58739  0.42419  Biso   1.000  Hf
  Hf69     1.0000 0.54215  0.59881  0.91831  Biso   1.000  Hf
  Hf70     1.0000 0.97116  0.41276  0.16917  Biso   1.000  Hf
  Hf71     1.0000 0.97891  0.41162  0.66671  Biso   1.000  Hf
  Hf72     1.0000 0.96046  0.91699  0.17707  Biso   1.000  Hf
  Hf73     1.0000 0.97968  0.91045  0.67359  Biso   1.000  Hf
  Hf74     1.0000 0.96801  0.33470  0.41458  Biso   1.000  Hf
  Hf75     1.0000 0.97546  0.34245  0.91780  Biso   1.000  Hf
  Hf76     1.0000 0.97548  0.85296  0.42080  Biso   1.000  Hf
  Hf77     1.0000 0.98562  0.85004  0.92646  Biso   1.000  Hf
  Hf78     1.0000 0.77956  0.12664  0.95749  Biso   1.000  Hf
  Hf79     1.0000 0.78745  0.11836  0.45567  Biso   1.000  Hf
  Hf80     1.0000 0.78933  0.62987  0.95218  Biso   1.000  Hf
  Hf81     1.0000 0.78284  0.62598  0.45426  Biso   1.000  Hf
  Hf82     1.0000 0.78175  0.12737  0.20823  Biso   1.000  Hf
  Hf83     1.0000 0.78059  0.13218  0.70847  Biso   1.000  Hf
  Hf84     1.0000 0.77998  0.62550  0.20250  Biso   1.000  Hf
  Hf85     1.0000 0.78471  0.62872  0.70296  Biso   1.000  Hf
  Hf86     1.0000 0.73703  0.37972  0.95502  Biso   1.000  Hf
  Hf87     1.0000 0.73510  0.37678  0.45978  Biso   1.000  Hf
  Hf88     1.0000 0.73707  0.87819  0.95717  Biso   1.000  Hf
  Hf89     1.0000 0.72306  0.87250  0.45552  Biso   1.000  Hf
  Hf90     1.0000 0.72647  0.37650  0.20569  Biso   1.000  Hf
  Hf91     1.0000 0.73198  0.37814  0.70780  Biso   1.000  Hf
  Hf92     1.0000 0.72336  0.87180  0.20701  Biso   1.000  Hf
  Hf93     1.0000 0.74023  0.87857  0.70750  Biso   1.000  Hf
