data_image0
_cell_length_a       10.0891
_cell_length_b       10.2067
_cell_length_c       10.0891
_cell_angle_alpha    90
_cell_angle_beta     90
_cell_angle_gamma    90

_symmetry_space_group_name_H-M    "P 1"
_symmetry_int_tables_number       1

loop_
  _symmetry_equiv_pos_as_xyz
  'x, y, z'

loop_
  _atom_site_label
  _atom_site_occupancy
  _atom_site_fract_x
  _atom_site_fract_y
  _atom_site_fract_z
  _atom_site_thermal_displace_type
  _atom_site_B_iso_or_equiv
  _atom_site_type_symbol
  La1      1.0000 0.11644  0.00147  0.11620  Biso   1.000  La
  Hf1      1.0000 0.11825  0.00495  0.62450  Biso   1.000  Hf
  Hf2      1.0000 0.13350  0.50484  0.14019  Biso   1.000  Hf
  Hf3      1.0000 0.11409  0.50754  0.62220  Biso   1.000  Hf
  Hf4      1.0000 0.61503  0.00857  0.12855  Biso   1.000  Hf
  Hf5      1.0000 0.61530  0.00153  0.63018  Biso   1.000  Hf
  Hf6      1.0000 0.61911  0.50848  0.12839  Biso   1.000  Hf
  Hf7      1.0000 0.61111  0.50807  0.62241  Biso   1.000  Hf
  Hf8      1.0000 0.11713  0.25271  0.37271  Biso   1.000  Hf
  Hf9      1.0000 0.12010  0.25725  0.86424  Biso   1.000  Hf
  Hf10     1.0000 0.11609  0.75287  0.36983  Biso   1.000  Hf
  Hf11     1.0000 0.09623  0.72036  0.88661  Biso   1.000  Hf
  Hf12     1.0000 0.61137  0.25262  0.38171  Biso   1.000  Hf
  Hf13     1.0000 0.61145  0.25360  0.87614  Biso   1.000  Hf
  Hf14     1.0000 0.61089  0.76086  0.38123  Biso   1.000  Hf
  Hf15     1.0000 0.61327  0.75381  0.87606  Biso   1.000  Hf
  Hf16     1.0000 0.37075  0.25392  0.12489  Biso   1.000  Hf
  Hf17     1.0000 0.36583  0.25446  0.62298  Biso   1.000  Hf
  Hf18     1.0000 0.37152  0.75911  0.11692  Biso   1.000  Hf
  Hf19     1.0000 0.35991  0.75819  0.62766  Biso   1.000  Hf
  Hf20     1.0000 0.85912  0.25057  0.13852  Biso   1.000  Hf
  Hf21     1.0000 0.86389  0.25486  0.62700  Biso   1.000  Hf
  Hf22     1.0000 0.85060  0.75893  0.14581  Biso   1.000  Hf
  Hf23     1.0000 0.87080  0.75994  0.62528  Biso   1.000  Hf
  Hf24     1.0000 0.36369  0.00101  0.37397  Biso   1.000  Hf
  Hf25     1.0000 0.36022  0.00539  0.87096  Biso   1.000  Hf
  Hf26     1.0000 0.37033  0.50762  0.37711  Biso   1.000  Hf
  Hf27     1.0000 0.36149  0.50809  0.87421  Biso   1.000  Hf
  Hf28     1.0000 0.86523  0.00903  0.38331  Biso   1.000  Hf
  La2      1.0000 0.86845  0.00289  0.88200  Biso   1.000  La
  Hf29     1.0000 0.86438  0.50880  0.37806  Biso   1.000  Hf
  Hf30     1.0000 0.84375  0.50609  0.86340  Biso   1.000  Hf
  Hf31     1.0000 0.98851  0.15456  0.49550  Biso   1.000  Hf
  Hf32     1.0000 0.00671  0.55192  0.97491  Biso   1.000  Hf
  Hf33     1.0000 0.99364  0.65185  0.49121  Biso   1.000  Hf
  Hf34     1.0000 0.50479  0.15373  0.00300  Biso   1.000  Hf
  Hf35     1.0000 0.48932  0.14886  0.50192  Biso   1.000  Hf
  Hf36     1.0000 0.48977  0.65285  0.99650  Biso   1.000  Hf
  Hf37     1.0000 0.49282  0.65040  0.49735  Biso   1.000  Hf
  Hf38     1.0000 0.97616  0.12066  0.25440  Biso   1.000  Hf
  Hf39     1.0000 0.00043  0.12262  0.73927  Biso   1.000  Hf
  Hf40     1.0000 0.98193  0.61412  0.23625  Biso   1.000  Hf
  Hf41     1.0000 0.97578  0.61287  0.73676  Biso   1.000  Hf
  Hf42     1.0000 0.48377  0.10945  0.25037  Biso   1.000  Hf
  Hf43     1.0000 0.49295  0.10765  0.75249  Biso   1.000  Hf
  Hf44     1.0000 0.48133  0.60882  0.24100  Biso   1.000  Hf
  Hf45     1.0000 0.48053  0.60712  0.74387  Biso   1.000  Hf
  Hf46     1.0000 0.00915  0.36529  0.23476  Biso   1.000  Hf
  Hf47     1.0000 0.97641  0.36625  0.76553  Biso   1.000  Hf
  Hf48     1.0000 0.98329  0.86318  0.27076  Biso   1.000  Hf
  Hf49     1.0000 0.01187  0.85410  0.75229  Biso   1.000  Hf
  Hf50     1.0000 0.50688  0.36062  0.24876  Biso   1.000  Hf
  Hf51     1.0000 0.47958  0.35796  0.75637  Biso   1.000  Hf
  Hf52     1.0000 0.49787  0.86017  0.25356  Biso   1.000  Hf
  Hf53     1.0000 0.49296  0.85623  0.75647  Biso   1.000  Hf
  Hf54     1.0000 0.98232  0.19585  0.99967  Biso   1.000  Hf
  Hf55     1.0000 0.98770  0.40270  0.50189  Biso   1.000  Hf
  Hf56     1.0000 0.98765  0.81848  0.01110  Biso   1.000  Hf
  Hf57     1.0000 0.97749  0.90517  0.51602  Biso   1.000  Hf
  Hf58     1.0000 0.49797  0.40181  0.00301  Biso   1.000  Hf
  Hf59     1.0000 0.48769  0.39886  0.50293  Biso   1.000  Hf
  Hf60     1.0000 0.48238  0.90435  0.01204  Biso   1.000  Hf
  Hf61     1.0000 0.48320  0.90101  0.50639  Biso   1.000  Hf
  Hf62     1.0000 0.24213  0.15021  0.25018  Biso   1.000  Hf
  Hf63     1.0000 0.24317  0.15320  0.74366  Biso   1.000  Hf
  Hf64     1.0000 0.23542  0.64145  0.25351  Biso   1.000  Hf
  Hf65     1.0000 0.23341  0.65251  0.75211  Biso   1.000  Hf
  Hf66     1.0000 0.73249  0.14849  0.26311  Biso   1.000  Hf
  Hf67     1.0000 0.73651  0.15112  0.75363  Biso   1.000  Hf
  Hf68     1.0000 0.72871  0.64525  0.26584  Biso   1.000  Hf
  Hf69     1.0000 0.73198  0.64233  0.75920  Biso   1.000  Hf
  Hf70     1.0000 0.24312  0.12309  0.98645  Biso   1.000  Hf
  Hf71     1.0000 0.23899  0.10714  0.49380  Biso   1.000  Hf
  Hf72     1.0000 0.26230  0.61159  0.01027  Biso   1.000  Hf
  Hf73     1.0000 0.24623  0.60664  0.50526  Biso   1.000  Hf
  Hf74     1.0000 0.74567  0.12015  0.01968  Biso   1.000  Hf
  Hf75     1.0000 0.74085  0.10988  0.51213  Biso   1.000  Hf
  Hf76     1.0000 0.76276  0.61362  0.01320  Biso   1.000  Hf
  Hf77     1.0000 0.74903  0.60922  0.51364  Biso   1.000  Hf
  Hf78     1.0000 0.23413  0.36487  0.00969  Biso   1.000  Hf
  Hf79     1.0000 0.23424  0.35740  0.50669  Biso   1.000  Hf
  Hf80     1.0000 0.22871  0.85450  0.97313  Biso   1.000  Hf
  Hf81     1.0000 0.23349  0.85567  0.49200  Biso   1.000  Hf
  Hf82     1.0000 0.74742  0.36651  0.98613  Biso   1.000  Hf
  Hf83     1.0000 0.74240  0.36095  0.48819  Biso   1.000  Hf
  Hf84     1.0000 0.72784  0.86265  0.01066  Biso   1.000  Hf
  Hf85     1.0000 0.73637  0.86055  0.49629  Biso   1.000  Hf
  Hf86     1.0000 0.25920  0.39288  0.25722  Biso   1.000  Hf
  Hf87     1.0000 0.23087  0.40454  0.75521  Biso   1.000  Hf
  Hf88     1.0000 0.25469  0.88458  0.24548  Biso   1.000  Hf
  Hf89     1.0000 0.26233  0.91287  0.72312  Biso   1.000  Hf
  Hf90     1.0000 0.75751  0.40286  0.23776  Biso   1.000  Hf
  Hf91     1.0000 0.72938  0.39376  0.73562  Biso   1.000  Hf
  Hf92     1.0000 0.74410  0.90218  0.25011  Biso   1.000  Hf
  Hf93     1.0000 0.73982  0.88541  0.73953  Biso   1.000  Hf
