data_image0
_cell_length_a       10.0608
_cell_length_b       10.413
_cell_length_c       10.0794
_cell_angle_alpha    90
_cell_angle_beta     90
_cell_angle_gamma    90

_symmetry_space_group_name_H-M    "P 1"
_symmetry_int_tables_number       1

loop_
  _symmetry_equiv_pos_as_xyz
  'x, y, z'

loop_
  _atom_site_label
  _atom_site_occupancy
  _atom_site_fract_x
  _atom_site_fract_y
  _atom_site_fract_z
  _atom_site_thermal_displace_type
  _atom_site_B_iso_or_equiv
  _atom_site_type_symbol
  La1      1.0000 0.12201  0.00143  0.11468  Biso   1.000  La
  Hf1      1.0000 0.12860  0.01354  0.62854  Biso   1.000  Hf
  Hf2      1.0000 0.13518  0.51656  0.12510  Biso   1.000  Hf
  Hf3      1.0000 0.13100  0.51668  0.62735  Biso   1.000  Hf
  Hf4      1.0000 0.63478  0.01618  0.12551  Biso   1.000  Hf
  Hf5      1.0000 0.62777  0.01639  0.62481  Biso   1.000  Hf
  Hf6      1.0000 0.63343  0.51645  0.12510  Biso   1.000  Hf
  Hf7      1.0000 0.62714  0.51553  0.62895  Biso   1.000  Hf
  La2      1.0000 0.12289  0.23999  0.37367  Biso   1.000  La
  Hf8      1.0000 0.12766  0.23594  0.87065  Biso   1.000  Hf
  Hf9      1.0000 0.13182  0.73207  0.37684  Biso   1.000  Hf
  Hf10     1.0000 0.13085  0.73052  0.87606  Biso   1.000  Hf
  Hf11     1.0000 0.63088  0.23375  0.37423  Biso   1.000  Hf
  Hf12     1.0000 0.62867  0.23188  0.87542  Biso   1.000  Hf
  Hf13     1.0000 0.62812  0.73247  0.37931  Biso   1.000  Hf
  Hf14     1.0000 0.62997  0.73144  0.87549  Biso   1.000  Hf
  Hf15     1.0000 0.36792  0.26482  0.12340  Biso   1.000  Hf
  Hf16     1.0000 0.36270  0.26516  0.62411  Biso   1.000  Hf
  Hf17     1.0000 0.37010  0.76304  0.12563  Biso   1.000  Hf
  Hf18     1.0000 0.36050  0.76615  0.62529  Biso   1.000  Hf
  Hf19     1.0000 0.85815  0.26958  0.12227  Biso   1.000  Hf
  Hf20     1.0000 0.85746  0.26691  0.62936  Biso   1.000  Hf
  Hf21     1.0000 0.86069  0.76446  0.12928  Biso   1.000  Hf
  Hf22     1.0000 0.86155  0.76266  0.62706  Biso   1.000  Hf
  Hf23     1.0000 0.36609  0.48525  0.37378  Biso   1.000  Hf
  Hf24     1.0000 0.36097  0.48078  0.87593  Biso   1.000  Hf
  Hf25     1.0000 0.36322  0.98273  0.37645  Biso   1.000  Hf
  Hf26     1.0000 0.36531  0.98382  0.87193  Biso   1.000  Hf
  Hf27     1.0000 0.85769  0.48610  0.37849  Biso   1.000  Hf
  Hf28     1.0000 0.86198  0.48310  0.87512  Biso   1.000  Hf
  Hf29     1.0000 0.85337  0.97990  0.38300  Biso   1.000  Hf
  Hf30     1.0000 0.85824  0.98020  0.87086  Biso   1.000  Hf
  Hf31     1.0000 0.02707  0.19090  0.16912  Biso   1.000  Hf
  Hf32     1.0000 0.03539  0.18994  0.67778  Biso   1.000  Hf
  Hf33     1.0000 0.03428  0.68402  0.19534  Biso   1.000  Hf
  Hf34     1.0000 0.03053  0.68235  0.69835  Biso   1.000  Hf
  Hf35     1.0000 0.54182  0.18579  0.18836  Biso   1.000  Hf
  Hf36     1.0000 0.53105  0.18248  0.69586  Biso   1.000  Hf
  Hf37     1.0000 0.53339  0.67952  0.20013  Biso   1.000  Hf
  Hf38     1.0000 0.52930  0.68287  0.69719  Biso   1.000  Hf
  Hf39     1.0000 0.02430  0.04846  0.45167  Biso   1.000  Hf
  Hf40     1.0000 0.02957  0.06904  0.90542  Biso   1.000  Hf
  Hf41     1.0000 0.03265  0.56152  0.44636  Biso   1.000  Hf
  Hf42     1.0000 0.02923  0.56743  0.94581  Biso   1.000  Hf
  Hf43     1.0000 0.53596  0.06400  0.44178  Biso   1.000  Hf
  Hf44     1.0000 0.53345  0.06450  0.94311  Biso   1.000  Hf
  Hf45     1.0000 0.53092  0.56686  0.44941  Biso   1.000  Hf
  Hf46     1.0000 0.52837  0.56648  0.94733  Biso   1.000  Hf
  Hf47     1.0000 0.47069  0.43103  0.19657  Biso   1.000  Hf
  Hf48     1.0000 0.46203  0.43111  0.69870  Biso   1.000  Hf
  Hf49     1.0000 0.46566  0.93323  0.19312  Biso   1.000  Hf
  Hf50     1.0000 0.45998  0.93289  0.69424  Biso   1.000  Hf
  Hf51     1.0000 0.96723  0.43273  0.20207  Biso   1.000  Hf
  Hf52     1.0000 0.96041  0.43447  0.69633  Biso   1.000  Hf
  Hf53     1.0000 0.93965  0.92546  0.21079  Biso   1.000  Hf
  Hf54     1.0000 0.95652  0.92857  0.69307  Biso   1.000  Hf
  Hf55     1.0000 0.46007  0.31265  0.44257  Biso   1.000  Hf
  Hf56     1.0000 0.46178  0.31648  0.94412  Biso   1.000  Hf
  Hf57     1.0000 0.46247  0.81635  0.44922  Biso   1.000  Hf
  Hf58     1.0000 0.46895  0.81778  0.94769  Biso   1.000  Hf
  Hf59     1.0000 0.93318  0.31970  0.45076  Biso   1.000  Hf
  Hf60     1.0000 0.95606  0.31753  0.94081  Biso   1.000  Hf
  Hf61     1.0000 0.95771  0.80794  0.44798  Biso   1.000  Hf
  Hf62     1.0000 0.97043  0.82403  0.95906  Biso   1.000  Hf
  Hf63     1.0000 0.28890  0.12052  0.24819  Biso   1.000  Hf
  Hf64     1.0000 0.26642  0.11828  0.74860  Biso   1.000  Hf
  Hf65     1.0000 0.26807  0.61584  0.24960  Biso   1.000  Hf
  Hf66     1.0000 0.26618  0.61641  0.75018  Biso   1.000  Hf
  Hf67     1.0000 0.76860  0.11759  0.25214  Biso   1.000  Hf
  Hf68     1.0000 0.76402  0.11569  0.74942  Biso   1.000  Hf
  Hf69     1.0000 0.76717  0.61854  0.24922  Biso   1.000  Hf
  Hf70     1.0000 0.76501  0.61575  0.74910  Biso   1.000  Hf
  Hf71     1.0000 0.27688  0.11994  0.50766  Biso   1.000  Hf
  Hf72     1.0000 0.27094  0.13496  0.98892  Biso   1.000  Hf
  Hf73     1.0000 0.26539  0.63566  0.49956  Biso   1.000  Hf
  Hf74     1.0000 0.27159  0.62962  0.00020  Biso   1.000  Hf
  Hf75     1.0000 0.76177  0.13273  0.50306  Biso   1.000  Hf
  Hf76     1.0000 0.76596  0.12977  0.99835  Biso   1.000  Hf
  Hf77     1.0000 0.76475  0.63074  0.50044  Biso   1.000  Hf
  Hf78     1.0000 0.76459  0.63053  0.99808  Biso   1.000  Hf
  Hf79     1.0000 0.24039  0.39443  0.50626  Biso   1.000  Hf
  Hf80     1.0000 0.22365  0.38101  0.99592  Biso   1.000  Hf
  Hf81     1.0000 0.22304  0.88039  0.50010  Biso   1.000  Hf
  Hf82     1.0000 0.24191  0.86823  0.98784  Biso   1.000  Hf
  Hf83     1.0000 0.71400  0.38331  0.50152  Biso   1.000  Hf
  Hf84     1.0000 0.72318  0.38281  0.99858  Biso   1.000  Hf
  Hf85     1.0000 0.72316  0.87819  0.50417  Biso   1.000  Hf
  Hf86     1.0000 0.73414  0.88125  0.00105  Biso   1.000  Hf
  Hf87     1.0000 0.24001  0.37725  0.23950  Biso   1.000  Hf
  Hf88     1.0000 0.22621  0.36720  0.74790  Biso   1.000  Hf
  Hf89     1.0000 0.24234  0.85446  0.25625  Biso   1.000  Hf
  Hf90     1.0000 0.22487  0.86613  0.74727  Biso   1.000  Hf
  Hf91     1.0000 0.72830  0.37084  0.25077  Biso   1.000  Hf
  Hf92     1.0000 0.72451  0.36745  0.75186  Biso   1.000  Hf
  Hf93     1.0000 0.71535  0.86551  0.25182  Biso   1.000  Hf
  Hf94     1.0000 0.72474  0.86508  0.75064  Biso   1.000  Hf
