data_image0
_cell_length_a       10.0922
_cell_length_b       10.3299
_cell_length_c       10.4603
_cell_angle_alpha    90
_cell_angle_beta     90
_cell_angle_gamma    90

_symmetry_space_group_name_H-M    "P 1"
_symmetry_int_tables_number       1

loop_
  _symmetry_equiv_pos_as_xyz
  'x, y, z'

loop_
  _atom_site_label
  _atom_site_occupancy
  _atom_site_fract_x
  _atom_site_fract_y
  _atom_site_fract_z
  _atom_site_thermal_displace_type
  _atom_site_B_iso_or_equiv
  _atom_site_type_symbol
  La1      1.0000 0.13429  0.00881  0.15453  Biso   1.000  La
  Hf1      1.0000 0.13309  0.02021  0.66915  Biso   1.000  Hf
  Hf2      1.0000 0.13465  0.52079  0.17070  Biso   1.000  Hf
  Hf3      1.0000 0.13202  0.51964  0.67260  Biso   1.000  Hf
  Hf4      1.0000 0.13875  0.23335  0.42398  Biso   1.000  Hf
  Hf5      1.0000 0.12860  0.23243  0.91785  Biso   1.000  Hf
  Hf6      1.0000 0.13482  0.72432  0.42302  Biso   1.000  Hf
  Hf7      1.0000 0.13053  0.72629  0.91877  Biso   1.000  Hf
  Hf8      1.0000 0.35575  0.27107  0.16784  Biso   1.000  Hf
  Hf9      1.0000 0.35555  0.26984  0.67266  Biso   1.000  Hf
  Hf10     1.0000 0.36338  0.76601  0.16996  Biso   1.000  Hf
  Hf11     1.0000 0.35107  0.76986  0.67049  Biso   1.000  Hf
  Hf12     1.0000 0.35522  0.47960  0.42083  Biso   1.000  Hf
  Hf13     1.0000 0.35239  0.47844  0.92187  Biso   1.000  Hf
  Hf14     1.0000 0.35024  0.97823  0.42001  Biso   1.000  Hf
  Hf15     1.0000 0.35555  0.97978  0.91626  Biso   1.000  Hf
  Hf16     1.0000 0.64222  0.02137  0.07997  Biso   1.000  Hf
  Hf17     1.0000 0.62892  0.01901  0.58371  Biso   1.000  Hf
  Hf18     1.0000 0.63722  0.51998  0.07915  Biso   1.000  Hf
  Hf19     1.0000 0.63208  0.52035  0.57809  Biso   1.000  Hf
  Hf20     1.0000 0.62907  0.23359  0.33002  Biso   1.000  Hf
  Hf21     1.0000 0.63339  0.22894  0.82947  Biso   1.000  Hf
  Hf22     1.0000 0.63669  0.72851  0.33215  Biso   1.000  Hf
  Hf23     1.0000 0.62891  0.72896  0.82730  Biso   1.000  Hf
  Hf24     1.0000 0.85763  0.27530  0.07697  Biso   1.000  Hf
  Hf25     1.0000 0.85395  0.27250  0.58118  Biso   1.000  Hf
  Hf26     1.0000 0.85370  0.76624  0.07599  Biso   1.000  Hf
  Hf27     1.0000 0.85588  0.76635  0.58211  Biso   1.000  Hf
  Hf28     1.0000 0.85780  0.47881  0.32928  Biso   1.000  Hf
  Hf29     1.0000 0.85245  0.47915  0.82736  Biso   1.000  Hf
  La2      1.0000 0.85811  0.99078  0.34543  Biso   1.000  La
  Hf30     1.0000 0.85138  0.97859  0.83082  Biso   1.000  Hf
  Hf31     1.0000 0.03383  0.19184  0.08544  Biso   1.000  Hf
  Hf32     1.0000 0.02854  0.17409  0.59289  Biso   1.000  Hf
  Hf33     1.0000 0.03625  0.68037  0.09268  Biso   1.000  Hf
  Hf34     1.0000 0.03234  0.67051  0.59655  Biso   1.000  Hf
  Hf35     1.0000 0.06872  0.06420  0.36473  Biso   1.000  Hf
  Hf36     1.0000 0.03137  0.07528  0.84142  Biso   1.000  Hf
  Hf37     1.0000 0.03563  0.57081  0.34213  Biso   1.000  Hf
  Hf38     1.0000 0.02787  0.57411  0.84120  Biso   1.000  Hf
  Hf39     1.0000 0.46622  0.41379  0.08239  Biso   1.000  Hf
  Hf40     1.0000 0.46296  0.41224  0.58186  Biso   1.000  Hf
  Hf41     1.0000 0.46685  0.91719  0.08375  Biso   1.000  Hf
  Hf42     1.0000 0.45453  0.91497  0.58389  Biso   1.000  Hf
  Hf43     1.0000 0.46096  0.33854  0.33166  Biso   1.000  Hf
  Hf44     1.0000 0.46082  0.33495  0.83361  Biso   1.000  Hf
  Hf45     1.0000 0.46732  0.83637  0.33286  Biso   1.000  Hf
  Hf46     1.0000 0.45960  0.83572  0.82976  Biso   1.000  Hf
  Hf47     1.0000 0.28433  0.12973  0.29808  Biso   1.000  Hf
  Hf48     1.0000 0.26830  0.12380  0.79110  Biso   1.000  Hf
  Hf49     1.0000 0.27492  0.61880  0.29343  Biso   1.000  Hf
  Hf50     1.0000 0.26791  0.62395  0.79535  Biso   1.000  Hf
  Hf51     1.0000 0.28457  0.13416  0.03196  Biso   1.000  Hf
  Hf52     1.0000 0.27194  0.12590  0.54657  Biso   1.000  Hf
  Hf53     1.0000 0.27246  0.61963  0.04575  Biso   1.000  Hf
  Hf54     1.0000 0.27060  0.62316  0.54598  Biso   1.000  Hf
  Hf55     1.0000 0.21824  0.37295  0.29305  Biso   1.000  Hf
  Hf56     1.0000 0.21778  0.37362  0.79423  Biso   1.000  Hf
  Hf57     1.0000 0.22895  0.85847  0.29737  Biso   1.000  Hf
  Hf58     1.0000 0.21417  0.87310  0.79000  Biso   1.000  Hf
  Hf59     1.0000 0.22089  0.37847  0.04303  Biso   1.000  Hf
  Hf60     1.0000 0.21976  0.37704  0.54619  Biso   1.000  Hf
  Hf61     1.0000 0.24318  0.86001  0.02960  Biso   1.000  Hf
  Hf62     1.0000 0.21464  0.87475  0.54423  Biso   1.000  Hf
  Hf63     1.0000 0.52511  0.16322  0.16712  Biso   1.000  Hf
  Hf64     1.0000 0.52487  0.16307  0.67020  Biso   1.000  Hf
  Hf65     1.0000 0.53149  0.66105  0.16833  Biso   1.000  Hf
  Hf66     1.0000 0.52364  0.66383  0.66635  Biso   1.000  Hf
  Hf67     1.0000 0.52559  0.08241  0.41624  Biso   1.000  Hf
  Hf68     1.0000 0.52996  0.08383  0.91606  Biso   1.000  Hf
  Hf69     1.0000 0.52621  0.58579  0.41760  Biso   1.000  Hf
  Hf70     1.0000 0.52153  0.58655  0.91810  Biso   1.000  Hf
  Hf71     1.0000 0.95684  0.42882  0.15784  Biso   1.000  Hf
  Hf72     1.0000 0.95660  0.42466  0.65878  Biso   1.000  Hf
  Hf73     1.0000 0.92365  0.93548  0.13518  Biso   1.000  Hf
  Hf74     1.0000 0.95310  0.92349  0.65858  Biso   1.000  Hf
  Hf75     1.0000 0.95622  0.31927  0.40732  Biso   1.000  Hf
  Hf76     1.0000 0.95212  0.32827  0.90342  Biso   1.000  Hf
  Hf77     1.0000 0.95863  0.80779  0.41457  Biso   1.000  Hf
  Hf78     1.0000 0.95591  0.82468  0.90707  Biso   1.000  Hf
  Hf79     1.0000 0.76984  0.12406  0.95574  Biso   1.000  Hf
  Hf80     1.0000 0.74927  0.13958  0.47039  Biso   1.000  Hf
  Hf81     1.0000 0.76471  0.62176  0.95376  Biso   1.000  Hf
  Hf82     1.0000 0.77155  0.62111  0.45694  Biso   1.000  Hf
  Hf83     1.0000 0.76348  0.14114  0.20261  Biso   1.000  Hf
  Hf84     1.0000 0.77031  0.12570  0.70996  Biso   1.000  Hf
  Hf85     1.0000 0.77420  0.62664  0.20692  Biso   1.000  Hf
  Hf86     1.0000 0.76670  0.62517  0.70573  Biso   1.000  Hf
  Hf87     1.0000 0.71388  0.37564  0.95397  Biso   1.000  Hf
  Hf88     1.0000 0.71997  0.37997  0.45422  Biso   1.000  Hf
  Hf89     1.0000 0.71253  0.87288  0.95338  Biso   1.000  Hf
  Hf90     1.0000 0.70786  0.86542  0.46803  Biso   1.000  Hf
  Hf91     1.0000 0.71753  0.38080  0.20656  Biso   1.000  Hf
  Hf92     1.0000 0.71656  0.37484  0.70461  Biso   1.000  Hf
  Hf93     1.0000 0.70811  0.86985  0.20190  Biso   1.000  Hf
  Hf94     1.0000 0.71617  0.87500  0.70885  Biso   1.000  Hf
