data_image0
_cell_length_a       10.0306
_cell_length_b       10.4199
_cell_length_c       10.0991
_cell_angle_alpha    90
_cell_angle_beta     90
_cell_angle_gamma    90

_symmetry_space_group_name_H-M    "P 1"
_symmetry_int_tables_number       1

loop_
  _symmetry_equiv_pos_as_xyz
  'x, y, z'

loop_
  _atom_site_label
  _atom_site_occupancy
  _atom_site_fract_x
  _atom_site_fract_y
  _atom_site_fract_z
  _atom_site_thermal_displace_type
  _atom_site_B_iso_or_equiv
  _atom_site_type_symbol
  La1      1.0000 0.12369  0.00481  0.11841  Biso   1.000  La
  Hf1      1.0000 0.12727  0.01396  0.62621  Biso   1.000  Hf
  Hf2      1.0000 0.13164  0.51349  0.12609  Biso   1.000  Hf
  Hf3      1.0000 0.12840  0.51197  0.62725  Biso   1.000  Hf
  La2      1.0000 0.62369  0.00481  0.11841  Biso   1.000  La
  Hf4      1.0000 0.62727  0.01396  0.62621  Biso   1.000  Hf
  Hf5      1.0000 0.63164  0.51349  0.12609  Biso   1.000  Hf
  Hf6      1.0000 0.62839  0.51196  0.62726  Biso   1.000  Hf
  Hf7      1.0000 0.12982  0.23133  0.37672  Biso   1.000  Hf
  Hf8      1.0000 0.12884  0.23176  0.87021  Biso   1.000  Hf
  Hf9      1.0000 0.12791  0.72815  0.38182  Biso   1.000  Hf
  Hf10     1.0000 0.13116  0.72583  0.87541  Biso   1.000  Hf
  Hf11     1.0000 0.62980  0.23133  0.37672  Biso   1.000  Hf
  Hf12     1.0000 0.62885  0.23177  0.87021  Biso   1.000  Hf
  Hf13     1.0000 0.62791  0.72816  0.38182  Biso   1.000  Hf
  Hf14     1.0000 0.63115  0.72583  0.87540  Biso   1.000  Hf
  Hf15     1.0000 0.35948  0.26640  0.12895  Biso   1.000  Hf
  Hf16     1.0000 0.36118  0.26356  0.62327  Biso   1.000  Hf
  Hf17     1.0000 0.36354  0.75822  0.13003  Biso   1.000  Hf
  Hf18     1.0000 0.36058  0.76165  0.62501  Biso   1.000  Hf
  Hf19     1.0000 0.85947  0.26640  0.12896  Biso   1.000  Hf
  Hf20     1.0000 0.86118  0.26356  0.62326  Biso   1.000  Hf
  Hf21     1.0000 0.86353  0.75821  0.13002  Biso   1.000  Hf
  Hf22     1.0000 0.86058  0.76165  0.62501  Biso   1.000  Hf
  Hf23     1.0000 0.36036  0.48026  0.37725  Biso   1.000  Hf
  Hf24     1.0000 0.35997  0.47644  0.87765  Biso   1.000  Hf
  Hf25     1.0000 0.35727  0.98086  0.38091  Biso   1.000  Hf
  Hf26     1.0000 0.36056  0.97853  0.86833  Biso   1.000  Hf
  Hf27     1.0000 0.86036  0.48027  0.37725  Biso   1.000  Hf
  Hf28     1.0000 0.85997  0.47645  0.87764  Biso   1.000  Hf
  Hf29     1.0000 0.85727  0.98086  0.38091  Biso   1.000  Hf
  Hf30     1.0000 0.86055  0.97854  0.86832  Biso   1.000  Hf
  Hf31     1.0000 0.02960  0.19647  0.19981  Biso   1.000  Hf
  Hf32     1.0000 0.03450  0.18597  0.68303  Biso   1.000  Hf
  Hf33     1.0000 0.03423  0.68114  0.19929  Biso   1.000  Hf
  Hf34     1.0000 0.02973  0.67941  0.69670  Biso   1.000  Hf
  Hf35     1.0000 0.52959  0.19647  0.19981  Biso   1.000  Hf
  Hf36     1.0000 0.53449  0.18596  0.68304  Biso   1.000  Hf
  Hf37     1.0000 0.53423  0.68115  0.19929  Biso   1.000  Hf
  Hf38     1.0000 0.52972  0.67940  0.69670  Biso   1.000  Hf
  Hf39     1.0000 0.03043  0.06181  0.44180  Biso   1.000  Hf
  Hf40     1.0000 0.03059  0.06687  0.91040  Biso   1.000  Hf
  Hf41     1.0000 0.02919  0.56168  0.44901  Biso   1.000  Hf
  Hf42     1.0000 0.02590  0.56455  0.94723  Biso   1.000  Hf
  Hf43     1.0000 0.53042  0.06181  0.44181  Biso   1.000  Hf
  Hf44     1.0000 0.53058  0.06689  0.91043  Biso   1.000  Hf
  Hf45     1.0000 0.52918  0.56170  0.44902  Biso   1.000  Hf
  Hf46     1.0000 0.52589  0.56455  0.94724  Biso   1.000  Hf
  Hf47     1.0000 0.45936  0.43620  0.19594  Biso   1.000  Hf
  Hf48     1.0000 0.46090  0.42965  0.69844  Biso   1.000  Hf
  Hf49     1.0000 0.43643  0.92973  0.20308  Biso   1.000  Hf
  Hf50     1.0000 0.45680  0.92898  0.69008  Biso   1.000  Hf
  Hf51     1.0000 0.95937  0.43619  0.19593  Biso   1.000  Hf
  Hf52     1.0000 0.96090  0.42965  0.69843  Biso   1.000  Hf
  Hf53     1.0000 0.93642  0.92973  0.20306  Biso   1.000  Hf
  Hf54     1.0000 0.95679  0.92898  0.69006  Biso   1.000  Hf
  Hf55     1.0000 0.45824  0.31488  0.44533  Biso   1.000  Hf
  Hf56     1.0000 0.46055  0.31372  0.94739  Biso   1.000  Hf
  Hf57     1.0000 0.45930  0.81204  0.44883  Biso   1.000  Hf
  Hf58     1.0000 0.47622  0.82198  0.95828  Biso   1.000  Hf
  Hf59     1.0000 0.95824  0.31489  0.44532  Biso   1.000  Hf
  Hf60     1.0000 0.96055  0.31372  0.94738  Biso   1.000  Hf
  Hf61     1.0000 0.95930  0.81205  0.44882  Biso   1.000  Hf
  Hf62     1.0000 0.97621  0.82198  0.95828  Biso   1.000  Hf
  Hf63     1.0000 0.27407  0.12596  0.25871  Biso   1.000  Hf
  Hf64     1.0000 0.26673  0.11464  0.74612  Biso   1.000  Hf
  Hf65     1.0000 0.26597  0.61064  0.25054  Biso   1.000  Hf
  Hf66     1.0000 0.26561  0.61213  0.75034  Biso   1.000  Hf
  Hf67     1.0000 0.77407  0.12597  0.25871  Biso   1.000  Hf
  Hf68     1.0000 0.76673  0.11464  0.74612  Biso   1.000  Hf
  Hf69     1.0000 0.76596  0.61063  0.25053  Biso   1.000  Hf
  Hf70     1.0000 0.76561  0.61213  0.75033  Biso   1.000  Hf
  Hf71     1.0000 0.26243  0.12901  0.50289  Biso   1.000  Hf
  Hf72     1.0000 0.27106  0.13060  0.99132  Biso   1.000  Hf
  Hf73     1.0000 0.26470  0.62802  0.50121  Biso   1.000  Hf
  Hf74     1.0000 0.27114  0.62705  0.00065  Biso   1.000  Hf
  Hf75     1.0000 0.76242  0.12901  0.50289  Biso   1.000  Hf
  Hf76     1.0000 0.77107  0.13059  0.99132  Biso   1.000  Hf
  Hf77     1.0000 0.76470  0.62803  0.50120  Biso   1.000  Hf
  Hf78     1.0000 0.77113  0.62705  0.00065  Biso   1.000  Hf
  Hf79     1.0000 0.22450  0.38005  0.50024  Biso   1.000  Hf
  Hf80     1.0000 0.22136  0.37685  0.99928  Biso   1.000  Hf
  Hf81     1.0000 0.22235  0.87866  0.50275  Biso   1.000  Hf
  Hf82     1.0000 0.24154  0.86128  0.98977  Biso   1.000  Hf
  Hf83     1.0000 0.72450  0.38007  0.50024  Biso   1.000  Hf
  Hf84     1.0000 0.72136  0.37684  0.99927  Biso   1.000  Hf
  Hf85     1.0000 0.72235  0.87867  0.50274  Biso   1.000  Hf
  Hf86     1.0000 0.74153  0.86127  0.98977  Biso   1.000  Hf
  Hf87     1.0000 0.22340  0.36832  0.25077  Biso   1.000  Hf
  Hf88     1.0000 0.22657  0.36466  0.74834  Biso   1.000  Hf
  Hf89     1.0000 0.22893  0.84931  0.25861  Biso   1.000  Hf
  Hf90     1.0000 0.22346  0.86296  0.74743  Biso   1.000  Hf
  Hf91     1.0000 0.72339  0.36832  0.25076  Biso   1.000  Hf
  Hf92     1.0000 0.72657  0.36465  0.74832  Biso   1.000  Hf
  Hf93     1.0000 0.72893  0.84930  0.25861  Biso   1.000  Hf
  Hf94     1.0000 0.72346  0.86295  0.74742  Biso   1.000  Hf
