data_image0
_cell_length_a       10.0931
_cell_length_b       10.2656
_cell_length_c       10.0931
_cell_angle_alpha    90
_cell_angle_beta     90
_cell_angle_gamma    90

_symmetry_space_group_name_H-M    "P 1"
_symmetry_int_tables_number       1

loop_
  _symmetry_equiv_pos_as_xyz
  'x, y, z'

loop_
  _atom_site_label
  _atom_site_occupancy
  _atom_site_fract_x
  _atom_site_fract_y
  _atom_site_fract_z
  _atom_site_thermal_displace_type
  _atom_site_B_iso_or_equiv
  _atom_site_type_symbol
  La1      1.0000 0.12563  0.00036  0.12562  Biso   1.000  La
  Hf1      1.0000 0.12567  0.00024  0.62569  Biso   1.000  Hf
  Hf2      1.0000 0.12558  0.50041  0.12570  Biso   1.000  Hf
  Hf3      1.0000 0.12552  0.50029  0.62564  Biso   1.000  Hf
  Hf4      1.0000 0.62571  0.00038  0.12567  Biso   1.000  Hf
  La2      1.0000 0.62564  0.00023  0.62563  Biso   1.000  La
  Hf5      1.0000 0.62552  0.50042  0.12565  Biso   1.000  Hf
  Hf6      1.0000 0.62551  0.50024  0.62564  Biso   1.000  Hf
  Hf7      1.0000 0.12364  0.25307  0.37703  Biso   1.000  Hf
  Hf8      1.0000 0.12741  0.25300  0.87425  Biso   1.000  Hf
  Hf9      1.0000 0.12732  0.74748  0.37706  Biso   1.000  Hf
  Hf10     1.0000 0.12351  0.74737  0.87424  Biso   1.000  Hf
  Hf11     1.0000 0.62741  0.25314  0.37418  Biso   1.000  Hf
  Hf12     1.0000 0.62363  0.25295  0.87702  Biso   1.000  Hf
  Hf13     1.0000 0.62356  0.74752  0.37423  Biso   1.000  Hf
  Hf14     1.0000 0.62733  0.74728  0.87704  Biso   1.000  Hf
  Hf15     1.0000 0.37696  0.25316  0.12370  Biso   1.000  Hf
  Hf16     1.0000 0.37411  0.25308  0.62745  Biso   1.000  Hf
  Hf17     1.0000 0.37687  0.74754  0.12751  Biso   1.000  Hf
  Hf18     1.0000 0.37400  0.74744  0.62374  Biso   1.000  Hf
  Hf19     1.0000 0.87420  0.25322  0.12747  Biso   1.000  Hf
  Hf20     1.0000 0.87696  0.25302  0.62367  Biso   1.000  Hf
  Hf21     1.0000 0.87406  0.74758  0.12372  Biso   1.000  Hf
  Hf22     1.0000 0.87683  0.74735  0.62753  Biso   1.000  Hf
  Hf23     1.0000 0.37566  0.00469  0.37566  Biso   1.000  Hf
  Hf24     1.0000 0.37556  0.99579  0.87583  Biso   1.000  Hf
  Hf25     1.0000 0.37551  0.49805  0.37564  Biso   1.000  Hf
  Hf26     1.0000 0.37555  0.50235  0.87569  Biso   1.000  Hf
  Hf27     1.0000 0.87556  0.99596  0.37585  Biso   1.000  Hf
  Hf28     1.0000 0.87566  0.00445  0.87562  Biso   1.000  Hf
  Hf29     1.0000 0.87558  0.50252  0.37569  Biso   1.000  Hf
  Hf30     1.0000 0.87553  0.49781  0.87567  Biso   1.000  Hf
  Hf31     1.0000 0.99754  0.15407  0.99755  Biso   1.000  Hf
  Hf32     1.0000 0.01430  0.15246  0.51435  Biso   1.000  Hf
  Hf33     1.0000 0.00575  0.64407  0.00594  Biso   1.000  Hf
  Hf34     1.0000 0.00537  0.64665  0.50558  Biso   1.000  Hf
  Hf35     1.0000 0.51433  0.15262  0.01435  Biso   1.000  Hf
  Hf36     1.0000 0.49749  0.15428  0.49752  Biso   1.000  Hf
  Hf37     1.0000 0.50540  0.64678  0.00554  Biso   1.000  Hf
  Hf38     1.0000 0.50572  0.64399  0.50588  Biso   1.000  Hf
  Hf39     1.0000 0.98587  0.11870  0.26511  Biso   1.000  Hf
  Hf40     1.0000 0.99740  0.09962  0.75360  Biso   1.000  Hf
  Hf41     1.0000 0.99810  0.60185  0.25314  Biso   1.000  Hf
  Hf42     1.0000 0.99754  0.60148  0.75365  Biso   1.000  Hf
  Hf43     1.0000 0.49742  0.09979  0.25357  Biso   1.000  Hf
  Hf44     1.0000 0.48587  0.11854  0.76511  Biso   1.000  Hf
  Hf45     1.0000 0.49757  0.60162  0.25366  Biso   1.000  Hf
  Hf46     1.0000 0.49810  0.60163  0.75313  Biso   1.000  Hf
  Hf47     1.0000 0.00571  0.35671  0.24548  Biso   1.000  Hf
  Hf48     1.0000 0.00531  0.35373  0.74585  Biso   1.000  Hf
  Hf49     1.0000 0.99745  0.84630  0.25365  Biso   1.000  Hf
  Hf50     1.0000 0.01431  0.84782  0.73676  Biso   1.000  Hf
  Hf51     1.0000 0.50535  0.35385  0.24580  Biso   1.000  Hf
  Hf52     1.0000 0.50570  0.35649  0.74547  Biso   1.000  Hf
  Hf53     1.0000 0.51438  0.84795  0.23675  Biso   1.000  Hf
  Hf54     1.0000 0.49739  0.84612  0.75369  Biso   1.000  Hf
  Hf55     1.0000 0.99817  0.39860  0.99824  Biso   1.000  Hf
  Hf56     1.0000 0.99757  0.39887  0.49771  Biso   1.000  Hf
  Hf57     1.0000 0.98577  0.88173  0.98600  Biso   1.000  Hf
  Hf58     1.0000 0.99742  0.90063  0.49757  Biso   1.000  Hf
  Hf59     1.0000 0.49764  0.39874  0.99768  Biso   1.000  Hf
  Hf60     1.0000 0.49812  0.39879  0.49821  Biso   1.000  Hf
  Hf61     1.0000 0.49734  0.90049  0.99766  Biso   1.000  Hf
  Hf62     1.0000 0.48576  0.88193  0.48601  Biso   1.000  Hf
  Hf63     1.0000 0.25356  0.15438  0.25360  Biso   1.000  Hf
  Hf64     1.0000 0.23652  0.15276  0.73657  Biso   1.000  Hf
  Hf65     1.0000 0.24533  0.64396  0.24550  Biso   1.000  Hf
  Hf66     1.0000 0.24564  0.64676  0.74583  Biso   1.000  Hf
  Hf67     1.0000 0.73654  0.15291  0.23654  Biso   1.000  Hf
  Hf68     1.0000 0.75354  0.15429  0.75356  Biso   1.000  Hf
  Hf69     1.0000 0.74567  0.64691  0.24581  Biso   1.000  Hf
  Hf70     1.0000 0.74530  0.64387  0.74546  Biso   1.000  Hf
  Hf71     1.0000 0.26512  0.11850  0.98590  Biso   1.000  Hf
  Hf72     1.0000 0.25353  0.09974  0.49744  Biso   1.000  Hf
  Hf73     1.0000 0.25300  0.60163  0.99825  Biso   1.000  Hf
  Hf74     1.0000 0.25348  0.60157  0.49773  Biso   1.000  Hf
  Hf75     1.0000 0.75361  0.09954  0.99741  Biso   1.000  Hf
  Hf76     1.0000 0.76506  0.11862  0.48588  Biso   1.000  Hf
  Hf77     1.0000 0.75351  0.60142  0.99770  Biso   1.000  Hf
  Hf78     1.0000 0.75295  0.60172  0.49826  Biso   1.000  Hf
  Hf79     1.0000 0.24537  0.35676  0.00579  Biso   1.000  Hf
  Hf80     1.0000 0.24570  0.35379  0.50543  Biso   1.000  Hf
  Hf81     1.0000 0.25345  0.84606  0.99768  Biso   1.000  Hf
  Hf82     1.0000 0.23653  0.84788  0.51461  Biso   1.000  Hf
  Hf83     1.0000 0.74575  0.35393  0.00541  Biso   1.000  Hf
  Hf84     1.0000 0.74537  0.35658  0.50581  Biso   1.000  Hf
  Hf85     1.0000 0.73652  0.84801  0.01456  Biso   1.000  Hf
  Hf86     1.0000 0.75346  0.84621  0.49764  Biso   1.000  Hf
  Hf87     1.0000 0.25293  0.39883  0.25302  Biso   1.000  Hf
  Hf88     1.0000 0.25345  0.39897  0.75357  Biso   1.000  Hf
  Hf89     1.0000 0.26502  0.88192  0.26525  Biso   1.000  Hf
  Hf90     1.0000 0.25350  0.90092  0.75379  Biso   1.000  Hf
  Hf91     1.0000 0.75348  0.39913  0.25358  Biso   1.000  Hf
  Hf92     1.0000 0.75290  0.39874  0.75301  Biso   1.000  Hf
  Hf93     1.0000 0.75356  0.90109  0.25377  Biso   1.000  Hf
  Hf94     1.0000 0.76496  0.88182  0.76521  Biso   1.000  Hf
