data_image0
_cell_length_a       10.1697
_cell_length_b       10.3125
_cell_length_c       10.4718
_cell_angle_alpha    90
_cell_angle_beta     80
_cell_angle_gamma    90

_symmetry_space_group_name_H-M    "P 1"
_symmetry_int_tables_number       1

loop_
  _symmetry_equiv_pos_as_xyz
  'x, y, z'

loop_
  _atom_site_label
  _atom_site_occupancy
  _atom_site_fract_x
  _atom_site_fract_y
  _atom_site_fract_z
  _atom_site_thermal_displace_type
  _atom_site_B_iso_or_equiv
  _atom_site_type_symbol
  La1      1.0000 0.13011  0.00414  0.13803  Biso   1.000  La
  Hf1      1.0000 0.12581  0.02056  0.64800  Biso   1.000  Hf
  Hf2      1.0000 0.13921  0.52454  0.14651  Biso   1.000  Hf
  Hf3      1.0000 0.12656  0.52496  0.64566  Biso   1.000  Hf
  Hf4      1.0000 0.62999  0.01543  0.14804  Biso   1.000  Hf
  Hf5      1.0000 0.62670  0.02364  0.65048  Biso   1.000  Hf
  Hf6      1.0000 0.64147  0.51393  0.14737  Biso   1.000  Hf
  Hf7      1.0000 0.63080  0.52206  0.64860  Biso   1.000  Hf
  Hf8      1.0000 0.12898  0.23054  0.39671  Biso   1.000  Hf
  Hf9      1.0000 0.13931  0.23901  0.87677  Biso   1.000  Hf
  Hf10     1.0000 0.13446  0.73008  0.39792  Biso   1.000  Hf
  Hf11     1.0000 0.12575  0.72896  0.89669  Biso   1.000  Hf
  Hf12     1.0000 0.62697  0.22962  0.39995  Biso   1.000  Hf
  Hf13     1.0000 0.62161  0.22993  0.90155  Biso   1.000  Hf
  Hf14     1.0000 0.62890  0.72657  0.39866  Biso   1.000  Hf
  Hf15     1.0000 0.63094  0.72745  0.89791  Biso   1.000  Hf
  Hf16     1.0000 0.35913  0.26998  0.10564  Biso   1.000  Hf
  Hf17     1.0000 0.35293  0.27417  0.59982  Biso   1.000  Hf
  Hf18     1.0000 0.37204  0.76394  0.10148  Biso   1.000  Hf
  Hf19     1.0000 0.35299  0.77218  0.60593  Biso   1.000  Hf
  La2      1.0000 0.87689  0.25429  0.11574  Biso   1.000  La
  Hf20     1.0000 0.84963  0.27307  0.60790  Biso   1.000  Hf
  Hf21     1.0000 0.85859  0.76750  0.10687  Biso   1.000  Hf
  Hf22     1.0000 0.85261  0.77461  0.60666  Biso   1.000  Hf
  Hf23     1.0000 0.35423  0.48062  0.35314  Biso   1.000  Hf
  Hf24     1.0000 0.35281  0.48179  0.85438  Biso   1.000  Hf
  Hf25     1.0000 0.35637  0.98038  0.35630  Biso   1.000  Hf
  Hf26     1.0000 0.35471  0.97658  0.85373  Biso   1.000  Hf
  Hf27     1.0000 0.85698  0.48404  0.35870  Biso   1.000  Hf
  Hf28     1.0000 0.85039  0.47496  0.85912  Biso   1.000  Hf
  Hf29     1.0000 0.84678  0.98148  0.35913  Biso   1.000  Hf
  Hf30     1.0000 0.84999  0.97800  0.86007  Biso   1.000  Hf
  Hf31     1.0000 0.02405  0.16986  0.58384  Biso   1.000  Hf
  Hf32     1.0000 0.04563  0.68563  0.08724  Biso   1.000  Hf
  Hf33     1.0000 0.02735  0.67483  0.58353  Biso   1.000  Hf
  Hf34     1.0000 0.53105  0.16603  0.07955  Biso   1.000  Hf
  Hf35     1.0000 0.52260  0.16840  0.58141  Biso   1.000  Hf
  Hf36     1.0000 0.54326  0.66298  0.07728  Biso   1.000  Hf
  Hf37     1.0000 0.52625  0.66859  0.58352  Biso   1.000  Hf
  Hf38     1.0000 0.00608  0.10564  0.32193  Biso   1.000  Hf
  Hf39     1.0000 0.02322  0.08080  0.85000  Biso   1.000  Hf
  Hf40     1.0000 0.03437  0.58442  0.33499  Biso   1.000  Hf
  Hf41     1.0000 0.02520  0.57856  0.83412  Biso   1.000  Hf
  Hf42     1.0000 0.51868  0.08346  0.33242  Biso   1.000  Hf
  Hf43     1.0000 0.51883  0.08442  0.83079  Biso   1.000  Hf
  Hf44     1.0000 0.52949  0.58055  0.32987  Biso   1.000  Hf
  Hf45     1.0000 0.52491  0.58105  0.83196  Biso   1.000  Hf
  Hf46     1.0000 0.46253  0.41659  0.17099  Biso   1.000  Hf
  Hf47     1.0000 0.45675  0.41923  0.67096  Biso   1.000  Hf
  Hf48     1.0000 0.46085  0.91759  0.17023  Biso   1.000  Hf
  Hf49     1.0000 0.45672  0.91876  0.67300  Biso   1.000  Hf
  Hf50     1.0000 0.96260  0.43845  0.17337  Biso   1.000  Hf
  Hf51     1.0000 0.95336  0.42164  0.67178  Biso   1.000  Hf
  Hf52     1.0000 0.92448  0.93992  0.16298  Biso   1.000  Hf
  Hf53     1.0000 0.95495  0.92310  0.67474  Biso   1.000  Hf
  Hf54     1.0000 0.45440  0.33222  0.42032  Biso   1.000  Hf
  Hf55     1.0000 0.44505  0.33230  0.92424  Biso   1.000  Hf
  Hf56     1.0000 0.45607  0.83076  0.42393  Biso   1.000  Hf
  Hf57     1.0000 0.46170  0.83285  0.92151  Biso   1.000  Hf
  Hf58     1.0000 0.95618  0.33716  0.42506  Biso   1.000  Hf
  Hf59     1.0000 0.96157  0.32866  0.91437  Biso   1.000  Hf
  Hf60     1.0000 0.96159  0.83881  0.41828  Biso   1.000  Hf
  Hf61     1.0000 0.95056  0.82919  0.92378  Biso   1.000  Hf
  Hf62     1.0000 0.27078  0.13456  0.24632  Biso   1.000  Hf
  Hf63     1.0000 0.26427  0.13067  0.73439  Biso   1.000  Hf
  Hf64     1.0000 0.27693  0.62699  0.23961  Biso   1.000  Hf
  Hf65     1.0000 0.26469  0.63054  0.74133  Biso   1.000  Hf
  Hf66     1.0000 0.74783  0.12028  0.25678  Biso   1.000  Hf
  Hf67     1.0000 0.76254  0.13074  0.74563  Biso   1.000  Hf
  Hf68     1.0000 0.77167  0.62892  0.24339  Biso   1.000  Hf
  Hf69     1.0000 0.76793  0.63027  0.74325  Biso   1.000  Hf
  Hf70     1.0000 0.26172  0.12160  0.49186  Biso   1.000  Hf
  Hf71     1.0000 0.25273  0.12954  0.98345  Biso   1.000  Hf
  Hf72     1.0000 0.26847  0.62280  0.49183  Biso   1.000  Hf
  Hf73     1.0000 0.26029  0.61545  0.99232  Biso   1.000  Hf
  Hf74     1.0000 0.76366  0.12339  0.49777  Biso   1.000  Hf
  Hf75     1.0000 0.74582  0.11035  0.99348  Biso   1.000  Hf
  Hf76     1.0000 0.76957  0.62465  0.49406  Biso   1.000  Hf
  Hf77     1.0000 0.76455  0.61777  0.99520  Biso   1.000  Hf
  Hf78     1.0000 0.21838  0.37371  0.00868  Biso   1.000  Hf
  Hf79     1.0000 0.21336  0.38237  0.50838  Biso   1.000  Hf
  Hf80     1.0000 0.22792  0.86520  0.99723  Biso   1.000  Hf
  Hf81     1.0000 0.21565  0.88213  0.51286  Biso   1.000  Hf
  Hf82     1.0000 0.72693  0.37709  0.00756  Biso   1.000  Hf
  Hf83     1.0000 0.71461  0.38098  0.51440  Biso   1.000  Hf
  Hf84     1.0000 0.72736  0.87199  0.01036  Biso   1.000  Hf
  Hf85     1.0000 0.71584  0.88080  0.51395  Biso   1.000  Hf
  Hf86     1.0000 0.21736  0.37302  0.25852  Biso   1.000  Hf
  Hf87     1.0000 0.21888  0.37619  0.75233  Biso   1.000  Hf
  Hf88     1.0000 0.22957  0.86137  0.26237  Biso   1.000  Hf
  Hf89     1.0000 0.21340  0.87239  0.75973  Biso   1.000  Hf
  Hf90     1.0000 0.71752  0.37400  0.26978  Biso   1.000  Hf
  Hf91     1.0000 0.71267  0.37151  0.76342  Biso   1.000  Hf
  Hf92     1.0000 0.70921  0.86584  0.26663  Biso   1.000  Hf
  Hf93     1.0000 0.71603  0.87191  0.76245  Biso   1.000  Hf
