data_image0
_cell_length_a       10.1004
_cell_length_b       10.2253
_cell_length_c       10.5656
_cell_angle_alpha    90
_cell_angle_beta     90
_cell_angle_gamma    90

_symmetry_space_group_name_H-M    "P 1"
_symmetry_int_tables_number       1

loop_
  _symmetry_equiv_pos_as_xyz
  'x, y, z'

loop_
  _atom_site_label
  _atom_site_occupancy
  _atom_site_fract_x
  _atom_site_fract_y
  _atom_site_fract_z
  _atom_site_thermal_displace_type
  _atom_site_B_iso_or_equiv
  _atom_site_type_symbol
  La1      1.0000 0.10709  0.00835  0.15751  Biso   1.000  La
  Hf1      1.0000 0.13410  0.01816  0.67013  Biso   1.000  Hf
  Hf2      1.0000 0.14211  0.51326  0.16891  Biso   1.000  Hf
  Hf3      1.0000 0.13547  0.52328  0.66741  Biso   1.000  Hf
  Hf4      1.0000 0.13752  0.22599  0.42029  Biso   1.000  Hf
  Hf5      1.0000 0.13616  0.24434  0.89463  Biso   1.000  Hf
  Hf6      1.0000 0.13538  0.72919  0.41813  Biso   1.000  Hf
  Hf7      1.0000 0.13525  0.72483  0.92343  Biso   1.000  Hf
  La2      1.0000 0.37379  0.24697  0.15537  Biso   1.000  La
  Hf8      1.0000 0.36032  0.27128  0.66424  Biso   1.000  Hf
  Hf9      1.0000 0.36477  0.77166  0.17276  Biso   1.000  Hf
  Hf10     1.0000 0.35959  0.77313  0.67123  Biso   1.000  Hf
  Hf11     1.0000 0.35652  0.47948  0.41912  Biso   1.000  Hf
  Hf12     1.0000 0.35932  0.48290  0.91877  Biso   1.000  Hf
  Hf13     1.0000 0.35958  0.97722  0.42046  Biso   1.000  Hf
  Hf14     1.0000 0.35685  0.97903  0.91895  Biso   1.000  Hf
  Hf15     1.0000 0.64478  0.01478  0.07299  Biso   1.000  Hf
  Hf16     1.0000 0.63253  0.01869  0.57752  Biso   1.000  Hf
  Hf17     1.0000 0.63741  0.52701  0.07639  Biso   1.000  Hf
  Hf18     1.0000 0.63573  0.52317  0.57739  Biso   1.000  Hf
  Hf19     1.0000 0.63317  0.23924  0.34682  Biso   1.000  Hf
  Hf20     1.0000 0.63133  0.22801  0.82569  Biso   1.000  Hf
  Hf21     1.0000 0.63882  0.72932  0.32862  Biso   1.000  Hf
  Hf22     1.0000 0.63702  0.72875  0.82517  Biso   1.000  Hf
  Hf23     1.0000 0.84036  0.27564  0.08277  Biso   1.000  Hf
  Hf24     1.0000 0.86203  0.26941  0.58226  Biso   1.000  Hf
  Hf25     1.0000 0.86392  0.76264  0.08120  Biso   1.000  Hf
  Hf26     1.0000 0.86106  0.76938  0.58148  Biso   1.000  Hf
  Hf27     1.0000 0.86596  0.47839  0.33088  Biso   1.000  Hf
  Hf28     1.0000 0.85859  0.47540  0.83045  Biso   1.000  Hf
  Hf29     1.0000 0.86140  0.97433  0.33559  Biso   1.000  Hf
  Hf30     1.0000 0.86384  0.97853  0.82940  Biso   1.000  Hf
  Hf31     1.0000 0.02914  0.16047  0.58531  Biso   1.000  Hf
  Hf32     1.0000 0.02917  0.64616  0.06955  Biso   1.000  Hf
  Hf33     1.0000 0.02494  0.65267  0.57313  Biso   1.000  Hf
  Hf34     1.0000 0.01842  0.08989  0.34509  Biso   1.000  Hf
  Hf35     1.0000 0.02416  0.09138  0.83314  Biso   1.000  Hf
  Hf36     1.0000 0.03069  0.59109  0.32211  Biso   1.000  Hf
  Hf37     1.0000 0.02484  0.59032  0.82409  Biso   1.000  Hf
  Hf38     1.0000 0.46897  0.43005  0.07839  Biso   1.000  Hf
  Hf39     1.0000 0.46659  0.41703  0.58292  Biso   1.000  Hf
  Hf40     1.0000 0.46622  0.93345  0.08955  Biso   1.000  Hf
  Hf41     1.0000 0.46748  0.91401  0.58323  Biso   1.000  Hf
  Hf42     1.0000 0.46999  0.33677  0.34495  Biso   1.000  Hf
  Hf43     1.0000 0.46165  0.33579  0.83066  Biso   1.000  Hf
  Hf44     1.0000 0.47083  0.83662  0.33290  Biso   1.000  Hf
  Hf45     1.0000 0.46867  0.84045  0.83092  Biso   1.000  Hf
  Hf46     1.0000 0.26720  0.11464  0.30218  Biso   1.000  Hf
  Hf47     1.0000 0.27142  0.12412  0.78204  Biso   1.000  Hf
  Hf48     1.0000 0.27753  0.61977  0.29046  Biso   1.000  Hf
  Hf49     1.0000 0.27055  0.62512  0.79247  Biso   1.000  Hf
  Hf50     1.0000 0.23774  0.12572  0.01473  Biso   1.000  Hf
  Hf51     1.0000 0.27241  0.12637  0.54326  Biso   1.000  Hf
  Hf52     1.0000 0.27655  0.62377  0.04499  Biso   1.000  Hf
  Hf53     1.0000 0.27237  0.62892  0.54209  Biso   1.000  Hf
  Hf54     1.0000 0.22010  0.37366  0.29705  Biso   1.000  Hf
  Hf55     1.0000 0.22690  0.37795  0.78403  Biso   1.000  Hf
  Hf56     1.0000 0.22930  0.86414  0.29746  Biso   1.000  Hf
  Hf57     1.0000 0.22303  0.87389  0.79430  Biso   1.000  Hf
  Hf58     1.0000 0.21633  0.38135  0.02777  Biso   1.000  Hf
  Hf59     1.0000 0.22284  0.37744  0.54298  Biso   1.000  Hf
  Hf60     1.0000 0.24463  0.86272  0.03630  Biso   1.000  Hf
  Hf61     1.0000 0.22408  0.87590  0.54573  Biso   1.000  Hf
  Hf62     1.0000 0.59533  0.17034  0.17417  Biso   1.000  Hf
  Hf63     1.0000 0.52984  0.16344  0.66685  Biso   1.000  Hf
  Hf64     1.0000 0.53727  0.67299  0.16403  Biso   1.000  Hf
  Hf65     1.0000 0.53039  0.66600  0.66707  Biso   1.000  Hf
  Hf66     1.0000 0.52686  0.08630  0.41853  Biso   1.000  Hf
  Hf67     1.0000 0.51678  0.09654  0.92728  Biso   1.000  Hf
  Hf68     1.0000 0.53180  0.58662  0.41675  Biso   1.000  Hf
  Hf69     1.0000 0.52790  0.59188  0.91540  Biso   1.000  Hf
  Hf70     1.0000 0.97190  0.39337  0.17519  Biso   1.000  Hf
  Hf71     1.0000 0.97199  0.40136  0.68238  Biso   1.000  Hf
  Hf72     1.0000 0.96527  0.85799  0.21010  Biso   1.000  Hf
  Hf73     1.0000 0.97303  0.90036  0.68470  Biso   1.000  Hf
  Hf74     1.0000 0.96915  0.34278  0.42902  Biso   1.000  Hf
  Hf75     1.0000 0.95704  0.32670  0.93387  Biso   1.000  Hf
  Hf76     1.0000 0.97330  0.84834  0.44109  Biso   1.000  Hf
  Hf77     1.0000 0.97757  0.85563  0.94634  Biso   1.000  Hf
  Hf78     1.0000 0.76473  0.12472  0.94661  Biso   1.000  Hf
  Hf79     1.0000 0.76980  0.12503  0.45517  Biso   1.000  Hf
  Hf80     1.0000 0.77139  0.62038  0.95238  Biso   1.000  Hf
  Hf81     1.0000 0.77590  0.62544  0.45486  Biso   1.000  Hf
  Hf82     1.0000 0.84360  0.10244  0.17255  Biso   1.000  Hf
  Hf83     1.0000 0.77164  0.12245  0.70286  Biso   1.000  Hf
  Hf84     1.0000 0.77528  0.62378  0.20525  Biso   1.000  Hf
  Hf85     1.0000 0.77334  0.62189  0.70608  Biso   1.000  Hf
  Hf86     1.0000 0.71134  0.37413  0.95634  Biso   1.000  Hf
  Hf87     1.0000 0.72824  0.37813  0.46156  Biso   1.000  Hf
  Hf88     1.0000 0.72759  0.86903  0.95261  Biso   1.000  Hf
  Hf89     1.0000 0.72449  0.87169  0.45728  Biso   1.000  Hf
  Hf90     1.0000 0.72551  0.37916  0.21272  Biso   1.000  Hf
  Hf91     1.0000 0.72367  0.37504  0.70789  Biso   1.000  Hf
  Hf92     1.0000 0.71979  0.88013  0.20617  Biso   1.000  Hf
  Hf93     1.0000 0.72512  0.87550  0.70506  Biso   1.000  Hf
