data_image0
_cell_length_a       10.0449
_cell_length_b       10.4218
_cell_length_c       10.0902
_cell_angle_alpha    90
_cell_angle_beta     90
_cell_angle_gamma    90

_symmetry_space_group_name_H-M    "P 1"
_symmetry_int_tables_number       1

loop_
  _symmetry_equiv_pos_as_xyz
  'x, y, z'

loop_
  _atom_site_label
  _atom_site_occupancy
  _atom_site_fract_x
  _atom_site_fract_y
  _atom_site_fract_z
  _atom_site_thermal_displace_type
  _atom_site_B_iso_or_equiv
  _atom_site_type_symbol
  La1      1.0000 0.12226  0.00628  0.12102  Biso   1.000  La
  Hf1      1.0000 0.13426  0.01583  0.62465  Biso   1.000  Hf
  Hf2      1.0000 0.13260  0.51736  0.12535  Biso   1.000  Hf
  Hf3      1.0000 0.13527  0.51685  0.62613  Biso   1.000  Hf
  Hf4      1.0000 0.63627  0.01671  0.12218  Biso   1.000  Hf
  Hf5      1.0000 0.63853  0.01735  0.63242  Biso   1.000  Hf
  Hf6      1.0000 0.63227  0.51578  0.12736  Biso   1.000  Hf
  Hf7      1.0000 0.63398  0.51469  0.62749  Biso   1.000  Hf
  Hf8      1.0000 0.13142  0.23888  0.37712  Biso   1.000  Hf
  Hf9      1.0000 0.13428  0.23542  0.87098  Biso   1.000  Hf
  Hf10     1.0000 0.13599  0.73181  0.37908  Biso   1.000  Hf
  Hf11     1.0000 0.13503  0.73339  0.87460  Biso   1.000  Hf
  Hf12     1.0000 0.63777  0.23566  0.37822  Biso   1.000  Hf
  Hf13     1.0000 0.63439  0.23456  0.87543  Biso   1.000  Hf
  Hf14     1.0000 0.63428  0.72976  0.38049  Biso   1.000  Hf
  Hf15     1.0000 0.63628  0.73009  0.87335  Biso   1.000  Hf
  Hf16     1.0000 0.36186  0.26830  0.12657  Biso   1.000  Hf
  Hf17     1.0000 0.36600  0.26630  0.62659  Biso   1.000  Hf
  Hf18     1.0000 0.36999  0.75874  0.11763  Biso   1.000  Hf
  Hf19     1.0000 0.36556  0.76573  0.62737  Biso   1.000  Hf
  Hf20     1.0000 0.85983  0.26951  0.12577  Biso   1.000  Hf
  Hf21     1.0000 0.86834  0.26911  0.62821  Biso   1.000  Hf
  Hf22     1.0000 0.85849  0.76394  0.12853  Biso   1.000  Hf
  Hf23     1.0000 0.86782  0.76527  0.62432  Biso   1.000  Hf
  Hf24     1.0000 0.36509  0.48301  0.37561  Biso   1.000  Hf
  Hf25     1.0000 0.36611  0.48228  0.87595  Biso   1.000  Hf
  La2      1.0000 0.37523  0.99294  0.36879  Biso   1.000  La
  Hf26     1.0000 0.36962  0.98365  0.87326  Biso   1.000  Hf
  Hf27     1.0000 0.86563  0.48503  0.37791  Biso   1.000  Hf
  Hf28     1.0000 0.86692  0.48347  0.87731  Biso   1.000  Hf
  Hf29     1.0000 0.85965  0.98436  0.38174  Biso   1.000  Hf
  Hf30     1.0000 0.86390  0.98130  0.87332  Biso   1.000  Hf
  Hf31     1.0000 0.02013  0.19787  0.20695  Biso   1.000  Hf
  Hf32     1.0000 0.03840  0.18777  0.68765  Biso   1.000  Hf
  Hf33     1.0000 0.03270  0.68603  0.19581  Biso   1.000  Hf
  Hf34     1.0000 0.03672  0.68475  0.69515  Biso   1.000  Hf
  Hf35     1.0000 0.52842  0.17649  0.20223  Biso   1.000  Hf
  Hf36     1.0000 0.53614  0.18474  0.69753  Biso   1.000  Hf
  Hf37     1.0000 0.53431  0.67910  0.20055  Biso   1.000  Hf
  Hf38     1.0000 0.53600  0.67955  0.69632  Biso   1.000  Hf
  Hf39     1.0000 0.03606  0.06323  0.43859  Biso   1.000  Hf
  Hf40     1.0000 0.03077  0.07416  0.91870  Biso   1.000  Hf
  Hf41     1.0000 0.03444  0.56700  0.44798  Biso   1.000  Hf
  Hf42     1.0000 0.03302  0.57005  0.94554  Biso   1.000  Hf
  Hf43     1.0000 0.56083  0.07074  0.45623  Biso   1.000  Hf
  Hf44     1.0000 0.54216  0.06545  0.93837  Biso   1.000  Hf
  Hf45     1.0000 0.53766  0.55884  0.44599  Biso   1.000  Hf
  Hf46     1.0000 0.53237  0.56651  0.95025  Biso   1.000  Hf
  Hf47     1.0000 0.46512  0.43054  0.19657  Biso   1.000  Hf
  Hf48     1.0000 0.46590  0.43266  0.69715  Biso   1.000  Hf
  Hf49     1.0000 0.46361  0.92847  0.15935  Biso   1.000  Hf
  Hf50     1.0000 0.46538  0.93458  0.69125  Biso   1.000  Hf
  Hf51     1.0000 0.96114  0.43982  0.19627  Biso   1.000  Hf
  Hf52     1.0000 0.96735  0.43538  0.69948  Biso   1.000  Hf
  Hf53     1.0000 0.93098  0.93185  0.20050  Biso   1.000  Hf
  Hf54     1.0000 0.96214  0.93353  0.69264  Biso   1.000  Hf
  Hf55     1.0000 0.46247  0.31159  0.44489  Biso   1.000  Hf
  Hf56     1.0000 0.46659  0.31737  0.94569  Biso   1.000  Hf
  Hf57     1.0000 0.47151  0.80359  0.45674  Biso   1.000  Hf
  Hf58     1.0000 0.46768  0.81139  0.93171  Biso   1.000  Hf
  Hf59     1.0000 0.96386  0.32262  0.44984  Biso   1.000  Hf
  Hf60     1.0000 0.96574  0.31927  0.94806  Biso   1.000  Hf
  Hf61     1.0000 0.96151  0.81467  0.44324  Biso   1.000  Hf
  Hf62     1.0000 0.97216  0.82338  0.95561  Biso   1.000  Hf
  Hf63     1.0000 0.26233  0.14171  0.24650  Biso   1.000  Hf
  Hf64     1.0000 0.27219  0.11649  0.74777  Biso   1.000  Hf
  Hf65     1.0000 0.26859  0.61107  0.24828  Biso   1.000  Hf
  Hf66     1.0000 0.27015  0.61661  0.74972  Biso   1.000  Hf
  Hf67     1.0000 0.76471  0.11998  0.25317  Biso   1.000  Hf
  Hf68     1.0000 0.77247  0.11926  0.75254  Biso   1.000  Hf
  Hf69     1.0000 0.76926  0.61693  0.25059  Biso   1.000  Hf
  Hf70     1.0000 0.77175  0.61571  0.74947  Biso   1.000  Hf
  Hf71     1.0000 0.25710  0.14275  0.50750  Biso   1.000  Hf
  Hf72     1.0000 0.27636  0.13720  0.98978  Biso   1.000  Hf
  Hf73     1.0000 0.27259  0.63046  0.49990  Biso   1.000  Hf
  Hf74     1.0000 0.26815  0.62773  0.99730  Biso   1.000  Hf
  Hf75     1.0000 0.78059  0.13554  0.50387  Biso   1.000  Hf
  Hf76     1.0000 0.77098  0.13282  0.00127  Biso   1.000  Hf
  Hf77     1.0000 0.77068  0.63046  0.50137  Biso   1.000  Hf
  Hf78     1.0000 0.76866  0.63045  0.99973  Biso   1.000  Hf
  Hf79     1.0000 0.23151  0.38674  0.50000  Biso   1.000  Hf
  Hf80     1.0000 0.22955  0.38325  0.99927  Biso   1.000  Hf
  Hf81     1.0000 0.21941  0.87333  0.50532  Biso   1.000  Hf
  Hf82     1.0000 0.24196  0.87099  0.98758  Biso   1.000  Hf
  Hf83     1.0000 0.72978  0.38253  0.50084  Biso   1.000  Hf
  Hf84     1.0000 0.72791  0.38380  0.99927  Biso   1.000  Hf
  Hf85     1.0000 0.73083  0.88111  0.50524  Biso   1.000  Hf
  Hf86     1.0000 0.72993  0.87867  0.99972  Biso   1.000  Hf
  Hf87     1.0000 0.22508  0.37439  0.24988  Biso   1.000  Hf
  Hf88     1.0000 0.23170  0.36822  0.74843  Biso   1.000  Hf
  Hf89     1.0000 0.23838  0.84521  0.24722  Biso   1.000  Hf
  Hf90     1.0000 0.22983  0.86912  0.74822  Biso   1.000  Hf
  Hf91     1.0000 0.72851  0.36993  0.25030  Biso   1.000  Hf
  Hf92     1.0000 0.73134  0.36805  0.75063  Biso   1.000  Hf
  Hf93     1.0000 0.71235  0.86699  0.25320  Biso   1.000  Hf
  Hf94     1.0000 0.73249  0.86463  0.75133  Biso   1.000  Hf
