data_image0
_cell_length_a       10.2303
_cell_length_b       10.3344
_cell_length_c       10.5005
_cell_angle_alpha    90
_cell_angle_beta     80
_cell_angle_gamma    90

_symmetry_space_group_name_H-M    "P 1"
_symmetry_int_tables_number       1

loop_
  _symmetry_equiv_pos_as_xyz
  'x, y, z'

loop_
  _atom_site_label
  _atom_site_occupancy
  _atom_site_fract_x
  _atom_site_fract_y
  _atom_site_fract_z
  _atom_site_thermal_displace_type
  _atom_site_B_iso_or_equiv
  _atom_site_type_symbol
  La1      1.0000 0.13039  0.01239  0.14197  Biso   1.000  La
  Hf1      1.0000 0.13550  0.02232  0.64821  Biso   1.000  Hf
  Hf2      1.0000 0.13143  0.52053  0.14799  Biso   1.000  Hf
  Hf3      1.0000 0.12887  0.52063  0.64606  Biso   1.000  Hf
  Hf4      1.0000 0.63902  0.01937  0.14845  Biso   1.000  Hf
  Hf5      1.0000 0.63355  0.02160  0.64776  Biso   1.000  Hf
  Hf6      1.0000 0.63193  0.51863  0.14559  Biso   1.000  Hf
  Hf7      1.0000 0.63784  0.52030  0.64019  Biso   1.000  Hf
  Hf8      1.0000 0.13432  0.22858  0.39857  Biso   1.000  Hf
  Hf9      1.0000 0.12862  0.23409  0.89549  Biso   1.000  Hf
  Hf10     1.0000 0.13247  0.72604  0.39707  Biso   1.000  Hf
  Hf11     1.0000 0.12206  0.73186  0.89735  Biso   1.000  Hf
  Hf12     1.0000 0.63184  0.22892  0.39674  Biso   1.000  Hf
  Hf13     1.0000 0.63270  0.22576  0.89890  Biso   1.000  Hf
  Hf14     1.0000 0.62626  0.72584  0.39829  Biso   1.000  Hf
  Hf15     1.0000 0.63391  0.73300  0.89502  Biso   1.000  Hf
  Hf16     1.0000 0.35903  0.26529  0.10610  Biso   1.000  Hf
  Hf17     1.0000 0.35333  0.27081  0.60305  Biso   1.000  Hf
  Hf18     1.0000 0.35955  0.76749  0.10419  Biso   1.000  Hf
  Hf19     1.0000 0.34915  0.77332  0.60448  Biso   1.000  Hf
  Hf20     1.0000 0.85492  0.27360  0.10264  Biso   1.000  Hf
  Hf21     1.0000 0.85580  0.27047  0.60480  Biso   1.000  Hf
  Hf22     1.0000 0.84770  0.76640  0.10648  Biso   1.000  Hf
  Hf23     1.0000 0.85535  0.77352  0.60317  Biso   1.000  Hf
  Hf24     1.0000 0.35215  0.47704  0.35336  Biso   1.000  Hf
  La2      1.0000 0.35729  0.48701  0.85964  Biso   1.000  La
  Hf25     1.0000 0.35277  0.97877  0.35553  Biso   1.000  Hf
  Hf26     1.0000 0.35018  0.97886  0.85359  Biso   1.000  Hf
  Hf27     1.0000 0.85407  0.47777  0.35376  Biso   1.000  Hf
  Hf28     1.0000 0.84859  0.47998  0.85306  Biso   1.000  Hf
  Hf29     1.0000 0.84375  0.97909  0.36131  Biso   1.000  Hf
  Hf30     1.0000 0.84969  0.98075  0.85592  Biso   1.000  Hf
  Hf31     1.0000 0.02878  0.18659  0.07445  Biso   1.000  Hf
  Hf32     1.0000 0.03084  0.17226  0.58579  Biso   1.000  Hf
  Hf33     1.0000 0.02264  0.67098  0.08291  Biso   1.000  Hf
  Hf34     1.0000 0.02665  0.66895  0.57886  Biso   1.000  Hf
  Hf35     1.0000 0.53741  0.16590  0.08551  Biso   1.000  Hf
  Hf36     1.0000 0.52705  0.16514  0.58012  Biso   1.000  Hf
  Hf37     1.0000 0.53046  0.66412  0.07552  Biso   1.000  Hf
  Hf38     1.0000 0.52328  0.66547  0.58234  Biso   1.000  Hf
  Hf39     1.0000 0.01890  0.08607  0.34694  Biso   1.000  Hf
  Hf40     1.0000 0.02938  0.08164  0.83315  Biso   1.000  Hf
  Hf41     1.0000 0.02645  0.58283  0.33015  Biso   1.000  Hf
  Hf42     1.0000 0.02308  0.58006  0.83197  Biso   1.000  Hf
  Hf43     1.0000 0.53346  0.07764  0.33366  Biso   1.000  Hf
  Hf44     1.0000 0.53348  0.07619  0.83137  Biso   1.000  Hf
  Hf45     1.0000 0.52570  0.58050  0.32873  Biso   1.000  Hf
  Hf46     1.0000 0.55678  0.57844  0.82393  Biso   1.000  Hf
  Hf47     1.0000 0.45828  0.41770  0.16844  Biso   1.000  Hf
  Hf48     1.0000 0.46878  0.41326  0.65469  Biso   1.000  Hf
  Hf49     1.0000 0.45855  0.91928  0.16957  Biso   1.000  Hf
  Hf50     1.0000 0.45519  0.91651  0.67140  Biso   1.000  Hf
  Hf51     1.0000 0.95414  0.42320  0.17015  Biso   1.000  Hf
  Hf52     1.0000 0.95418  0.42175  0.66789  Biso   1.000  Hf
  Hf53     1.0000 0.92477  0.92106  0.17749  Biso   1.000  Hf
  Hf54     1.0000 0.95589  0.91892  0.67275  Biso   1.000  Hf
  Hf55     1.0000 0.45684  0.32717  0.41580  Biso   1.000  Hf
  Hf56     1.0000 0.45889  0.31282  0.92714  Biso   1.000  Hf
  Hf57     1.0000 0.45496  0.83043  0.42269  Biso   1.000  Hf
  Hf58     1.0000 0.45899  0.82845  0.91866  Biso   1.000  Hf
  Hf59     1.0000 0.96058  0.33423  0.42140  Biso   1.000  Hf
  Hf60     1.0000 0.95024  0.33347  0.91601  Biso   1.000  Hf
  Hf61     1.0000 0.95830  0.83382  0.41912  Biso   1.000  Hf
  Hf62     1.0000 0.95107  0.83515  0.92595  Biso   1.000  Hf
  Hf63     1.0000 0.27895  0.13291  0.25113  Biso   1.000  Hf
  Hf64     1.0000 0.27154  0.12862  0.74043  Biso   1.000  Hf
  Hf65     1.0000 0.27017  0.62302  0.24207  Biso   1.000  Hf
  Hf66     1.0000 0.25265  0.64063  0.73691  Biso   1.000  Hf
  Hf67     1.0000 0.77022  0.13148  0.24391  Biso   1.000  Hf
  Hf68     1.0000 0.77176  0.12750  0.74128  Biso   1.000  Hf
  Hf69     1.0000 0.76477  0.62733  0.24190  Biso   1.000  Hf
  Hf70     1.0000 0.77934  0.63150  0.73530  Biso   1.000  Hf
  Hf71     1.0000 0.26963  0.11976  0.49391  Biso   1.000  Hf
  Hf72     1.0000 0.27304  0.12626  0.98224  Biso   1.000  Hf
  Hf73     1.0000 0.26722  0.61997  0.49015  Biso   1.000  Hf
  Hf74     1.0000 0.25481  0.63066  0.00450  Biso   1.000  Hf
  Hf75     1.0000 0.76659  0.12234  0.49455  Biso   1.000  Hf
  Hf76     1.0000 0.76781  0.11941  0.99330  Biso   1.000  Hf
  Hf77     1.0000 0.76737  0.62150  0.48860  Biso   1.000  Hf
  Hf78     1.0000 0.76203  0.61998  0.99148  Biso   1.000  Hf
  Hf79     1.0000 0.21463  0.37310  0.01936  Biso   1.000  Hf
  Hf80     1.0000 0.21801  0.37958  0.50771  Biso   1.000  Hf
  Hf81     1.0000 0.22679  0.86868  0.99706  Biso   1.000  Hf
  Hf82     1.0000 0.21440  0.87934  0.51140  Biso   1.000  Hf
  Hf83     1.0000 0.71986  0.38001  0.00824  Biso   1.000  Hf
  Hf84     1.0000 0.72103  0.37709  0.50699  Biso   1.000  Hf
  Hf85     1.0000 0.71954  0.87943  0.01001  Biso   1.000  Hf
  Hf86     1.0000 0.71423  0.87790  0.51287  Biso   1.000  Hf
  Hf87     1.0000 0.21607  0.37082  0.26116  Biso   1.000  Hf
  Hf88     1.0000 0.20871  0.36653  0.75048  Biso   1.000  Hf
  Hf89     1.0000 0.22902  0.85875  0.26468  Biso   1.000  Hf
  Hf90     1.0000 0.21147  0.87635  0.75950  Biso   1.000  Hf
  Hf91     1.0000 0.71588  0.37186  0.26022  Biso   1.000  Hf
  Hf92     1.0000 0.71739  0.36787  0.75764  Biso   1.000  Hf
  Hf93     1.0000 0.70228  0.86780  0.26617  Biso   1.000  Hf
  Hf94     1.0000 0.71685  0.87198  0.75958  Biso   1.000  Hf
